# generated using pymatgen
data_Si2CO
_symmetry_space_group_name_H-M   'P 1'
_cell_length_a   9.92216370
_cell_length_b   9.18823614
_cell_length_c   6.65035121
_cell_angle_alpha   84.20166664
_cell_angle_beta   93.04956417
_cell_angle_gamma   98.28558376
_symmetry_Int_Tables_number   1
_chemical_formula_structural   Si2CO
_chemical_formula_sum   'Si2 C1 O1'
_cell_volume   596.43576423
_cell_formula_units_Z   1
loop_
 _symmetry_equiv_pos_site_id
 _symmetry_equiv_pos_as_xyz
  1  'x, y, z'
loop_
 _atom_site_type_symbol
 _atom_site_label
 _atom_site_symmetry_multiplicity
 _atom_site_fract_x
 _atom_site_fract_y
 _atom_site_fract_z
 _atom_site_occupancy
  O  O0  1  0.39563530  0.55213206  0.37365390  1
  Si  Si1  1  0.59640861  0.36817413  0.38293902  1
  Si  Si2  1  0.98883152  0.54749021  0.88840519  1
  C  C3  1  0.52570934  0.66025088  0.35859090  1
