# generated using pymatgen
data_Si2C2O
_symmetry_space_group_name_H-M   'P 1'
_cell_length_a   8.90549245
_cell_length_b   7.17556232
_cell_length_c   9.84054597
_cell_angle_alpha   97.29954262
_cell_angle_beta   87.57243986
_cell_angle_gamma   89.77538740
_symmetry_Int_Tables_number   1
_chemical_formula_structural   Si2C2O
_chemical_formula_sum   'Si2 C2 O1'
_cell_volume   623.14615646
_cell_formula_units_Z   1
loop_
 _symmetry_equiv_pos_site_id
 _symmetry_equiv_pos_as_xyz
  1  'x, y, z'
loop_
 _atom_site_type_symbol
 _atom_site_label
 _atom_site_symmetry_multiplicity
 _atom_site_fract_x
 _atom_site_fract_y
 _atom_site_fract_z
 _atom_site_occupancy
  O  O0  1  0.59236708  0.54268570  0.95594104  1
  Si  Si1  1  0.80601153  0.99415588  0.06534471  1
  Si  Si2  1  0.55205140  0.53592835  0.96415206  1
  C  C3  1  0.69581519  0.07306904  0.27206977  1
  C  C4  1  0.22776015  0.46414018  0.24149783  1
