# generated using pymatgen
data_Fe3SiO3
_symmetry_space_group_name_H-M   'P 1'
_cell_length_a   7.04536242
_cell_length_b   6.19298498
_cell_length_c   7.90465705
_cell_angle_alpha   89.80016216
_cell_angle_beta   89.18450429
_cell_angle_gamma   99.58444974
_symmetry_Int_Tables_number   1
_chemical_formula_structural   Fe3SiO3
_chemical_formula_sum   'Fe3 Si1 O3'
_cell_volume   340.03986200
_cell_formula_units_Z   1
loop_
 _symmetry_equiv_pos_site_id
 _symmetry_equiv_pos_as_xyz
  1  'x, y, z'
loop_
 _atom_site_type_symbol
 _atom_site_label
 _atom_site_symmetry_multiplicity
 _atom_site_fract_x
 _atom_site_fract_y
 _atom_site_fract_z
 _atom_site_occupancy
  Fe  Fe0  1  0.83927766  0.14193572  0.01812302  1
  O  O1  1  0.58024215  0.94482852  0.69139658  1
  Fe  Fe2  1  0.01315513  0.30466651  0.21101870  1
  O  O3  1  0.03190651  0.24840621  0.40585869  1
  O  O4  1  0.00469609  0.96009949  0.49168483  1
  Si  Si5  1  0.13907922  0.51800167  0.65658994  1
  Fe  Fe6  1  0.83444197  0.59225387  0.22022225  1
