# generated using pymatgen
data_Li3P2
_symmetry_space_group_name_H-M   'P 1'
_cell_length_a   3.40483772
_cell_length_b   3.40483772
_cell_length_c   20.57149733
_cell_angle_alpha   90.00000000
_cell_angle_beta   90.00000000
_cell_angle_gamma   120.00000000
_symmetry_Int_Tables_number   1
_chemical_formula_structural   Li3P2
_chemical_formula_sum   'Li6 P4'
_cell_volume   206.53296001
_cell_formula_units_Z   2
loop_
 _symmetry_equiv_pos_site_id
 _symmetry_equiv_pos_as_xyz
  1  'x, y, z'
loop_
 _atom_site_type_symbol
 _atom_site_label
 _atom_site_symmetry_multiplicity
 _atom_site_fract_x
 _atom_site_fract_y
 _atom_site_fract_z
 _atom_site_occupancy
  Li  Li0  1  0.00000000  0.00000000  0.00000000  1
  Li  Li1  1  0.00000000  0.00000000  0.50000000  1
  Li  Li2  1  0.00000000  0.00000000  0.25000000  1
  Li  Li3  1  0.00000000  0.00000000  0.75000000  1
  Li  Li4  1  0.33333333  0.66666667  0.75000000  1
  Li  Li5  1  0.66666667  0.33333333  0.25000000  1
  P  P6  1  0.33333333  0.66666667  0.21361307  1
  P  P7  1  0.66666667  0.33333333  0.71361307  1
  P  P8  1  0.66666667  0.33333333  -0.21361307  1
  P  P9  1  0.33333333  0.66666667  0.28638693  1
