# generated using pymatgen
data_Li6O
_symmetry_space_group_name_H-M   'P 1'
_cell_length_a   5.46856114
_cell_length_b   3.89226006
_cell_length_c   4.44220847
_cell_angle_alpha   91.08499827
_cell_angle_beta   110.08937638
_cell_angle_gamma   67.86440277
_symmetry_Int_Tables_number   1
_chemical_formula_structural   Li6O
_chemical_formula_sum   'Li6 O1'
_cell_volume   81.58874829
_cell_formula_units_Z   1
loop_
 _symmetry_equiv_pos_site_id
 _symmetry_equiv_pos_as_xyz
  1  'x, y, z'
loop_
 _atom_site_type_symbol
 _atom_site_label
 _atom_site_symmetry_multiplicity
 _atom_site_fract_x
 _atom_site_fract_y
 _atom_site_fract_z
 _atom_site_occupancy
  Li  Li0  1  0.35673709  0.51847258  0.75490095  1
  Li  Li1  1  0.37824166  0.30779457  0.25568344  1
  Li  Li2  1  0.54648581  0.26842825  0.10145172  1
  Li  Li3  1  0.35492355  0.92580077  0.54453707  1
  Li  Li4  1  0.77682310  0.81311402  0.60356696  1
  Li  Li5  1  0.95784570  0.28824671  0.98577269  1
  O  O6  1  0.97241391  0.71404329  0.21631246  1
