# generated using pymatgen
data_Li4O5
_symmetry_space_group_name_H-M   'P 1'
_cell_length_a   4.68006457
_cell_length_b   5.81836991
_cell_length_c   5.65547704
_cell_angle_alpha   89.70094926
_cell_angle_beta   64.74591379
_cell_angle_gamma   97.02213806
_symmetry_Int_Tables_number   1
_chemical_formula_structural   Li4O5
_chemical_formula_sum   'Li4 O5'
_cell_volume   137.95451104
_cell_formula_units_Z   1
loop_
 _symmetry_equiv_pos_site_id
 _symmetry_equiv_pos_as_xyz
  1  'x, y, z'
loop_
 _atom_site_type_symbol
 _atom_site_label
 _atom_site_symmetry_multiplicity
 _atom_site_fract_x
 _atom_site_fract_y
 _atom_site_fract_z
 _atom_site_occupancy
  Li  Li0  1  0.10080953  0.41208103  0.48197371  1
  Li  Li1  1  -0.10080953  -0.41208103  -0.48197371  1
  Li  Li2  1  0.47739390  0.89329998  0.46362980  1
  Li  Li3  1  0.52260610  0.10670002  0.53637020  1
  O  O4  1  0.00000000  0.00000000  0.50000000  1
  O  O5  1  0.12587678  0.12303897  0.50151165  1
  O  O6  1  0.87412322  0.87696103  0.49848835  1
  O  O7  1  0.50000000  0.50000000  0.00000000  1
  O  O8  1  0.00000000  0.50000000  0.00000000  1
