# generated using pymatgen
data_Li3ClO12
_symmetry_space_group_name_H-M   'P 1'
_cell_length_a   3.83761542
_cell_length_b   10.27992202
_cell_length_c   3.86946714
_cell_angle_alpha   104.29345619
_cell_angle_beta   115.93198523
_cell_angle_gamma   62.90034260
_symmetry_Int_Tables_number   1
_chemical_formula_structural   Li3ClO12
_chemical_formula_sum   'Li3 Cl1 O12'
_cell_volume   121.99366998
_cell_formula_units_Z   1
loop_
 _symmetry_equiv_pos_site_id
 _symmetry_equiv_pos_as_xyz
  1  'x, y, z'
loop_
 _atom_site_type_symbol
 _atom_site_label
 _atom_site_symmetry_multiplicity
 _atom_site_fract_x
 _atom_site_fract_y
 _atom_site_fract_z
 _atom_site_occupancy
  Cl  Cl0  1  0.74139250  0.52701569  0.16745712  1
  Li  Li1  1  0.36433116  0.07276309  0.64847743  1
  Li  Li2  1  0.22361985  0.29858728  0.73571371  1
  Li  Li3  1  0.59236067  0.74034251  0.09884722  1
  O  O4  1  0.46029164  0.31875069  0.52699760  1
  O  O5  1  0.95030486  0.95051931  0.69857996  1
  O  O6  1  0.38641919  0.19362434  0.16676461  1
  O  O7  1  0.61313404  0.96150822  0.85922174  1
  O  O8  1  0.85105199  0.21864781  0.01875443  1
  O  O9  1  0.79243887  0.61211134  0.79851857  1
  O  O10  1  0.01470874  0.87101489  0.69938880  1
  O  O11  1  0.44782222  0.31827508  0.32406373  1
  O  O12  1  0.12620419  0.39829177  0.33645921  1
  O  O13  1  0.19272982  0.90239678  0.06742448  1
  O  O14  1  0.75715788  0.36894426  0.11319891  1
  O  O15  1  0.42715106  0.36297223  0.08569892  1
