# generated using pymatgen
data_LiO2
_symmetry_space_group_name_H-M   'P 1'
_cell_length_a   3.88533559
_cell_length_b   3.13039826
_cell_length_c   7.61490963
_cell_angle_alpha   116.50386217
_cell_angle_beta   79.99692158
_cell_angle_gamma   83.63665919
_symmetry_Int_Tables_number   1
_chemical_formula_structural   LiO2
_chemical_formula_sum   'Li2 O4'
_cell_volume   79.73793861
_cell_formula_units_Z   2
loop_
 _symmetry_equiv_pos_site_id
 _symmetry_equiv_pos_as_xyz
  1  'x, y, z'
loop_
 _atom_site_type_symbol
 _atom_site_label
 _atom_site_symmetry_multiplicity
 _atom_site_fract_x
 _atom_site_fract_y
 _atom_site_fract_z
 _atom_site_occupancy
  Li  Li0  1  0.14561587  0.21526812  0.28377404  1
  Li  Li1  1  0.82220078  0.75059054  0.53426352  1
  O  O2  1  0.22777536  0.05007641  0.95975071  1
  O  O3  1  0.74025162  0.37781697  0.37391261  1
  O  O4  1  0.38277836  0.98187299  0.79129145  1
  O  O5  1  0.31587734  0.82575704  0.85335687  1
