# generated using pymatgen
data_LiLa3
_symmetry_space_group_name_H-M   'P 1'
_cell_length_a   9.11620105
_cell_length_b   8.99321083
_cell_length_c   4.72981127
_cell_angle_alpha   61.48942181
_cell_angle_beta   133.46113564
_cell_angle_gamma   148.00873634
_symmetry_Int_Tables_number   1
_chemical_formula_structural   LiLa3
_chemical_formula_sum   'Li1 La3'
_cell_volume   143.32841154
_cell_formula_units_Z   1
loop_
 _symmetry_equiv_pos_site_id
 _symmetry_equiv_pos_as_xyz
  1  'x, y, z'
loop_
 _atom_site_type_symbol
 _atom_site_label
 _atom_site_symmetry_multiplicity
 _atom_site_fract_x
 _atom_site_fract_y
 _atom_site_fract_z
 _atom_site_occupancy
  La  La0  1  0.31771537  0.78160104  0.23463967  1
  La  La1  1  0.13669751  0.12773225  0.00778404  1
  La  La2  1  0.78504226  0.62692852  0.96187723  1
  Li  Li3  1  0.74422302  0.92662806  0.26278191  1
