# generated using pymatgen
data_Li2O
_symmetry_space_group_name_H-M   'P 1'
_cell_length_a   9.19224889
_cell_length_b   7.69532162
_cell_length_c   3.35454857
_cell_angle_alpha   73.06016185
_cell_angle_beta   127.22225482
_cell_angle_gamma   118.24685691
_symmetry_Int_Tables_number   1
_chemical_formula_structural   Li2O
_chemical_formula_sum   'Li8 O4'
_cell_volume   166.44857542
_cell_formula_units_Z   4
loop_
 _symmetry_equiv_pos_site_id
 _symmetry_equiv_pos_as_xyz
  1  'x, y, z'
loop_
 _atom_site_type_symbol
 _atom_site_label
 _atom_site_symmetry_multiplicity
 _atom_site_fract_x
 _atom_site_fract_y
 _atom_site_fract_z
 _atom_site_occupancy
  Li  Li0  1  0.76461019  0.85235718  0.48244004  1
  Li  Li1  1  0.56853149  0.59522364  0.91101839  1
  Li  Li2  1  0.48872266  0.15791370  0.57839750  1
  Li  Li3  1  0.94950330  0.56795142  0.35815985  1
  Li  Li4  1  0.81183790  0.96457801  0.08788977  1
  Li  Li5  1  0.16864025  0.43473228  0.35884870  1
  Li  Li6  1  0.05120349  0.10208974  0.81625221  1
  Li  Li7  1  0.24788733  0.83924012  0.61063511  1
  O  O8  1  0.29334694  0.53441763  0.83215947  1
  O  O9  1  0.64945720  0.23323327  0.47323270  1
  O  O10  1  0.53437602  0.83646853  0.45010508  1
  O  O11  1  0.42912144  0.45702641  0.62738947  1
