# generated using pymatgen
data_Li2O2
_symmetry_space_group_name_H-M   'P 1'
_cell_length_a   4.67059580
_cell_length_b   3.73586937
_cell_length_c   5.65661907
_cell_angle_alpha   89.35654800
_cell_angle_beta   98.70652255
_cell_angle_gamma   57.15011341
_symmetry_Int_Tables_number   1
_chemical_formula_structural   Li2O2
_chemical_formula_sum   'Li2 O2'
_cell_volume   81.44314076
_cell_formula_units_Z   1
loop_
 _symmetry_equiv_pos_site_id
 _symmetry_equiv_pos_as_xyz
  1  'x, y, z'
loop_
 _atom_site_type_symbol
 _atom_site_label
 _atom_site_symmetry_multiplicity
 _atom_site_fract_x
 _atom_site_fract_y
 _atom_site_fract_z
 _atom_site_occupancy
  Li  Li0  1  0.37997270  0.69472222  0.04921788  1
  Li  Li1  1  0.69558165  0.92337848  0.92581706  1
  O  O2  1  0.77693189  0.35233386  0.29842423  1
  O  O3  1  0.06351375  0.43430481  0.84031835  1
