# generated using pymatgen
data_Li3O5
_symmetry_space_group_name_H-M   'P 1'
_cell_length_a   3.49684812
_cell_length_b   5.85713438
_cell_length_c   7.50245010
_cell_angle_alpha   79.86749087
_cell_angle_beta   94.62920897
_cell_angle_gamma   119.68087684
_symmetry_Int_Tables_number   1
_chemical_formula_structural   Li3O5
_chemical_formula_sum   'Li3 O5'
_cell_volume   131.41479996
_cell_formula_units_Z   1
loop_
 _symmetry_equiv_pos_site_id
 _symmetry_equiv_pos_as_xyz
  1  'x, y, z'
loop_
 _atom_site_type_symbol
 _atom_site_label
 _atom_site_symmetry_multiplicity
 _atom_site_fract_x
 _atom_site_fract_y
 _atom_site_fract_z
 _atom_site_occupancy
  Li  Li0  1  0.45970666  0.79239449  0.95266812  1
  Li  Li1  1  0.03198759  0.65989256  0.59626518  1
  Li  Li2  1  0.52840516  0.82767013  0.36552480  1
  O  O3  1  0.73637614  0.13923937  0.33387250  1
  O  O4  1  0.32711475  0.51299808  0.49888619  1
  O  O5  1  0.55581063  0.08673073  0.21356538  1
  O  O6  1  0.35879429  0.40319451  0.44723502  1
  O  O7  1  0.10431955  0.92259900  0.99842980  1
