# generated using pymatgen
data_Li3Zr2F2
_symmetry_space_group_name_H-M   'P 1'
_cell_length_a   6.97835475
_cell_length_b   5.90526757
_cell_length_c   6.08947892
_cell_angle_alpha   90.00000000
_cell_angle_beta   78.71101863
_cell_angle_gamma   90.00000000
_symmetry_Int_Tables_number   1
_chemical_formula_structural   Li3Zr2F2
_chemical_formula_sum   'Li6 Zr4 F4'
_cell_volume   246.08651553
_cell_formula_units_Z   2
loop_
 _symmetry_equiv_pos_site_id
 _symmetry_equiv_pos_as_xyz
  1  'x, y, z'
loop_
 _atom_site_type_symbol
 _atom_site_label
 _atom_site_symmetry_multiplicity
 _atom_site_fract_x
 _atom_site_fract_y
 _atom_site_fract_z
 _atom_site_occupancy
  F  F0  1  0.26910977  0.21589591  0.64779626  1
  F  F1  1  0.73089023  0.71589591  0.85220374  1
  F  F2  1  0.73089023  0.78410409  0.35220374  1
  F  F3  1  0.26910977  0.28410409  0.14779626  1
  Li  Li4  1  0.22099215  0.98954071  0.69575702  1
  Li  Li5  1  -0.22099215  1.48954071  -0.19575702  1
  Li  Li6  1  -0.22099215  -0.98954071  -0.69575702  1
  Li  Li7  1  0.22099215  -0.48954071  1.19575702  1
  Li  Li8  1  0.00000000  0.00000000  0.00000000  1
  Li  Li9  1  0.00000000  0.50000000  0.50000000  1
  Zr  Zr10  1  0.49680795  0.47490426  0.65504106  1
  Zr  Zr11  1  0.50319205  0.97490426  0.84495894  1
  Zr  Zr12  1  0.50319205  0.52509574  0.34495894  1
  Zr  Zr13  1  0.49680795  0.02509574  0.15504106  1
