# generated using pymatgen
data_Li5O3
_symmetry_space_group_name_H-M   'P 1'
_cell_length_a   5.69125001
_cell_length_b   7.52037397
_cell_length_c   3.41276371
_cell_angle_alpha   108.71736869
_cell_angle_beta   77.71613192
_cell_angle_gamma   79.25757960
_symmetry_Int_Tables_number   1
_chemical_formula_structural   Li5O3
_chemical_formula_sum   'Li5 O3'
_cell_volume   129.95601072
_cell_formula_units_Z   1
loop_
 _symmetry_equiv_pos_site_id
 _symmetry_equiv_pos_as_xyz
  1  'x, y, z'
loop_
 _atom_site_type_symbol
 _atom_site_label
 _atom_site_symmetry_multiplicity
 _atom_site_fract_x
 _atom_site_fract_y
 _atom_site_fract_z
 _atom_site_occupancy
  Li  Li0  1  0.47501962  0.58528247  0.14514210  1
  Li  Li1  1  0.25676049  0.17048691  0.74537116  1
  Li  Li2  1  0.23795055  0.64971725  0.85529263  1
  Li  Li3  1  0.93528237  0.67923431  0.59294476  1
  Li  Li4  1  0.44435789  0.23133669  0.90862570  1
  O  O5  1  0.50633507  0.95198604  0.31363122  1
  O  O6  1  0.68817618  0.10462461  0.26105421  1
  O  O7  1  0.18308086  0.22397184  0.42172733  1
