# generated using pymatgen
data_Li2O
_symmetry_space_group_name_H-M   'P 1'
_cell_length_a   7.30993356
_cell_length_b   4.30637142
_cell_length_c   7.31024943
_cell_angle_alpha   94.02210544
_cell_angle_beta   100.39341756
_cell_angle_gamma   121.15084223
_symmetry_Int_Tables_number   1
_chemical_formula_structural   Li2O
_chemical_formula_sum   'Li8 O4'
_cell_volume   190.02100497
_cell_formula_units_Z   4
loop_
 _symmetry_equiv_pos_site_id
 _symmetry_equiv_pos_as_xyz
  1  'x, y, z'
loop_
 _atom_site_type_symbol
 _atom_site_label
 _atom_site_symmetry_multiplicity
 _atom_site_fract_x
 _atom_site_fract_y
 _atom_site_fract_z
 _atom_site_occupancy
  Li  Li0  1  0.59653515  0.55197773  0.74493308  1
  Li  Li1  1  0.00880022  0.39297659  0.60778412  1
  Li  Li2  1  0.48500489  0.13607244  0.64929134  1
  Li  Li3  1  0.09479265  0.12238559  0.80302861  1
  Li  Li4  1  0.85420480  0.47196090  0.54871686  1
  Li  Li5  1  0.36334518  0.24259339  0.52609420  1
  Li  Li6  1  0.88052418  0.19716128  0.89356343  1
  Li  Li7  1  0.69789024  0.95311006  0.05336275  1
  O  O8  1  0.46861368  0.29276413  0.17932966  1
  O  O9  1  0.97504450  0.75188119  0.67443896  1
  O  O10  1  0.91791777  0.19519529  0.07755356  1
  O  O11  1  0.07291785  0.15813635  0.02812370  1
