# generated using pymatgen
data_Li8O7
_symmetry_space_group_name_H-M   'P 1'
_cell_length_a   4.09995239
_cell_length_b   7.22694387
_cell_length_c   6.20465508
_cell_angle_alpha   85.30815590
_cell_angle_beta   84.08480054
_cell_angle_gamma   118.16299363
_symmetry_Int_Tables_number   1
_chemical_formula_structural   Li8O7
_chemical_formula_sum   'Li8 O7'
_cell_volume   159.42261402
_cell_formula_units_Z   1
loop_
 _symmetry_equiv_pos_site_id
 _symmetry_equiv_pos_as_xyz
  1  'x, y, z'
loop_
 _atom_site_type_symbol
 _atom_site_label
 _atom_site_symmetry_multiplicity
 _atom_site_fract_x
 _atom_site_fract_y
 _atom_site_fract_z
 _atom_site_occupancy
  Li  Li0  1  0.00105504  0.12447746  0.08185608  1
  Li  Li1  1  0.34774768  0.97338278  0.61224043  1
  Li  Li2  1  0.89895804  0.13826981  0.32502281  1
  Li  Li3  1  0.82582578  0.62783582  0.49520671  1
  Li  Li4  1  0.25519220  0.55145658  0.53075772  1
  Li  Li5  1  0.79150393  0.37564569  0.96174897  1
  Li  Li6  1  0.22585608  0.37956791  0.42610346  1
  Li  Li7  1  0.51277365  0.74347588  0.68326799  1
  O  O8  1  0.80262976  0.20821554  0.82170799  1
  O  O9  1  0.83260181  0.04590203  0.75730074  1
  O  O10  1  0.65285080  0.41771152  0.63408621  1
  O  O11  1  0.26101789  0.95744282  0.38717156  1
  O  O12  1  0.88325794  0.90081412  0.57791544  1
  O  O13  1  0.25185743  0.80665424  0.60930335  1
  O  O14  1  0.39975906  0.14341491  0.28746971  1
