# generated using pymatgen
data_Li2O2
_symmetry_space_group_name_H-M   'P 1'
_cell_length_a   4.38545208
_cell_length_b   2.67236489
_cell_length_c   6.38862616
_cell_angle_alpha   72.43575428
_cell_angle_beta   85.00760320
_cell_angle_gamma   71.63342906
_symmetry_Int_Tables_number   1
_chemical_formula_structural   Li2O2
_chemical_formula_sum   'Li3 O3'
_cell_volume   67.74226115
_cell_formula_units_Z   1
loop_
 _symmetry_equiv_pos_site_id
 _symmetry_equiv_pos_as_xyz
  1  'x, y, z'
loop_
 _atom_site_type_symbol
 _atom_site_label
 _atom_site_symmetry_multiplicity
 _atom_site_fract_x
 _atom_site_fract_y
 _atom_site_fract_z
 _atom_site_occupancy
  Li  Li0  1  0.25770146  0.55526282  0.65621760  1
  Li  Li1  1  0.85056968  0.58220418  0.50372873  1
  Li  Li2  1  0.03274665  0.15597340  0.40360352  1
  O  O3  1  0.89700632  0.48106291  0.01683276  1
  O  O4  1  0.88848349  0.08214882  0.88315913  1
  O  O5  1  0.20008284  0.39994084  0.84014795  1
