# generated using pymatgen
data_LiCl2
_symmetry_space_group_name_H-M   'P 1'
_cell_length_a   7.81773016
_cell_length_b   3.99110519
_cell_length_c   2.46049842
_cell_angle_alpha   90.00000000
_cell_angle_beta   86.09337643
_cell_angle_gamma   90.00000000
_symmetry_Int_Tables_number   1
_chemical_formula_structural   LiCl2
_chemical_formula_sum   'Li2 Cl4'
_cell_volume   76.59257038
_cell_formula_units_Z   2
loop_
 _symmetry_equiv_pos_site_id
 _symmetry_equiv_pos_as_xyz
  1  'x, y, z'
loop_
 _atom_site_type_symbol
 _atom_site_label
 _atom_site_symmetry_multiplicity
 _atom_site_fract_x
 _atom_site_fract_y
 _atom_site_fract_z
 _atom_site_occupancy
  Cl  Cl0  1  0.21987591  0.32598479  0.82904095  1
  Cl  Cl1  1  -0.21987591  0.82598479  -0.32904095  1
  Cl  Cl2  1  -0.21987591  -0.32598479  -0.82904095  1
  Cl  Cl3  1  0.21987591  0.17401521  1.32904095  1
  Li  Li4  1  0.50000000  -0.00000000  0.50000000  1
  Li  Li5  1  0.50000000  0.50000000  -0.00000000  1
