# generated using pymatgen
data_Li3P2
_symmetry_space_group_name_H-M   'P 1'
_cell_length_a   3.64856004
_cell_length_b   5.19015702
_cell_length_c   5.52374416
_cell_angle_alpha   94.48379906
_cell_angle_beta   64.86623310
_cell_angle_gamma   75.58788648
_symmetry_Int_Tables_number   1
_chemical_formula_structural   Li3P2
_chemical_formula_sum   'Li3 P2'
_cell_volume   89.67739848
_cell_formula_units_Z   1
loop_
 _symmetry_equiv_pos_site_id
 _symmetry_equiv_pos_as_xyz
  1  'x, y, z'
loop_
 _atom_site_type_symbol
 _atom_site_label
 _atom_site_symmetry_multiplicity
 _atom_site_fract_x
 _atom_site_fract_y
 _atom_site_fract_z
 _atom_site_occupancy
  Li  Li0  1  0.44114704  0.23444429  0.85753456  1
  Li  Li1  1  -0.44114704  -0.23444429  -0.85753456  1
  Li  Li2  1  0.50000000  0.50000000  0.50000000  1
  P  P3  1  0.57928353  0.18619291  0.56179071  1
  P  P4  1  0.42071647  0.81380709  0.43820929  1
