# generated using pymatgen
data_Li2TiS2O3
_symmetry_space_group_name_H-M   'P 1'
_cell_length_a   9.10623661
_cell_length_b   9.66531062
_cell_length_c   5.16222234
_cell_angle_alpha   90.00000000
_cell_angle_beta   90.00000000
_cell_angle_gamma   90.00000000
_symmetry_Int_Tables_number   1
_chemical_formula_structural   Li2TiS2O3
_chemical_formula_sum   'Li8 Ti4 S8 O12'
_cell_volume   454.35096260
_cell_formula_units_Z   4
loop_
 _symmetry_equiv_pos_site_id
 _symmetry_equiv_pos_as_xyz
  1  'x, y, z'
loop_
 _atom_site_type_symbol
 _atom_site_label
 _atom_site_symmetry_multiplicity
 _atom_site_fract_x
 _atom_site_fract_y
 _atom_site_fract_z
 _atom_site_occupancy
  Li  Li0  1  0.00000000  0.00000000  0.00000000  1
  Li  Li1  1  0.50000000  0.00000000  0.50000000  1
  Li  Li2  1  0.00000000  0.50000000  0.00000000  1
  Li  Li3  1  0.50000000  0.50000000  0.50000000  1
  Li  Li4  1  0.00000000  0.00000000  0.50000000  1
  Li  Li5  1  0.50000000  0.00000000  -0.00000000  1
  Li  Li6  1  0.00000000  0.50000000  0.50000000  1
  Li  Li7  1  0.50000000  0.50000000  0.00000000  1
  O  O8  1  0.12562172  0.64674780  0.76452013  1
  O  O9  1  0.37437828  -0.64674780  1.26452013  1
  O  O10  1  -0.12562172  1.14674780  -0.76452013  1
  O  O11  1  0.62562172  -0.14674780  -0.26452013  1
  O  O12  1  -0.12562172  -0.64674780  -0.76452013  1
  O  O13  1  0.62562172  0.64674780  -0.26452013  1
  O  O14  1  0.12562172  -0.14674780  0.76452013  1
  O  O15  1  0.37437828  1.14674780  1.26452013  1
  O  O16  1  0.91697500  0.25000000  0.62258150  1
  O  O17  1  0.58302500  0.75000000  0.12258150  1
  O  O18  1  0.08302500  0.75000000  0.37741850  1
  O  O19  1  0.41697500  0.25000000  0.87741850  1
  S  S20  1  0.73462028  0.56552751  0.64772935  1
  S  S21  1  0.76537972  0.43447249  0.14772935  1
  S  S22  1  0.26537972  0.06552751  0.35227065  1
  S  S23  1  0.23462028  0.93447249  0.85227065  1
  S  S24  1  0.26537972  0.43447249  0.35227065  1
  S  S25  1  0.23462028  0.56552751  0.85227065  1
  S  S26  1  0.73462028  0.93447249  0.64772935  1
  S  S27  1  0.76537972  0.06552751  0.14772935  1
  Ti  Ti28  1  0.60045698  0.25000000  0.34202489  1
  Ti  Ti29  1  0.89954302  0.75000000  0.84202489  1
  Ti  Ti30  1  0.39954302  0.75000000  0.65797511  1
  Ti  Ti31  1  0.10045698  0.25000000  0.15797511  1
