# generated using pymatgen
data_Li5(S2F3)2
_symmetry_space_group_name_H-M   'P 1'
_cell_length_a   6.64196772
_cell_length_b   4.52213169
_cell_length_c   15.17191266
_cell_angle_alpha   46.63610501
_cell_angle_beta   94.81787293
_cell_angle_gamma   59.75957588
_symmetry_Int_Tables_number   1
_chemical_formula_structural   Li5(S2F3)2
_chemical_formula_sum   'Li5 S4 F6'
_cell_volume   208.70687594
_cell_formula_units_Z   1
loop_
 _symmetry_equiv_pos_site_id
 _symmetry_equiv_pos_as_xyz
  1  'x, y, z'
loop_
 _atom_site_type_symbol
 _atom_site_label
 _atom_site_symmetry_multiplicity
 _atom_site_fract_x
 _atom_site_fract_y
 _atom_site_fract_z
 _atom_site_occupancy
  F  F0  1  0.55069874  0.32789531  0.68136008  1
  F  F1  1  0.44930126  0.67210469  0.31863992  1
  F  F2  1  0.60472100  0.05239200  0.30886093  1
  F  F3  1  0.39527900  0.94760800  0.69113907  1
  F  F4  1  0.75919660  0.15587099  0.20047846  1
  F  F5  1  0.24080340  0.84412901  0.79952154  1
  Li  Li6  1  0.00000000  0.50000000  0.50000000  1
  Li  Li7  1  0.97512342  0.51693581  0.60539561  1
  Li  Li8  1  -0.97512342  -0.51693581  -0.60539561  1
  Li  Li9  1  0.25855365  0.74937861  0.02447971  1
  Li  Li10  1  0.74144635  0.25062139  0.97552029  1
  S  S11  1  0.57998257  0.08842087  0.61110348  1
  S  S12  1  0.42001743  0.91157913  0.38889652  1
  S  S13  1  0.88050976  0.36870863  0.41174033  1
  S  S14  1  0.11949024  0.63129137  0.58825967  1
