# generated using pymatgen
data_Li5S5O2
_symmetry_space_group_name_H-M   'P 1'
_cell_length_a   7.29057562
_cell_length_b   6.06186963
_cell_length_c   6.84938758
_cell_angle_alpha   60.03207250
_cell_angle_beta   124.85806713
_cell_angle_gamma   86.62152813
_symmetry_Int_Tables_number   1
_chemical_formula_structural   Li5S5O2
_chemical_formula_sum   'Li5 S5 O2'
_cell_volume   188.23754394
_cell_formula_units_Z   1
loop_
 _symmetry_equiv_pos_site_id
 _symmetry_equiv_pos_as_xyz
  1  'x, y, z'
loop_
 _atom_site_type_symbol
 _atom_site_label
 _atom_site_symmetry_multiplicity
 _atom_site_fract_x
 _atom_site_fract_y
 _atom_site_fract_z
 _atom_site_occupancy
  Li  Li0  1  0.09489061  0.28347331  0.65417846  1
  Li  Li1  1  0.70079744  0.56074786  0.37462525  1
  Li  Li2  1  0.78079014  0.38531543  0.87012240  1
  Li  Li3  1  0.18712723  0.75104979  0.81139366  1
  Li  Li4  1  0.59732428  0.18725489  0.57338352  1
  O  O5  1  0.36054123  0.70295436  0.77378217  1
  O  O6  1  0.99749537  0.54192137  0.55027454  1
  S  S7  1  0.15119277  0.96439433  0.99145859  1
  S  S8  1  0.55350136  0.90141070  0.31129815  1
  S  S9  1  0.76475476  0.29790516  0.48169714  1
  S  S10  1  0.37814251  0.45515993  0.76605643  1
  S  S11  1  0.35125127  0.19218344  0.08658966  1
