# generated using pymatgen
data_Li5O4
_symmetry_space_group_name_H-M   'P 1'
_cell_length_a   4.41099807
_cell_length_b   7.39542030
_cell_length_c   3.51802289
_cell_angle_alpha   106.39825581
_cell_angle_beta   73.63862889
_cell_angle_gamma   97.67629682
_symmetry_Int_Tables_number   1
_chemical_formula_structural   Li5O4
_chemical_formula_sum   'Li5 O4'
_cell_volume   105.45322400
_cell_formula_units_Z   1
loop_
 _symmetry_equiv_pos_site_id
 _symmetry_equiv_pos_as_xyz
  1  'x, y, z'
loop_
 _atom_site_type_symbol
 _atom_site_label
 _atom_site_symmetry_multiplicity
 _atom_site_fract_x
 _atom_site_fract_y
 _atom_site_fract_z
 _atom_site_occupancy
  Li  Li0  1  0.99098005  0.68649361  0.14458385  1
  Li  Li1  1  -0.99098005  -0.68649361  -0.14458385  1
  Li  Li2  1  0.69104919  0.42972216  0.12981316  1
  Li  Li3  1  0.30895081  0.57027784  0.87018684  1
  Li  Li4  1  0.00000000  0.00000000  0.00000000  1
  O  O5  1  0.00000000  0.50000000  0.50000000  1
  O  O6  1  0.75277090  0.11129779  0.70212161  1
  O  O7  1  0.24722910  0.88870221  0.29787839  1
  O  O8  1  0.50000000  0.00000000  0.00000000  1
