# generated using pymatgen
data_LiAlCl6
_symmetry_space_group_name_H-M   'P 1'
_cell_length_a   7.48531553
_cell_length_b   4.55775048
_cell_length_c   4.30632374
_cell_angle_alpha   121.24231629
_cell_angle_beta   89.71391377
_cell_angle_gamma   102.63856529
_symmetry_Int_Tables_number   1
_chemical_formula_structural   LiAlCl6
_chemical_formula_sum   'Li1 Al1 Cl6'
_cell_volume   121.52560486
_cell_formula_units_Z   1
loop_
 _symmetry_equiv_pos_site_id
 _symmetry_equiv_pos_as_xyz
  1  'x, y, z'
loop_
 _atom_site_type_symbol
 _atom_site_label
 _atom_site_symmetry_multiplicity
 _atom_site_fract_x
 _atom_site_fract_y
 _atom_site_fract_z
 _atom_site_occupancy
  Al  Al0  1  0.03282218  0.96870254  0.65716787  1
  Cl  Cl1  1  0.34307098  0.82258052  0.33611751  1
  Cl  Cl2  1  0.28144333  0.17771614  0.41442522  1
  Cl  Cl3  1  0.07809135  0.90679003  0.08246688  1
  Cl  Cl4  1  0.29654413  0.67090892  0.71205174  1
  Cl  Cl5  1  0.29173234  0.41375411  0.93543560  1
  Cl  Cl6  1  0.64409796  0.80945055  0.47839930  1
  Li  Li7  1  0.38003668  0.00807058  0.78092867  1
