# generated using pymatgen
data_LiAl3PO2
_symmetry_space_group_name_H-M   'P 1'
_cell_length_a   5.33729617
_cell_length_b   3.45125222
_cell_length_c   7.06645569
_cell_angle_alpha   104.06014351
_cell_angle_beta   49.87904946
_cell_angle_gamma   76.99215727
_symmetry_Int_Tables_number   1
_chemical_formula_structural   LiAl3PO2
_chemical_formula_sum   'Li1 Al3 P1 O2'
_cell_volume   82.79526519
_cell_formula_units_Z   1
loop_
 _symmetry_equiv_pos_site_id
 _symmetry_equiv_pos_as_xyz
  1  'x, y, z'
loop_
 _atom_site_type_symbol
 _atom_site_label
 _atom_site_symmetry_multiplicity
 _atom_site_fract_x
 _atom_site_fract_y
 _atom_site_fract_z
 _atom_site_occupancy
  Al  Al0  1  0.54632104  0.01913766  0.24989741  1
  Al  Al1  1  -0.54632104  -0.01913766  -0.24989741  1
  Al  Al2  1  0.00000000  0.00000000  0.00000000  1
  Li  Li3  1  0.50000000  0.50000000  -0.00000000  1
  O  O4  1  0.50000000  0.50000000  0.50000000  1
  O  O5  1  0.50000000  0.00000000  0.50000000  1
  P  P6  1  0.00000000  0.50000000  0.50000000  1
