# generated using pymatgen
data_Li7O3
_symmetry_space_group_name_H-M   'P 1'
_cell_length_a   6.35732021
_cell_length_b   6.66446676
_cell_length_c   5.35909849
_cell_angle_alpha   128.43648462
_cell_angle_beta   74.73282157
_cell_angle_gamma   118.51578409
_symmetry_Int_Tables_number   1
_chemical_formula_structural   Li7O3
_chemical_formula_sum   'Li7 O3'
_cell_volume   156.09105507
_cell_formula_units_Z   1
loop_
 _symmetry_equiv_pos_site_id
 _symmetry_equiv_pos_as_xyz
  1  'x, y, z'
loop_
 _atom_site_type_symbol
 _atom_site_label
 _atom_site_symmetry_multiplicity
 _atom_site_fract_x
 _atom_site_fract_y
 _atom_site_fract_z
 _atom_site_occupancy
  Li  Li0  1  0.16723115  0.50528799  0.22769549  1
  Li  Li1  1  0.52345226  0.08414629  0.06801287  1
  Li  Li2  1  0.98560525  0.58412023  0.53392959  1
  Li  Li3  1  0.86480633  0.55332862  0.28416138  1
  Li  Li4  1  0.14034321  0.86382113  0.77730305  1
  Li  Li5  1  0.71261962  0.02136261  0.99236519  1
  Li  Li6  1  0.30735800  0.99643854  0.51597595  1
  O  O7  1  0.58887588  0.05143062  0.46475428  1
  O  O8  1  0.99997770  0.29027462  0.64205759  1
  O  O9  1  0.00760075  0.17468303  0.73360345  1
