# generated using pymatgen
data_LiO2
_symmetry_space_group_name_H-M   'P 1'
_cell_length_a   2.66039779
_cell_length_b   3.64272891
_cell_length_c   4.42570821
_cell_angle_alpha   71.89869147
_cell_angle_beta   103.79919959
_cell_angle_gamma   78.48483510
_symmetry_Int_Tables_number   1
_chemical_formula_structural   LiO2
_chemical_formula_sum   'Li1 O2'
_cell_volume   37.80983074
_cell_formula_units_Z   1
loop_
 _symmetry_equiv_pos_site_id
 _symmetry_equiv_pos_as_xyz
  1  'x, y, z'
loop_
 _atom_site_type_symbol
 _atom_site_label
 _atom_site_symmetry_multiplicity
 _atom_site_fract_x
 _atom_site_fract_y
 _atom_site_fract_z
 _atom_site_occupancy
  Li  Li0  1  0.50000000  0.00000000  0.50000000  1
  O  O1  1  0.63877756  0.45748317  0.86863765  1
  O  O2  1  -0.63877756  -0.45748317  -0.86863765  1
