# generated using pymatgen
data_Li8S3
_symmetry_space_group_name_H-M   'P 1'
_cell_length_a   5.43058239
_cell_length_b   4.26897194
_cell_length_c   5.79526913
_cell_angle_alpha   74.87977125
_cell_angle_beta   89.03866669
_cell_angle_gamma   89.61707925
_symmetry_Int_Tables_number   1
_chemical_formula_structural   Li8S3
_chemical_formula_sum   'Li8 S3'
_cell_volume   129.68194318
_cell_formula_units_Z   1
loop_
 _symmetry_equiv_pos_site_id
 _symmetry_equiv_pos_as_xyz
  1  'x, y, z'
loop_
 _atom_site_type_symbol
 _atom_site_label
 _atom_site_symmetry_multiplicity
 _atom_site_fract_x
 _atom_site_fract_y
 _atom_site_fract_z
 _atom_site_occupancy
  Li  Li0  1  0.23187227  0.94084070  0.21620441  1
  Li  Li1  1  0.36458886  0.11724073  0.70028002  1
  Li  Li2  1  0.02798689  0.95740598  0.44963732  1
  Li  Li3  1  0.08477634  0.22034045  0.01540977  1
  Li  Li4  1  0.56374723  0.62484271  0.85837502  1
  Li  Li5  1  0.81290901  0.65006729  0.65669411  1
  Li  Li6  1  0.92665759  0.73988018  0.05274129  1
  Li  Li7  1  0.44273340  0.15162480  0.29578542  1
  S  S8  1  0.28545814  0.52500007  0.75434406  1
  S  S9  1  0.88833053  0.74924993  0.33265235  1
  S  S10  1  0.29290857  0.48247566  0.24632984  1
