# generated using pymatgen
data_Li5O4
_symmetry_space_group_name_H-M   'P 1'
_cell_length_a   4.17001959
_cell_length_b   12.72965630
_cell_length_c   4.03465303
_cell_angle_alpha   97.07226831
_cell_angle_beta   66.67618786
_cell_angle_gamma   72.21673204
_symmetry_Int_Tables_number   1
_chemical_formula_structural   Li5O4
_chemical_formula_sum   'Li5 O4'
_cell_volume   179.83067679
_cell_formula_units_Z   1
loop_
 _symmetry_equiv_pos_site_id
 _symmetry_equiv_pos_as_xyz
  1  'x, y, z'
loop_
 _atom_site_type_symbol
 _atom_site_label
 _atom_site_symmetry_multiplicity
 _atom_site_fract_x
 _atom_site_fract_y
 _atom_site_fract_z
 _atom_site_occupancy
  Li  Li0  1  0.42496800  0.13099188  0.42770842  1
  Li  Li1  1  0.46595168  0.76420258  0.21842796  1
  Li  Li2  1  0.92615036  0.73817218  0.02051562  1
  Li  Li3  1  0.06215130  0.51902532  0.63377458  1
  Li  Li4  1  0.87105629  0.62565736  0.28050018  1
  O  O5  1  0.12474787  0.90627740  0.98507076  1
  O  O6  1  0.30692063  0.50960089  0.15222831  1
  O  O7  1  0.98723711  0.24676041  0.38963694  1
  O  O8  1  0.61285280  0.26977272  0.64407258  1
