# generated using pymatgen
data_LiO3
_symmetry_space_group_name_H-M   'P 1'
_cell_length_a   5.41648267
_cell_length_b   2.98542013
_cell_length_c   7.52750255
_cell_angle_alpha   90.00000000
_cell_angle_beta   98.46942697
_cell_angle_gamma   90.00000000
_symmetry_Int_Tables_number   1
_chemical_formula_structural   LiO3
_chemical_formula_sum   'Li2 O6'
_cell_volume   120.39586016
_cell_formula_units_Z   2
loop_
 _symmetry_equiv_pos_site_id
 _symmetry_equiv_pos_as_xyz
  1  'x, y, z'
loop_
 _atom_site_type_symbol
 _atom_site_label
 _atom_site_symmetry_multiplicity
 _atom_site_fract_x
 _atom_site_fract_y
 _atom_site_fract_z
 _atom_site_occupancy
  Li  Li0  1  0.00000000  0.00000000  0.00000000  1
  Li  Li1  1  0.00000000  0.50000000  0.50000000  1
  O  O2  1  0.58667335  0.41855773  0.05363200  1
  O  O3  1  -0.58667335  0.91855773  0.44636800  1
  O  O4  1  -0.58667335  -0.41855773  -0.05363200  1
  O  O5  1  0.58667335  0.08144227  0.55363200  1
  O  O6  1  0.00000000  0.00000000  0.50000000  1
  O  O7  1  0.00000000  0.50000000  0.00000000  1
