# generated using pymatgen
data_Li5O3
_symmetry_space_group_name_H-M   'P 1'
_cell_length_a   6.50054846
_cell_length_b   3.77496704
_cell_length_c   7.33862637
_cell_angle_alpha   111.70214332
_cell_angle_beta   133.37656491
_cell_angle_gamma   65.04086044
_symmetry_Int_Tables_number   1
_chemical_formula_structural   Li5O3
_chemical_formula_sum   'Li5 O3'
_cell_volume   117.79420783
_cell_formula_units_Z   1
loop_
 _symmetry_equiv_pos_site_id
 _symmetry_equiv_pos_as_xyz
  1  'x, y, z'
loop_
 _atom_site_type_symbol
 _atom_site_label
 _atom_site_symmetry_multiplicity
 _atom_site_fract_x
 _atom_site_fract_y
 _atom_site_fract_z
 _atom_site_occupancy
  Li  Li0  1  0.16676101  0.42619247  0.29767507  1
  Li  Li1  1  0.67049691  0.54811340  0.00777270  1
  Li  Li2  1  0.38376515  0.25098294  0.05306543  1
  Li  Li3  1  0.96796961  0.15111505  0.18182503  1
  Li  Li4  1  0.90775977  0.65723346  0.98512667  1
  O  O5  1  0.86452355  0.86215711  0.29242602  1
  O  O6  1  0.23266610  0.92318360  0.27857970  1
  O  O7  1  0.64198788  0.88785179  0.89666075  1
