# generated using pymatgen
data_Li4O3
_symmetry_space_group_name_H-M   'P 1'
_cell_length_a   5.26304946
_cell_length_b   5.26304946
_cell_length_c   5.44073495
_cell_angle_alpha   90.00000000
_cell_angle_beta   90.00000000
_cell_angle_gamma   90.00000000
_symmetry_Int_Tables_number   1
_chemical_formula_structural   Li4O3
_chemical_formula_sum   'Li8 O6'
_cell_volume   150.70666965
_cell_formula_units_Z   2
loop_
 _symmetry_equiv_pos_site_id
 _symmetry_equiv_pos_as_xyz
  1  'x, y, z'
loop_
 _atom_site_type_symbol
 _atom_site_label
 _atom_site_symmetry_multiplicity
 _atom_site_fract_x
 _atom_site_fract_y
 _atom_site_fract_z
 _atom_site_occupancy
  Li  Li0  1  0.26306622  -0.26306622  0.00000000  1
  Li  Li1  1  -0.26306622  0.26306622  0.00000000  1
  Li  Li2  1  0.76306622  0.76306622  0.50000000  1
  Li  Li3  1  0.23693378  0.23693378  0.50000000  1
  Li  Li4  1  0.67142637  0.67142637  0.00000000  1
  Li  Li5  1  0.32857363  0.32857363  -0.00000000  1
  Li  Li6  1  0.82857363  0.17142637  0.50000000  1
  Li  Li7  1  0.17142637  0.82857363  0.50000000  1
  O  O8  1  0.00000000  0.50000000  0.00000000  1
  O  O9  1  0.00000000  0.50000000  0.50000000  1
  O  O10  1  0.50000000  0.00000000  0.50000000  1
  O  O11  1  0.50000000  0.00000000  0.00000000  1
  O  O12  1  0.00000000  0.00000000  0.00000000  1
  O  O13  1  0.50000000  0.50000000  0.50000000  1
