# generated using pymatgen
data_LiCl
_symmetry_space_group_name_H-M   'P 1'
_cell_length_a   8.34380336
_cell_length_b   6.15153068
_cell_length_c   6.49889440
_cell_angle_alpha   90.00000000
_cell_angle_beta   45.96144034
_cell_angle_gamma   90.00000000
_symmetry_Int_Tables_number   1
_chemical_formula_structural   LiCl
_chemical_formula_sum   'Li6 Cl6'
_cell_volume   239.79404069
_cell_formula_units_Z   6
loop_
 _symmetry_equiv_pos_site_id
 _symmetry_equiv_pos_as_xyz
  1  'x, y, z'
loop_
 _atom_site_type_symbol
 _atom_site_label
 _atom_site_symmetry_multiplicity
 _atom_site_fract_x
 _atom_site_fract_y
 _atom_site_fract_z
 _atom_site_occupancy
  Cl  Cl0  1  0.00000000  0.00000000  0.00000000  1
  Cl  Cl1  1  0.00000000  0.50000000  0.50000000  1
  Cl  Cl2  1  0.36937758  0.51122665  0.46621917  1
  Cl  Cl3  1  0.63062242  0.01122665  0.03378083  1
  Cl  Cl4  1  0.63062242  0.48877335  0.53378083  1
  Cl  Cl5  1  0.36937758  0.98877335  0.96621917  1
  Li  Li6  1  0.00378556  0.88001761  0.76632074  1
  Li  Li7  1  -0.00378556  1.38001761  -0.26632074  1
  Li  Li8  1  -0.00378556  -0.88001761  -0.76632074  1
  Li  Li9  1  0.00378556  -0.38001761  1.26632074  1
  Li  Li10  1  0.50000000  0.00000000  0.00000000  1
  Li  Li11  1  0.50000000  0.50000000  0.50000000  1
