# generated using pymatgen
data_Li3O2
_symmetry_space_group_name_H-M   'P 1'
_cell_length_a   7.28099908
_cell_length_b   6.83849325
_cell_length_c   4.18527026
_cell_angle_alpha   116.05611063
_cell_angle_beta   86.47446682
_cell_angle_gamma   121.04753419
_symmetry_Int_Tables_number   1
_chemical_formula_structural   Li3O2
_chemical_formula_sum   'Li6 O4'
_cell_volume   156.65837104
_cell_formula_units_Z   2
loop_
 _symmetry_equiv_pos_site_id
 _symmetry_equiv_pos_as_xyz
  1  'x, y, z'
loop_
 _atom_site_type_symbol
 _atom_site_label
 _atom_site_symmetry_multiplicity
 _atom_site_fract_x
 _atom_site_fract_y
 _atom_site_fract_z
 _atom_site_occupancy
  Li  Li0  1  0.51190570  0.47382715  0.90568061  1
  Li  Li1  1  0.19264024  0.34926802  0.69058436  1
  Li  Li2  1  0.55546231  0.98815789  0.96873355  1
  Li  Li3  1  0.71598647  0.26201097  0.06488807  1
  Li  Li4  1  0.03382355  0.91170502  0.44711341  1
  Li  Li5  1  0.15453908  0.41682591  0.32496199  1
  O  O6  1  0.89935139  0.24015952  0.44370748  1
  O  O7  1  0.08481577  0.85358268  0.79163181  1
  O  O8  1  0.14653083  0.65661850  0.20825762  1
  O  O9  1  0.72111426  0.04961138  0.06710137  1
