# generated using pymatgen
data_Li4O
_symmetry_space_group_name_H-M   'P 1'
_cell_length_a   3.65170999
_cell_length_b   4.40619625
_cell_length_c   8.99651449
_cell_angle_alpha   90.00000000
_cell_angle_beta   80.90844543
_cell_angle_gamma   90.00000000
_symmetry_Int_Tables_number   1
_chemical_formula_structural   Li4O
_chemical_formula_sum   'Li8 O2'
_cell_volume   142.93673058
_cell_formula_units_Z   2
loop_
 _symmetry_equiv_pos_site_id
 _symmetry_equiv_pos_as_xyz
  1  'x, y, z'
loop_
 _atom_site_type_symbol
 _atom_site_label
 _atom_site_symmetry_multiplicity
 _atom_site_fract_x
 _atom_site_fract_y
 _atom_site_fract_z
 _atom_site_occupancy
  Li  Li0  1  0.43119330  0.44880529  0.61510707  1
  Li  Li1  1  -0.43119330  0.94880529  -0.11510707  1
  Li  Li2  1  -0.43119330  -0.44880529  -0.61510707  1
  Li  Li3  1  0.43119330  0.05119471  1.11510707  1
  Li  Li4  1  0.85405595  0.63862351  0.03392606  1
  Li  Li5  1  0.14594405  0.13862351  0.46607394  1
  Li  Li6  1  0.14594405  0.36137649  0.96607394  1
  Li  Li7  1  0.85405595  0.86137649  0.53392606  1
  O  O8  1  0.50000000  0.00000000  0.50000000  1
  O  O9  1  0.50000000  0.50000000  0.00000000  1
