# generated using pymatgen
data_Li3O
_symmetry_space_group_name_H-M   'P 1'
_cell_length_a   7.88953117
_cell_length_b   6.75061401
_cell_length_c   3.81879845
_cell_angle_alpha   92.64057899
_cell_angle_beta   58.21906925
_cell_angle_gamma   94.43593165
_symmetry_Int_Tables_number   1
_chemical_formula_structural   Li3O
_chemical_formula_sum   'Li6 O2'
_cell_volume   172.37067449
_cell_formula_units_Z   2
loop_
 _symmetry_equiv_pos_site_id
 _symmetry_equiv_pos_as_xyz
  1  'x, y, z'
loop_
 _atom_site_type_symbol
 _atom_site_label
 _atom_site_symmetry_multiplicity
 _atom_site_fract_x
 _atom_site_fract_y
 _atom_site_fract_z
 _atom_site_occupancy
  Li  Li0  1  0.00000000  0.50000000  0.00000000  1
  Li  Li1  1  0.00000000  0.50000000  0.50000000  1
  Li  Li2  1  0.77995043  0.70773437  0.11917906  1
  Li  Li3  1  -0.77995043  -0.70773437  -0.11917906  1
  Li  Li4  1  0.47913660  0.25098396  0.28384321  1
  Li  Li5  1  0.52086340  0.74901604  0.71615679  1
  O  O6  1  0.26173159  0.78067687  0.36452022  1
  O  O7  1  0.73826841  0.21932313  0.63547978  1
