# generated using pymatgen
data_LiLa2
_symmetry_space_group_name_H-M   'P 1'
_cell_length_a   7.06505488
_cell_length_b   7.06505488
_cell_length_c   4.43762479
_cell_angle_alpha   90.00000000
_cell_angle_beta   90.00000000
_cell_angle_gamma   120.00000000
_symmetry_Int_Tables_number   1
_chemical_formula_structural   LiLa2
_chemical_formula_sum   'Li2 La4'
_cell_volume   191.82812890
_cell_formula_units_Z   2
loop_
 _symmetry_equiv_pos_site_id
 _symmetry_equiv_pos_as_xyz
  1  'x, y, z'
loop_
 _atom_site_type_symbol
 _atom_site_label
 _atom_site_symmetry_multiplicity
 _atom_site_fract_x
 _atom_site_fract_y
 _atom_site_fract_z
 _atom_site_occupancy
  La  La0  1  0.33333333  0.66666667  0.75000000  1
  La  La1  1  0.66666667  0.33333333  0.25000000  1
  La  La2  1  0.33333333  0.66666667  0.25000000  1
  La  La3  1  0.66666667  0.33333333  0.75000000  1
  Li  Li4  1  0.00000000  0.00000000  0.00000000  1
  Li  Li5  1  0.00000000  0.00000000  0.50000000  1
