# generated using pymatgen
data_Li5O3
_symmetry_space_group_name_H-M   'P 1'
_cell_length_a   3.82350024
_cell_length_b   9.62568712
_cell_length_c   6.24665072
_cell_angle_alpha   86.99853436
_cell_angle_beta   95.74139603
_cell_angle_gamma   130.85423251
_symmetry_Int_Tables_number   1
_chemical_formula_structural   Li5O3
_chemical_formula_sum   'Li5 O3'
_cell_volume   172.99290131
_cell_formula_units_Z   1
loop_
 _symmetry_equiv_pos_site_id
 _symmetry_equiv_pos_as_xyz
  1  'x, y, z'
loop_
 _atom_site_type_symbol
 _atom_site_label
 _atom_site_symmetry_multiplicity
 _atom_site_fract_x
 _atom_site_fract_y
 _atom_site_fract_z
 _atom_site_occupancy
  Li  Li0  1  0.09991970  0.16849887  0.37232513  1
  Li  Li1  1  -0.09991970  -0.16849887  -0.37232513  1
  Li  Li2  1  0.00000000  0.00000000  0.00000000  1
  Li  Li3  1  0.00000000  0.00000000  0.50000000  1
  Li  Li4  1  0.50000000  0.00000000  0.50000000  1
  O  O5  1  0.00000000  0.50000000  0.00000000  1
  O  O6  1  0.57914135  0.41615476  0.98806896  1
  O  O7  1  0.42085865  0.58384524  0.01193104  1
