# generated using pymatgen
data_Li2O
_symmetry_space_group_name_H-M   'P 1'
_cell_length_a   3.14608864
_cell_length_b   5.38374655
_cell_length_c   7.64886881
_cell_angle_alpha   113.19994266
_cell_angle_beta   79.19400128
_cell_angle_gamma   61.13487247
_symmetry_Int_Tables_number   1
_chemical_formula_structural   Li2O
_chemical_formula_sum   'Li4 O2'
_cell_volume   92.09350107
_cell_formula_units_Z   2
loop_
 _symmetry_equiv_pos_site_id
 _symmetry_equiv_pos_as_xyz
  1  'x, y, z'
loop_
 _atom_site_type_symbol
 _atom_site_label
 _atom_site_symmetry_multiplicity
 _atom_site_fract_x
 _atom_site_fract_y
 _atom_site_fract_z
 _atom_site_occupancy
  Li  Li0  1  0.82410717  0.05205603  0.25586426  1
  Li  Li1  1  0.08060802  0.59991712  0.68773910  1
  Li  Li2  1  0.46997039  0.57100490  0.14701350  1
  Li  Li3  1  0.13746946  0.04022044  0.92629047  1
  O  O4  1  0.53869029  0.06500573  0.97675226  1
  O  O5  1  0.68268718  0.51863495  0.49549841  1
