# generated using pymatgen
data_Li3O
_symmetry_space_group_name_H-M   'P 1'
_cell_length_a   5.94120144
_cell_length_b   2.29050761
_cell_length_c   7.33124874
_cell_angle_alpha   90.00000000
_cell_angle_beta   84.23966064
_cell_angle_gamma   90.00000000
_symmetry_Int_Tables_number   1
_chemical_formula_structural   Li3O
_chemical_formula_sum   'Li6 O2'
_cell_volume   99.26254639
_cell_formula_units_Z   2
loop_
 _symmetry_equiv_pos_site_id
 _symmetry_equiv_pos_as_xyz
  1  'x, y, z'
loop_
 _atom_site_type_symbol
 _atom_site_label
 _atom_site_symmetry_multiplicity
 _atom_site_fract_x
 _atom_site_fract_y
 _atom_site_fract_z
 _atom_site_occupancy
  Li  Li0  1  0.60851442  0.92622936  0.02484186  1
  Li  Li1  1  -0.60851442  1.42622936  0.47515814  1
  Li  Li2  1  -0.60851442  -0.92622936  -0.02484186  1
  Li  Li3  1  0.60851442  -0.42622936  0.52484186  1
  Li  Li4  1  0.00000000  0.00000000  0.50000000  1
  Li  Li5  1  0.00000000  0.50000000  0.00000000  1
  O  O6  1  0.50000000  0.00000000  0.50000000  1
  O  O7  1  0.50000000  0.50000000  0.00000000  1
