# generated using pymatgen
data_Li4O
_symmetry_space_group_name_H-M   'P 1'
_cell_length_a   6.09875711
_cell_length_b   3.75690970
_cell_length_c   5.30377540
_cell_angle_alpha   66.28024546
_cell_angle_beta   99.26862705
_cell_angle_gamma   74.35368407
_symmetry_Int_Tables_number   1
_chemical_formula_structural   Li4O
_chemical_formula_sum   'Li4 O1'
_cell_volume   102.00362400
_cell_formula_units_Z   1
loop_
 _symmetry_equiv_pos_site_id
 _symmetry_equiv_pos_as_xyz
  1  'x, y, z'
loop_
 _atom_site_type_symbol
 _atom_site_label
 _atom_site_symmetry_multiplicity
 _atom_site_fract_x
 _atom_site_fract_y
 _atom_site_fract_z
 _atom_site_occupancy
  Li  Li0  1  0.50000000  0.50000000  0.50000000  1
  Li  Li1  1  0.00000000  0.50000000  0.00000000  1
  Li  Li2  1  0.37614646  0.06759731  0.94475887  1
  Li  Li3  1  -0.37614646  -0.06759731  -0.94475887  1
  O  O4  1  0.50000000  0.50000000  -0.00000000  1
