# generated using pymatgen
data_Li2O2
_symmetry_space_group_name_H-M   'P 1'
_cell_length_a   8.28304745
_cell_length_b   3.51964112
_cell_length_c   1.40207230
_cell_angle_alpha   97.00230230
_cell_angle_beta   117.10979321
_cell_angle_gamma   43.09039467
_symmetry_Int_Tables_number   1
_chemical_formula_structural   Li2O2
_chemical_formula_sum   'Li2 O2'
_cell_volume   23.31362487
_cell_formula_units_Z   1
loop_
 _symmetry_equiv_pos_site_id
 _symmetry_equiv_pos_as_xyz
  1  'x, y, z'
loop_
 _atom_site_type_symbol
 _atom_site_label
 _atom_site_symmetry_multiplicity
 _atom_site_fract_x
 _atom_site_fract_y
 _atom_site_fract_z
 _atom_site_occupancy
  Li  Li0  1  0.63973736  0.34676904  0.51253023  1
  Li  Li1  1  -0.63973736  -0.34676904  -0.51253023  1
  O  O2  1  0.22287491  0.07358957  0.97127724  1
  O  O3  1  0.77712509  0.92641043  0.02872276  1
