# generated using pymatgen
data_Li3O2
_symmetry_space_group_name_H-M   'P 1'
_cell_length_a   4.97389071
_cell_length_b   8.72806111
_cell_length_c   7.01161731
_cell_angle_alpha   131.42349814
_cell_angle_beta   53.13736116
_cell_angle_gamma   122.67245325
_symmetry_Int_Tables_number   1
_chemical_formula_structural   Li3O2
_chemical_formula_sum   'Li6 O4'
_cell_volume   177.35470367
_cell_formula_units_Z   2
loop_
 _symmetry_equiv_pos_site_id
 _symmetry_equiv_pos_as_xyz
  1  'x, y, z'
loop_
 _atom_site_type_symbol
 _atom_site_label
 _atom_site_symmetry_multiplicity
 _atom_site_fract_x
 _atom_site_fract_y
 _atom_site_fract_z
 _atom_site_occupancy
  Li  Li0  1  0.75422458  0.52030030  0.69018879  1
  Li  Li1  1  -0.75422458  -0.52030030  -0.69018879  1
  Li  Li2  1  0.59184894  0.14782636  0.60329053  1
  Li  Li3  1  0.40815106  0.85217364  0.39670947  1
  Li  Li4  1  0.62353351  0.74416331  0.35365199  1
  Li  Li5  1  0.37646649  0.25583669  0.64634801  1
  O  O6  1  0.36206096  0.58061414  0.44740300  1
  O  O7  1  0.63793904  0.41938586  0.55259700  1
  O  O8  1  0.50000000  0.50000000  -0.00000000  1
  O  O9  1  0.00000000  0.00000000  0.50000000  1
