# generated using pymatgen
data_Li2P
_symmetry_space_group_name_H-M   'P 1'
_cell_length_a   7.50254483
_cell_length_b   7.50254483
_cell_length_c   5.78263041
_cell_angle_alpha   90.00000000
_cell_angle_beta   90.00000000
_cell_angle_gamma   120.00000000
_symmetry_Int_Tables_number   1
_chemical_formula_structural   Li2P
_chemical_formula_sum   'Li8 P4'
_cell_volume   281.88584324
_cell_formula_units_Z   4
loop_
 _symmetry_equiv_pos_site_id
 _symmetry_equiv_pos_as_xyz
  1  'x, y, z'
loop_
 _atom_site_type_symbol
 _atom_site_label
 _atom_site_symmetry_multiplicity
 _atom_site_fract_x
 _atom_site_fract_y
 _atom_site_fract_z
 _atom_site_occupancy
  Li  Li0  1  0.33333333  0.66666667  0.75000000  1
  Li  Li1  1  0.66666667  0.33333333  0.25000000  1
  Li  Li2  1  0.19314767  0.38629535  0.25000000  1
  Li  Li3  1  -0.38629535  -0.19314767  0.25000000  1
  Li  Li4  1  0.19314767  -0.19314767  0.25000000  1
  Li  Li5  1  -0.19314767  -0.38629535  0.75000000  1
  Li  Li6  1  0.38629535  0.19314767  0.75000000  1
  Li  Li7  1  -0.19314767  0.19314767  0.75000000  1
  P  P8  1  0.00000000  0.00000000  0.39404098  1
  P  P9  1  0.00000000  0.00000000  0.89404098  1
  P  P10  1  0.00000000  0.00000000  0.60595902  1
  P  P11  1  0.00000000  0.00000000  0.10595902  1
