# generated using pymatgen
data_Li2La
_symmetry_space_group_name_H-M   'P 1'
_cell_length_a   10.20907528
_cell_length_b   4.37875402
_cell_length_c   7.58484039
_cell_angle_alpha   90.00000000
_cell_angle_beta   105.75231796
_cell_angle_gamma   90.00000000
_symmetry_Int_Tables_number   1
_chemical_formula_structural   Li2La
_chemical_formula_sum   'Li8 La4'
_cell_volume   326.33149150
_cell_formula_units_Z   4
loop_
 _symmetry_equiv_pos_site_id
 _symmetry_equiv_pos_as_xyz
  1  'x, y, z'
loop_
 _atom_site_type_symbol
 _atom_site_label
 _atom_site_symmetry_multiplicity
 _atom_site_fract_x
 _atom_site_fract_y
 _atom_site_fract_z
 _atom_site_occupancy
  La  La0  1  0.33004871  0.06826620  0.21216297  1
  La  La1  1  0.66995129  0.56826620  0.28783703  1
  La  La2  1  0.66995129  0.93173380  0.78783703  1
  La  La3  1  0.33004871  0.43173380  0.71216297  1
  Li  Li4  1  0.00000000  0.00000000  0.50000000  1
  Li  Li5  1  0.00000000  0.50000000  0.00000000  1
  Li  Li6  1  0.40760844  0.43477151  0.14499906  1
  Li  Li7  1  -0.40760844  0.93477151  0.35500094  1
  Li  Li8  1  -0.40760844  -0.43477151  -0.14499906  1
  Li  Li9  1  0.40760844  0.06522849  0.64499906  1
  Li  Li10  1  0.50000000  0.00000000  0.50000000  1
  Li  Li11  1  0.50000000  0.50000000  0.00000000  1
