# generated using pymatgen
data_Li2PCl
_symmetry_space_group_name_H-M   'P 1'
_cell_length_a   3.14606630
_cell_length_b   5.60596084
_cell_length_c   4.63936594
_cell_angle_alpha   80.89061706
_cell_angle_beta   124.52368272
_cell_angle_gamma   83.77481835
_symmetry_Int_Tables_number   1
_chemical_formula_structural   Li2PCl
_chemical_formula_sum   'Li2 P1 Cl1'
_cell_volume   64.55821256
_cell_formula_units_Z   1
loop_
 _symmetry_equiv_pos_site_id
 _symmetry_equiv_pos_as_xyz
  1  'x, y, z'
loop_
 _atom_site_type_symbol
 _atom_site_label
 _atom_site_symmetry_multiplicity
 _atom_site_fract_x
 _atom_site_fract_y
 _atom_site_fract_z
 _atom_site_occupancy
  Cl  Cl0  1  0.16377479  0.05071669  0.52511066  1
  Li  Li1  1  0.74983996  0.43234367  0.24225632  1
  Li  Li2  1  0.33949764  0.12893565  0.19980853  1
  P  P3  1  0.68794879  0.54493194  0.56271098  1
