# generated using pymatgen
data_Li2O11
_symmetry_space_group_name_H-M   'P 1'
_cell_length_a   4.94853353
_cell_length_b   4.79451169
_cell_length_c   6.33117905
_cell_angle_alpha   58.10875677
_cell_angle_beta   114.56298705
_cell_angle_gamma   103.84656680
_symmetry_Int_Tables_number   1
_chemical_formula_structural   Li2O11
_chemical_formula_sum   'Li2 O11'
_cell_volume   115.95875286
_cell_formula_units_Z   1
loop_
 _symmetry_equiv_pos_site_id
 _symmetry_equiv_pos_as_xyz
  1  'x, y, z'
loop_
 _atom_site_type_symbol
 _atom_site_label
 _atom_site_symmetry_multiplicity
 _atom_site_fract_x
 _atom_site_fract_y
 _atom_site_fract_z
 _atom_site_occupancy
  Li  Li0  1  0.13188349  0.79620394  0.43672243  1
  Li  Li1  1  -0.13188349  -0.79620394  -0.43672243  1
  O  O2  1  0.59015035  0.99654973  0.31613891  1
  O  O3  1  0.40984965  0.00345027  0.68386109  1
  O  O4  1  0.00000000  0.00000000  0.50000000  1
  O  O5  1  0.57794963  0.11931362  0.93316644  1
  O  O6  1  0.42205037  0.88068638  0.06683356  1
  O  O7  1  0.19762948  0.40702508  0.20946417  1
  O  O8  1  0.80237052  0.59297492  0.79053583  1
  O  O9  1  0.53982350  0.70100385  0.57319881  1
  O  O10  1  0.46017650  0.29899615  0.42680119  1
  O  O11  1  0.97962835  0.20466911  0.86086348  1
  O  O12  1  0.02037165  0.79533089  0.13913652  1
