# generated using pymatgen
data_Li5O2
_symmetry_space_group_name_H-M   'P 1'
_cell_length_a   4.73259236
_cell_length_b   4.08230201
_cell_length_c   4.58612230
_cell_angle_alpha   120.36843861
_cell_angle_beta   105.92590503
_cell_angle_gamma   73.03555637
_symmetry_Int_Tables_number   1
_chemical_formula_structural   Li5O2
_chemical_formula_sum   'Li5 O2'
_cell_volume   72.25033203
_cell_formula_units_Z   1
loop_
 _symmetry_equiv_pos_site_id
 _symmetry_equiv_pos_as_xyz
  1  'x, y, z'
loop_
 _atom_site_type_symbol
 _atom_site_label
 _atom_site_symmetry_multiplicity
 _atom_site_fract_x
 _atom_site_fract_y
 _atom_site_fract_z
 _atom_site_occupancy
  Li  Li0  1  0.05819972  0.89465628  0.82736294  1
  Li  Li1  1  0.00002752  0.72343153  0.08425134  1
  Li  Li2  1  0.23266065  0.26193654  0.46581806  1
  Li  Li3  1  0.53554688  0.63406921  0.20896196  1
  Li  Li4  1  0.58893329  0.54698290  0.68934182  1
  O  O5  1  0.74064888  0.24855499  0.67978310  1
  O  O6  1  0.90637690  0.27126838  0.64505534  1
