# generated using pymatgen
data_Li7O4
_symmetry_space_group_name_H-M   'P 1'
_cell_length_a   3.36125511
_cell_length_b   6.24620313
_cell_length_c   6.11894958
_cell_angle_alpha   98.81935342
_cell_angle_beta   46.57521569
_cell_angle_gamma   87.01581420
_symmetry_Int_Tables_number   1
_chemical_formula_structural   Li7O4
_chemical_formula_sum   'Li7 O4'
_cell_volume   89.95393297
_cell_formula_units_Z   1
loop_
 _symmetry_equiv_pos_site_id
 _symmetry_equiv_pos_as_xyz
  1  'x, y, z'
loop_
 _atom_site_type_symbol
 _atom_site_label
 _atom_site_symmetry_multiplicity
 _atom_site_fract_x
 _atom_site_fract_y
 _atom_site_fract_z
 _atom_site_occupancy
  Li  Li0  1  0.61339149  0.02225450  0.77752413  1
  Li  Li1  1  0.19549711  0.61341502  0.17513057  1
  Li  Li2  1  0.57725349  0.80000666  0.30480033  1
  Li  Li3  1  0.95897649  0.77343467  0.92420193  1
  Li  Li4  1  0.21472928  0.30334250  0.63971978  1
  Li  Li5  1  0.99465906  0.10476263  0.94580000  1
  Li  Li6  1  0.71539060  0.71822637  0.67686217  1
  O  O7  1  0.65568654  0.63349255  0.26884625  1
  O  O8  1  0.43687310  0.14010360  0.04517218  1
  O  O9  1  0.92326054  0.26204037  0.51660810  1
  O  O10  1  0.24414182  0.98338890  0.47789446  1
