# generated using pymatgen
data_LiO2
_symmetry_space_group_name_H-M   'P 1'
_cell_length_a   5.96328666
_cell_length_b   6.13608175
_cell_length_c   4.11045754
_cell_angle_alpha   67.64556060
_cell_angle_beta   137.27282945
_cell_angle_gamma   129.27714825
_symmetry_Int_Tables_number   1
_chemical_formula_structural   LiO2
_chemical_formula_sum   'Li2 O4'
_cell_volume   77.96346345
_cell_formula_units_Z   2
loop_
 _symmetry_equiv_pos_site_id
 _symmetry_equiv_pos_as_xyz
  1  'x, y, z'
loop_
 _atom_site_type_symbol
 _atom_site_label
 _atom_site_symmetry_multiplicity
 _atom_site_fract_x
 _atom_site_fract_y
 _atom_site_fract_z
 _atom_site_occupancy
  Li  Li0  1  0.39803681  0.16913551  0.83998874  1
  Li  Li1  1  0.61831946  0.51416546  0.66142553  1
  O  O2  1  0.47322748  0.15407078  0.26226841  1
  O  O3  1  0.94836274  0.16631106  0.52232763  1
  O  O4  1  0.83119213  0.41379609  0.12222707  1
  O  O5  1  0.12125133  0.51533166  0.93023823  1
