# generated using pymatgen
data_Li3O4
_symmetry_space_group_name_H-M   'P 1'
_cell_length_a   5.82098317
_cell_length_b   9.24683941
_cell_length_c   3.95650761
_cell_angle_alpha   129.87308565
_cell_angle_beta   113.88968864
_cell_angle_gamma   105.12384184
_symmetry_Int_Tables_number   1
_chemical_formula_structural   Li3O4
_chemical_formula_sum   'Li3 O4'
_cell_volume   100.21653704
_cell_formula_units_Z   1
loop_
 _symmetry_equiv_pos_site_id
 _symmetry_equiv_pos_as_xyz
  1  'x, y, z'
loop_
 _atom_site_type_symbol
 _atom_site_label
 _atom_site_symmetry_multiplicity
 _atom_site_fract_x
 _atom_site_fract_y
 _atom_site_fract_z
 _atom_site_occupancy
  Li  Li0  1  0.59659447  0.63301444  0.83577288  1
  Li  Li1  1  0.90397202  0.83160668  0.56898539  1
  Li  Li2  1  0.67591363  0.96672069  0.73604417  1
  O  O3  1  0.02459400  0.02751202  0.99628779  1
  O  O4  1  0.99413853  0.29978258  0.60849227  1
  O  O5  1  0.85541827  0.61211879  0.15039789  1
  O  O6  1  0.03212213  0.59717765  0.20623832  1
