# generated using pymatgen
data_Li8O11
_symmetry_space_group_name_H-M   'P 1'
_cell_length_a   5.15778468
_cell_length_b   6.46728467
_cell_length_c   8.34766652
_cell_angle_alpha   88.80983273
_cell_angle_beta   126.59737678
_cell_angle_gamma   79.22635272
_symmetry_Int_Tables_number   1
_chemical_formula_structural   Li8O11
_chemical_formula_sum   'Li8 O11'
_cell_volume   216.50531357
_cell_formula_units_Z   1
loop_
 _symmetry_equiv_pos_site_id
 _symmetry_equiv_pos_as_xyz
  1  'x, y, z'
loop_
 _atom_site_type_symbol
 _atom_site_label
 _atom_site_symmetry_multiplicity
 _atom_site_fract_x
 _atom_site_fract_y
 _atom_site_fract_z
 _atom_site_occupancy
  Li  Li0  1  0.15763323  0.90591720  0.67195269  1
  Li  Li1  1  -0.15763323  -0.90591720  -0.67195269  1
  Li  Li2  1  0.86739679  0.14831767  0.14392959  1
  Li  Li3  1  0.13260321  0.85168233  0.85607041  1
  Li  Li4  1  0.16945252  0.43011174  0.43636222  1
  Li  Li5  1  0.83054748  0.56988826  0.56363778  1
  Li  Li6  1  0.46763653  0.97879693  0.31900458  1
  Li  Li7  1  0.53236347  0.02120307  0.68099542  1
  O  O8  1  0.50000000  0.50000000  -0.00000000  1
  O  O9  1  0.43749583  0.33320036  0.85512481  1
  O  O10  1  0.56250417  0.66679964  0.14487519  1
  O  O11  1  0.58585578  0.85276621  0.52893144  1
  O  O12  1  0.41414422  0.14723379  0.47106856  1
  O  O13  1  0.50000000  0.50000000  0.50000000  1
  O  O14  1  0.50000000  0.00000000  0.00000000  1
  O  O15  1  0.56497785  0.82742730  0.85078888  1
  O  O16  1  0.43502215  0.17257270  0.14921112  1
  O  O17  1  0.50000000  0.00000000  0.50000000  1
  O  O18  1  0.00000000  0.50000000  0.00000000  1
