# generated using pymatgen
data_Li5O4
_symmetry_space_group_name_H-M   'P 1'
_cell_length_a   7.35365541
_cell_length_b   6.62109193
_cell_length_c   4.64503852
_cell_angle_alpha   96.01330004
_cell_angle_beta   126.50859224
_cell_angle_gamma   96.94770935
_symmetry_Int_Tables_number   1
_chemical_formula_structural   Li5O4
_chemical_formula_sum   'Li5 O4'
_cell_volume   175.96575753
_cell_formula_units_Z   1
loop_
 _symmetry_equiv_pos_site_id
 _symmetry_equiv_pos_as_xyz
  1  'x, y, z'
loop_
 _atom_site_type_symbol
 _atom_site_label
 _atom_site_symmetry_multiplicity
 _atom_site_fract_x
 _atom_site_fract_y
 _atom_site_fract_z
 _atom_site_occupancy
  Li  Li0  1  0.62553837  0.89792850  0.29548512  1
  Li  Li1  1  0.48614700  0.57307438  0.46185541  1
  Li  Li2  1  0.18476414  0.93961618  0.59040543  1
  Li  Li3  1  0.86228682  0.17192270  0.65240872  1
  Li  Li4  1  0.46735625  0.62456839  0.97272382  1
  O  O5  1  0.51967797  0.17790547  0.14080442  1
  O  O6  1  0.23669684  0.56453313  0.42545937  1
  O  O7  1  0.26068696  0.59487611  0.19350350  1
  O  O8  1  0.84514292  0.81632223  0.87175425  1
