# generated using pymatgen
data_Li8P
_symmetry_space_group_name_H-M   'P 1'
_cell_length_a   10.63062214
_cell_length_b   17.44390400
_cell_length_c   6.15446858
_cell_angle_alpha   43.67833144
_cell_angle_beta   98.57759195
_cell_angle_gamma   55.55155332
_symmetry_Int_Tables_number   1
_chemical_formula_structural   Li8P
_chemical_formula_sum   'Li8 P1'
_cell_volume   128.53645995
_cell_formula_units_Z   1
loop_
 _symmetry_equiv_pos_site_id
 _symmetry_equiv_pos_as_xyz
  1  'x, y, z'
loop_
 _atom_site_type_symbol
 _atom_site_label
 _atom_site_symmetry_multiplicity
 _atom_site_fract_x
 _atom_site_fract_y
 _atom_site_fract_z
 _atom_site_occupancy
  Li  Li0  1  0.81249010  0.21175357  0.81065600  1
  Li  Li1  1  0.15079059  0.75516782  0.71433922  1
  Li  Li2  1  0.48467343  0.32784056  0.92179788  1
  Li  Li3  1  0.35980664  0.19345414  0.04769101  1
  Li  Li4  1  0.79419187  0.77949732  0.42691049  1
  Li  Li5  1  0.64814922  0.59083169  0.79783285  1
  Li  Li6  1  0.24578808  0.04786452  0.48684932  1
  Li  Li7  1  0.81071923  0.62461008  0.27006219  1
  P  P8  1  0.21904580  0.70457714  0.28796325  1
