# generated using pymatgen
data_Li7O2
_symmetry_space_group_name_H-M   'P 1'
_cell_length_a   6.22468158
_cell_length_b   5.57793328
_cell_length_c   5.78417232
_cell_angle_alpha   109.71409102
_cell_angle_beta   77.35602731
_cell_angle_gamma   75.66617216
_symmetry_Int_Tables_number   1
_chemical_formula_structural   Li7O2
_chemical_formula_sum   'Li7 O2'
_cell_volume   172.81366684
_cell_formula_units_Z   1
loop_
 _symmetry_equiv_pos_site_id
 _symmetry_equiv_pos_as_xyz
  1  'x, y, z'
loop_
 _atom_site_type_symbol
 _atom_site_label
 _atom_site_symmetry_multiplicity
 _atom_site_fract_x
 _atom_site_fract_y
 _atom_site_fract_z
 _atom_site_occupancy
  Li  Li0  1  0.21636508  0.35900449  0.37893821  1
  Li  Li1  1  -0.21636508  -0.35900449  -0.37893821  1
  Li  Li2  1  0.13308441  0.49389667  0.85914140  1
  Li  Li3  1  0.86691559  0.50610333  0.14085860  1
  Li  Li4  1  0.50000000  0.50000000  -0.00000000  1
  Li  Li5  1  0.50000000  0.50000000  0.50000000  1
  Li  Li6  1  0.50000000  0.00000000  0.50000000  1
  O  O7  1  0.94565461  0.18928956  0.67665375  1
  O  O8  1  0.05434539  0.81071044  0.32334625  1
