# generated using pymatgen
data_Li2O2
_symmetry_space_group_name_H-M   'P 1'
_cell_length_a   2.62743342
_cell_length_b   4.96269584
_cell_length_c   5.85975848
_cell_angle_alpha   90.70537620
_cell_angle_beta   97.83264322
_cell_angle_gamma   89.92932886
_symmetry_Int_Tables_number   1
_chemical_formula_structural   Li2O2
_chemical_formula_sum   'Li2 O2'
_cell_volume   75.68769985
_cell_formula_units_Z   1
loop_
 _symmetry_equiv_pos_site_id
 _symmetry_equiv_pos_as_xyz
  1  'x, y, z'
loop_
 _atom_site_type_symbol
 _atom_site_label
 _atom_site_symmetry_multiplicity
 _atom_site_fract_x
 _atom_site_fract_y
 _atom_site_fract_z
 _atom_site_occupancy
  Li  Li0  1  0.00000000  0.00000000  0.00000000  1
  Li  Li1  1  0.50000000  -0.00000000  0.50000000  1
  O  O2  1  0.10706686  0.42867514  0.52334263  1
  O  O3  1  -0.10706686  -0.42867514  -0.52334263  1
