# generated using pymatgen
data_Li3O
_symmetry_space_group_name_H-M   'P 1'
_cell_length_a   6.08532712
_cell_length_b   5.64148815
_cell_length_c   4.54918551
_cell_angle_alpha   91.99094222
_cell_angle_beta   94.77738871
_cell_angle_gamma   49.49757773
_symmetry_Int_Tables_number   1
_chemical_formula_structural   Li3O
_chemical_formula_sum   'Li6 O2'
_cell_volume   118.30088270
_cell_formula_units_Z   2
loop_
 _symmetry_equiv_pos_site_id
 _symmetry_equiv_pos_as_xyz
  1  'x, y, z'
loop_
 _atom_site_type_symbol
 _atom_site_label
 _atom_site_symmetry_multiplicity
 _atom_site_fract_x
 _atom_site_fract_y
 _atom_site_fract_z
 _atom_site_occupancy
  Li  Li0  1  0.50000000  0.00000000  0.00000000  1
  Li  Li1  1  0.00000000  0.50000000  0.00000000  1
  Li  Li2  1  0.01376054  0.99581599  0.34472255  1
  Li  Li3  1  -0.01376054  -0.99581599  -0.34472255  1
  Li  Li4  1  0.39609407  0.49226623  0.19187508  1
  Li  Li5  1  0.60390593  0.50773377  0.80812492  1
  O  O6  1  0.00000000  0.00000000  0.00000000  1
  O  O7  1  0.50000000  0.00000000  0.50000000  1
