# generated using pymatgen
data_LiS
_symmetry_space_group_name_H-M   'P 1'
_cell_length_a   3.67990448
_cell_length_b   7.33386651
_cell_length_c   6.04254600
_cell_angle_alpha   90.00000000
_cell_angle_beta   90.00000000
_cell_angle_gamma   90.00000000
_symmetry_Int_Tables_number   1
_chemical_formula_structural   LiS
_chemical_formula_sum   'Li4 S4'
_cell_volume   163.07579758
_cell_formula_units_Z   4
loop_
 _symmetry_equiv_pos_site_id
 _symmetry_equiv_pos_as_xyz
  1  'x, y, z'
loop_
 _atom_site_type_symbol
 _atom_site_label
 _atom_site_symmetry_multiplicity
 _atom_site_fract_x
 _atom_site_fract_y
 _atom_site_fract_z
 _atom_site_occupancy
  Li  Li0  1  0.00000000  0.00000000  0.50000000  1
  Li  Li1  1  0.50000000  0.00000000  0.00000000  1
  Li  Li2  1  0.00000000  0.50000000  0.50000000  1
  Li  Li3  1  0.50000000  0.50000000  0.00000000  1
  S  S4  1  0.23960046  0.25000000  0.75822803  1
  S  S5  1  0.26039954  0.75000000  0.25822803  1
  S  S6  1  0.76039954  0.75000000  0.24177197  1
  S  S7  1  0.73960046  0.25000000  0.74177197  1
