# generated using pymatgen
data_Li8O3
_symmetry_space_group_name_H-M   'P 1'
_cell_length_a   7.42482587
_cell_length_b   7.42922605
_cell_length_c   6.02304113
_cell_angle_alpha   46.17981136
_cell_angle_beta   87.44862776
_cell_angle_gamma   60.63413886
_symmetry_Int_Tables_number   1
_chemical_formula_structural   Li8O3
_chemical_formula_sum   'Li8 O3'
_cell_volume   184.48976790
_cell_formula_units_Z   1
loop_
 _symmetry_equiv_pos_site_id
 _symmetry_equiv_pos_as_xyz
  1  'x, y, z'
loop_
 _atom_site_type_symbol
 _atom_site_label
 _atom_site_symmetry_multiplicity
 _atom_site_fract_x
 _atom_site_fract_y
 _atom_site_fract_z
 _atom_site_occupancy
  Li  Li0  1  0.32317555  0.38374971  0.33406650  1
  Li  Li1  1  -0.32317555  -0.38374971  -0.33406650  1
  Li  Li2  1  0.95365190  0.70565435  0.81641174  1
  Li  Li3  1  0.04634810  0.29434565  0.18358826  1
  Li  Li4  1  0.38708022  0.21010202  0.11146018  1
  Li  Li5  1  0.61291978  0.78989798  0.88853982  1
  Li  Li6  1  0.44288762  0.92952429  0.48052672  1
  Li  Li7  1  0.55711238  0.07047571  0.51947328  1
  O  O8  1  0.99062778  0.00436293  0.12516935  1
  O  O9  1  0.00937222  0.99563707  0.87483065  1
  O  O10  1  0.50000000  0.50000000  0.00000000  1
