# generated using pymatgen
data_Li7(SO)4
_symmetry_space_group_name_H-M   'P 1'
_cell_length_a   4.59711917
_cell_length_b   7.75344380
_cell_length_c   7.65498826
_cell_angle_alpha   58.45639602
_cell_angle_beta   95.52379156
_cell_angle_gamma   120.79878469
_symmetry_Int_Tables_number   1
_chemical_formula_structural   Li7(SO)4
_chemical_formula_sum   'Li7 S4 O4'
_cell_volume   194.17507308
_cell_formula_units_Z   1
loop_
 _symmetry_equiv_pos_site_id
 _symmetry_equiv_pos_as_xyz
  1  'x, y, z'
loop_
 _atom_site_type_symbol
 _atom_site_label
 _atom_site_symmetry_multiplicity
 _atom_site_fract_x
 _atom_site_fract_y
 _atom_site_fract_z
 _atom_site_occupancy
  Li  Li0  1  0.58625934  0.61268161  0.01743336  1
  Li  Li1  1  0.85741522  0.77641657  0.14188678  1
  Li  Li2  1  0.73850902  0.17904886  0.66218805  1
  Li  Li3  1  0.52199370  0.90291524  0.09208826  1
  Li  Li4  1  0.14102677  0.41243832  0.78376259  1
  Li  Li5  1  0.02874213  0.05988255  0.82214307  1
  Li  Li6  1  0.68973849  0.15254864  0.09166372  1
  O  O7  1  0.15624948  0.82088675  0.29272398  1
  O  O8  1  0.81990322  0.09020271  0.47688974  1
  O  O9  1  0.43273943  0.02823755  0.50503848  1
  O  O10  1  0.55834357  0.46350750  0.62510096  1
  S  S11  1  0.80510035  0.63365771  0.34770767  1
  S  S12  1  0.58853470  0.43294722  0.83703112  1
  S  S13  1  0.73145231  0.93666700  0.43412153  1
  S  S14  1  0.36505372  0.26245126  0.38833349  1
