# generated using pymatgen
data_Li2O2
_symmetry_space_group_name_H-M   'P 1'
_cell_length_a   4.56303167
_cell_length_b   1.66460058
_cell_length_c   5.23429940
_cell_angle_alpha   51.06003322
_cell_angle_beta   74.75900276
_cell_angle_gamma   102.44977859
_symmetry_Int_Tables_number   1
_chemical_formula_structural   Li2O2
_chemical_formula_sum   'Li1 O1'
_cell_volume   25.70949292
_cell_formula_units_Z   0
loop_
 _symmetry_equiv_pos_site_id
 _symmetry_equiv_pos_as_xyz
  1  'x, y, z'
loop_
 _atom_site_type_symbol
 _atom_site_label
 _atom_site_symmetry_multiplicity
 _atom_site_fract_x
 _atom_site_fract_y
 _atom_site_fract_z
 _atom_site_occupancy
  Li  Li0  1  0.74690753  0.18142623  0.00945312  1
  O  O1  1  0.17266949  0.29983943  0.85978731  1
