# generated using pymatgen
data_Li2ZrCl
_symmetry_space_group_name_H-M   'P 1'
_cell_length_a   4.53303943
_cell_length_b   11.16159465
_cell_length_c   7.25922166
_cell_angle_alpha   90.00000000
_cell_angle_beta   100.34998262
_cell_angle_gamma   90.00000000
_symmetry_Int_Tables_number   1
_chemical_formula_structural   Li2ZrCl
_chemical_formula_sum   'Li8 Zr4 Cl4'
_cell_volume   361.31095978
_cell_formula_units_Z   4
loop_
 _symmetry_equiv_pos_site_id
 _symmetry_equiv_pos_as_xyz
  1  'x, y, z'
loop_
 _atom_site_type_symbol
 _atom_site_label
 _atom_site_symmetry_multiplicity
 _atom_site_fract_x
 _atom_site_fract_y
 _atom_site_fract_z
 _atom_site_occupancy
  Cl  Cl0  1  0.00000000  0.59867990  0.25000000  1
  Cl  Cl1  1  0.00000000  0.40132010  0.75000000  1
  Cl  Cl2  1  0.50000000  0.09867990  0.25000000  1
  Cl  Cl3  1  0.50000000  0.90132010  0.75000000  1
  Li  Li4  1  0.32782310  0.99170036  0.64506946  1
  Li  Li5  1  -0.32782310  0.99170036  -0.14506946  1
  Li  Li6  1  -0.32782310  -0.99170036  -0.64506946  1
  Li  Li7  1  0.32782310  -0.99170036  1.14506946  1
  Li  Li8  1  0.82782310  1.49170036  0.64506946  1
  Li  Li9  1  0.17217690  1.49170036  -0.14506946  1
  Li  Li10  1  0.17217690  -0.49170036  -0.64506946  1
  Li  Li11  1  0.82782310  -0.49170036  1.14506946  1
  Zr  Zr12  1  0.25000000  0.25000000  0.00000000  1
  Zr  Zr13  1  0.75000000  0.25000000  0.50000000  1
  Zr  Zr14  1  0.75000000  0.75000000  0.00000000  1
  Zr  Zr15  1  0.25000000  0.75000000  0.50000000  1
