# generated using pymatgen
data_Li7P
_symmetry_space_group_name_H-M   'P 1'
_cell_length_a   9.00388394
_cell_length_b   4.83309607
_cell_length_c   5.31240360
_cell_angle_alpha   64.63141057
_cell_angle_beta   84.81682001
_cell_angle_gamma   136.44101029
_symmetry_Int_Tables_number   1
_chemical_formula_structural   Li7P
_chemical_formula_sum   'Li7 P1'
_cell_volume   110.15363627
_cell_formula_units_Z   1
loop_
 _symmetry_equiv_pos_site_id
 _symmetry_equiv_pos_as_xyz
  1  'x, y, z'
loop_
 _atom_site_type_symbol
 _atom_site_label
 _atom_site_symmetry_multiplicity
 _atom_site_fract_x
 _atom_site_fract_y
 _atom_site_fract_z
 _atom_site_occupancy
  Li  Li0  1  0.00000000  0.00000000  0.50000000  1
  Li  Li1  1  0.00000000  0.50000000  0.00000000  1
  Li  Li2  1  0.37710179  0.00390774  0.00415735  1
  Li  Li3  1  -0.37710179  -0.00390774  -0.00415735  1
  Li  Li4  1  0.42539065  0.91991472  0.39541425  1
  Li  Li5  1  0.57460935  0.08008528  0.60458575  1
  Li  Li6  1  0.50000000  0.50000000  -0.00000000  1
  P  P7  1  0.00000000  0.00000000  0.00000000  1
