# generated using pymatgen
data_Li3SO4
_symmetry_space_group_name_H-M   'P 1'
_cell_length_a   6.28059480
_cell_length_b   4.11135320
_cell_length_c   5.19577790
_cell_angle_alpha   96.54019866
_cell_angle_beta   66.85311361
_cell_angle_gamma   66.04994666
_symmetry_Int_Tables_number   1
_chemical_formula_structural   Li3SO4
_chemical_formula_sum   'Li3 S1 O4'
_cell_volume   106.60509019
_cell_formula_units_Z   1
loop_
 _symmetry_equiv_pos_site_id
 _symmetry_equiv_pos_as_xyz
  1  'x, y, z'
loop_
 _atom_site_type_symbol
 _atom_site_label
 _atom_site_symmetry_multiplicity
 _atom_site_fract_x
 _atom_site_fract_y
 _atom_site_fract_z
 _atom_site_occupancy
  Li  Li0  1  0.14221666  0.29343661  0.94541219  1
  Li  Li1  1  0.24938211  0.75666342  0.75090895  1
  Li  Li2  1  0.77501916  0.52407606  0.76779109  1
  O  O3  1  0.45428714  0.82219520  0.00783663  1
  O  O4  1  0.63348941  0.70814693  0.11055832  1
  O  O5  1  0.26957413  0.49950693  0.36313062  1
  O  O6  1  0.46865059  0.37045527  0.31914479  1
  S  S7  1  0.79749972  0.05948545  0.99135448  1
