# generated using pymatgen
data_Li4S4O11
_symmetry_space_group_name_H-M   'P 1'
_cell_length_a   12.89660401
_cell_length_b   6.72142971
_cell_length_c   4.64556783
_cell_angle_alpha   116.90061177
_cell_angle_beta   87.59655075
_cell_angle_gamma   75.36670134
_symmetry_Int_Tables_number   1
_chemical_formula_structural   Li4S4O11
_chemical_formula_sum   'Li4 S4 O11'
_cell_volume   341.72765184
_cell_formula_units_Z   1
loop_
 _symmetry_equiv_pos_site_id
 _symmetry_equiv_pos_as_xyz
  1  'x, y, z'
loop_
 _atom_site_type_symbol
 _atom_site_label
 _atom_site_symmetry_multiplicity
 _atom_site_fract_x
 _atom_site_fract_y
 _atom_site_fract_z
 _atom_site_occupancy
  Li  Li0  1  0.64442953  0.44406957  0.46441716  1
  Li  Li1  1  -0.64442953  -0.44406957  -0.46441716  1
  Li  Li2  1  0.00000000  0.50000000  0.00000000  1
  Li  Li3  1  0.50000000  0.00000000  0.00000000  1
  O  O4  1  0.00000000  0.50000000  0.50000000  1
  O  O5  1  0.71031514  0.67970405  0.04099266  1
  O  O6  1  0.28968486  0.32029595  0.95900734  1
  O  O7  1  0.87252075  0.75224713  0.28752095  1
  O  O8  1  0.12747925  0.24775287  0.71247905  1
  O  O9  1  0.84405577  0.02903165  0.38546745  1
  O  O10  1  0.15594423  0.97096835  0.61453255  1
  O  O11  1  0.50103778  0.72880028  0.54219361  1
  O  O12  1  0.49896222  0.27119972  0.45780639  1
  O  O13  1  0.74201061  0.61332952  0.57890137  1
  O  O14  1  0.25798939  0.38667048  0.42109863  1
  S  S15  1  0.44123140  0.27994440  0.21433444  1
  S  S16  1  0.55876860  0.72005560  0.78566556  1
  S  S17  1  0.50000000  0.00000000  0.50000000  1
  S  S18  1  0.50000000  0.50000000  0.00000000  1
