# generated using pymatgen
data_Li2ClO7
_symmetry_space_group_name_H-M   'P 1'
_cell_length_a   4.58705078
_cell_length_b   4.26364356
_cell_length_c   4.70458249
_cell_angle_alpha   95.31985187
_cell_angle_beta   52.90617169
_cell_angle_gamma   95.03154234
_symmetry_Int_Tables_number   1
_chemical_formula_structural   Li2ClO7
_chemical_formula_sum   'Li2 Cl1 O7'
_cell_volume   73.01708804
_cell_formula_units_Z   1
loop_
 _symmetry_equiv_pos_site_id
 _symmetry_equiv_pos_as_xyz
  1  'x, y, z'
loop_
 _atom_site_type_symbol
 _atom_site_label
 _atom_site_symmetry_multiplicity
 _atom_site_fract_x
 _atom_site_fract_y
 _atom_site_fract_z
 _atom_site_occupancy
  Cl  Cl0  1  0.00000000  0.00000000  0.50000000  1
  Li  Li1  1  0.50000000  0.00000000  0.50000000  1
  Li  Li2  1  0.50000000  0.50000000  0.50000000  1
  O  O3  1  0.50000000  0.00000000  0.00000000  1
  O  O4  1  0.75851332  0.86647821  0.59957544  1
  O  O5  1  -0.75851332  -0.86647821  -0.59957544  1
  O  O6  1  0.00000000  0.50000000  0.50000000  1
  O  O7  1  0.50000000  0.50000000  0.00000000  1
  O  O8  1  0.22633239  0.52408810  0.27069761  1
  O  O9  1  0.77366761  0.47591190  0.72930239  1
