# generated using pymatgen
data_Li3O4
_symmetry_space_group_name_H-M   'P 1'
_cell_length_a   4.94788119
_cell_length_b   4.68723956
_cell_length_c   4.34211812
_cell_angle_alpha   70.71410746
_cell_angle_beta   114.03511440
_cell_angle_gamma   85.40202886
_symmetry_Int_Tables_number   1
_chemical_formula_structural   Li3O4
_chemical_formula_sum   'Li3 O4'
_cell_volume   84.07437368
_cell_formula_units_Z   1
loop_
 _symmetry_equiv_pos_site_id
 _symmetry_equiv_pos_as_xyz
  1  'x, y, z'
loop_
 _atom_site_type_symbol
 _atom_site_label
 _atom_site_symmetry_multiplicity
 _atom_site_fract_x
 _atom_site_fract_y
 _atom_site_fract_z
 _atom_site_occupancy
  Li  Li0  1  0.14106238  0.17266681  0.44972999  1
  Li  Li1  1  0.64557008  0.95861138  0.17739002  1
  Li  Li2  1  0.27523293  0.29672604  0.68479845  1
  O  O3  1  0.86334506  0.54900994  0.27228498  1
  O  O4  1  0.39385955  0.46631230  0.26889503  1
  O  O5  1  0.40426793  0.96914732  0.61652726  1
  O  O6  1  0.69416803  0.21766641  0.32018853  1
