# generated using pymatgen
data_Li2O2
_symmetry_space_group_name_H-M   'P 1'
_cell_length_a   1.93095356
_cell_length_b   3.18297696
_cell_length_c   4.14068743
_cell_angle_alpha   86.77741198
_cell_angle_beta   84.81697371
_cell_angle_gamma   66.00037885
_symmetry_Int_Tables_number   1
_chemical_formula_structural   Li2O2
_chemical_formula_sum   'Li1 O1'
_cell_volume   23.14889913
_cell_formula_units_Z   0
loop_
 _symmetry_equiv_pos_site_id
 _symmetry_equiv_pos_as_xyz
  1  'x, y, z'
loop_
 _atom_site_type_symbol
 _atom_site_label
 _atom_site_symmetry_multiplicity
 _atom_site_fract_x
 _atom_site_fract_y
 _atom_site_fract_z
 _atom_site_occupancy
  Li  Li0  1  0.99261436  0.07005919  0.17189328  1
  O  O1  1  0.13828337  0.61650801  0.10132211  1
