# generated using pymatgen
data_Li2O2
_symmetry_space_group_name_H-M   'P 1'
_cell_length_a   4.19445741
_cell_length_b   3.26873113
_cell_length_c   7.95444039
_cell_angle_alpha   90.00000000
_cell_angle_beta   90.00000000
_cell_angle_gamma   90.00000000
_symmetry_Int_Tables_number   1
_chemical_formula_structural   Li2O2
_chemical_formula_sum   'Li8 O8'
_cell_volume   109.05978060
_cell_formula_units_Z   4
loop_
 _symmetry_equiv_pos_site_id
 _symmetry_equiv_pos_as_xyz
  1  'x, y, z'
loop_
 _atom_site_type_symbol
 _atom_site_label
 _atom_site_symmetry_multiplicity
 _atom_site_fract_x
 _atom_site_fract_y
 _atom_site_fract_z
 _atom_site_occupancy
  Li  Li0  1  0.78003144  0.25000000  0.70292219  1
  Li  Li1  1  -0.28003144  0.75000000  1.20292219  1
  Li  Li2  1  -0.78003144  0.75000000  -0.70292219  1
  Li  Li3  1  1.28003144  0.25000000  -0.20292219  1
  Li  Li4  1  0.00000000  0.00000000  0.50000000  1
  Li  Li5  1  0.50000000  0.00000000  0.00000000  1
  Li  Li6  1  0.00000000  0.50000000  0.50000000  1
  Li  Li7  1  0.50000000  0.50000000  0.00000000  1
  O  O8  1  0.00000000  0.00000000  0.00000000  1
  O  O9  1  0.50000000  0.00000000  0.50000000  1
  O  O10  1  0.00000000  0.50000000  0.00000000  1
  O  O11  1  0.50000000  0.50000000  0.50000000  1
  O  O12  1  0.87323223  0.25000000  0.37368742  1
  O  O13  1  0.62676777  0.75000000  0.87368742  1
  O  O14  1  0.12676777  0.75000000  0.62631258  1
  O  O15  1  0.37323223  0.25000000  0.12631258  1
