# generated using pymatgen
data_LiO4
_symmetry_space_group_name_H-M   'P 1'
_cell_length_a   4.73888628
_cell_length_b   2.96727230
_cell_length_c   4.20792602
_cell_angle_alpha   75.14887216
_cell_angle_beta   80.45360753
_cell_angle_gamma   107.41473053
_symmetry_Int_Tables_number   1
_chemical_formula_structural   LiO4
_chemical_formula_sum   'Li1 O4'
_cell_volume   52.65085123
_cell_formula_units_Z   1
loop_
 _symmetry_equiv_pos_site_id
 _symmetry_equiv_pos_as_xyz
  1  'x, y, z'
loop_
 _atom_site_type_symbol
 _atom_site_label
 _atom_site_symmetry_multiplicity
 _atom_site_fract_x
 _atom_site_fract_y
 _atom_site_fract_z
 _atom_site_occupancy
  Li  Li0  1  0.75553737  0.24658817  0.42436025  1
  O  O1  1  0.42562524  0.73067267  0.67321350  1
  O  O2  1  0.19083620  0.90968434  0.69946258  1
  O  O3  1  0.39935677  0.38042901  0.89331326  1
  O  O4  1  0.37499651  0.83903256  0.28973530  1
