# generated using pymatgen
data_Li2O2
_symmetry_space_group_name_H-M   'P 1'
_cell_length_a   5.38892973
_cell_length_b   5.57088589
_cell_length_c   4.25793305
_cell_angle_alpha   96.99876977
_cell_angle_beta   116.19174322
_cell_angle_gamma   79.69083993
_symmetry_Int_Tables_number   1
_chemical_formula_structural   Li2O2
_chemical_formula_sum   'Li3 O3'
_cell_volume   112.71799697
_cell_formula_units_Z   1
loop_
 _symmetry_equiv_pos_site_id
 _symmetry_equiv_pos_as_xyz
  1  'x, y, z'
loop_
 _atom_site_type_symbol
 _atom_site_label
 _atom_site_symmetry_multiplicity
 _atom_site_fract_x
 _atom_site_fract_y
 _atom_site_fract_z
 _atom_site_occupancy
  Li  Li0  1  0.50692219  0.91683600  0.88161184  1
  Li  Li1  1  0.97464039  0.51588086  0.39018285  1
  Li  Li2  1  0.69085755  0.52480690  0.11102020  1
  O  O3  1  0.71340611  0.77068920  0.84689713  1
  O  O4  1  0.02329862  0.07312540  0.69965614  1
  O  O5  1  0.45122251  0.24222290  0.15068158  1
