# generated using pymatgen
data_Li
_symmetry_space_group_name_H-M   'P 1'
_cell_length_a   3.95676211
_cell_length_b   3.95676211
_cell_length_c   7.09373861
_cell_angle_alpha   90.00000000
_cell_angle_beta   90.00000000
_cell_angle_gamma   120.00000000
_symmetry_Int_Tables_number   1
_chemical_formula_structural   Li
_chemical_formula_sum   Li6
_cell_volume   96.18020421
_cell_formula_units_Z   6
loop_
 _symmetry_equiv_pos_site_id
 _symmetry_equiv_pos_as_xyz
  1  'x, y, z'
loop_
 _atom_site_type_symbol
 _atom_site_label
 _atom_site_symmetry_multiplicity
 _atom_site_fract_x
 _atom_site_fract_y
 _atom_site_fract_z
 _atom_site_occupancy
  Li  Li0  1  0.33333333  0.66666667  0.25000000  1
  Li  Li1  1  0.66666667  0.33333333  0.75000000  1
  Li  Li2  1  0.00000000  0.00000000  0.88542910  1
  Li  Li3  1  0.00000000  0.00000000  1.38542910  1
  Li  Li4  1  0.00000000  0.00000000  -0.88542910  1
  Li  Li5  1  0.00000000  0.00000000  -0.38542910  1
