# generated using pymatgen
data_Li3O
_symmetry_space_group_name_H-M   'P 1'
_cell_length_a   5.59880406
_cell_length_b   4.49844227
_cell_length_c   6.80734219
_cell_angle_alpha   94.14811795
_cell_angle_beta   106.31554837
_cell_angle_gamma   89.08317237
_symmetry_Int_Tables_number   1
_chemical_formula_structural   Li3O
_chemical_formula_sum   'Li6 O2'
_cell_volume   164.11189613
_cell_formula_units_Z   2
loop_
 _symmetry_equiv_pos_site_id
 _symmetry_equiv_pos_as_xyz
  1  'x, y, z'
loop_
 _atom_site_type_symbol
 _atom_site_label
 _atom_site_symmetry_multiplicity
 _atom_site_fract_x
 _atom_site_fract_y
 _atom_site_fract_z
 _atom_site_occupancy
  Li  Li0  1  0.48110413  0.81846757  0.58712258  1
  Li  Li1  1  0.92623259  0.65994094  0.98033458  1
  Li  Li2  1  0.29400360  0.20907657  0.64038465  1
  Li  Li3  1  0.23837904  0.76613223  0.99393937  1
  Li  Li4  1  0.89389201  0.72042077  0.33250958  1
  Li  Li5  1  0.87471713  0.29249826  0.51128260  1
  O  O6  1  0.85376065  0.11257084  0.86628442  1
  O  O7  1  0.41397684  0.96397284  0.73551172  1
