# generated using pymatgen
data_Li4ZrS5O2
_symmetry_space_group_name_H-M   'P 1'
_cell_length_a   5.14443906
_cell_length_b   5.24335811
_cell_length_c   9.56911447
_cell_angle_alpha   71.37271577
_cell_angle_beta   49.80121080
_cell_angle_gamma   93.78381582
_symmetry_Int_Tables_number   1
_chemical_formula_structural   Li4ZrS5O2
_chemical_formula_sum   'Li4 Zr1 S5 O2'
_cell_volume   173.11604077
_cell_formula_units_Z   1
loop_
 _symmetry_equiv_pos_site_id
 _symmetry_equiv_pos_as_xyz
  1  'x, y, z'
loop_
 _atom_site_type_symbol
 _atom_site_label
 _atom_site_symmetry_multiplicity
 _atom_site_fract_x
 _atom_site_fract_y
 _atom_site_fract_z
 _atom_site_occupancy
  Li  Li0  1  0.43419994  0.34294590  0.31894470  1
  Li  Li1  1  0.88419934  0.40658088  0.74599022  1
  Li  Li2  1  0.33709946  0.65567137  0.10378973  1
  Li  Li3  1  0.08862807  0.88115365  0.15922445  1
  O  O4  1  0.95524620  0.51122761  0.38695035  1
  O  O5  1  0.10561912  0.78476834  0.36001336  1
  S  S6  1  0.49707448  0.22350408  0.04122569  1
  S  S7  1  0.70932997  0.60123966  0.08311559  1
  S  S8  1  0.12266641  0.04974078  0.98673659  1
  S  S9  1  0.79064618  0.83612087  0.53440692  1
  S  S10  1  0.02403671  0.22441138  0.50271369  1
  Zr  Zr11  1  0.50403929  0.29793433  0.63793170  1
