# generated using pymatgen
data_LiO3
_symmetry_space_group_name_H-M   'P 1'
_cell_length_a   2.53641412
_cell_length_b   3.64580027
_cell_length_c   3.66091666
_cell_angle_alpha   97.54239399
_cell_angle_beta   79.55949389
_cell_angle_gamma   101.43788184
_symmetry_Int_Tables_number   1
_chemical_formula_structural   LiO3
_chemical_formula_sum   'Li1 O3'
_cell_volume   32.47180803
_cell_formula_units_Z   1
loop_
 _symmetry_equiv_pos_site_id
 _symmetry_equiv_pos_as_xyz
  1  'x, y, z'
loop_
 _atom_site_type_symbol
 _atom_site_label
 _atom_site_symmetry_multiplicity
 _atom_site_fract_x
 _atom_site_fract_y
 _atom_site_fract_z
 _atom_site_occupancy
  Li  Li0  1  0.00000000  0.50000000  0.50000000  1
  O  O1  1  0.55094531  0.21562336  0.20295413  1
  O  O2  1  -0.55094531  -0.21562336  -0.20295413  1
  O  O3  1  0.50000000  -0.00000000  0.00000000  1
