# generated using pymatgen
data_Li2Zr
_symmetry_space_group_name_H-M   'P 1'
_cell_length_a   3.50500985
_cell_length_b   3.50500985
_cell_length_c   14.04520826
_cell_angle_alpha   90.00000000
_cell_angle_beta   90.00000000
_cell_angle_gamma   120.00000000
_symmetry_Int_Tables_number   1
_chemical_formula_structural   Li2Zr
_chemical_formula_sum   'Li4 Zr2'
_cell_volume   149.42982935
_cell_formula_units_Z   2
loop_
 _symmetry_equiv_pos_site_id
 _symmetry_equiv_pos_as_xyz
  1  'x, y, z'
loop_
 _atom_site_type_symbol
 _atom_site_label
 _atom_site_symmetry_multiplicity
 _atom_site_fract_x
 _atom_site_fract_y
 _atom_site_fract_z
 _atom_site_occupancy
  Li  Li0  1  0.33333333  0.66666667  0.05298263  1
  Li  Li1  1  0.66666667  0.33333333  0.55298263  1
  Li  Li2  1  0.66666667  0.33333333  -0.05298263  1
  Li  Li3  1  0.33333333  0.66666667  0.44701737  1
  Zr  Zr4  1  0.00000000  0.00000000  0.00000000  1
  Zr  Zr5  1  0.00000000  0.00000000  0.50000000  1
