# generated using pymatgen
data_LiPS
_symmetry_space_group_name_H-M   'P 1'
_cell_length_a   8.66355084
_cell_length_b   5.94553630
_cell_length_c   6.46870366
_cell_angle_alpha   113.69532283
_cell_angle_beta   113.53608620
_cell_angle_gamma   109.36299142
_symmetry_Int_Tables_number   1
_chemical_formula_structural   LiPS
_chemical_formula_sum   'Li4 P4 S4'
_cell_volume   226.64806064
_cell_formula_units_Z   4
loop_
 _symmetry_equiv_pos_site_id
 _symmetry_equiv_pos_as_xyz
  1  'x, y, z'
loop_
 _atom_site_type_symbol
 _atom_site_label
 _atom_site_symmetry_multiplicity
 _atom_site_fract_x
 _atom_site_fract_y
 _atom_site_fract_z
 _atom_site_occupancy
  Li  Li0  1  0.04450465  0.71011760  0.95509136  1
  Li  Li1  1  0.95549535  0.28988240  0.04490864  1
  Li  Li2  1  0.00000000  0.00000000  0.00000000  1
  Li  Li3  1  0.00000000  0.50000000  0.50000000  1
  P  P4  1  0.58061335  0.45055951  0.73161375  1
  P  P5  1  -0.58061335  -0.45055951  -0.73161375  1
  P  P6  1  0.50000000  0.50000000  0.50000000  1
  P  P7  1  0.00000000  0.00000000  0.50000000  1
  S  S8  1  0.81363355  0.19066510  0.12933305  1
  S  S9  1  0.18636645  0.80933490  0.87066695  1
  S  S10  1  0.72803457  0.34942626  0.70166996  1
  S  S11  1  0.27196543  0.65057374  0.29833004  1
