# generated using pymatgen
data_Li4P
_symmetry_space_group_name_H-M   'P 1'
_cell_length_a   4.86796603
_cell_length_b   6.50419089
_cell_length_c   3.84331505
_cell_angle_alpha   58.76188197
_cell_angle_beta   126.31659241
_cell_angle_gamma   105.36015289
_symmetry_Int_Tables_number   1
_chemical_formula_structural   Li4P
_chemical_formula_sum   'Li4 P1'
_cell_volume   83.67746585
_cell_formula_units_Z   1
loop_
 _symmetry_equiv_pos_site_id
 _symmetry_equiv_pos_as_xyz
  1  'x, y, z'
loop_
 _atom_site_type_symbol
 _atom_site_label
 _atom_site_symmetry_multiplicity
 _atom_site_fract_x
 _atom_site_fract_y
 _atom_site_fract_z
 _atom_site_occupancy
  Li  Li0  1  0.02193846  0.17892702  0.17518094  1
  Li  Li1  1  -0.02193846  -0.17892702  -0.17518094  1
  Li  Li2  1  0.25527914  0.90524504  0.61677500  1
  Li  Li3  1  0.74472086  0.09475496  0.38322500  1
  P  P4  1  0.50000000  0.00000000  0.50000000  1
