# generated using pymatgen
data_Li4Al
_symmetry_space_group_name_H-M   'P 1'
_cell_length_a   5.20869815
_cell_length_b   4.06148896
_cell_length_c   3.17989269
_cell_angle_alpha   98.16853609
_cell_angle_beta   112.16607862
_cell_angle_gamma   94.00115663
_symmetry_Int_Tables_number   1
_chemical_formula_structural   Li4Al
_chemical_formula_sum   'Li4 Al1'
_cell_volume   61.10593925
_cell_formula_units_Z   1
loop_
 _symmetry_equiv_pos_site_id
 _symmetry_equiv_pos_as_xyz
  1  'x, y, z'
loop_
 _atom_site_type_symbol
 _atom_site_label
 _atom_site_symmetry_multiplicity
 _atom_site_fract_x
 _atom_site_fract_y
 _atom_site_fract_z
 _atom_site_occupancy
  Al  Al0  1  0.00000000  0.00000000  0.00000000  1
  Li  Li1  1  0.50000000  0.50000000  0.00000000  1
  Li  Li2  1  0.50000000  0.00000000  0.00000000  1
  Li  Li3  1  0.22764570  0.81250578  0.01393771  1
  Li  Li4  1  -0.22764570  -0.81250578  -0.01393771  1
