# generated using pymatgen
data_Li7O4
_symmetry_space_group_name_H-M   'P 1'
_cell_length_a   12.14088971
_cell_length_b   3.33656661
_cell_length_c   4.11673542
_cell_angle_alpha   77.60422111
_cell_angle_beta   116.39370903
_cell_angle_gamma   74.96900470
_symmetry_Int_Tables_number   1
_chemical_formula_structural   Li7O4
_chemical_formula_sum   'Li7 O4'
_cell_volume   133.36488557
_cell_formula_units_Z   1
loop_
 _symmetry_equiv_pos_site_id
 _symmetry_equiv_pos_as_xyz
  1  'x, y, z'
loop_
 _atom_site_type_symbol
 _atom_site_label
 _atom_site_symmetry_multiplicity
 _atom_site_fract_x
 _atom_site_fract_y
 _atom_site_fract_z
 _atom_site_occupancy
  Li  Li0  1  0.21643840  0.64104755  0.63598531  1
  Li  Li1  1  -0.21643840  -0.64104755  -0.63598531  1
  Li  Li2  1  0.10347043  0.88866598  0.13483467  1
  Li  Li3  1  0.89652957  0.11133402  0.86516533  1
  Li  Li4  1  0.50000000  0.00000000  0.50000000  1
  Li  Li5  1  0.00000000  0.00000000  0.50000000  1
  Li  Li6  1  0.00000000  0.50000000  0.00000000  1
  O  O7  1  0.36488267  0.13083001  0.87307478  1
  O  O8  1  0.63511733  0.86916999  0.12692522  1
  O  O9  1  0.46353572  0.60307202  0.56766294  1
  O  O10  1  0.53646428  0.39692798  0.43233706  1
