# generated using pymatgen
data_Li3Ti4
_symmetry_space_group_name_H-M   'P 1'
_cell_length_a   5.47995941
_cell_length_b   8.61601142
_cell_length_c   2.86998111
_cell_angle_alpha   66.42840438
_cell_angle_beta   90.84667905
_cell_angle_gamma   91.53178929
_symmetry_Int_Tables_number   1
_chemical_formula_structural   Li3Ti4
_chemical_formula_sum   'Li3 Ti4'
_cell_volume   124.15508662
_cell_formula_units_Z   1
loop_
 _symmetry_equiv_pos_site_id
 _symmetry_equiv_pos_as_xyz
  1  'x, y, z'
loop_
 _atom_site_type_symbol
 _atom_site_label
 _atom_site_symmetry_multiplicity
 _atom_site_fract_x
 _atom_site_fract_y
 _atom_site_fract_z
 _atom_site_occupancy
  Li  Li0  1  0.59488909  0.18712184  0.09819188  1
  Li  Li1  1  0.20812951  0.11138524  0.21366431  1
  Li  Li2  1  0.99070593  0.98656236  0.61876470  1
  Ti  Ti3  1  0.96387064  0.45850838  0.03937412  1
  Ti  Ti4  1  0.34837998  0.50831888  0.09982279  1
  Ti  Ti5  1  0.09330990  0.75949845  0.63992592  1
  Ti  Ti6  1  0.61353916  0.28102354  0.45951875  1
