# generated using pymatgen
data_Li4AlO2
_symmetry_space_group_name_H-M   'P 1'
_cell_length_a   6.30792726
_cell_length_b   3.89677665
_cell_length_c   6.40988202
_cell_angle_alpha   98.34516484
_cell_angle_beta   71.76446996
_cell_angle_gamma   95.07659499
_symmetry_Int_Tables_number   1
_chemical_formula_structural   Li4AlO2
_chemical_formula_sum   'Li4 Al1 O2'
_cell_volume   147.90566515
_cell_formula_units_Z   1
loop_
 _symmetry_equiv_pos_site_id
 _symmetry_equiv_pos_as_xyz
  1  'x, y, z'
loop_
 _atom_site_type_symbol
 _atom_site_label
 _atom_site_symmetry_multiplicity
 _atom_site_fract_x
 _atom_site_fract_y
 _atom_site_fract_z
 _atom_site_occupancy
  Al  Al0  1  0.00000000  0.00000000  0.00000000  1
  Li  Li1  1  0.50000000  0.50000000  0.50000000  1
  Li  Li2  1  0.00000000  0.50000000  0.00000000  1
  Li  Li3  1  0.00000000  0.00000000  0.50000000  1
  Li  Li4  1  0.00000000  0.50000000  0.50000000  1
  O  O5  1  0.43344451  0.34465366  0.27962680  1
  O  O6  1  -0.43344451  -0.34465366  -0.27962680  1
