# generated using pymatgen
data_Li5S3O
_symmetry_space_group_name_H-M   'P 1'
_cell_length_a   7.00841541
_cell_length_b   4.29958425
_cell_length_c   5.23646913
_cell_angle_alpha   119.62608645
_cell_angle_beta   96.35073929
_cell_angle_gamma   102.15038459
_symmetry_Int_Tables_number   1
_chemical_formula_structural   Li5S3O
_chemical_formula_sum   'Li5 S3 O1'
_cell_volume   129.74253233
_cell_formula_units_Z   1
loop_
 _symmetry_equiv_pos_site_id
 _symmetry_equiv_pos_as_xyz
  1  'x, y, z'
loop_
 _atom_site_type_symbol
 _atom_site_label
 _atom_site_symmetry_multiplicity
 _atom_site_fract_x
 _atom_site_fract_y
 _atom_site_fract_z
 _atom_site_occupancy
  Li  Li0  1  0.76582646  0.54848956  0.69284772  1
  Li  Li1  1  0.09714055  0.27007030  0.01369554  1
  Li  Li2  1  0.58377586  0.14703029  0.58063712  1
  Li  Li3  1  0.94216321  0.87567407  0.09834904  1
  Li  Li4  1  0.80077683  0.92345806  0.29313748  1
  O  O5  1  0.03738766  0.26633268  0.81512538  1
  S  S6  1  0.26078502  0.95213951  0.14035929  1
  S  S7  1  0.16501561  0.90315224  0.55634151  1
  S  S8  1  0.20744795  0.45281946  0.88161292  1
