# generated using pymatgen
data_Li5Al2
_symmetry_space_group_name_H-M   'P 1'
_cell_length_a   4.87717634
_cell_length_b   9.29058213
_cell_length_c   5.43209994
_cell_angle_alpha   65.65038577
_cell_angle_beta   143.12810715
_cell_angle_gamma   100.66105488
_symmetry_Int_Tables_number   1
_chemical_formula_structural   Li5Al2
_chemical_formula_sum   'Li5 Al2'
_cell_volume   129.74371795
_cell_formula_units_Z   1
loop_
 _symmetry_equiv_pos_site_id
 _symmetry_equiv_pos_as_xyz
  1  'x, y, z'
loop_
 _atom_site_type_symbol
 _atom_site_label
 _atom_site_symmetry_multiplicity
 _atom_site_fract_x
 _atom_site_fract_y
 _atom_site_fract_z
 _atom_site_occupancy
  Al  Al0  1  0.71745148  0.07409377  0.08763776  1
  Al  Al1  1  0.15357151  0.01019827  0.13067526  1
  Li  Li2  1  0.94677278  0.37747384  0.13076202  1
  Li  Li3  1  0.47843648  0.13811875  0.52190169  1
  Li  Li4  1  0.08724294  0.31668018  0.00976570  1
  Li  Li5  1  0.49303775  0.45412339  0.34308955  1
  Li  Li6  1  0.72136776  0.53289195  0.92367571  1
