# generated using pymatgen
data_Li3P3O11
_symmetry_space_group_name_H-M   'P 1'
_cell_length_a   7.64381864
_cell_length_b   8.02361998
_cell_length_c   3.76141816
_cell_angle_alpha   98.46413813
_cell_angle_beta   73.61893639
_cell_angle_gamma   76.51838053
_symmetry_Int_Tables_number   1
_chemical_formula_structural   Li3P3O11
_chemical_formula_sum   'Li3 P3 O11'
_cell_volume   209.54784420
_cell_formula_units_Z   1
loop_
 _symmetry_equiv_pos_site_id
 _symmetry_equiv_pos_as_xyz
  1  'x, y, z'
loop_
 _atom_site_type_symbol
 _atom_site_label
 _atom_site_symmetry_multiplicity
 _atom_site_fract_x
 _atom_site_fract_y
 _atom_site_fract_z
 _atom_site_occupancy
  Li  Li0  1  0.50000000  0.00000000  0.00000000  1
  Li  Li1  1  0.18614211  0.59643399  0.14876310  1
  Li  Li2  1  -0.18614211  -0.59643399  -0.14876310  1
  O  O3  1  0.39990031  0.22391686  0.62809939  1
  O  O4  1  0.60009969  0.77608314  0.37190061  1
  O  O5  1  0.08578788  0.40090897  0.40193925  1
  O  O6  1  0.91421212  0.59909103  0.59806075  1
  O  O7  1  0.55893687  0.13611195  0.42297257  1
  O  O8  1  0.44106313  0.86388805  0.57702743  1
  O  O9  1  0.00000000  0.50000000  0.50000000  1
  O  O10  1  0.18703006  0.44093309  0.35472009  1
  O  O11  1  0.81296994  0.55906691  0.64527991  1
  O  O12  1  0.00000000  0.00000000  0.50000000  1
  O  O13  1  0.00000000  0.50000000  0.00000000  1
  P  P14  1  0.50000000  0.50000000  0.50000000  1
  P  P15  1  0.50000000  0.00000000  0.50000000  1
  P  P16  1  0.50000000  0.50000000  -0.00000000  1
