# generated using pymatgen
data_Li2O2
_symmetry_space_group_name_H-M   'P 1'
_cell_length_a   4.19775443
_cell_length_b   6.16435079
_cell_length_c   3.82548140
_cell_angle_alpha   90.00000000
_cell_angle_beta   81.57830828
_cell_angle_gamma   90.00000000
_symmetry_Int_Tables_number   1
_chemical_formula_structural   Li2O2
_chemical_formula_sum   'Li4 O4'
_cell_volume   97.92239334
_cell_formula_units_Z   2
loop_
 _symmetry_equiv_pos_site_id
 _symmetry_equiv_pos_as_xyz
  1  'x, y, z'
loop_
 _atom_site_type_symbol
 _atom_site_label
 _atom_site_symmetry_multiplicity
 _atom_site_fract_x
 _atom_site_fract_y
 _atom_site_fract_z
 _atom_site_occupancy
  Li  Li0  1  0.00000000  0.00000000  0.50000000  1
  Li  Li1  1  0.00000000  0.50000000  -0.00000000  1
  Li  Li2  1  0.50000000  0.00000000  0.00000000  1
  Li  Li3  1  0.50000000  0.50000000  0.50000000  1
  O  O4  1  0.02182921  0.29444938  0.02500458  1
  O  O5  1  -0.02182921  0.79444938  0.47499542  1
  O  O6  1  -0.02182921  -0.29444938  -0.02500458  1
  O  O7  1  0.02182921  0.20555062  0.52500458  1
