# generated using pymatgen
data_Li2O
_symmetry_space_group_name_H-M   'P 1'
_cell_length_a   4.60816248
_cell_length_b   4.14346863
_cell_length_c   3.80205301
_cell_angle_alpha   115.70015573
_cell_angle_beta   68.44778900
_cell_angle_gamma   113.65966613
_symmetry_Int_Tables_number   1
_chemical_formula_structural   Li2O
_chemical_formula_sum   'Li4 O2'
_cell_volume   58.24894065
_cell_formula_units_Z   2
loop_
 _symmetry_equiv_pos_site_id
 _symmetry_equiv_pos_as_xyz
  1  'x, y, z'
loop_
 _atom_site_type_symbol
 _atom_site_label
 _atom_site_symmetry_multiplicity
 _atom_site_fract_x
 _atom_site_fract_y
 _atom_site_fract_z
 _atom_site_occupancy
  Li  Li0  1  0.97862507  0.68428681  0.35939879  1
  Li  Li1  1  0.01588206  0.45602514  0.90507999  1
  Li  Li2  1  0.69401753  0.61997823  0.21558416  1
  Li  Li3  1  0.74684541  0.19652031  0.62478176  1
  O  O4  1  0.42173888  0.15268980  0.15618974  1
  O  O5  1  0.29992302  0.99722477  0.78660160  1
