# generated using pymatgen
data_LiTi3S
_symmetry_space_group_name_H-M   'P 1'
_cell_length_a   7.83012122
_cell_length_b   6.15640552
_cell_length_c   3.16490812
_cell_angle_alpha   56.44714729
_cell_angle_beta   107.17321368
_cell_angle_gamma   100.70663977
_symmetry_Int_Tables_number   1
_chemical_formula_structural   LiTi3S
_chemical_formula_sum   'Li1 Ti3 S1'
_cell_volume   121.42717319
_cell_formula_units_Z   1
loop_
 _symmetry_equiv_pos_site_id
 _symmetry_equiv_pos_as_xyz
  1  'x, y, z'
loop_
 _atom_site_type_symbol
 _atom_site_label
 _atom_site_symmetry_multiplicity
 _atom_site_fract_x
 _atom_site_fract_y
 _atom_site_fract_z
 _atom_site_occupancy
  Li  Li0  1  0.29555616  0.06589937  0.43634686  1
  S  S1  1  0.01815265  0.43536583  0.47244619  1
  Ti  Ti2  1  0.89096176  0.67018284  0.80597379  1
  Ti  Ti3  1  0.63294871  0.24667725  0.49112518  1
  Ti  Ti4  1  0.57627484  0.79648371  0.90002849  1
