# generated using pymatgen
data_Li3O2
_symmetry_space_group_name_H-M   'P 1'
_cell_length_a   3.88586360
_cell_length_b   12.84655332
_cell_length_c   4.26793519
_cell_angle_alpha   92.37948306
_cell_angle_beta   120.06805153
_cell_angle_gamma   89.54685716
_symmetry_Int_Tables_number   1
_chemical_formula_structural   Li3O2
_chemical_formula_sum   'Li6 O4'
_cell_volume   184.20503473
_cell_formula_units_Z   2
loop_
 _symmetry_equiv_pos_site_id
 _symmetry_equiv_pos_as_xyz
  1  'x, y, z'
loop_
 _atom_site_type_symbol
 _atom_site_label
 _atom_site_symmetry_multiplicity
 _atom_site_fract_x
 _atom_site_fract_y
 _atom_site_fract_z
 _atom_site_occupancy
  Li  Li0  1  0.33478813  0.03435410  0.31123892  1
  Li  Li1  1  0.08131581  0.75525060  0.72497030  1
  Li  Li2  1  0.45092722  0.55341980  0.12750425  1
  Li  Li3  1  0.04102286  0.64550998  0.96688698  1
  Li  Li4  1  0.00228271  0.65492358  0.58499465  1
  Li  Li5  1  0.41719457  0.15829766  0.48850397  1
  O  O6  1  0.63410811  0.20263855  0.72442039  1
  O  O7  1  0.18044324  0.97084352  0.06335520  1
  O  O8  1  0.07629280  0.40540717  0.54593470  1
  O  O9  1  0.84490865  0.98121949  0.51702517  1
