# generated using pymatgen
data_Li7(PO5)2
_symmetry_space_group_name_H-M   'P 1'
_cell_length_a   4.38593409
_cell_length_b   8.17705412
_cell_length_c   8.81631951
_cell_angle_alpha   82.78466318
_cell_angle_beta   71.21497404
_cell_angle_gamma   111.22067334
_symmetry_Int_Tables_number   1
_chemical_formula_structural   Li7(PO5)2
_chemical_formula_sum   'Li7 P2 O10'
_cell_volume   268.33863606
_cell_formula_units_Z   1
loop_
 _symmetry_equiv_pos_site_id
 _symmetry_equiv_pos_as_xyz
  1  'x, y, z'
loop_
 _atom_site_type_symbol
 _atom_site_label
 _atom_site_symmetry_multiplicity
 _atom_site_fract_x
 _atom_site_fract_y
 _atom_site_fract_z
 _atom_site_occupancy
  Li  Li0  1  0.76061089  0.98252080  0.17660273  1
  Li  Li1  1  0.46024021  0.79757993  0.10614621  1
  Li  Li2  1  0.16500473  0.15812517  0.11185626  1
  Li  Li3  1  0.46623361  0.98783839  0.16413329  1
  Li  Li4  1  0.93092430  0.96074314  0.34692229  1
  Li  Li5  1  0.78769165  0.43826108  0.65447166  1
  Li  Li6  1  0.49415048  0.83570783  0.71039948  1
  O  O7  1  0.04888936  0.37073069  0.62275056  1
  O  O8  1  0.21658414  0.55456021  0.50522849  1
  O  O9  1  0.13098760  0.15735695  0.56110038  1
  O  O10  1  0.80905427  0.64123722  0.85372583  1
  O  O11  1  0.96750901  0.08073095  0.75959711  1
  O  O12  1  0.86132006  0.93506208  0.80999980  1
  O  O13  1  0.30568875  0.28859162  0.97564326  1
  O  O14  1  0.80161040  0.87284570  0.02482896  1
  O  O15  1  0.76019971  0.20472509  0.41425165  1
  O  O16  1  0.32953979  0.54034682  0.62384050  1
  P  P17  1  0.52680621  0.53847283  0.39961115  1
  P  P18  1  0.87586767  0.80891612  0.70443577  1
