# generated using pymatgen
data_Li5ZrP4O3
_symmetry_space_group_name_H-M   'P 1'
_cell_length_a   8.73608219
_cell_length_b   6.03198476
_cell_length_c   4.66683930
_cell_angle_alpha   124.16437944
_cell_angle_beta   109.87194283
_cell_angle_gamma   67.64573734
_symmetry_Int_Tables_number   1
_chemical_formula_structural   Li5ZrP4O3
_chemical_formula_sum   'Li5 Zr1 P4 O3'
_cell_volume   185.61013618
_cell_formula_units_Z   1
loop_
 _symmetry_equiv_pos_site_id
 _symmetry_equiv_pos_as_xyz
  1  'x, y, z'
loop_
 _atom_site_type_symbol
 _atom_site_label
 _atom_site_symmetry_multiplicity
 _atom_site_fract_x
 _atom_site_fract_y
 _atom_site_fract_z
 _atom_site_occupancy
  Li  Li0  1  0.15790738  0.55220873  0.61447523  1
  Li  Li1  1  0.84209262  0.44779127  0.38552477  1
  Li  Li2  1  0.69645122  0.27093750  0.61717678  1
  Li  Li3  1  0.30354878  0.72906250  0.38282322  1
  Li  Li4  1  0.50000000  0.50000000  0.00000000  1
  O  O5  1  0.04519587  0.82601301  0.89563189  1
  O  O6  1  0.95480413  0.17398699  0.10436811  1
  O  O7  1  0.00000000  0.00000000  0.50000000  1
  P  P8  1  0.50000000  0.00000000  0.00000000  1
  P  P9  1  0.76692890  0.19553734  0.87836894  1
  P  P10  1  -0.76692890  -0.19553734  -0.87836894  1
  P  P11  1  0.00000000  0.50000000  0.50000000  1
  Zr  Zr12  1  0.00000000  0.50000000  0.00000000  1
