# generated using pymatgen
data_Li2O2
_symmetry_space_group_name_H-M   'P 1'
_cell_length_a   5.23554068
_cell_length_b   5.80061408
_cell_length_c   5.56806513
_cell_angle_alpha   57.10639922
_cell_angle_beta   105.55990429
_cell_angle_gamma   130.06319552
_symmetry_Int_Tables_number   1
_chemical_formula_structural   Li2O2
_chemical_formula_sum   'Li4 O4'
_cell_volume   107.79586513
_cell_formula_units_Z   2
loop_
 _symmetry_equiv_pos_site_id
 _symmetry_equiv_pos_as_xyz
  1  'x, y, z'
loop_
 _atom_site_type_symbol
 _atom_site_label
 _atom_site_symmetry_multiplicity
 _atom_site_fract_x
 _atom_site_fract_y
 _atom_site_fract_z
 _atom_site_occupancy
  Li  Li0  1  0.92978470  0.10055084  0.38640851  1
  Li  Li1  1  0.66721048  0.63916860  0.32485974  1
  Li  Li2  1  0.67296124  0.03070265  0.72643844  1
  Li  Li3  1  0.50751914  0.54664230  0.95226020  1
  O  O4  1  0.18517209  0.78003793  0.88961515  1
  O  O5  1  0.74972164  0.84482474  0.33661686  1
  O  O6  1  0.24213899  0.34857437  0.66171121  1
  O  O7  1  0.93359589  0.36874847  0.60269345  1
