# generated using pymatgen
data_Li3O2
_symmetry_space_group_name_H-M   'P 1'
_cell_length_a   3.44252968
_cell_length_b   5.41176294
_cell_length_c   6.15530935
_cell_angle_alpha   65.56194939
_cell_angle_beta   75.33658879
_cell_angle_gamma   121.59787794
_symmetry_Int_Tables_number   1
_chemical_formula_structural   Li3O2
_chemical_formula_sum   'Li3 O2'
_cell_volume   70.73585723
_cell_formula_units_Z   1
loop_
 _symmetry_equiv_pos_site_id
 _symmetry_equiv_pos_as_xyz
  1  'x, y, z'
loop_
 _atom_site_type_symbol
 _atom_site_label
 _atom_site_symmetry_multiplicity
 _atom_site_fract_x
 _atom_site_fract_y
 _atom_site_fract_z
 _atom_site_occupancy
  Li  Li0  1  0.56175856  0.98692002  0.35967260  1
  Li  Li1  1  0.81420902  0.97065183  0.95906909  1
  Li  Li2  1  0.91839078  0.35832307  0.22508670  1
  O  O3  1  0.99589887  0.55894368  0.91868532  1
  O  O4  1  0.07017740  0.64943854  0.25845593  1
