# generated using pymatgen
data_Li3O2
_symmetry_space_group_name_H-M   'P 1'
_cell_length_a   8.61884821
_cell_length_b   5.61558037
_cell_length_c   4.53774756
_cell_angle_alpha   108.66097035
_cell_angle_beta   93.87184616
_cell_angle_gamma   60.95624155
_symmetry_Int_Tables_number   1
_chemical_formula_structural   Li3O2
_chemical_formula_sum   'Li6 O4'
_cell_volume   180.88870143
_cell_formula_units_Z   2
loop_
 _symmetry_equiv_pos_site_id
 _symmetry_equiv_pos_as_xyz
  1  'x, y, z'
loop_
 _atom_site_type_symbol
 _atom_site_label
 _atom_site_symmetry_multiplicity
 _atom_site_fract_x
 _atom_site_fract_y
 _atom_site_fract_z
 _atom_site_occupancy
  Li  Li0  1  0.44188681  0.92381886  0.49774231  1
  Li  Li1  1  0.87925836  0.15850213  0.69805914  1
  Li  Li2  1  0.95682090  0.92166773  0.76526261  1
  Li  Li3  1  0.52028682  0.22038525  0.78619994  1
  Li  Li4  1  0.02935310  0.10173849  0.58008867  1
  Li  Li5  1  0.71758061  0.48225224  0.98598101  1
  O  O6  1  0.45273567  0.31308041  0.34992936  1
  O  O7  1  0.09516913  0.44251271  0.37408091  1
  O  O8  1  0.11633238  0.82221462  0.91860382  1
  O  O9  1  0.85906644  0.37325649  0.86874629  1
