# generated using pymatgen
data_Li2O
_symmetry_space_group_name_H-M   'P 1'
_cell_length_a   6.90677103
_cell_length_b   4.29437508
_cell_length_c   3.58363138
_cell_angle_alpha   103.74798976
_cell_angle_beta   82.60410774
_cell_angle_gamma   96.80965342
_symmetry_Int_Tables_number   1
_chemical_formula_structural   Li2O
_chemical_formula_sum   'Li4 O2'
_cell_volume   101.95933194
_cell_formula_units_Z   2
loop_
 _symmetry_equiv_pos_site_id
 _symmetry_equiv_pos_as_xyz
  1  'x, y, z'
loop_
 _atom_site_type_symbol
 _atom_site_label
 _atom_site_symmetry_multiplicity
 _atom_site_fract_x
 _atom_site_fract_y
 _atom_site_fract_z
 _atom_site_occupancy
  Li  Li0  1  0.17928048  0.46699201  0.22188098  1
  Li  Li1  1  -0.17928048  -0.46699201  -0.22188098  1
  Li  Li2  1  0.50000000  0.50000000  0.50000000  1
  Li  Li3  1  0.00000000  0.00000000  0.00000000  1
  O  O4  1  0.98880193  0.35765905  0.17726861  1
  O  O5  1  0.01119807  0.64234095  0.82273139  1
