# generated using pymatgen
data_Li4S5O11
_symmetry_space_group_name_H-M   'P 1'
_cell_length_a   9.80146843
_cell_length_b   4.52758599
_cell_length_c   11.14860770
_cell_angle_alpha   85.63405251
_cell_angle_beta   87.54979978
_cell_angle_gamma   143.66631417
_symmetry_Int_Tables_number   1
_chemical_formula_structural   Li4S5O11
_chemical_formula_sum   'Li4 S5 O11'
_cell_volume   287.70593515
_cell_formula_units_Z   1
loop_
 _symmetry_equiv_pos_site_id
 _symmetry_equiv_pos_as_xyz
  1  'x, y, z'
loop_
 _atom_site_type_symbol
 _atom_site_label
 _atom_site_symmetry_multiplicity
 _atom_site_fract_x
 _atom_site_fract_y
 _atom_site_fract_z
 _atom_site_occupancy
  Li  Li0  1  0.50000000  0.50000000  0.00000000  1
  Li  Li1  1  0.50000000  0.00000000  -0.00000000  1
  Li  Li2  1  0.72991656  0.11529962  0.46767345  1
  Li  Li3  1  -0.72991656  -0.11529962  -0.46767345  1
  O  O4  1  0.78916757  0.66872617  0.43863689  1
  O  O5  1  0.21083243  0.33127383  0.56136311  1
  O  O6  1  0.58376269  0.50619457  0.79561752  1
  O  O7  1  0.41623731  0.49380543  0.20438248  1
  O  O8  1  0.00000000  0.50000000  0.50000000  1
  O  O9  1  0.37025792  0.09996462  0.62281831  1
  O  O10  1  0.62974208  0.90003538  0.37718169  1
  O  O11  1  0.06889723  0.59590590  0.27047628  1
  O  O12  1  0.93110277  0.40409410  0.72952372  1
  O  O13  1  0.08847337  0.00618263  0.42021435  1
  O  O14  1  0.91152663  0.99381737  0.57978565  1
  S  S15  1  0.50000000  0.50000000  0.50000000  1
  S  S16  1  0.00000000  0.00000000  0.50000000  1
  S  S17  1  0.00000000  0.50000000  0.00000000  1
  S  S18  1  0.00000000  0.00000000  0.00000000  1
  S  S19  1  0.50000000  0.00000000  0.50000000  1
