# generated using pymatgen
data_Li8O5
_symmetry_space_group_name_H-M   'P 1'
_cell_length_a   7.15943136
_cell_length_b   9.65695556
_cell_length_c   4.45304114
_cell_angle_alpha   96.28907590
_cell_angle_beta   115.59059661
_cell_angle_gamma   99.93253725
_symmetry_Int_Tables_number   1
_chemical_formula_structural   Li8O5
_chemical_formula_sum   'Li8 O5'
_cell_volume   267.57826389
_cell_formula_units_Z   1
loop_
 _symmetry_equiv_pos_site_id
 _symmetry_equiv_pos_as_xyz
  1  'x, y, z'
loop_
 _atom_site_type_symbol
 _atom_site_label
 _atom_site_symmetry_multiplicity
 _atom_site_fract_x
 _atom_site_fract_y
 _atom_site_fract_z
 _atom_site_occupancy
  Li  Li0  1  0.00000000  0.00000000  0.00000000  1
  Li  Li1  1  0.43857451  0.42291301  0.12137036  1
  Li  Li2  1  -0.43857451  -0.42291301  -0.12137036  1
  Li  Li3  1  0.32690413  0.71239732  0.12921749  1
  Li  Li4  1  0.67309587  0.28760268  0.87078251  1
  Li  Li5  1  0.20430251  0.61371767  0.69366105  1
  Li  Li6  1  0.79569749  0.38628233  0.30633895  1
  Li  Li7  1  0.00000000  0.50000000  -0.00000000  1
  O  O8  1  0.51305607  0.28579201  0.09486000  1
  O  O9  1  0.48694393  0.71420799  0.90514000  1
  O  O10  1  0.50000000  0.50000000  0.00000000  1
  O  O11  1  0.00000000  0.00000000  0.50000000  1
  O  O12  1  0.50000000  0.00000000  0.00000000  1
