# generated using pymatgen
data_Li2O2
_symmetry_space_group_name_H-M   'P 1'
_cell_length_a   4.97941631
_cell_length_b   4.97941631
_cell_length_c   3.09844860
_cell_angle_alpha   90.00000000
_cell_angle_beta   90.00000000
_cell_angle_gamma   90.00000000
_symmetry_Int_Tables_number   1
_chemical_formula_structural   Li2O2
_chemical_formula_sum   'Li4 O4'
_cell_volume   76.82475268
_cell_formula_units_Z   2
loop_
 _symmetry_equiv_pos_site_id
 _symmetry_equiv_pos_as_xyz
  1  'x, y, z'
loop_
 _atom_site_type_symbol
 _atom_site_label
 _atom_site_symmetry_multiplicity
 _atom_site_fract_x
 _atom_site_fract_y
 _atom_site_fract_z
 _atom_site_occupancy
  Li  Li0  1  0.61059400  0.61059400  0.00000000  1
  Li  Li1  1  -0.61059400  -0.61059400  0.00000000  1
  Li  Li2  1  -0.11059400  1.11059400  0.50000000  1
  Li  Li3  1  1.11059400  -0.11059400  0.50000000  1
  O  O4  1  0.10295469  0.89704531  0.00000000  1
  O  O5  1  0.89704531  0.10295469  0.00000000  1
  O  O6  1  0.60295469  0.60295469  0.50000000  1
  O  O7  1  0.39704531  0.39704531  0.50000000  1
