# generated using pymatgen
data_LiO3
_symmetry_space_group_name_H-M   'P 1'
_cell_length_a   2.27568882
_cell_length_b   4.90716204
_cell_length_c   4.20516592
_cell_angle_alpha   83.48635875
_cell_angle_beta   113.68663168
_cell_angle_gamma   106.98194776
_symmetry_Int_Tables_number   1
_chemical_formula_structural   LiO3
_chemical_formula_sum   'Li1 O3'
_cell_volume   41.12824548
_cell_formula_units_Z   1
loop_
 _symmetry_equiv_pos_site_id
 _symmetry_equiv_pos_as_xyz
  1  'x, y, z'
loop_
 _atom_site_type_symbol
 _atom_site_label
 _atom_site_symmetry_multiplicity
 _atom_site_fract_x
 _atom_site_fract_y
 _atom_site_fract_z
 _atom_site_occupancy
  Li  Li0  1  0.80712861  0.87760619  0.69562172  1
  O  O1  1  0.85792018  0.55897803  0.52814800  1
  O  O2  1  0.38509950  0.94603980  0.68725152  1
  O  O3  1  0.28031255  0.76320506  0.17272321  1
