# generated using pymatgen
data_Li4O
_symmetry_space_group_name_H-M   'P 1'
_cell_length_a   9.73385094
_cell_length_b   9.73385094
_cell_length_c   1.82120913
_cell_angle_alpha   90.00000000
_cell_angle_beta   90.00000000
_cell_angle_gamma   90.00000000
_symmetry_Int_Tables_number   1
_chemical_formula_structural   Li4O
_chemical_formula_sum   'Li8 O2'
_cell_volume   172.55565746
_cell_formula_units_Z   2
loop_
 _symmetry_equiv_pos_site_id
 _symmetry_equiv_pos_as_xyz
  1  'x, y, z'
loop_
 _atom_site_type_symbol
 _atom_site_label
 _atom_site_symmetry_multiplicity
 _atom_site_fract_x
 _atom_site_fract_y
 _atom_site_fract_z
 _atom_site_occupancy
  Li  Li0  1  0.95016394  0.18758363  0.00000000  1
  Li  Li1  1  -0.95016394  -0.18758363  0.00000000  1
  Li  Li2  1  0.31241637  1.45016394  0.50000000  1
  Li  Li3  1  0.68758363  -0.45016394  0.50000000  1
  Li  Li4  1  -0.45016394  0.68758363  0.50000000  1
  Li  Li5  1  1.45016394  0.31241637  0.50000000  1
  Li  Li6  1  0.18758363  0.95016394  0.00000000  1
  Li  Li7  1  -0.18758363  -0.95016394  -0.00000000  1
  O  O8  1  0.00000000  0.00000000  0.50000000  1
  O  O9  1  0.50000000  0.50000000  0.00000000  1
