# generated using pymatgen
data_Li7La3Ti4
_symmetry_space_group_name_H-M   'P 1'
_cell_length_a   6.26032446
_cell_length_b   11.69051709
_cell_length_c   6.04391710
_cell_angle_alpha   79.79829192
_cell_angle_beta   85.10812888
_cell_angle_gamma   54.83375876
_symmetry_Int_Tables_number   1
_chemical_formula_structural   Li7La3Ti4
_chemical_formula_sum   'Li7 La3 Ti4'
_cell_volume   355.80633319
_cell_formula_units_Z   1
loop_
 _symmetry_equiv_pos_site_id
 _symmetry_equiv_pos_as_xyz
  1  'x, y, z'
loop_
 _atom_site_type_symbol
 _atom_site_label
 _atom_site_symmetry_multiplicity
 _atom_site_fract_x
 _atom_site_fract_y
 _atom_site_fract_z
 _atom_site_occupancy
  La  La0  1  0.57050419  0.39772504  0.92859737  1
  La  La1  1  0.25771994  0.90762604  0.29685033  1
  La  La2  1  0.64536758  0.43778141  0.22842175  1
  Li  Li3  1  0.24265137  0.64692757  0.11999998  1
  Li  Li4  1  0.36682402  0.09548939  0.30070362  1
  Li  Li5  1  0.09388583  0.02695256  0.72425614  1
  Li  Li6  1  0.46278857  0.58010756  0.88042816  1
  Li  Li7  1  0.93489948  0.79953960  0.47756080  1
  Li  Li8  1  0.60375181  0.18540491  0.35319318  1
  Li  Li9  1  0.89812322  0.49364398  0.43268607  1
  Ti  Ti10  1  0.32474474  0.03846137  0.88804520  1
  Ti  Ti11  1  0.66139125  0.72412720  0.88461654  1
  Ti  Ti12  1  0.68998645  0.17211986  0.91726580  1
  Ti  Ti13  1  0.20569663  0.33280212  0.49085503  1
