# generated using pymatgen
data_Li5O9
_symmetry_space_group_name_H-M   'P 1'
_cell_length_a   5.83135534
_cell_length_b   5.37838210
_cell_length_c   5.76735414
_cell_angle_alpha   77.38006564
_cell_angle_beta   58.65472412
_cell_angle_gamma   94.34571764
_symmetry_Int_Tables_number   1
_chemical_formula_structural   Li5O9
_chemical_formula_sum   'Li5 O9'
_cell_volume   146.80498191
_cell_formula_units_Z   1
loop_
 _symmetry_equiv_pos_site_id
 _symmetry_equiv_pos_as_xyz
  1  'x, y, z'
loop_
 _atom_site_type_symbol
 _atom_site_label
 _atom_site_symmetry_multiplicity
 _atom_site_fract_x
 _atom_site_fract_y
 _atom_site_fract_z
 _atom_site_occupancy
  Li  Li0  1  0.93284610  0.42434646  0.61707533  1
  Li  Li1  1  0.56108287  0.17601445  0.93468176  1
  Li  Li2  1  0.33866334  0.94460774  0.69631069  1
  Li  Li3  1  0.52307306  0.59338864  0.33159483  1
  Li  Li4  1  0.47295084  0.49216119  0.69429993  1
  O  O5  1  0.87869996  0.91957859  0.60061802  1
  O  O6  1  0.24948049  0.73902184  0.55684830  1
  O  O7  1  0.25559627  0.70149827  0.81039380  1
  O  O8  1  0.82604103  0.91751199  0.25230898  1
  O  O9  1  0.22492007  0.12150171  0.88563849  1
  O  O10  1  0.31395957  0.43443002  0.20955657  1
  O  O11  1  0.76216695  0.31992079  0.56389636  1
  O  O12  1  0.49135824  0.38646882  0.29217918  1
  O  O13  1  0.74541892  0.57072193  0.67437784  1
