# generated using pymatgen
data_Li5O12
_symmetry_space_group_name_H-M   'P 1'
_cell_length_a   9.20106663
_cell_length_b   5.00792055
_cell_length_c   5.18538794
_cell_angle_alpha   81.00070183
_cell_angle_beta   100.87055528
_cell_angle_gamma   132.96992202
_symmetry_Int_Tables_number   1
_chemical_formula_structural   Li5O12
_chemical_formula_sum   'Li5 O12'
_cell_volume   171.56390536
_cell_formula_units_Z   1
loop_
 _symmetry_equiv_pos_site_id
 _symmetry_equiv_pos_as_xyz
  1  'x, y, z'
loop_
 _atom_site_type_symbol
 _atom_site_label
 _atom_site_symmetry_multiplicity
 _atom_site_fract_x
 _atom_site_fract_y
 _atom_site_fract_z
 _atom_site_occupancy
  Li  Li0  1  0.29696982  0.79448615  0.72973287  1
  Li  Li1  1  0.55431965  0.83938449  0.01532278  1
  Li  Li2  1  0.39032989  0.00585068  0.28472827  1
  Li  Li3  1  0.94401598  0.48701781  0.60314533  1
  Li  Li4  1  0.68171655  0.58010887  0.96419281  1
  O  O5  1  0.97664865  0.99921912  0.75858306  1
  O  O6  1  0.51398480  0.06784556  0.51083853  1
  O  O7  1  0.12765189  0.59983094  0.57513855  1
  O  O8  1  0.03613707  0.58847353  0.93227478  1
  O  O9  1  0.73435525  0.25251015  0.03100677  1
  O  O10  1  0.91949432  0.51556870  0.84264766  1
  O  O11  1  0.80728582  0.98251152  0.64586785  1
  O  O12  1  0.60936394  0.46824089  0.36183612  1
  O  O13  1  0.75998317  0.51630516  0.67162023  1
  O  O14  1  0.87544972  0.00009417  0.27832187  1
  O  O15  1  0.28469482  0.69644236  0.98175956  1
  O  O16  1  0.63140313  0.02843802  0.67318229  1
