# generated using pymatgen
data_Li5S2ClO12
_symmetry_space_group_name_H-M   'P 1'
_cell_length_a   4.83648639
_cell_length_b   6.65670611
_cell_length_c   11.61002233
_cell_angle_alpha   126.74168646
_cell_angle_beta   101.47529095
_cell_angle_gamma   63.14363865
_symmetry_Int_Tables_number   1
_chemical_formula_structural   Li5S2ClO12
_chemical_formula_sum   'Li5 S2 Cl1 O12'
_cell_volume   265.89053387
_cell_formula_units_Z   1
loop_
 _symmetry_equiv_pos_site_id
 _symmetry_equiv_pos_as_xyz
  1  'x, y, z'
loop_
 _atom_site_type_symbol
 _atom_site_label
 _atom_site_symmetry_multiplicity
 _atom_site_fract_x
 _atom_site_fract_y
 _atom_site_fract_z
 _atom_site_occupancy
  Cl  Cl0  1  0.32426702  0.19543764  0.06058609  1
  Li  Li1  1  0.29439316  0.82119142  0.84114965  1
  Li  Li2  1  0.37421888  0.14135028  0.87741305  1
  Li  Li3  1  0.13277521  0.96516535  0.71433503  1
  Li  Li4  1  0.09809515  0.99856188  0.60793744  1
  Li  Li5  1  0.82986211  0.24753734  0.49183176  1
  O  O6  1  0.90841428  0.58268403  0.38893780  1
  O  O7  1  0.42105492  0.31943537  0.92750903  1
  O  O8  1  0.64818865  0.88821196  0.02737034  1
  O  O9  1  0.50442723  0.54480987  0.07026033  1
  O  O10  1  0.81386179  0.61402608  0.25606268  1
  O  O11  1  0.07034732  0.50117817  0.40266589  1
  O  O12  1  0.42354242  0.58529806  0.55983147  1
  O  O13  1  0.27991170  0.05633424  0.33012883  1
  O  O14  1  0.00374271  0.71459987  0.38960187  1
  O  O15  1  0.11117288  0.24324630  0.92779403  1
  O  O16  1  0.88284445  0.08283797  0.95490023  1
  O  O17  1  0.79236708  0.55349318  0.82522554  1
  S  S18  1  0.52404013  0.91531365  0.88747848  1
  S  S19  1  0.43745327  0.83254640  0.96685885  1
