# generated using pymatgen
data_Li3La2
_symmetry_space_group_name_H-M   'P 1'
_cell_length_a   6.67808419
_cell_length_b   8.90194685
_cell_length_c   6.14846872
_cell_angle_alpha   90.00000000
_cell_angle_beta   44.98275941
_cell_angle_gamma   90.00000000
_symmetry_Int_Tables_number   1
_chemical_formula_structural   Li3La2
_chemical_formula_sum   'Li6 La4'
_cell_volume   258.37954877
_cell_formula_units_Z   2
loop_
 _symmetry_equiv_pos_site_id
 _symmetry_equiv_pos_as_xyz
  1  'x, y, z'
loop_
 _atom_site_type_symbol
 _atom_site_label
 _atom_site_symmetry_multiplicity
 _atom_site_fract_x
 _atom_site_fract_y
 _atom_site_fract_z
 _atom_site_occupancy
  La  La0  1  0.17807095  0.51677550  0.05855128  1
  La  La1  1  0.82192905  0.01677550  0.44144872  1
  La  La2  1  0.82192905  0.48322450  0.94144872  1
  La  La3  1  0.17807095  0.98322450  0.55855128  1
  Li  Li4  1  0.50000000  0.00000000  0.50000000  1
  Li  Li5  1  0.50000000  0.50000000  0.00000000  1
  Li  Li6  1  0.04217758  0.67881400  0.04125456  1
  Li  Li7  1  -0.04217758  1.17881400  0.45874544  1
  Li  Li8  1  -0.04217758  -0.67881400  -0.04125456  1
  Li  Li9  1  0.04217758  -0.17881400  0.54125456  1
