# generated using pymatgen
data_Li7(PO4)3
_symmetry_space_group_name_H-M   'P 1'
_cell_length_a   7.18106635
_cell_length_b   11.80015124
_cell_length_c   5.60152745
_cell_angle_alpha   105.94896197
_cell_angle_beta   103.38965823
_cell_angle_gamma   106.20234450
_symmetry_Int_Tables_number   1
_chemical_formula_structural   Li7(PO4)3
_chemical_formula_sum   'Li7 P3 O12'
_cell_volume   413.11854816
_cell_formula_units_Z   1
loop_
 _symmetry_equiv_pos_site_id
 _symmetry_equiv_pos_as_xyz
  1  'x, y, z'
loop_
 _atom_site_type_symbol
 _atom_site_label
 _atom_site_symmetry_multiplicity
 _atom_site_fract_x
 _atom_site_fract_y
 _atom_site_fract_z
 _atom_site_occupancy
  Li  Li0  1  0.86199535  0.61808043  0.46651211  1
  Li  Li1  1  -0.86199535  -0.61808043  -0.46651211  1
  Li  Li2  1  0.50000000  0.50000000  0.50000000  1
  Li  Li3  1  0.32060683  0.18689848  0.06916712  1
  Li  Li4  1  0.67939317  0.81310152  0.93083288  1
  Li  Li5  1  0.68261617  0.17384180  0.52525092  1
  Li  Li6  1  0.31738383  0.82615820  0.47474908  1
  O  O7  1  0.85419889  0.70368642  0.57333596  1
  O  O8  1  0.14580111  0.29631358  0.42666404  1
  O  O9  1  0.55293974  0.59754105  0.32095060  1
  O  O10  1  0.44706026  0.40245895  0.67904940  1
  O  O11  1  0.88326150  0.84697862  0.89923294  1
  O  O12  1  0.11673850  0.15302138  0.10076706  1
  O  O13  1  0.89083034  0.06922556  0.93540616  1
  O  O14  1  0.10916966  0.93077444  0.06459384  1
  O  O15  1  0.97442572  0.32356121  0.08086063  1
  O  O16  1  0.02557428  0.67643879  0.91913937  1
  O  O17  1  0.50000000  0.00000000  0.50000000  1
  O  O18  1  0.00000000  0.00000000  0.50000000  1
  P  P19  1  0.81836386  0.10248725  0.08624988  1
  P  P20  1  0.18163614  0.89751275  0.91375012  1
  P  P21  1  0.00000000  0.50000000  0.50000000  1
