# generated using pymatgen
data_Li3O2
_symmetry_space_group_name_H-M   'P 1'
_cell_length_a   5.33752180
_cell_length_b   4.84471026
_cell_length_c   4.42511203
_cell_angle_alpha   47.64355510
_cell_angle_beta   96.94081962
_cell_angle_gamma   66.96818813
_symmetry_Int_Tables_number   1
_chemical_formula_structural   Li3O2
_chemical_formula_sum   'Li3 O2'
_cell_volume   64.19102421
_cell_formula_units_Z   1
loop_
 _symmetry_equiv_pos_site_id
 _symmetry_equiv_pos_as_xyz
  1  'x, y, z'
loop_
 _atom_site_type_symbol
 _atom_site_label
 _atom_site_symmetry_multiplicity
 _atom_site_fract_x
 _atom_site_fract_y
 _atom_site_fract_z
 _atom_site_occupancy
  Li  Li0  1  0.20594115  0.00773003  0.69927864  1
  Li  Li1  1  -0.20594115  -0.00773003  -0.69927864  1
  Li  Li2  1  0.00000000  0.50000000  0.50000000  1
  O  O3  1  0.25157960  0.57670473  0.83335399  1
  O  O4  1  0.74842040  0.42329527  0.16664601  1
