# generated using pymatgen
data_Li3O
_symmetry_space_group_name_H-M   'P 1'
_cell_length_a   4.03311130
_cell_length_b   4.02936600
_cell_length_c   5.88517676
_cell_angle_alpha   90.01984544
_cell_angle_beta   110.45767687
_cell_angle_gamma   101.90317318
_symmetry_Int_Tables_number   1
_chemical_formula_structural   Li3O
_chemical_formula_sum   'Li6 O2'
_cell_volume   87.40650338
_cell_formula_units_Z   2
loop_
 _symmetry_equiv_pos_site_id
 _symmetry_equiv_pos_as_xyz
  1  'x, y, z'
loop_
 _atom_site_type_symbol
 _atom_site_label
 _atom_site_symmetry_multiplicity
 _atom_site_fract_x
 _atom_site_fract_y
 _atom_site_fract_z
 _atom_site_occupancy
  Li  Li0  1  0.35031229  0.64495018  0.64301573  1
  Li  Li1  1  -0.35031229  -0.64495018  -0.64301573  1
  Li  Li2  1  0.00000000  0.00000000  0.00000000  1
  Li  Li3  1  0.50000000  0.50000000  0.00000000  1
  Li  Li4  1  0.02845434  0.26087632  0.83520159  1
  Li  Li5  1  0.97154566  0.73912368  0.16479841  1
  O  O6  1  0.70295815  0.63882824  0.60577370  1
  O  O7  1  0.29704185  0.36117176  0.39422630  1
