# generated using pymatgen
data_Li8S
_symmetry_space_group_name_H-M   'P 1'
_cell_length_a   5.59592963
_cell_length_b   5.64627504
_cell_length_c   5.97075694
_cell_angle_alpha   91.26555418
_cell_angle_beta   64.53913810
_cell_angle_gamma   72.43040946
_symmetry_Int_Tables_number   1
_chemical_formula_structural   Li8S
_chemical_formula_sum   'Li8 S1'
_cell_volume   159.83804991
_cell_formula_units_Z   1
loop_
 _symmetry_equiv_pos_site_id
 _symmetry_equiv_pos_as_xyz
  1  'x, y, z'
loop_
 _atom_site_type_symbol
 _atom_site_label
 _atom_site_symmetry_multiplicity
 _atom_site_fract_x
 _atom_site_fract_y
 _atom_site_fract_z
 _atom_site_occupancy
  Li  Li0  1  0.50000000  0.50000000  -0.00000000  1
  Li  Li1  1  0.00000000  0.50000000  0.50000000  1
  Li  Li2  1  0.66012147  0.43234559  0.28381033  1
  Li  Li3  1  -0.66012147  -0.43234559  -0.28381033  1
  Li  Li4  1  0.66697148  0.72821390  0.31407793  1
  Li  Li5  1  0.33302852  0.27178610  0.68592207  1
  Li  Li6  1  0.03789290  0.81770560  0.60004798  1
  Li  Li7  1  0.96210710  0.18229440  0.39995202  1
  S  S8  1  0.50000000  0.00000000  0.50000000  1
