# generated using pymatgen
data_Li7O3
_symmetry_space_group_name_H-M   'P 1'
_cell_length_a   3.87643300
_cell_length_b   7.60168680
_cell_length_c   7.52318860
_cell_angle_alpha   60.19808971
_cell_angle_beta   70.23857789
_cell_angle_gamma   91.33419336
_symmetry_Int_Tables_number   1
_chemical_formula_structural   Li7O3
_chemical_formula_sum   'Li7 O3'
_cell_volume   176.00297098
_cell_formula_units_Z   1
loop_
 _symmetry_equiv_pos_site_id
 _symmetry_equiv_pos_as_xyz
  1  'x, y, z'
loop_
 _atom_site_type_symbol
 _atom_site_label
 _atom_site_symmetry_multiplicity
 _atom_site_fract_x
 _atom_site_fract_y
 _atom_site_fract_z
 _atom_site_occupancy
  Li  Li0  1  0.00000000  0.50000000  0.00000000  1
  Li  Li1  1  0.33471312  0.11711206  0.13075875  1
  Li  Li2  1  -0.33471312  -0.11711206  -0.13075875  1
  Li  Li3  1  0.50000000  0.00000000  0.50000000  1
  Li  Li4  1  0.35948139  0.70029442  0.78776970  1
  Li  Li5  1  0.64051861  0.29970558  0.21223030  1
  Li  Li6  1  0.00000000  0.00000000  0.00000000  1
  O  O7  1  0.60015878  0.60845696  0.45083906  1
  O  O8  1  0.39984122  0.39154304  0.54916094  1
  O  O9  1  0.00000000  0.50000000  0.50000000  1
