# generated using pymatgen
data_Li3S4O9
_symmetry_space_group_name_H-M   'P 1'
_cell_length_a   8.02217370
_cell_length_b   3.81647394
_cell_length_c   5.02232665
_cell_angle_alpha   61.51646826
_cell_angle_beta   98.92320643
_cell_angle_gamma   101.78161619
_symmetry_Int_Tables_number   1
_chemical_formula_structural   Li3S4O9
_chemical_formula_sum   'Li3 S4 O9'
_cell_volume   132.00751203
_cell_formula_units_Z   1
loop_
 _symmetry_equiv_pos_site_id
 _symmetry_equiv_pos_as_xyz
  1  'x, y, z'
loop_
 _atom_site_type_symbol
 _atom_site_label
 _atom_site_symmetry_multiplicity
 _atom_site_fract_x
 _atom_site_fract_y
 _atom_site_fract_z
 _atom_site_occupancy
  Li  Li0  1  0.00000000  0.50000000  0.00000000  1
  Li  Li1  1  0.50000000  0.50000000  0.50000000  1
  Li  Li2  1  0.50000000  -0.00000000  -0.00000000  1
  O  O3  1  0.10543998  0.40721370  0.41731859  1
  O  O4  1  0.89456002  0.59278630  0.58268141  1
  O  O5  1  0.13840585  0.78959257  0.37812317  1
  O  O6  1  0.86159415  0.21040743  0.62187683  1
  O  O7  1  0.00000000  0.50000000  0.50000000  1
  O  O8  1  0.89323979  0.73670717  0.30256106  1
  O  O9  1  0.10676021  0.26329283  0.69743894  1
  O  O10  1  0.72116021  0.88797360  0.53259933  1
  O  O11  1  0.27883979  0.11202640  0.46740067  1
  S  S12  1  0.23563635  0.72047766  0.58580171  1
  S  S13  1  -0.23563635  -0.72047766  -0.58580171  1
  S  S14  1  0.26657909  0.31062368  0.78680325  1
  S  S15  1  0.73342091  0.68937632  0.21319675  1
