# generated using pymatgen
data_Li7Zr2O8
_symmetry_space_group_name_H-M   'P 1'
_cell_length_a   7.18268307
_cell_length_b   5.90429904
_cell_length_c   7.12296252
_cell_angle_alpha   71.57878155
_cell_angle_beta   97.60903632
_cell_angle_gamma   103.75616281
_symmetry_Int_Tables_number   1
_chemical_formula_structural   Li7Zr2O8
_chemical_formula_sum   'Li7 Zr2 O8'
_cell_volume   277.83830315
_cell_formula_units_Z   1
loop_
 _symmetry_equiv_pos_site_id
 _symmetry_equiv_pos_as_xyz
  1  'x, y, z'
loop_
 _atom_site_type_symbol
 _atom_site_label
 _atom_site_symmetry_multiplicity
 _atom_site_fract_x
 _atom_site_fract_y
 _atom_site_fract_z
 _atom_site_occupancy
  Li  Li0  1  0.72617500  0.43286996  0.46739877  1
  Li  Li1  1  0.44278091  0.34613019  0.46095281  1
  Li  Li2  1  0.09123861  0.51229677  0.37321838  1
  Li  Li3  1  0.82298196  0.24531726  0.28418875  1
  Li  Li4  1  0.21262636  0.87854265  0.35942048  1
  Li  Li5  1  0.09827268  0.83538596  0.88387407  1
  Li  Li6  1  0.35552063  0.51835181  0.24817373  1
  O  O7  1  0.37312082  0.07086096  0.78924805  1
  O  O8  1  0.53923436  0.45802581  0.98586010  1
  O  O9  1  0.16758990  0.23366323  0.34399770  1
  O  O10  1  0.52762328  0.79426960  0.61714148  1
  O  O11  1  0.15986389  0.06365185  0.10331360  1
  O  O12  1  0.73547054  0.94202979  0.27095574  1
  O  O13  1  0.37796478  0.68946430  0.09122378  1
  O  O14  1  0.57355293  0.31926308  0.83592547  1
  Zr  Zr15  1  0.99808777  0.27128689  0.97970584  1
  Zr  Zr16  1  0.48553450  0.94962369  0.91871787  1
