# generated using pymatgen
data_Li4Zr2O5
_symmetry_space_group_name_H-M   'P 1'
_cell_length_a   6.09715367
_cell_length_b   6.38671944
_cell_length_c   7.49894114
_cell_angle_alpha   76.08556146
_cell_angle_beta   66.41483782
_cell_angle_gamma   109.37703699
_symmetry_Int_Tables_number   1
_chemical_formula_structural   Li4Zr2O5
_chemical_formula_sum   'Li4 Zr2 O5'
_cell_volume   227.72624880
_cell_formula_units_Z   1
loop_
 _symmetry_equiv_pos_site_id
 _symmetry_equiv_pos_as_xyz
  1  'x, y, z'
loop_
 _atom_site_type_symbol
 _atom_site_label
 _atom_site_symmetry_multiplicity
 _atom_site_fract_x
 _atom_site_fract_y
 _atom_site_fract_z
 _atom_site_occupancy
  Li  Li0  1  0.76674371  0.33704091  0.55531648  1
  Li  Li1  1  0.03312103  0.19137440  0.37743167  1
  Li  Li2  1  0.83414288  0.75345328  0.35917736  1
  Li  Li3  1  0.78201738  0.77866325  0.88779933  1
  O  O4  1  0.82155161  0.51416298  0.10999356  1
  O  O5  1  0.25858699  0.54809900  0.87932236  1
  O  O6  1  0.26386798  0.66825413  0.57833605  1
  O  O7  1  0.19677480  0.42672809  0.18276668  1
  O  O8  1  0.27984666  0.43755216  0.32663698  1
  Zr  Zr9  1  0.32015558  0.71493076  0.31951248  1
  Zr  Zr10  1  0.61721972  0.57453397  0.62625514  1
