# generated using pymatgen
data_LiO2
_symmetry_space_group_name_H-M   'P 1'
_cell_length_a   5.59241120
_cell_length_b   4.05304579
_cell_length_c   4.73147510
_cell_angle_alpha   64.10375083
_cell_angle_beta   66.42024876
_cell_angle_gamma   113.93835528
_symmetry_Int_Tables_number   1
_chemical_formula_structural   LiO2
_chemical_formula_sum   'Li2 O4'
_cell_volume   62.79310424
_cell_formula_units_Z   2
loop_
 _symmetry_equiv_pos_site_id
 _symmetry_equiv_pos_as_xyz
  1  'x, y, z'
loop_
 _atom_site_type_symbol
 _atom_site_label
 _atom_site_symmetry_multiplicity
 _atom_site_fract_x
 _atom_site_fract_y
 _atom_site_fract_z
 _atom_site_occupancy
  Li  Li0  1  0.25356390  0.84129933  0.72719856  1
  Li  Li1  1  0.54787635  0.50177312  0.98754499  1
  O  O2  1  0.28376812  0.20196835  0.03562871  1
  O  O3  1  0.12877170  0.04181020  0.51846468  1
  O  O4  1  0.40461503  0.76705519  0.17707998  1
  O  O5  1  0.66090181  0.50701331  0.70433316  1
