# generated using pymatgen
data_Li3S
_symmetry_space_group_name_H-M   'P 1'
_cell_length_a   5.71342186
_cell_length_b   3.42596621
_cell_length_c   5.53571788
_cell_angle_alpha   75.39941393
_cell_angle_beta   92.89439592
_cell_angle_gamma   76.78147531
_symmetry_Int_Tables_number   1
_chemical_formula_structural   Li3S
_chemical_formula_sum   'Li3 S1'
_cell_volume   101.40399137
_cell_formula_units_Z   1
loop_
 _symmetry_equiv_pos_site_id
 _symmetry_equiv_pos_as_xyz
  1  'x, y, z'
loop_
 _atom_site_type_symbol
 _atom_site_label
 _atom_site_symmetry_multiplicity
 _atom_site_fract_x
 _atom_site_fract_y
 _atom_site_fract_z
 _atom_site_occupancy
  Li  Li0  1  0.90011941  0.29888787  0.00297565  1
  Li  Li1  1  0.38575752  0.99970887  0.63541845  1
  Li  Li2  1  0.60102610  0.81039975  0.26751410  1
  S  S3  1  0.99037344  0.75209437  0.25881225  1
