# generated using pymatgen
data_Li2O2
_symmetry_space_group_name_H-M   'P 1'
_cell_length_a   6.62378721
_cell_length_b   3.53171936
_cell_length_c   12.49227316
_cell_angle_alpha   78.67473874
_cell_angle_beta   101.74984917
_cell_angle_gamma   119.24143936
_symmetry_Int_Tables_number   1
_chemical_formula_structural   Li2O2
_chemical_formula_sum   'Li7 O7'
_cell_volume   248.04177336
_cell_formula_units_Z   3
loop_
 _symmetry_equiv_pos_site_id
 _symmetry_equiv_pos_as_xyz
  1  'x, y, z'
loop_
 _atom_site_type_symbol
 _atom_site_label
 _atom_site_symmetry_multiplicity
 _atom_site_fract_x
 _atom_site_fract_y
 _atom_site_fract_z
 _atom_site_occupancy
  Li  Li0  1  0.05295472  0.42850961  0.62451902  1
  Li  Li1  1  0.29491302  0.22774592  0.78054043  1
  Li  Li2  1  0.57634784  0.98203091  0.45040200  1
  Li  Li3  1  0.91337051  0.50650190  0.88369296  1
  Li  Li4  1  0.11057618  0.31339413  0.51890678  1
  Li  Li5  1  0.57462688  0.34379005  0.37442227  1
  Li  Li6  1  0.86067449  0.20348587  0.40372035  1
  O  O7  1  0.93431836  0.25831415  0.00985842  1
  O  O8  1  0.99893376  0.13541562  0.19248683  1
  O  O9  1  0.52534330  0.90654625  0.02052987  1
  O  O10  1  0.20886071  0.29614324  0.94924388  1
  O  O11  1  0.45943589  0.81585578  0.12082594  1
  O  O12  1  0.19714153  0.66434621  0.48543139  1
  O  O13  1  0.79952721  0.11572027  0.04791442  1
