# generated using pymatgen
data_Li5O4
_symmetry_space_group_name_H-M   'P 1'
_cell_length_a   4.28147975
_cell_length_b   7.99227731
_cell_length_c   3.49379548
_cell_angle_alpha   71.03256177
_cell_angle_beta   112.80641834
_cell_angle_gamma   67.75030560
_symmetry_Int_Tables_number   1
_chemical_formula_structural   Li5O4
_chemical_formula_sum   'Li5 O4'
_cell_volume   84.98610550
_cell_formula_units_Z   1
loop_
 _symmetry_equiv_pos_site_id
 _symmetry_equiv_pos_as_xyz
  1  'x, y, z'
loop_
 _atom_site_type_symbol
 _atom_site_label
 _atom_site_symmetry_multiplicity
 _atom_site_fract_x
 _atom_site_fract_y
 _atom_site_fract_z
 _atom_site_occupancy
  Li  Li0  1  0.31410257  0.57925094  0.66603396  1
  Li  Li1  1  -0.31410257  -0.57925094  -0.66603396  1
  Li  Li2  1  0.00000000  0.50000000  0.00000000  1
  Li  Li3  1  0.00000000  0.00000000  0.00000000  1
  Li  Li4  1  0.00000000  0.50000000  0.50000000  1
  O  O5  1  0.11550004  0.31123406  0.98052325  1
  O  O6  1  0.88449996  0.68876594  0.01947675  1
  O  O7  1  0.65593931  0.77697930  0.59185857  1
  O  O8  1  0.34406069  0.22302070  0.40814143  1
