# generated using pymatgen
data_Li5O11
_symmetry_space_group_name_H-M   'P 1'
_cell_length_a   5.82523782
_cell_length_b   4.49097458
_cell_length_c   5.88904064
_cell_angle_alpha   94.98419197
_cell_angle_beta   101.90792264
_cell_angle_gamma   68.08752068
_symmetry_Int_Tables_number   1
_chemical_formula_structural   Li5O11
_chemical_formula_sum   'Li5 O11'
_cell_volume   139.84874065
_cell_formula_units_Z   1
loop_
 _symmetry_equiv_pos_site_id
 _symmetry_equiv_pos_as_xyz
  1  'x, y, z'
loop_
 _atom_site_type_symbol
 _atom_site_label
 _atom_site_symmetry_multiplicity
 _atom_site_fract_x
 _atom_site_fract_y
 _atom_site_fract_z
 _atom_site_occupancy
  Li  Li0  1  0.07112963  0.88321122  0.48535634  1
  Li  Li1  1  0.21505297  0.62913749  0.89123927  1
  Li  Li2  1  0.70280118  0.53094782  0.88701836  1
  Li  Li3  1  0.52485040  0.78657590  0.71179163  1
  Li  Li4  1  0.30484146  0.02706028  0.62598301  1
  O  O5  1  0.95210099  0.09166766  0.12199913  1
  O  O6  1  0.42775317  0.38769311  0.37043306  1
  O  O7  1  0.05915183  0.83511660  0.19742837  1
  O  O8  1  0.29446257  0.30249141  0.08749543  1
  O  O9  1  0.75378744  0.55752685  0.38292355  1
  O  O10  1  0.18879681  0.33747081  0.87592811  1
  O  O11  1  0.03403678  0.93007791  0.73311153  1
  O  O12  1  0.34741976  0.13290423  0.79739632  1
  O  O13  1  0.31539701  0.78280955  0.86891859  1
  O  O14  1  0.62278772  0.61076039  0.32203080  1
  O  O15  1  0.68603347  0.79031407  0.96523069  1
