# generated using pymatgen
data_Li7O4
_symmetry_space_group_name_H-M   'P 1'
_cell_length_a   8.51040648
_cell_length_b   3.94167874
_cell_length_c   5.69818724
_cell_angle_alpha   109.65405014
_cell_angle_beta   125.53172727
_cell_angle_gamma   92.43226785
_symmetry_Int_Tables_number   1
_chemical_formula_structural   Li7O4
_chemical_formula_sum   'Li7 O4'
_cell_volume   139.25503369
_cell_formula_units_Z   1
loop_
 _symmetry_equiv_pos_site_id
 _symmetry_equiv_pos_as_xyz
  1  'x, y, z'
loop_
 _atom_site_type_symbol
 _atom_site_label
 _atom_site_symmetry_multiplicity
 _atom_site_fract_x
 _atom_site_fract_y
 _atom_site_fract_z
 _atom_site_occupancy
  Li  Li0  1  0.58739458  0.89803839  0.90178307  1
  Li  Li1  1  0.08514109  0.00414699  0.48993522  1
  Li  Li2  1  0.26331395  0.65978628  0.65572624  1
  Li  Li3  1  0.09734417  0.22891906  0.00773679  1
  Li  Li4  1  0.40067837  0.47138214  0.92100301  1
  Li  Li5  1  0.51920401  0.43605375  0.67687653  1
  Li  Li6  1  0.43400712  0.08097867  0.79686953  1
  O  O7  1  0.01314489  0.48291255  0.68656628  1
  O  O8  1  0.90138828  0.15023431  0.71804325  1
  O  O9  1  0.46999191  0.30407073  0.24195079  1
  O  O10  1  0.55240108  0.00837421  0.23920727  1
