# generated using pymatgen
data_Li3SO3
_symmetry_space_group_name_H-M   'P 1'
_cell_length_a   5.30067282
_cell_length_b   6.84864611
_cell_length_c   5.99422804
_cell_angle_alpha   139.21825485
_cell_angle_beta   87.90935628
_cell_angle_gamma   72.54881249
_symmetry_Int_Tables_number   1
_chemical_formula_structural   Li3SO3
_chemical_formula_sum   'Li3 S1 O3'
_cell_volume   122.86663783
_cell_formula_units_Z   1
loop_
 _symmetry_equiv_pos_site_id
 _symmetry_equiv_pos_as_xyz
  1  'x, y, z'
loop_
 _atom_site_type_symbol
 _atom_site_label
 _atom_site_symmetry_multiplicity
 _atom_site_fract_x
 _atom_site_fract_y
 _atom_site_fract_z
 _atom_site_occupancy
  Li  Li0  1  0.27662896  0.04339795  0.51582653  1
  Li  Li1  1  -0.27662896  -0.04339795  -0.51582653  1
  Li  Li2  1  0.00000000  0.00000000  0.50000000  1
  O  O3  1  0.50000000  0.00000000  0.50000000  1
  O  O4  1  0.00000000  0.00000000  0.00000000  1
  O  O5  1  0.00000000  0.50000000  0.00000000  1
  S  S6  1  0.00000000  0.50000000  0.50000000  1
