# generated using pymatgen
data_Li2O
_symmetry_space_group_name_H-M   'P 1'
_cell_length_a   1.98908044
_cell_length_b   2.76654891
_cell_length_c   5.26948798
_cell_angle_alpha   84.79196684
_cell_angle_beta   64.55681211
_cell_angle_gamma   91.36401364
_symmetry_Int_Tables_number   1
_chemical_formula_structural   Li2O
_chemical_formula_sum   'Li2 O1'
_cell_volume   26.01323030
_cell_formula_units_Z   1
loop_
 _symmetry_equiv_pos_site_id
 _symmetry_equiv_pos_as_xyz
  1  'x, y, z'
loop_
 _atom_site_type_symbol
 _atom_site_label
 _atom_site_symmetry_multiplicity
 _atom_site_fract_x
 _atom_site_fract_y
 _atom_site_fract_z
 _atom_site_occupancy
  Li  Li0  1  0.79594153  0.87756770  0.90463121  1
  Li  Li1  1  0.03881974  0.29089082  0.95407921  1
  O  O2  1  0.69190049  0.55392004  0.54382161  1
