# generated using pymatgen
data_Li2O
_symmetry_space_group_name_H-M   'P 1'
_cell_length_a   7.75307157
_cell_length_b   3.51939077
_cell_length_c   5.92692509
_cell_angle_alpha   90.00000000
_cell_angle_beta   70.93862115
_cell_angle_gamma   90.00000000
_symmetry_Int_Tables_number   1
_chemical_formula_structural   Li2O
_chemical_formula_sum   'Li8 O4'
_cell_volume   152.85523309
_cell_formula_units_Z   4
loop_
 _symmetry_equiv_pos_site_id
 _symmetry_equiv_pos_as_xyz
  1  'x, y, z'
loop_
 _atom_site_type_symbol
 _atom_site_label
 _atom_site_symmetry_multiplicity
 _atom_site_fract_x
 _atom_site_fract_y
 _atom_site_fract_z
 _atom_site_occupancy
  Li  Li0  1  0.77579257  0.58876123  0.24767083  1
  Li  Li1  1  -0.77579257  0.58876123  0.25232917  1
  Li  Li2  1  -0.77579257  -0.58876123  -0.24767083  1
  Li  Li3  1  0.77579257  -0.58876123  0.74767083  1
  Li  Li4  1  1.27579257  1.08876123  0.24767083  1
  Li  Li5  1  -0.27579257  1.08876123  0.25232917  1
  Li  Li6  1  -0.27579257  -0.08876123  -0.24767083  1
  Li  Li7  1  1.27579257  -0.08876123  0.74767083  1
  O  O8  1  0.25000000  0.25000000  0.50000000  1
  O  O9  1  0.75000000  0.25000000  0.00000000  1
  O  O10  1  0.75000000  0.75000000  0.50000000  1
  O  O11  1  0.25000000  0.75000000  0.00000000  1
