# generated using pymatgen
data_Li5S8
_symmetry_space_group_name_H-M   'P 1'
_cell_length_a   6.25812737
_cell_length_b   6.40358692
_cell_length_c   7.04477178
_cell_angle_alpha   59.90933174
_cell_angle_beta   89.52763580
_cell_angle_gamma   100.25901447
_symmetry_Int_Tables_number   1
_chemical_formula_structural   Li5S8
_chemical_formula_sum   'Li5 S8'
_cell_volume   238.78095995
_cell_formula_units_Z   1
loop_
 _symmetry_equiv_pos_site_id
 _symmetry_equiv_pos_as_xyz
  1  'x, y, z'
loop_
 _atom_site_type_symbol
 _atom_site_label
 _atom_site_symmetry_multiplicity
 _atom_site_fract_x
 _atom_site_fract_y
 _atom_site_fract_z
 _atom_site_occupancy
  Li  Li0  1  0.54218360  0.60804019  0.68013813  1
  Li  Li1  1  0.69387392  0.67368962  0.83553973  1
  Li  Li2  1  0.66660146  0.24229315  0.86869499  1
  Li  Li3  1  0.84180822  0.22307688  0.71291850  1
  Li  Li4  1  0.63150422  0.79800013  0.95901843  1
  S  S5  1  0.78885808  0.63433145  0.15949462  1
  S  S6  1  0.94880117  0.21330995  0.55536926  1
  S  S7  1  0.50942082  0.52456271  0.38885489  1
  S  S8  1  0.82568193  0.88022738  0.84000328  1
  S  S9  1  0.78670322  0.63031916  0.47431796  1
  S  S10  1  0.87396204  0.99739522  0.08565473  1
  S  S11  1  0.03194767  0.90943488  0.30123611  1
  S  S12  1  0.25333507  0.34741642  0.71334109  1
