# generated using pymatgen
data_Li2O3
_symmetry_space_group_name_H-M   'P 1'
_cell_length_a   7.51865006
_cell_length_b   4.80592986
_cell_length_c   7.29138591
_cell_angle_alpha   84.29890730
_cell_angle_beta   71.73958797
_cell_angle_gamma   46.38655582
_symmetry_Int_Tables_number   1
_chemical_formula_structural   Li2O3
_chemical_formula_sum   'Li6 O9'
_cell_volume   178.51449006
_cell_formula_units_Z   3
loop_
 _symmetry_equiv_pos_site_id
 _symmetry_equiv_pos_as_xyz
  1  'x, y, z'
loop_
 _atom_site_type_symbol
 _atom_site_label
 _atom_site_symmetry_multiplicity
 _atom_site_fract_x
 _atom_site_fract_y
 _atom_site_fract_z
 _atom_site_occupancy
  Li  Li0  1  0.07351510  0.87789262  0.19075790  1
  Li  Li1  1  0.89556514  0.93480584  0.95979867  1
  Li  Li2  1  0.72074229  0.86991311  0.82644910  1
  Li  Li3  1  0.37717248  0.44196847  0.34721194  1
  Li  Li4  1  0.79822463  0.31736215  0.85332158  1
  Li  Li5  1  0.87029818  0.35128400  0.98188384  1
  O  O6  1  0.05340255  0.47973669  0.62907424  1
  O  O7  1  0.63427594  0.01850739  0.52846738  1
  O  O8  1  0.04493154  0.17808715  0.31050541  1
  O  O9  1  0.36822483  0.70664688  0.71673002  1
  O  O10  1  0.06692573  0.11148989  0.75324490  1
  O  O11  1  0.46370987  0.02444537  0.30090053  1
  O  O12  1  0.27691242  0.74586233  0.46804665  1
  O  O13  1  0.46578327  0.90414206  0.13715082  1
  O  O14  1  0.62006494  0.85476870  0.99247708  1
