# generated using pymatgen
data_Li2La3
_symmetry_space_group_name_H-M   'P 1'
_cell_length_a   7.51679102
_cell_length_b   4.26511778
_cell_length_c   5.39128892
_cell_angle_alpha   72.74169729
_cell_angle_beta   80.48135542
_cell_angle_gamma   92.83674946
_symmetry_Int_Tables_number   1
_chemical_formula_structural   Li2La3
_chemical_formula_sum   'Li2 La3'
_cell_volume   161.89644134
_cell_formula_units_Z   1
loop_
 _symmetry_equiv_pos_site_id
 _symmetry_equiv_pos_as_xyz
  1  'x, y, z'
loop_
 _atom_site_type_symbol
 _atom_site_label
 _atom_site_symmetry_multiplicity
 _atom_site_fract_x
 _atom_site_fract_y
 _atom_site_fract_z
 _atom_site_occupancy
  La  La0  1  0.85187229  0.13511953  0.99167225  1
  La  La1  1  0.47635501  0.18857004  0.33354130  1
  La  La2  1  0.20267739  0.53207826  0.73206496  1
  Li  Li3  1  0.33411784  0.97919960  0.64586152  1
  Li  Li4  1  0.67588124  0.67307311  0.71109807  1
