# generated using pymatgen
data_Li4Al
_symmetry_space_group_name_H-M   'P 1'
_cell_length_a   3.37187454
_cell_length_b   5.84165044
_cell_length_c   10.55913546
_cell_angle_alpha   90.00000000
_cell_angle_beta   88.95886063
_cell_angle_gamma   90.00000000
_symmetry_Int_Tables_number   1
_chemical_formula_structural   Li4Al
_chemical_formula_sum   'Li8 Al2'
_cell_volume   207.95225247
_cell_formula_units_Z   2
loop_
 _symmetry_equiv_pos_site_id
 _symmetry_equiv_pos_as_xyz
  1  'x, y, z'
loop_
 _atom_site_type_symbol
 _atom_site_label
 _atom_site_symmetry_multiplicity
 _atom_site_fract_x
 _atom_site_fract_y
 _atom_site_fract_z
 _atom_site_occupancy
  Al  Al0  1  0.00000000  0.00000000  0.00000000  1
  Al  Al1  1  0.00000000  0.50000000  0.50000000  1
  Li  Li2  1  0.50000000  0.00000000  0.00000000  1
  Li  Li3  1  0.50000000  0.50000000  0.50000000  1
  Li  Li4  1  0.66263345  0.48391478  0.06913337  1
  Li  Li5  1  -0.66263345  0.98391478  0.43086663  1
  Li  Li6  1  -0.66263345  -0.48391478  -0.06913337  1
  Li  Li7  1  0.66263345  0.01608522  0.56913337  1
  Li  Li8  1  0.00000000  0.00000000  0.50000000  1
  Li  Li9  1  0.00000000  0.50000000  0.00000000  1
