# generated using pymatgen
data_Li2O2
_symmetry_space_group_name_H-M   'P 1'
_cell_length_a   5.96136704
_cell_length_b   5.43994603
_cell_length_c   6.97217986
_cell_angle_alpha   116.33516454
_cell_angle_beta   65.70141619
_cell_angle_gamma   74.73901037
_symmetry_Int_Tables_number   1
_chemical_formula_structural   Li2O2
_chemical_formula_sum   'Li4 O4'
_cell_volume   154.76072545
_cell_formula_units_Z   2
loop_
 _symmetry_equiv_pos_site_id
 _symmetry_equiv_pos_as_xyz
  1  'x, y, z'
loop_
 _atom_site_type_symbol
 _atom_site_label
 _atom_site_symmetry_multiplicity
 _atom_site_fract_x
 _atom_site_fract_y
 _atom_site_fract_z
 _atom_site_occupancy
  Li  Li0  1  0.60978058  0.12087860  0.04457517  1
  Li  Li1  1  0.65043067  0.93568273  0.64366974  1
  Li  Li2  1  0.94233695  0.45109085  0.82386622  1
  Li  Li3  1  0.03543233  0.97401403  0.38342926  1
  O  O4  1  0.92113370  0.96024453  0.30999185  1
  O  O5  1  0.44599597  0.59071003  0.57265527  1
  O  O6  1  0.91828382  0.97384802  0.18301659  1
  O  O7  1  0.98342169  0.71565502  0.62876804  1
