# generated using pymatgen
data_Li8Al2O11
_symmetry_space_group_name_H-M   'P 1'
_cell_length_a   10.06794652
_cell_length_b   6.78315907
_cell_length_c   6.30368553
_cell_angle_alpha   57.52403068
_cell_angle_beta   99.57887872
_cell_angle_gamma   104.06104565
_symmetry_Int_Tables_number   1
_chemical_formula_structural   Li8Al2O11
_chemical_formula_sum   'Li8 Al2 O11'
_cell_volume   351.95051576
_cell_formula_units_Z   1
loop_
 _symmetry_equiv_pos_site_id
 _symmetry_equiv_pos_as_xyz
  1  'x, y, z'
loop_
 _atom_site_type_symbol
 _atom_site_label
 _atom_site_symmetry_multiplicity
 _atom_site_fract_x
 _atom_site_fract_y
 _atom_site_fract_z
 _atom_site_occupancy
  Al  Al0  1  0.12911685  0.12359286  0.49307362  1
  Al  Al1  1  0.62227631  0.76072867  0.58948600  1
  Li  Li2  1  0.37666235  0.00761261  0.09617153  1
  Li  Li3  1  0.19717129  0.08977400  0.76367463  1
  Li  Li4  1  0.19355031  0.02948963  0.24970002  1
  Li  Li5  1  0.30439519  0.38881287  0.22116808  1
  Li  Li6  1  0.71885685  0.19935595  0.03600490  1
  Li  Li7  1  0.09816869  0.62964999  0.25901750  1
  Li  Li8  1  0.01677354  0.92713394  0.16850253  1
  Li  Li9  1  0.56065807  0.69563793  0.93172017  1
  O  O10  1  0.69703722  0.72415617  0.29150329  1
  O  O11  1  0.97658928  0.66208535  0.78289969  1
  O  O12  1  0.65459077  0.78885621  0.76678453  1
  O  O13  1  0.52003440  0.58604360  0.64307039  1
  O  O14  1  0.84445633  0.56835941  0.24900008  1
  O  O15  1  0.63305040  0.36862522  0.77072062  1
  O  O16  1  0.74595588  0.25486269  0.36859801  1
  O  O17  1  0.62367636  0.58359745  0.11156106  1
  O  O18  1  0.96426850  0.23762842  0.16025998  1
  O  O19  1  0.88569293  0.05367100  0.96625829  1
  O  O20  1  0.48816071  0.72745829  0.75684554  1
