# generated using pymatgen
data_Li2La
_symmetry_space_group_name_H-M   'P 1'
_cell_length_a   3.82700964
_cell_length_b   4.75429359
_cell_length_c   8.71583618
_cell_angle_alpha   90.03678713
_cell_angle_beta   73.26112383
_cell_angle_gamma   103.34759100
_symmetry_Int_Tables_number   1
_chemical_formula_structural   Li2La
_chemical_formula_sum   'Li4 La2'
_cell_volume   147.39106710
_cell_formula_units_Z   2
loop_
 _symmetry_equiv_pos_site_id
 _symmetry_equiv_pos_as_xyz
  1  'x, y, z'
loop_
 _atom_site_type_symbol
 _atom_site_label
 _atom_site_symmetry_multiplicity
 _atom_site_fract_x
 _atom_site_fract_y
 _atom_site_fract_z
 _atom_site_occupancy
  La  La0  1  0.37441461  0.31359066  0.09440352  1
  La  La1  1  0.44856342  0.06692589  0.70877019  1
  Li  Li2  1  0.41975158  0.84362735  0.22560250  1
  Li  Li3  1  0.57282565  0.80181989  0.92795506  1
  Li  Li4  1  0.29323563  0.54501623  0.55330298  1
  Li  Li5  1  0.93815605  0.10556371  0.46415406  1
