# generated using pymatgen
data_Li2Al
_symmetry_space_group_name_H-M   'P 1'
_cell_length_a   7.04264835
_cell_length_b   6.42048429
_cell_length_c   6.38793017
_cell_angle_alpha   126.35177935
_cell_angle_beta   98.77410116
_cell_angle_gamma   121.22906657
_symmetry_Int_Tables_number   1
_chemical_formula_structural   Li2Al
_chemical_formula_sum   'Li4 Al2'
_cell_volume   148.08265734
_cell_formula_units_Z   2
loop_
 _symmetry_equiv_pos_site_id
 _symmetry_equiv_pos_as_xyz
  1  'x, y, z'
loop_
 _atom_site_type_symbol
 _atom_site_label
 _atom_site_symmetry_multiplicity
 _atom_site_fract_x
 _atom_site_fract_y
 _atom_site_fract_z
 _atom_site_occupancy
  Al  Al0  1  0.48343617  0.86722788  0.03206426  1
  Al  Al1  1  0.82049500  0.83493138  0.38090677  1
  Li  Li2  1  0.24984072  0.41629544  0.22733243  1
  Li  Li3  1  0.82360873  0.51985528  0.98174797  1
  Li  Li4  1  0.71893238  0.60281846  0.55626669  1
  Li  Li5  1  0.80995846  0.31466111  0.56095462  1
