# generated using pymatgen
data_Li6S7
_symmetry_space_group_name_H-M   'P 1'
_cell_length_a   10.85843899
_cell_length_b   8.03013605
_cell_length_c   5.16789096
_cell_angle_alpha   80.19484026
_cell_angle_beta   93.92369311
_cell_angle_gamma   49.41347431
_symmetry_Int_Tables_number   1
_chemical_formula_structural   Li6S7
_chemical_formula_sum   'Li6 S7'
_cell_volume   327.39392868
_cell_formula_units_Z   1
loop_
 _symmetry_equiv_pos_site_id
 _symmetry_equiv_pos_as_xyz
  1  'x, y, z'
loop_
 _atom_site_type_symbol
 _atom_site_label
 _atom_site_symmetry_multiplicity
 _atom_site_fract_x
 _atom_site_fract_y
 _atom_site_fract_z
 _atom_site_occupancy
  Li  Li0  1  0.12383963  0.25304048  0.22954144  1
  Li  Li1  1  -0.12383963  -0.25304048  -0.22954144  1
  Li  Li2  1  0.50000000  0.50000000  0.50000000  1
  Li  Li3  1  0.50000000  0.50000000  0.00000000  1
  Li  Li4  1  0.50000000  0.00000000  0.50000000  1
  Li  Li5  1  0.00000000  0.50000000  0.00000000  1
  S  S6  1  0.33337153  0.54297593  0.10156316  1
  S  S7  1  0.66662847  0.45702407  0.89843684  1
  S  S8  1  0.07187091  0.00507282  0.64800506  1
  S  S9  1  0.92812909  0.99492718  0.35199494  1
  S  S10  1  0.43088330  0.17068076  0.96112759  1
  S  S11  1  0.56911670  0.82931924  0.03887241  1
  S  S12  1  0.00000000  0.00000000  0.00000000  1
