# generated using pymatgen
data_LiPO
_symmetry_space_group_name_H-M   'P 1'
_cell_length_a   4.40416768
_cell_length_b   4.40416768
_cell_length_c   12.85109611
_cell_angle_alpha   90.00000000
_cell_angle_beta   90.00000000
_cell_angle_gamma   120.00000000
_symmetry_Int_Tables_number   1
_chemical_formula_structural   LiPO
_chemical_formula_sum   'Li4 P4 O4'
_cell_volume   215.87308324
_cell_formula_units_Z   4
loop_
 _symmetry_equiv_pos_site_id
 _symmetry_equiv_pos_as_xyz
  1  'x, y, z'
loop_
 _atom_site_type_symbol
 _atom_site_label
 _atom_site_symmetry_multiplicity
 _atom_site_fract_x
 _atom_site_fract_y
 _atom_site_fract_z
 _atom_site_occupancy
  Li  Li0  1  0.33333333  0.66666667  0.86376182  1
  Li  Li1  1  0.66666667  0.33333333  0.36376182  1
  Li  Li2  1  0.66666667  0.33333333  0.13623818  1
  Li  Li3  1  0.33333333  0.66666667  0.63623818  1
  O  O4  1  0.00000000  0.00000000  0.11940845  1
  O  O5  1  0.00000000  0.00000000  0.61940845  1
  O  O6  1  0.00000000  0.00000000  0.88059155  1
  O  O7  1  0.00000000  0.00000000  0.38059155  1
  P  P8  1  0.00000000  0.00000000  0.70119918  1
  P  P9  1  0.00000000  0.00000000  1.20119918  1
  P  P10  1  0.00000000  0.00000000  -0.70119918  1
  P  P11  1  0.00000000  0.00000000  -0.20119918  1
