# generated using pymatgen
data_Li2La3
_symmetry_space_group_name_H-M   'P 1'
_cell_length_a   3.38948439
_cell_length_b   7.10336056
_cell_length_c   7.87507341
_cell_angle_alpha   93.98286516
_cell_angle_beta   75.07217029
_cell_angle_gamma   77.75019532
_symmetry_Int_Tables_number   1
_chemical_formula_structural   Li2La3
_chemical_formula_sum   'Li2 La3'
_cell_volume   177.48237612
_cell_formula_units_Z   1
loop_
 _symmetry_equiv_pos_site_id
 _symmetry_equiv_pos_as_xyz
  1  'x, y, z'
loop_
 _atom_site_type_symbol
 _atom_site_label
 _atom_site_symmetry_multiplicity
 _atom_site_fract_x
 _atom_site_fract_y
 _atom_site_fract_z
 _atom_site_occupancy
  La  La0  1  0.80142269  0.56345373  0.81700988  1
  La  La1  1  0.08235914  0.75017728  0.96204591  1
  La  La2  1  0.30513011  0.37676892  0.30571190  1
  Li  Li3  1  0.45440602  0.45747572  0.10921016  1
  Li  Li4  1  0.42574623  0.89456182  0.81786231  1
