# generated using pymatgen
data_Li3O8
_symmetry_space_group_name_H-M   'P 1'
_cell_length_a   3.35109883
_cell_length_b   5.14858237
_cell_length_c   5.40283142
_cell_angle_alpha   106.81558908
_cell_angle_beta   113.94639336
_cell_angle_gamma   103.87207593
_symmetry_Int_Tables_number   1
_chemical_formula_structural   Li3O8
_chemical_formula_sum   'Li3 O8'
_cell_volume   74.44460412
_cell_formula_units_Z   1
loop_
 _symmetry_equiv_pos_site_id
 _symmetry_equiv_pos_as_xyz
  1  'x, y, z'
loop_
 _atom_site_type_symbol
 _atom_site_label
 _atom_site_symmetry_multiplicity
 _atom_site_fract_x
 _atom_site_fract_y
 _atom_site_fract_z
 _atom_site_occupancy
  Li  Li0  1  0.22668747  0.14044216  0.35216744  1
  Li  Li1  1  -0.22668747  -0.14044216  -0.35216744  1
  Li  Li2  1  0.00000000  0.50000000  0.50000000  1
  O  O3  1  0.00000000  0.00000000  0.00000000  1
  O  O4  1  0.25302749  0.75960436  0.44185182  1
  O  O5  1  0.74697251  0.24039564  0.55814818  1
  O  O6  1  0.50000000  0.50000000  0.00000000  1
  O  O7  1  0.25189040  0.64178647  0.20407468  1
  O  O8  1  0.74810960  0.35821353  0.79592532  1
  O  O9  1  0.78804337  0.98499324  0.84643244  1
  O  O10  1  0.21195663  0.01500676  0.15356756  1
