# generated using pymatgen
data_Li2S7
_symmetry_space_group_name_H-M   'P 1'
_cell_length_a   7.39900509
_cell_length_b   6.37379970
_cell_length_c   5.33656850
_cell_angle_alpha   73.34261091
_cell_angle_beta   116.52230080
_cell_angle_gamma   95.53591941
_symmetry_Int_Tables_number   1
_chemical_formula_structural   Li2S7
_chemical_formula_sum   'Li2 S7'
_cell_volume   215.58993245
_cell_formula_units_Z   1
loop_
 _symmetry_equiv_pos_site_id
 _symmetry_equiv_pos_as_xyz
  1  'x, y, z'
loop_
 _atom_site_type_symbol
 _atom_site_label
 _atom_site_symmetry_multiplicity
 _atom_site_fract_x
 _atom_site_fract_y
 _atom_site_fract_z
 _atom_site_occupancy
  Li  Li0  1  0.44073878  0.84416193  0.71311881  1
  Li  Li1  1  -0.44073878  -0.84416193  -0.71311881  1
  S  S2  1  0.91764608  0.22647969  0.79050749  1
  S  S3  1  0.08235392  0.77352031  0.20949251  1
  S  S4  1  0.00000000  0.00000000  0.50000000  1
  S  S5  1  0.17197343  0.53080714  0.07549780  1
  S  S6  1  0.82802657  0.46919286  0.92450220  1
  S  S7  1  0.50000000  0.50000000  0.50000000  1
  S  S8  1  0.00000000  0.50000000  0.50000000  1
