# generated using pymatgen
data_LiAl3PO5
_symmetry_space_group_name_H-M   'P 1'
_cell_length_a   8.32224705
_cell_length_b   4.25498138
_cell_length_c   6.29231019
_cell_angle_alpha   113.50733741
_cell_angle_beta   110.38524628
_cell_angle_gamma   107.10680327
_symmetry_Int_Tables_number   1
_chemical_formula_structural   LiAl3PO5
_chemical_formula_sum   'Li1 Al3 P1 O5'
_cell_volume   165.44173446
_cell_formula_units_Z   1
loop_
 _symmetry_equiv_pos_site_id
 _symmetry_equiv_pos_as_xyz
  1  'x, y, z'
loop_
 _atom_site_type_symbol
 _atom_site_label
 _atom_site_symmetry_multiplicity
 _atom_site_fract_x
 _atom_site_fract_y
 _atom_site_fract_z
 _atom_site_occupancy
  Al  Al0  1  0.44916907  0.65160383  0.87976298  1
  Al  Al1  1  -0.44916907  -0.65160383  -0.87976298  1
  Al  Al2  1  0.00000000  0.00000000  0.00000000  1
  Li  Li3  1  0.00000000  0.50000000  0.00000000  1
  O  O4  1  0.50000000  0.00000000  0.50000000  1
  O  O5  1  0.00000000  0.50000000  0.50000000  1
  O  O6  1  0.77767990  0.44306994  0.00573835  1
  O  O7  1  0.22232010  0.55693006  0.99426165  1
  O  O8  1  0.50000000  0.50000000  0.50000000  1
  P  P9  1  0.50000000  0.50000000  0.00000000  1
