# generated using pymatgen
data_Li7O4
_symmetry_space_group_name_H-M   'P 1'
_cell_length_a   5.10670716
_cell_length_b   4.91810703
_cell_length_c   7.75716251
_cell_angle_alpha   72.87744997
_cell_angle_beta   121.40964625
_cell_angle_gamma   128.40564333
_symmetry_Int_Tables_number   1
_chemical_formula_structural   Li7O4
_chemical_formula_sum   'Li7 O4'
_cell_volume   130.17291871
_cell_formula_units_Z   1
loop_
 _symmetry_equiv_pos_site_id
 _symmetry_equiv_pos_as_xyz
  1  'x, y, z'
loop_
 _atom_site_type_symbol
 _atom_site_label
 _atom_site_symmetry_multiplicity
 _atom_site_fract_x
 _atom_site_fract_y
 _atom_site_fract_z
 _atom_site_occupancy
  Li  Li0  1  0.10255135  0.15971120  0.46376559  1
  Li  Li1  1  0.75155995  0.90003130  0.74736090  1
  Li  Li2  1  0.41338054  0.85395336  0.14457668  1
  Li  Li3  1  0.45221480  0.66046611  0.51422518  1
  Li  Li4  1  0.10435724  0.99740635  0.00327707  1
  Li  Li5  1  0.20448160  0.72854797  0.78611381  1
  Li  Li6  1  0.59489158  0.33384969  0.57996849  1
  O  O7  1  0.57068911  0.48371489  0.13651061  1
  O  O8  1  0.25596293  0.10257382  0.72935909  1
  O  O9  1  0.57872983  0.11599318  0.53809543  1
  O  O10  1  0.53201952  0.47188054  0.97428995  1
