# generated using pymatgen
data_Li7O3
_symmetry_space_group_name_H-M   'P 1'
_cell_length_a   6.71026469
_cell_length_b   5.58185012
_cell_length_c   5.90361619
_cell_angle_alpha   105.61835340
_cell_angle_beta   102.96958576
_cell_angle_gamma   82.78474153
_symmetry_Int_Tables_number   1
_chemical_formula_structural   Li7O3
_chemical_formula_sum   'Li7 O3'
_cell_volume   207.02559737
_cell_formula_units_Z   1
loop_
 _symmetry_equiv_pos_site_id
 _symmetry_equiv_pos_as_xyz
  1  'x, y, z'
loop_
 _atom_site_type_symbol
 _atom_site_label
 _atom_site_symmetry_multiplicity
 _atom_site_fract_x
 _atom_site_fract_y
 _atom_site_fract_z
 _atom_site_occupancy
  Li  Li0  1  0.50000000  0.50000000  0.50000000  1
  Li  Li1  1  0.00000000  0.50000000  0.50000000  1
  Li  Li2  1  0.00000000  0.50000000  0.00000000  1
  Li  Li3  1  0.07269600  0.92543908  0.24056983  1
  Li  Li4  1  -0.07269600  -0.92543908  -0.24056983  1
  Li  Li5  1  0.65329726  0.43826940  0.71088394  1
  Li  Li6  1  0.34670274  0.56173060  0.28911606  1
  O  O7  1  0.08127839  0.47021023  0.75582139  1
  O  O8  1  0.91872161  0.52978977  0.24417861  1
  O  O9  1  0.50000000  0.00000000  0.50000000  1
