# generated using pymatgen
data_Li3O5
_symmetry_space_group_name_H-M   'P 1'
_cell_length_a   3.87490656
_cell_length_b   4.17313632
_cell_length_c   3.31556676
_cell_angle_alpha   91.39852810
_cell_angle_beta   86.18798993
_cell_angle_gamma   101.49846892
_symmetry_Int_Tables_number   1
_chemical_formula_structural   Li3O5
_chemical_formula_sum   'Li3 O5'
_cell_volume   52.41872756
_cell_formula_units_Z   1
loop_
 _symmetry_equiv_pos_site_id
 _symmetry_equiv_pos_as_xyz
  1  'x, y, z'
loop_
 _atom_site_type_symbol
 _atom_site_label
 _atom_site_symmetry_multiplicity
 _atom_site_fract_x
 _atom_site_fract_y
 _atom_site_fract_z
 _atom_site_occupancy
  Li  Li0  1  0.48120413  0.79576541  0.14755533  1
  Li  Li1  1  0.05797596  0.76667881  0.48155568  1
  Li  Li2  1  0.66286599  0.00415322  0.87883954  1
  O  O3  1  0.85861280  0.66652187  0.67404046  1
  O  O4  1  0.86991179  0.46203186  0.01021006  1
  O  O5  1  0.40397469  0.28601995  0.76586620  1
  O  O6  1  0.80475585  0.06855591  0.23543426  1
  O  O7  1  0.30600314  0.41451794  0.93625385  1
