# generated using pymatgen
data_Li5O3
_symmetry_space_group_name_H-M   'P 1'
_cell_length_a   7.08941089
_cell_length_b   4.51741573
_cell_length_c   5.59514169
_cell_angle_alpha   69.27388345
_cell_angle_beta   92.06760907
_cell_angle_gamma   79.31755770
_symmetry_Int_Tables_number   1
_chemical_formula_structural   Li5O3
_chemical_formula_sum   'Li5 O3'
_cell_volume   163.67697461
_cell_formula_units_Z   1
loop_
 _symmetry_equiv_pos_site_id
 _symmetry_equiv_pos_as_xyz
  1  'x, y, z'
loop_
 _atom_site_type_symbol
 _atom_site_label
 _atom_site_symmetry_multiplicity
 _atom_site_fract_x
 _atom_site_fract_y
 _atom_site_fract_z
 _atom_site_occupancy
  Li  Li0  1  0.30543816  0.15778825  0.50776227  1
  Li  Li1  1  0.86338008  0.68319322  0.08697844  1
  Li  Li2  1  0.04375783  0.87421308  0.47625744  1
  Li  Li3  1  0.71406508  0.53606309  0.17485513  1
  Li  Li4  1  0.00001147  0.19005797  0.31529980  1
  O  O5  1  0.46223399  0.42115910  0.45955340  1
  O  O6  1  0.04826954  0.73842863  0.15266258  1
  O  O7  1  0.00970315  0.14645172  0.50633191  1
