# generated using pymatgen
data_Li5O3
_symmetry_space_group_name_H-M   'P 1'
_cell_length_a   7.74266655
_cell_length_b   4.18485496
_cell_length_c   3.80790148
_cell_angle_alpha   81.35630766
_cell_angle_beta   116.08724524
_cell_angle_gamma   122.72507932
_symmetry_Int_Tables_number   1
_chemical_formula_structural   Li5O3
_chemical_formula_sum   'Li5 O3'
_cell_volume   92.59842209
_cell_formula_units_Z   1
loop_
 _symmetry_equiv_pos_site_id
 _symmetry_equiv_pos_as_xyz
  1  'x, y, z'
loop_
 _atom_site_type_symbol
 _atom_site_label
 _atom_site_symmetry_multiplicity
 _atom_site_fract_x
 _atom_site_fract_y
 _atom_site_fract_z
 _atom_site_occupancy
  Li  Li0  1  0.50000000  0.00000000  0.50000000  1
  Li  Li1  1  0.00000000  0.50000000  0.50000000  1
  Li  Li2  1  0.00000000  0.50000000  0.00000000  1
  Li  Li3  1  0.82010338  0.96684692  0.82079949  1
  Li  Li4  1  -0.82010338  -0.96684692  -0.82079949  1
  O  O5  1  0.50000000  0.50000000  0.50000000  1
  O  O6  1  0.44622570  0.72488512  0.65317176  1
  O  O7  1  0.55377430  0.27511488  0.34682824  1
