# generated using pymatgen
data_LiP
_symmetry_space_group_name_H-M   'P 1'
_cell_length_a   2.88324699
_cell_length_b   4.10961708
_cell_length_c   3.90773308
_cell_angle_alpha   91.91741948
_cell_angle_beta   49.06935417
_cell_angle_gamma   98.58002036
_symmetry_Int_Tables_number   1
_chemical_formula_structural   LiP
_chemical_formula_sum   'Li1 P1'
_cell_volume   34.46217945
_cell_formula_units_Z   1
loop_
 _symmetry_equiv_pos_site_id
 _symmetry_equiv_pos_as_xyz
  1  'x, y, z'
loop_
 _atom_site_type_symbol
 _atom_site_label
 _atom_site_symmetry_multiplicity
 _atom_site_fract_x
 _atom_site_fract_y
 _atom_site_fract_z
 _atom_site_occupancy
  Li  Li0  1  0.50000000  0.50000000  0.00000000  1
  P  P1  1  0.50000000  -0.00000000  0.00000000  1
