# generated using pymatgen
data_Li2O
_symmetry_space_group_name_H-M   'P 1'
_cell_length_a   3.60835012
_cell_length_b   3.34761818
_cell_length_c   5.24437958
_cell_angle_alpha   73.06128566
_cell_angle_beta   95.32843388
_cell_angle_gamma   97.94042876
_symmetry_Int_Tables_number   1
_chemical_formula_structural   Li2O
_chemical_formula_sum   'Li2 O1'
_cell_volume   59.92692747
_cell_formula_units_Z   1
loop_
 _symmetry_equiv_pos_site_id
 _symmetry_equiv_pos_as_xyz
  1  'x, y, z'
loop_
 _atom_site_type_symbol
 _atom_site_label
 _atom_site_symmetry_multiplicity
 _atom_site_fract_x
 _atom_site_fract_y
 _atom_site_fract_z
 _atom_site_occupancy
  Li  Li0  1  0.68951327  0.63321344  0.19896733  1
  Li  Li1  1  0.98478781  0.28269842  0.69100693  1
  O  O2  1  0.87454517  0.92708318  0.47723587  1
