# generated using pymatgen
data_Li4S7
_symmetry_space_group_name_H-M   'P 1'
_cell_length_a   5.14868695
_cell_length_b   6.08629149
_cell_length_c   8.05282615
_cell_angle_alpha   121.05278660
_cell_angle_beta   128.49544105
_cell_angle_gamma   87.12340837
_symmetry_Int_Tables_number   1
_chemical_formula_structural   Li4S7
_chemical_formula_sum   'Li4 S7'
_cell_volume   154.77369192
_cell_formula_units_Z   1
loop_
 _symmetry_equiv_pos_site_id
 _symmetry_equiv_pos_as_xyz
  1  'x, y, z'
loop_
 _atom_site_type_symbol
 _atom_site_label
 _atom_site_symmetry_multiplicity
 _atom_site_fract_x
 _atom_site_fract_y
 _atom_site_fract_z
 _atom_site_occupancy
  Li  Li0  1  0.73776762  0.44393218  0.87061425  1
  Li  Li1  1  0.35993246  0.91811463  0.63924677  1
  Li  Li2  1  0.69374574  0.53913869  0.68423804  1
  Li  Li3  1  0.83545505  0.88533097  0.51125419  1
  S  S4  1  0.07874579  0.24715059  0.60042654  1
  S  S5  1  0.26602427  0.25836403  0.20422692  1
  S  S6  1  0.73421762  0.85173012  0.10562934  1
  S  S7  1  0.20903975  0.56237572  0.95883802  1
  S  S8  1  0.75551635  0.15255965  0.79904712  1
  S  S9  1  0.41808462  0.05036678  0.29817939  1
  S  S10  1  0.10904059  0.77257672  0.14483295  1
