# generated using pymatgen
data_Li2ZrO2
_symmetry_space_group_name_H-M   'P 1'
_cell_length_a   3.87352009
_cell_length_b   2.89942846
_cell_length_c   8.71397981
_cell_angle_alpha   70.81271617
_cell_angle_beta   94.94630528
_cell_angle_gamma   112.00174716
_symmetry_Int_Tables_number   1
_chemical_formula_structural   Li2ZrO2
_chemical_formula_sum   'Li2 Zr1 O2'
_cell_volume   85.62250112
_cell_formula_units_Z   1
loop_
 _symmetry_equiv_pos_site_id
 _symmetry_equiv_pos_as_xyz
  1  'x, y, z'
loop_
 _atom_site_type_symbol
 _atom_site_label
 _atom_site_symmetry_multiplicity
 _atom_site_fract_x
 _atom_site_fract_y
 _atom_site_fract_z
 _atom_site_occupancy
  Li  Li0  1  0.08464436  0.07156459  0.16124508  1
  Li  Li1  1  0.61530774  0.22123482  0.35194223  1
  O  O2  1  0.05398980  0.38083554  0.46685196  1
  O  O3  1  0.77559010  0.44270333  0.11917592  1
  Zr  Zr4  1  0.11957700  0.71309898  0.87000954  1
