# generated using pymatgen
data_Li5Al
_symmetry_space_group_name_H-M   'P 1'
_cell_length_a   5.98915936
_cell_length_b   5.60101762
_cell_length_c   2.83870270
_cell_angle_alpha   86.60254399
_cell_angle_beta   60.53702894
_cell_angle_gamma   76.25917793
_symmetry_Int_Tables_number   1
_chemical_formula_structural   Li5Al
_chemical_formula_sum   'Li5 Al1'
_cell_volume   80.35056204
_cell_formula_units_Z   1
loop_
 _symmetry_equiv_pos_site_id
 _symmetry_equiv_pos_as_xyz
  1  'x, y, z'
loop_
 _atom_site_type_symbol
 _atom_site_label
 _atom_site_symmetry_multiplicity
 _atom_site_fract_x
 _atom_site_fract_y
 _atom_site_fract_z
 _atom_site_occupancy
  Al  Al0  1  0.50000000  0.00000000  0.50000000  1
  Li  Li1  1  0.50000000  0.50000000  0.00000000  1
  Li  Li2  1  0.00000000  0.50000000  0.50000000  1
  Li  Li3  1  0.74002529  0.68780910  0.91611515  1
  Li  Li4  1  -0.74002529  -0.68780910  -0.91611515  1
  Li  Li5  1  0.00000000  0.50000000  0.00000000  1
