# generated using pymatgen
data_Li5(PO2)3
_symmetry_space_group_name_H-M   'P 1'
_cell_length_a   6.70866939
_cell_length_b   4.00447036
_cell_length_c   5.95110304
_cell_angle_alpha   100.25463810
_cell_angle_beta   96.26183041
_cell_angle_gamma   117.29046745
_symmetry_Int_Tables_number   1
_chemical_formula_structural   Li5(PO2)3
_chemical_formula_sum   'Li5 P3 O6'
_cell_volume   136.44523320
_cell_formula_units_Z   1
loop_
 _symmetry_equiv_pos_site_id
 _symmetry_equiv_pos_as_xyz
  1  'x, y, z'
loop_
 _atom_site_type_symbol
 _atom_site_label
 _atom_site_symmetry_multiplicity
 _atom_site_fract_x
 _atom_site_fract_y
 _atom_site_fract_z
 _atom_site_occupancy
  Li  Li0  1  0.98138188  0.16486453  0.76371689  1
  Li  Li1  1  0.44876887  0.54473610  0.68502608  1
  Li  Li2  1  0.75613069  0.46750954  0.33858022  1
  Li  Li3  1  0.34728896  0.48121980  0.08482085  1
  Li  Li4  1  0.89213991  0.41538115  0.92823567  1
  O  O5  1  0.25858766  0.68657773  0.19570885  1
  O  O6  1  0.56670552  0.59907789  0.57937639  1
  O  O7  1  0.21762017  0.46479476  0.79139787  1
  O  O8  1  0.91515242  0.74326584  0.38146200  1
  O  O9  1  0.06679526  0.61443421  0.60345760  1
  O  O10  1  0.43991695  0.20627262  0.02946791  1
  P  P11  1  0.04419862  0.14892407  0.21123168  1
  P  P12  1  0.35079240  0.34957976  0.45992826  1
  P  P13  1  0.16136695  0.69852872  0.95694925  1
