# generated using pymatgen
data_Li3O
_symmetry_space_group_name_H-M   'P 1'
_cell_length_a   6.33440023
_cell_length_b   7.03665530
_cell_length_c   3.63519895
_cell_angle_alpha   82.90052989
_cell_angle_beta   122.33344937
_cell_angle_gamma   92.35125155
_symmetry_Int_Tables_number   1
_chemical_formula_structural   Li3O
_chemical_formula_sum   'Li6 O2'
_cell_volume   135.79818898
_cell_formula_units_Z   2
loop_
 _symmetry_equiv_pos_site_id
 _symmetry_equiv_pos_as_xyz
  1  'x, y, z'
loop_
 _atom_site_type_symbol
 _atom_site_label
 _atom_site_symmetry_multiplicity
 _atom_site_fract_x
 _atom_site_fract_y
 _atom_site_fract_z
 _atom_site_occupancy
  Li  Li0  1  0.80586456  0.46223671  0.62158652  1
  Li  Li1  1  0.72165445  0.92257750  0.52183483  1
  Li  Li2  1  0.72696169  0.69141159  0.92041254  1
  Li  Li3  1  0.75939226  0.69199541  0.59538366  1
  Li  Li4  1  0.06845355  0.17959137  0.61825513  1
  Li  Li5  1  0.21117338  0.68078395  0.19829823  1
  O  O6  1  0.95618844  0.41324300  0.14323870  1
  O  O7  1  0.87851681  0.30318868  0.92618529  1
