# generated using pymatgen
data_Li6ZrP4S4O3
_symmetry_space_group_name_H-M   'P 1'
_cell_length_a   7.35447582
_cell_length_b   8.35134591
_cell_length_c   6.91510961
_cell_angle_alpha   66.92137270
_cell_angle_beta   68.29989877
_cell_angle_gamma   102.44471848
_symmetry_Int_Tables_number   1
_chemical_formula_structural   Li6ZrP4S4O3
_chemical_formula_sum   'Li6 Zr1 P4 S4 O3'
_cell_volume   329.18737115
_cell_formula_units_Z   1
loop_
 _symmetry_equiv_pos_site_id
 _symmetry_equiv_pos_as_xyz
  1  'x, y, z'
loop_
 _atom_site_type_symbol
 _atom_site_label
 _atom_site_symmetry_multiplicity
 _atom_site_fract_x
 _atom_site_fract_y
 _atom_site_fract_z
 _atom_site_occupancy
  Li  Li0  1  0.07776348  0.08094828  0.21405293  1
  Li  Li1  1  0.25143410  0.77460605  0.72601078  1
  Li  Li2  1  0.95197798  0.28666505  0.55120370  1
  Li  Li3  1  0.14408415  0.24378362  0.60652502  1
  Li  Li4  1  0.48143603  0.45978794  0.78424765  1
  Li  Li5  1  0.09277881  0.31254753  0.13844577  1
  O  O6  1  0.44927215  0.27681943  0.63830293  1
  O  O7  1  0.74256195  0.31725929  0.28221884  1
  O  O8  1  0.50287914  0.55007721  0.58050788  1
  P  P9  1  0.53749032  0.70371932  0.31147114  1
  P  P10  1  0.05567232  0.05734399  0.53693697  1
  P  P11  1  0.82867889  0.74771897  0.46459404  1
  P  P12  1  0.88530978  0.52906884  0.58715839  1
  S  S13  1  0.80473480  0.57955409  0.83392705  1
  S  S14  1  0.66678884  0.15483321  0.83886134  1
  S  S15  1  0.15744896  0.98158539  0.67128423  1
  S  S16  1  0.16443225  0.22203381  0.91685034  1
  Zr  Zr17  1  0.44070901  0.16525519  0.54698195  1
