# generated using pymatgen
data_LiO8
_symmetry_space_group_name_H-M   'P 1'
_cell_length_a   3.36261691
_cell_length_b   4.33677696
_cell_length_c   6.39721426
_cell_angle_alpha   97.46710639
_cell_angle_beta   76.97577021
_cell_angle_gamma   99.67536552
_symmetry_Int_Tables_number   1
_chemical_formula_structural   LiO8
_chemical_formula_sum   'Li1 O8'
_cell_volume   89.18456992
_cell_formula_units_Z   1
loop_
 _symmetry_equiv_pos_site_id
 _symmetry_equiv_pos_as_xyz
  1  'x, y, z'
loop_
 _atom_site_type_symbol
 _atom_site_label
 _atom_site_symmetry_multiplicity
 _atom_site_fract_x
 _atom_site_fract_y
 _atom_site_fract_z
 _atom_site_occupancy
  Li  Li0  1  0.78865981  0.71288207  0.66068280  1
  O  O1  1  0.69303122  0.71665625  0.32882250  1
  O  O2  1  0.14617455  0.88925910  0.81289003  1
  O  O3  1  0.27939222  0.93688933  0.95978389  1
  O  O4  1  0.94913323  0.08136521  0.31552406  1
  O  O5  1  0.84167629  0.05808168  0.15074163  1
  O  O6  1  0.37394665  0.04841015  0.63504502  1
  O  O7  1  0.55200376  0.14069122  0.08804106  1
  O  O8  1  0.71624852  0.45799998  0.90000191  1
