# generated using pymatgen
data_Li4Al4O3
_symmetry_space_group_name_H-M   'P 1'
_cell_length_a   4.34673119
_cell_length_b   6.09649028
_cell_length_c   7.42526624
_cell_angle_alpha   90.98312125
_cell_angle_beta   110.94380892
_cell_angle_gamma   107.12908715
_symmetry_Int_Tables_number   1
_chemical_formula_structural   Li4Al4O3
_chemical_formula_sum   'Li4 Al4 O3'
_cell_volume   173.95630680
_cell_formula_units_Z   1
loop_
 _symmetry_equiv_pos_site_id
 _symmetry_equiv_pos_as_xyz
  1  'x, y, z'
loop_
 _atom_site_type_symbol
 _atom_site_label
 _atom_site_symmetry_multiplicity
 _atom_site_fract_x
 _atom_site_fract_y
 _atom_site_fract_z
 _atom_site_occupancy
  Al  Al0  1  0.46367581  0.50088071  0.56038984  1
  Al  Al1  1  0.62896750  0.39639461  0.14359743  1
  Al  Al2  1  0.87927524  0.18985514  0.32080198  1
  Al  Al3  1  0.32970927  0.42135397  0.35574697  1
  Li  Li4  1  0.48450979  0.86721860  0.71537350  1
  Li  Li5  1  0.62232594  0.91039815  0.96389784  1
  Li  Li6  1  0.65927050  0.23104493  0.79743940  1
  Li  Li7  1  0.88649247  0.42291544  0.05790962  1
  O  O8  1  0.26309367  0.99721354  0.27087429  1
  O  O9  1  0.11297190  0.78401815  0.93186905  1
  O  O10  1  0.65194342  0.89514265  0.39535025  1
