# generated using pymatgen
data_LiO6
_symmetry_space_group_name_H-M   'P 1'
_cell_length_a   3.71126962
_cell_length_b   7.66269911
_cell_length_c   4.96585409
_cell_angle_alpha   82.73470758
_cell_angle_beta   79.68498147
_cell_angle_gamma   119.00029131
_symmetry_Int_Tables_number   1
_chemical_formula_structural   LiO6
_chemical_formula_sum   'Li1 O6'
_cell_volume   117.72610761
_cell_formula_units_Z   1
loop_
 _symmetry_equiv_pos_site_id
 _symmetry_equiv_pos_as_xyz
  1  'x, y, z'
loop_
 _atom_site_type_symbol
 _atom_site_label
 _atom_site_symmetry_multiplicity
 _atom_site_fract_x
 _atom_site_fract_y
 _atom_site_fract_z
 _atom_site_occupancy
  Li  Li0  1  0.69008467  0.40527081  0.07939755  1
  O  O1  1  0.65044121  0.60173214  0.49671627  1
  O  O2  1  0.98282411  0.76785014  0.72783950  1
  O  O3  1  0.35748590  0.78339879  0.02860828  1
  O  O4  1  0.20781273  0.28846352  0.23353564  1
  O  O5  1  0.73245481  0.12362501  0.93267647  1
  O  O6  1  0.99066562  0.19540833  0.49149240  1
