# generated using pymatgen
data_Li5O3
_symmetry_space_group_name_H-M   'P 1'
_cell_length_a   6.53526452
_cell_length_b   5.49251544
_cell_length_c   7.79001510
_cell_angle_alpha   98.69654077
_cell_angle_beta   83.14240204
_cell_angle_gamma   139.81771189
_symmetry_Int_Tables_number   1
_chemical_formula_structural   Li5O3
_chemical_formula_sum   'Li5 O3'
_cell_volume   178.34114833
_cell_formula_units_Z   1
loop_
 _symmetry_equiv_pos_site_id
 _symmetry_equiv_pos_as_xyz
  1  'x, y, z'
loop_
 _atom_site_type_symbol
 _atom_site_label
 _atom_site_symmetry_multiplicity
 _atom_site_fract_x
 _atom_site_fract_y
 _atom_site_fract_z
 _atom_site_occupancy
  Li  Li0  1  0.29416163  0.78444352  0.75935580  1
  Li  Li1  1  0.91667467  0.24912023  0.99570010  1
  Li  Li2  1  0.50443256  0.08654531  0.12307405  1
  Li  Li3  1  0.67758458  0.46415736  0.15881551  1
  Li  Li4  1  0.56146718  0.09847248  0.52009869  1
  O  O5  1  0.17897812  0.90044295  0.86596708  1
  O  O6  1  0.10457602  0.77367511  0.48163266  1
  O  O7  1  0.60671784  0.48760920  0.66304377  1
