# generated using pymatgen
data_LiO2
_symmetry_space_group_name_H-M   'P 1'
_cell_length_a   2.57193674
_cell_length_b   4.00438826
_cell_length_c   3.34024667
_cell_angle_alpha   105.72179867
_cell_angle_beta   93.79857305
_cell_angle_gamma   69.32490067
_symmetry_Int_Tables_number   1
_chemical_formula_structural   LiO2
_chemical_formula_sum   'Li1 O2'
_cell_volume   30.96513589
_cell_formula_units_Z   1
loop_
 _symmetry_equiv_pos_site_id
 _symmetry_equiv_pos_as_xyz
  1  'x, y, z'
loop_
 _atom_site_type_symbol
 _atom_site_label
 _atom_site_symmetry_multiplicity
 _atom_site_fract_x
 _atom_site_fract_y
 _atom_site_fract_z
 _atom_site_occupancy
  Li  Li0  1  0.15966711  0.14066561  0.08878730  1
  O  O1  1  0.89308545  0.48237107  0.73574570  1
  O  O2  1  0.32557684  0.45514633  0.56966626  1
