# generated using pymatgen
data_Li2O2
_symmetry_space_group_name_H-M   'P 1'
_cell_length_a   2.74933519
_cell_length_b   6.87690848
_cell_length_c   4.50097144
_cell_angle_alpha   96.66175710
_cell_angle_beta   102.03235018
_cell_angle_gamma   51.87336249
_symmetry_Int_Tables_number   1
_chemical_formula_structural   Li2O2
_chemical_formula_sum   'Li2 O2'
_cell_volume   65.46372497
_cell_formula_units_Z   1
loop_
 _symmetry_equiv_pos_site_id
 _symmetry_equiv_pos_as_xyz
  1  'x, y, z'
loop_
 _atom_site_type_symbol
 _atom_site_label
 _atom_site_symmetry_multiplicity
 _atom_site_fract_x
 _atom_site_fract_y
 _atom_site_fract_z
 _atom_site_occupancy
  Li  Li0  1  0.47337741  0.55165396  0.08611107  1
  Li  Li1  1  0.62816970  0.33844011  0.28207654  1
  O  O2  1  0.28910418  0.59205866  0.64918138  1
  O  O3  1  0.09227954  0.88789481  0.83934948  1
