# generated using pymatgen
data_LiP(O2F3)2
_symmetry_space_group_name_H-M   'P 1'
_cell_length_a   3.46952527
_cell_length_b   8.20119550
_cell_length_c   4.41538968
_cell_angle_alpha   104.02168780
_cell_angle_beta   82.17214041
_cell_angle_gamma   120.87921802
_symmetry_Int_Tables_number   1
_chemical_formula_structural   LiP(O2F3)2
_chemical_formula_sum   'Li1 P1 O4 F6'
_cell_volume   104.60435651
_cell_formula_units_Z   1
loop_
 _symmetry_equiv_pos_site_id
 _symmetry_equiv_pos_as_xyz
  1  'x, y, z'
loop_
 _atom_site_type_symbol
 _atom_site_label
 _atom_site_symmetry_multiplicity
 _atom_site_fract_x
 _atom_site_fract_y
 _atom_site_fract_z
 _atom_site_occupancy
  F  F0  1  0.50000000  0.50000000  -0.00000000  1
  F  F1  1  0.45909110  0.17576622  0.47128290  1
  F  F2  1  -0.45909110  -0.17576622  -0.47128290  1
  F  F3  1  0.54764422  0.35124058  0.95198204  1
  F  F4  1  0.45235578  0.64875942  0.04801796  1
  F  F5  1  0.00000000  0.50000000  0.00000000  1
  Li  Li6  1  0.00000000  0.50000000  0.50000000  1
  O  O7  1  0.25440020  0.22768146  0.51737934  1
  O  O8  1  0.74559980  0.77231854  0.48262066  1
  O  O9  1  0.50000000  0.00000000  0.50000000  1
  O  O10  1  0.00000000  0.00000000  0.50000000  1
  P  P11  1  0.50000000  0.00000000  0.00000000  1
