# generated using pymatgen
data_Li4O
_symmetry_space_group_name_H-M   'P 1'
_cell_length_a   7.60605958
_cell_length_b   6.46422818
_cell_length_c   4.61803716
_cell_angle_alpha   101.06869573
_cell_angle_beta   132.58956121
_cell_angle_gamma   87.66410264
_symmetry_Int_Tables_number   1
_chemical_formula_structural   Li4O
_chemical_formula_sum   'Li8 O2'
_cell_volume   162.79988364
_cell_formula_units_Z   2
loop_
 _symmetry_equiv_pos_site_id
 _symmetry_equiv_pos_as_xyz
  1  'x, y, z'
loop_
 _atom_site_type_symbol
 _atom_site_label
 _atom_site_symmetry_multiplicity
 _atom_site_fract_x
 _atom_site_fract_y
 _atom_site_fract_z
 _atom_site_occupancy
  Li  Li0  1  0.90230389  0.53462690  0.16322448  1
  Li  Li1  1  0.18843015  0.06878070  0.36219105  1
  Li  Li2  1  0.26100623  0.56535769  0.73889263  1
  Li  Li3  1  0.86169709  0.78750405  0.32034539  1
  Li  Li4  1  0.58248045  0.41769329  0.12891498  1
  Li  Li5  1  0.50073510  0.54971821  0.79127329  1
  Li  Li6  1  0.10623312  0.87979544  0.70755399  1
  Li  Li7  1  0.36959426  0.89135944  0.60946534  1
  O  O8  1  0.13039725  0.41796158  0.41997066  1
  O  O9  1  0.09139370  0.43581956  0.70039641  1
