# generated using pymatgen
data_Li2O2
_symmetry_space_group_name_H-M   'P 1'
_cell_length_a   4.02941910
_cell_length_b   6.71563932
_cell_length_c   3.05352277
_cell_angle_alpha   59.90670542
_cell_angle_beta   59.57255013
_cell_angle_gamma   83.50378347
_symmetry_Int_Tables_number   1
_chemical_formula_structural   Li2O2
_chemical_formula_sum   'Li3 O3'
_cell_volume   60.53699940
_cell_formula_units_Z   1
loop_
 _symmetry_equiv_pos_site_id
 _symmetry_equiv_pos_as_xyz
  1  'x, y, z'
loop_
 _atom_site_type_symbol
 _atom_site_label
 _atom_site_symmetry_multiplicity
 _atom_site_fract_x
 _atom_site_fract_y
 _atom_site_fract_z
 _atom_site_occupancy
  Li  Li0  1  0.50000000  0.50000000  0.00000000  1
  Li  Li1  1  0.50000000  0.00000000  0.00000000  1
  Li  Li2  1  0.00000000  0.00000000  0.50000000  1
  O  O3  1  0.45540196  0.71447521  0.05520718  1
  O  O4  1  -0.45540196  -0.71447521  -0.05520718  1
  O  O5  1  0.00000000  0.00000000  0.00000000  1
