# generated using pymatgen
data_Li2Ti
_symmetry_space_group_name_H-M   'P 1'
_cell_length_a   8.39055299
_cell_length_b   4.77197282
_cell_length_c   7.81049411
_cell_angle_alpha   58.32180686
_cell_angle_beta   91.47851537
_cell_angle_gamma   103.63426763
_symmetry_Int_Tables_number   1
_chemical_formula_structural   Li2Ti
_chemical_formula_sum   'Li8 Ti4'
_cell_volume   256.81376626
_cell_formula_units_Z   4
loop_
 _symmetry_equiv_pos_site_id
 _symmetry_equiv_pos_as_xyz
  1  'x, y, z'
loop_
 _atom_site_type_symbol
 _atom_site_label
 _atom_site_symmetry_multiplicity
 _atom_site_fract_x
 _atom_site_fract_y
 _atom_site_fract_z
 _atom_site_occupancy
  Li  Li0  1  0.50000000  0.00000000  0.00000000  1
  Li  Li1  1  0.68965797  0.36496344  0.14216161  1
  Li  Li2  1  -0.68965797  -0.36496344  -0.14216161  1
  Li  Li3  1  0.27519831  0.54991662  0.35847624  1
  Li  Li4  1  0.72480169  0.45008338  0.64152376  1
  Li  Li5  1  0.00000000  0.00000000  0.50000000  1
  Li  Li6  1  0.21116066  0.37172902  0.63754033  1
  Li  Li7  1  0.78883934  0.62827098  0.36245967  1
  Ti  Ti8  1  0.50000000  0.50000000  0.00000000  1
  Ti  Ti9  1  0.65291983  0.44366010  0.81711941  1
  Ti  Ti10  1  0.34708017  0.55633990  0.18288059  1
  Ti  Ti11  1  0.00000000  0.50000000  0.00000000  1
