# generated using pymatgen
data_Li7O2
_symmetry_space_group_name_H-M   'P 1'
_cell_length_a   5.69954544
_cell_length_b   5.19504455
_cell_length_c   7.51435352
_cell_angle_alpha   104.65930608
_cell_angle_beta   82.16997655
_cell_angle_gamma   57.61159779
_symmetry_Int_Tables_number   1
_chemical_formula_structural   Li7O2
_chemical_formula_sum   'Li7 O2'
_cell_volume   171.41282719
_cell_formula_units_Z   1
loop_
 _symmetry_equiv_pos_site_id
 _symmetry_equiv_pos_as_xyz
  1  'x, y, z'
loop_
 _atom_site_type_symbol
 _atom_site_label
 _atom_site_symmetry_multiplicity
 _atom_site_fract_x
 _atom_site_fract_y
 _atom_site_fract_z
 _atom_site_occupancy
  Li  Li0  1  0.24670857  0.92305386  0.97354886  1
  Li  Li1  1  0.18764751  0.88391844  0.55007301  1
  Li  Li2  1  0.45458044  0.01878539  0.05946880  1
  Li  Li3  1  0.70825616  0.36791468  0.84002601  1
  Li  Li4  1  0.50811677  0.40510142  0.57468805  1
  Li  Li5  1  0.93047351  0.97598457  0.94805842  1
  Li  Li6  1  0.23283477  0.35737377  0.29755470  1
  O  O7  1  0.73905387  0.39761831  0.56958777  1
  O  O8  1  0.69461776  0.65727520  0.04613132  1
