# generated using pymatgen
data_Li5Zr2S3O7
_symmetry_space_group_name_H-M   'P 1'
_cell_length_a   8.20678134
_cell_length_b   5.02707433
_cell_length_c   8.04587446
_cell_angle_alpha   76.61615439
_cell_angle_beta   115.53062830
_cell_angle_gamma   108.68787780
_symmetry_Int_Tables_number   1
_chemical_formula_structural   Li5Zr2S3O7
_chemical_formula_sum   'Li5 Zr2 S3 O7'
_cell_volume   282.03913709
_cell_formula_units_Z   1
loop_
 _symmetry_equiv_pos_site_id
 _symmetry_equiv_pos_as_xyz
  1  'x, y, z'
loop_
 _atom_site_type_symbol
 _atom_site_label
 _atom_site_symmetry_multiplicity
 _atom_site_fract_x
 _atom_site_fract_y
 _atom_site_fract_z
 _atom_site_occupancy
  Li  Li0  1  0.24738085  0.57244222  0.09185800  1
  Li  Li1  1  0.59221398  0.32679118  0.72272434  1
  Li  Li2  1  0.06796842  0.84575366  0.31996584  1
  Li  Li3  1  0.88758145  0.56849930  0.42516248  1
  Li  Li4  1  0.32314726  0.43983902  0.48842597  1
  O  O5  1  0.40822424  0.62880706  0.27025256  1
  O  O6  1  0.93577839  0.10264469  0.09483614  1
  O  O7  1  0.68223944  0.18908738  0.08929146  1
  O  O8  1  0.47310772  0.42862725  0.46864291  1
  O  O9  1  0.71154355  0.57388921  0.24300462  1
  O  O10  1  0.76595689  0.95597479  0.48238625  1
  O  O11  1  0.14805517  0.43467990  0.32293108  1
  S  S12  1  0.77458086  0.37256222  0.70839202  1
  S  S13  1  0.66628208  0.95495347  0.61008878  1
  S  S14  1  0.81299087  0.99073738  0.82018344  1
  Zr  Zr15  1  0.35179918  0.52983685  0.93425301  1
  Zr  Zr16  1  0.84645540  0.94736152  0.27879893  1
