# generated using pymatgen
data_Li5O6
_symmetry_space_group_name_H-M   'P 1'
_cell_length_a   3.67868417
_cell_length_b   4.60145767
_cell_length_c   8.71489343
_cell_angle_alpha   102.57815606
_cell_angle_beta   95.63724633
_cell_angle_gamma   89.14675456
_symmetry_Int_Tables_number   1
_chemical_formula_structural   Li5O6
_chemical_formula_sum   'Li5 O6'
_cell_volume   143.27967682
_cell_formula_units_Z   1
loop_
 _symmetry_equiv_pos_site_id
 _symmetry_equiv_pos_as_xyz
  1  'x, y, z'
loop_
 _atom_site_type_symbol
 _atom_site_label
 _atom_site_symmetry_multiplicity
 _atom_site_fract_x
 _atom_site_fract_y
 _atom_site_fract_z
 _atom_site_occupancy
  Li  Li0  1  0.98392664  0.32168092  0.69899310  1
  Li  Li1  1  0.53283819  0.83281412  0.15618987  1
  Li  Li2  1  0.61073665  0.07522808  0.93393635  1
  Li  Li3  1  0.43505148  0.55669142  0.25231218  1
  Li  Li4  1  0.56614711  0.35261616  0.01580560  1
  O  O5  1  0.00438170  0.99999466  0.87014007  1
  O  O6  1  0.51669339  0.90037164  0.62833014  1
  O  O7  1  0.25069717  0.25248590  0.44028172  1
  O  O8  1  0.06632930  0.05957880  0.28320742  1
  O  O9  1  0.74373897  0.78721475  0.44798220  1
  O  O10  1  0.24229184  0.81436624  0.58808154  1
