# generated using pymatgen
data_Li6La
_symmetry_space_group_name_H-M   'P 1'
_cell_length_a   4.16336956
_cell_length_b   4.00443351
_cell_length_c   6.62409864
_cell_angle_alpha   84.44296487
_cell_angle_beta   90.63903114
_cell_angle_gamma   77.06280578
_symmetry_Int_Tables_number   1
_chemical_formula_structural   Li6La
_chemical_formula_sum   'Li6 La1'
_cell_volume   107.06601155
_cell_formula_units_Z   1
loop_
 _symmetry_equiv_pos_site_id
 _symmetry_equiv_pos_as_xyz
  1  'x, y, z'
loop_
 _atom_site_type_symbol
 _atom_site_label
 _atom_site_symmetry_multiplicity
 _atom_site_fract_x
 _atom_site_fract_y
 _atom_site_fract_z
 _atom_site_occupancy
  La  La0  1  0.70734247  0.55321143  0.41855599  1
  Li  Li1  1  0.32558969  0.88076149  0.10510693  1
  Li  Li2  1  0.78718406  0.15387629  0.83417914  1
  Li  Li3  1  0.39837459  0.91616271  0.62552141  1
  Li  Li4  1  0.31399986  0.28892465  0.89719743  1
  Li  Li5  1  0.36748674  0.94001030  0.32676785  1
  Li  Li6  1  0.70721753  0.60215630  0.04494219  1
