# generated using pymatgen
data_Li3La3S8
_symmetry_space_group_name_H-M   'P 1'
_cell_length_a   9.30752571
_cell_length_b   10.12565760
_cell_length_c   3.46870649
_cell_angle_alpha   117.05624461
_cell_angle_beta   107.90292305
_cell_angle_gamma   95.39270018
_symmetry_Int_Tables_number   1
_chemical_formula_structural   Li3La3S8
_chemical_formula_sum   'Li3 La3 S8'
_cell_volume   266.28124827
_cell_formula_units_Z   1
loop_
 _symmetry_equiv_pos_site_id
 _symmetry_equiv_pos_as_xyz
  1  'x, y, z'
loop_
 _atom_site_type_symbol
 _atom_site_label
 _atom_site_symmetry_multiplicity
 _atom_site_fract_x
 _atom_site_fract_y
 _atom_site_fract_z
 _atom_site_occupancy
  La  La0  1  0.61454615  0.96848260  0.77276342  1
  La  La1  1  0.39264697  0.16550538  0.70159825  1
  La  La2  1  0.13808541  0.44238142  0.85090748  1
  Li  Li3  1  0.02409539  0.81434389  0.74016857  1
  Li  Li4  1  0.41807610  0.82437935  0.91198402  1
  Li  Li5  1  0.67473784  0.33260327  0.12903070  1
  S  S6  1  0.89979929  0.81535860  0.15793765  1
  S  S7  1  0.69559070  0.91430813  0.18666398  1
  S  S8  1  0.35973514  0.66167356  0.69531835  1
  S  S9  1  0.89111942  0.22983353  0.16030892  1
  S  S10  1  0.85263782  0.53624188  0.01145853  1
  S  S11  1  0.88275723  0.40386065  0.17467675  1
  S  S12  1  0.64179209  0.71849952  0.62599332  1
  S  S13  1  0.94936996  0.21368485  0.79909812  1
