# generated using pymatgen
data_Li5O4
_symmetry_space_group_name_H-M   'P 1'
_cell_length_a   2.99784059
_cell_length_b   8.12688255
_cell_length_c   6.14848334
_cell_angle_alpha   93.24706886
_cell_angle_beta   80.82861011
_cell_angle_gamma   114.62534239
_symmetry_Int_Tables_number   1
_chemical_formula_structural   Li5O4
_chemical_formula_sum   'Li5 O4'
_cell_volume   134.42363056
_cell_formula_units_Z   1
loop_
 _symmetry_equiv_pos_site_id
 _symmetry_equiv_pos_as_xyz
  1  'x, y, z'
loop_
 _atom_site_type_symbol
 _atom_site_label
 _atom_site_symmetry_multiplicity
 _atom_site_fract_x
 _atom_site_fract_y
 _atom_site_fract_z
 _atom_site_occupancy
  Li  Li0  1  0.50000000  0.00000000  0.50000000  1
  Li  Li1  1  0.00000000  0.00000000  0.50000000  1
  Li  Li2  1  0.50000000  0.50000000  -0.00000000  1
  Li  Li3  1  0.96169656  0.37678777  0.22627031  1
  Li  Li4  1  -0.96169656  -0.37678777  -0.22627031  1
  O  O5  1  0.88244163  0.76451651  0.02781993  1
  O  O6  1  0.11755837  0.23548349  0.97218007  1
  O  O7  1  0.00000000  0.00000000  0.00000000  1
  O  O8  1  0.50000000  0.50000000  0.50000000  1
