# generated using pymatgen
data_Li5O3
_symmetry_space_group_name_H-M   'P 1'
_cell_length_a   6.66020792
_cell_length_b   8.53667891
_cell_length_c   2.80833852
_cell_angle_alpha   102.25561036
_cell_angle_beta   73.47559888
_cell_angle_gamma   98.75809137
_symmetry_Int_Tables_number   1
_chemical_formula_structural   Li5O3
_chemical_formula_sum   'Li5 O3'
_cell_volume   148.86661761
_cell_formula_units_Z   1
loop_
 _symmetry_equiv_pos_site_id
 _symmetry_equiv_pos_as_xyz
  1  'x, y, z'
loop_
 _atom_site_type_symbol
 _atom_site_label
 _atom_site_symmetry_multiplicity
 _atom_site_fract_x
 _atom_site_fract_y
 _atom_site_fract_z
 _atom_site_occupancy
  Li  Li0  1  0.58922258  0.67425661  0.64726396  1
  Li  Li1  1  -0.58922258  -0.67425661  -0.64726396  1
  Li  Li2  1  0.50000000  0.50000000  0.00000000  1
  Li  Li3  1  0.69514648  0.24738533  0.45450063  1
  Li  Li4  1  0.30485352  0.75261467  0.54549937  1
  O  O5  1  0.50000000  0.50000000  0.50000000  1
  O  O6  1  0.77672853  0.33219288  0.19235545  1
  O  O7  1  0.22327147  0.66780712  0.80764455  1
