# generated using pymatgen
data_Li8O3
_symmetry_space_group_name_H-M   'P 1'
_cell_length_a   5.09827626
_cell_length_b   5.59401143
_cell_length_c   8.19418348
_cell_angle_alpha   105.02460132
_cell_angle_beta   69.92406108
_cell_angle_gamma   103.88497951
_symmetry_Int_Tables_number   1
_chemical_formula_structural   Li8O3
_chemical_formula_sum   'Li8 O3'
_cell_volume   209.03609652
_cell_formula_units_Z   1
loop_
 _symmetry_equiv_pos_site_id
 _symmetry_equiv_pos_as_xyz
  1  'x, y, z'
loop_
 _atom_site_type_symbol
 _atom_site_label
 _atom_site_symmetry_multiplicity
 _atom_site_fract_x
 _atom_site_fract_y
 _atom_site_fract_z
 _atom_site_occupancy
  Li  Li0  1  0.29985582  0.69279236  0.92674891  1
  Li  Li1  1  0.97153772  0.39614772  0.83369666  1
  Li  Li2  1  0.64149963  0.86281349  0.59742678  1
  Li  Li3  1  0.51366293  0.16393954  0.89351609  1
  Li  Li4  1  0.41582919  0.83350470  0.41932000  1
  Li  Li5  1  0.76236384  0.96925783  0.84489457  1
  Li  Li6  1  0.33402284  0.54105388  0.29400194  1
  Li  Li7  1  0.74924284  0.29148251  0.76567389  1
  O  O8  1  0.95256798  0.08729224  0.36681906  1
  O  O9  1  0.29970294  0.82403900  0.82079625  1
  O  O10  1  0.18751241  0.91477512  0.35299863  1
