# generated using pymatgen
data_Li5S4O3
_symmetry_space_group_name_H-M   'P 1'
_cell_length_a   6.54612880
_cell_length_b   5.78878032
_cell_length_c   10.31829517
_cell_angle_alpha   144.73299996
_cell_angle_beta   107.58657683
_cell_angle_gamma   69.56307845
_symmetry_Int_Tables_number   1
_chemical_formula_structural   Li5S4O3
_chemical_formula_sum   'Li5 S4 O3'
_cell_volume   211.44486048
_cell_formula_units_Z   1
loop_
 _symmetry_equiv_pos_site_id
 _symmetry_equiv_pos_as_xyz
  1  'x, y, z'
loop_
 _atom_site_type_symbol
 _atom_site_label
 _atom_site_symmetry_multiplicity
 _atom_site_fract_x
 _atom_site_fract_y
 _atom_site_fract_z
 _atom_site_occupancy
  Li  Li0  1  0.28422653  0.42317402  0.58270887  1
  Li  Li1  1  0.88401921  0.45740432  0.34344214  1
  Li  Li2  1  0.22602681  0.98224117  0.11681414  1
  Li  Li3  1  0.63053653  0.47677819  0.64109011  1
  Li  Li4  1  0.93332172  0.92529872  0.48790992  1
  O  O5  1  0.22513588  0.63590913  0.48507739  1
  O  O6  1  0.45706574  0.75388778  0.20827728  1
  O  O7  1  0.51572819  0.37538378  0.42069509  1
  S  S8  1  0.08075022  0.11900465  0.46766840  1
  S  S9  1  0.56474166  0.46530821  0.25871290  1
  S  S10  1  0.98723339  0.85544038  0.81127102  1
  S  S11  1  0.79239885  0.96806382  0.88529929  1
