# generated using pymatgen
data_Li4S7
_symmetry_space_group_name_H-M   'P 1'
_cell_length_a   6.30758051
_cell_length_b   4.33629866
_cell_length_c   4.04117563
_cell_angle_alpha   77.21881103
_cell_angle_beta   86.77440967
_cell_angle_gamma   93.15702370
_symmetry_Int_Tables_number   1
_chemical_formula_structural   Li4S7
_chemical_formula_sum   'Li4 S7'
_cell_volume   107.36380370
_cell_formula_units_Z   1
loop_
 _symmetry_equiv_pos_site_id
 _symmetry_equiv_pos_as_xyz
  1  'x, y, z'
loop_
 _atom_site_type_symbol
 _atom_site_label
 _atom_site_symmetry_multiplicity
 _atom_site_fract_x
 _atom_site_fract_y
 _atom_site_fract_z
 _atom_site_occupancy
  Li  Li0  1  0.19334452  0.51502431  0.28257949  1
  Li  Li1  1  0.38073933  0.02236024  0.84658935  1
  Li  Li2  1  0.93270414  0.39598973  0.00238731  1
  Li  Li3  1  0.76840455  0.45803119  0.68641464  1
  S  S4  1  0.58866358  0.52414693  0.07667436  1
  S  S5  1  0.18642896  0.72295580  0.99582936  1
  S  S6  1  0.13195517  0.13372663  0.71443822  1
  S  S7  1  0.03233840  0.10584003  0.29959308  1
  S  S8  1  0.63915154  0.25128017  0.00001380  1
  S  S9  1  0.54889726  0.86501011  0.85847178  1
  S  S10  1  0.54126732  0.59444507  0.52106718  1
