# generated using pymatgen
data_Li5O
_symmetry_space_group_name_H-M   'P 1'
_cell_length_a   5.79220368
_cell_length_b   4.10896387
_cell_length_c   3.56434186
_cell_angle_alpha   90.58900663
_cell_angle_beta   106.21755972
_cell_angle_gamma   79.93199892
_symmetry_Int_Tables_number   1
_chemical_formula_structural   Li5O
_chemical_formula_sum   'Li5 O1'
_cell_volume   80.13457092
_cell_formula_units_Z   1
loop_
 _symmetry_equiv_pos_site_id
 _symmetry_equiv_pos_as_xyz
  1  'x, y, z'
loop_
 _atom_site_type_symbol
 _atom_site_label
 _atom_site_symmetry_multiplicity
 _atom_site_fract_x
 _atom_site_fract_y
 _atom_site_fract_z
 _atom_site_occupancy
  Li  Li0  1  0.50000000  0.00000000  -0.00000000  1
  Li  Li1  1  0.09244277  0.90608945  0.70244535  1
  Li  Li2  1  -0.09244277  -0.90608945  -0.70244535  1
  Li  Li3  1  0.42987998  0.65968832  0.44593916  1
  Li  Li4  1  0.57012002  0.34031168  0.55406084  1
  O  O5  1  0.50000000  0.50000000  -0.00000000  1
