# generated using pymatgen
data_Li3(PO2)4
_symmetry_space_group_name_H-M   'P 1'
_cell_length_a   6.46190306
_cell_length_b   6.22339065
_cell_length_c   5.53192432
_cell_angle_alpha   82.20693204
_cell_angle_beta   105.14750998
_cell_angle_gamma   124.02999070
_symmetry_Int_Tables_number   1
_chemical_formula_structural   Li3(PO2)4
_chemical_formula_sum   'Li3 P4 O8'
_cell_volume   177.94621826
_cell_formula_units_Z   1
loop_
 _symmetry_equiv_pos_site_id
 _symmetry_equiv_pos_as_xyz
  1  'x, y, z'
loop_
 _atom_site_type_symbol
 _atom_site_label
 _atom_site_symmetry_multiplicity
 _atom_site_fract_x
 _atom_site_fract_y
 _atom_site_fract_z
 _atom_site_occupancy
  Li  Li0  1  0.92785556  0.96636326  0.89783812  1
  Li  Li1  1  0.73615000  0.59638284  0.74327648  1
  Li  Li2  1  0.33690944  0.16691100  0.61430351  1
  O  O3  1  0.94303300  0.72129144  0.89536484  1
  O  O4  1  0.39903118  0.55792755  0.08118328  1
  O  O5  1  0.50348164  0.22035235  0.48633581  1
  O  O6  1  0.20970696  0.57233413  0.52774440  1
  O  O7  1  0.56778092  0.07668118  0.11863612  1
  O  O8  1  0.21488804  0.72769643  0.69308908  1
  O  O9  1  0.91219190  0.24635600  0.08729332  1
  O  O10  1  0.22192995  0.65804695  0.10801237  1
  P  P11  1  0.13557350  0.33057382  0.29362865  1
  P  P12  1  0.57734215  0.52053855  0.33619310  1
  P  P13  1  0.60519638  0.96602148  0.64979583  1
  P  P14  1  0.43401006  0.35547831  0.93406082  1
