# generated using pymatgen
data_Li2O5
_symmetry_space_group_name_H-M   'P 1'
_cell_length_a   12.47969864
_cell_length_b   3.52594712
_cell_length_c   6.01729887
_cell_angle_alpha   90.36529816
_cell_angle_beta   112.78398218
_cell_angle_gamma   54.20733375
_symmetry_Int_Tables_number   1
_chemical_formula_structural   Li2O5
_chemical_formula_sum   'Li4 O10'
_cell_volume   189.24195035
_cell_formula_units_Z   2
loop_
 _symmetry_equiv_pos_site_id
 _symmetry_equiv_pos_as_xyz
  1  'x, y, z'
loop_
 _atom_site_type_symbol
 _atom_site_label
 _atom_site_symmetry_multiplicity
 _atom_site_fract_x
 _atom_site_fract_y
 _atom_site_fract_z
 _atom_site_occupancy
  Li  Li0  1  0.18004793  0.17444327  0.57868541  1
  Li  Li1  1  -0.18004793  -0.17444327  -0.57868541  1
  Li  Li2  1  0.00000000  0.50000000  0.00000000  1
  Li  Li3  1  0.50000000  0.00000000  0.00000000  1
  O  O4  1  0.50000000  0.50000000  0.50000000  1
  O  O5  1  0.74360024  0.32834575  0.30628143  1
  O  O6  1  0.25639976  0.67165425  0.69371857  1
  O  O7  1  0.50000000  0.50000000  0.00000000  1
  O  O8  1  0.37287820  0.99355822  0.10839431  1
  O  O9  1  0.62712180  0.00644178  0.89160569  1
  O  O10  1  0.35996998  0.05732318  0.36124774  1
  O  O11  1  0.64003002  0.94267682  0.63875226  1
  O  O12  1  0.18407225  0.62931226  0.38921609  1
  O  O13  1  0.81592775  0.37068774  0.61078391  1
