# generated using pymatgen
data_Li3Al3PO5
_symmetry_space_group_name_H-M   'P 1'
_cell_length_a   6.95872803
_cell_length_b   6.84685242
_cell_length_c   5.93664907
_cell_angle_alpha   89.40970101
_cell_angle_beta   83.85132890
_cell_angle_gamma   147.64740734
_symmetry_Int_Tables_number   1
_chemical_formula_structural   Li3Al3PO5
_chemical_formula_sum   'Li3 Al3 P1 O5'
_cell_volume   147.76760615
_cell_formula_units_Z   1
loop_
 _symmetry_equiv_pos_site_id
 _symmetry_equiv_pos_as_xyz
  1  'x, y, z'
loop_
 _atom_site_type_symbol
 _atom_site_label
 _atom_site_symmetry_multiplicity
 _atom_site_fract_x
 _atom_site_fract_y
 _atom_site_fract_z
 _atom_site_occupancy
  Al  Al0  1  0.09305118  0.07856924  0.11286322  1
  Al  Al1  1  -0.09305118  -0.07856924  -0.11286322  1
  Al  Al2  1  0.00000000  0.00000000  0.50000000  1
  Li  Li3  1  0.02280506  0.86417918  0.61182584  1
  Li  Li4  1  0.97719494  0.13582082  0.38817416  1
  Li  Li5  1  0.50000000  0.00000000  0.50000000  1
  O  O6  1  0.50000000  0.50000000  0.00000000  1
  O  O7  1  0.00000000  0.50000000  0.00000000  1
  O  O8  1  0.74132968  0.50433687  0.98205116  1
  O  O9  1  0.25867032  0.49566313  0.01794884  1
  O  O10  1  0.50000000  0.00000000  0.00000000  1
  P  P11  1  0.00000000  0.50000000  0.50000000  1
