# generated using pymatgen
data_Li3O
_symmetry_space_group_name_H-M   'P 1'
_cell_length_a   8.27052793
_cell_length_b   4.85639796
_cell_length_c   2.57974050
_cell_angle_alpha   92.71857881
_cell_angle_beta   78.22138063
_cell_angle_gamma   65.41845779
_symmetry_Int_Tables_number   1
_chemical_formula_structural   Li3O
_chemical_formula_sum   'Li3 O1'
_cell_volume   91.21552137
_cell_formula_units_Z   1
loop_
 _symmetry_equiv_pos_site_id
 _symmetry_equiv_pos_as_xyz
  1  'x, y, z'
loop_
 _atom_site_type_symbol
 _atom_site_label
 _atom_site_symmetry_multiplicity
 _atom_site_fract_x
 _atom_site_fract_y
 _atom_site_fract_z
 _atom_site_occupancy
  Li  Li0  1  0.90469440  0.24835854  0.07385832  1
  Li  Li1  1  0.76242732  0.79123559  0.29907627  1
  Li  Li2  1  0.76279855  0.19710554  0.81248654  1
  O  O3  1  0.84801133  0.81080069  0.54325349  1
