# generated using pymatgen
data_Li3O
_symmetry_space_group_name_H-M   'P 1'
_cell_length_a   4.88627755
_cell_length_b   5.46035635
_cell_length_c   4.12635553
_cell_angle_alpha   62.17913599
_cell_angle_beta   77.45095418
_cell_angle_gamma   91.44153451
_symmetry_Int_Tables_number   1
_chemical_formula_structural   Li3O
_chemical_formula_sum   'Li6 O2'
_cell_volume   94.01580396
_cell_formula_units_Z   2
loop_
 _symmetry_equiv_pos_site_id
 _symmetry_equiv_pos_as_xyz
  1  'x, y, z'
loop_
 _atom_site_type_symbol
 _atom_site_label
 _atom_site_symmetry_multiplicity
 _atom_site_fract_x
 _atom_site_fract_y
 _atom_site_fract_z
 _atom_site_occupancy
  Li  Li0  1  0.58896630  0.56546928  0.68911720  1
  Li  Li1  1  -0.58896630  -0.56546928  -0.68911720  1
  Li  Li2  1  0.24242337  0.35587651  0.72947484  1
  Li  Li3  1  0.75757663  0.64412349  0.27052516  1
  Li  Li4  1  0.65965545  0.32930754  0.95300510  1
  Li  Li5  1  0.34034455  0.67069246  0.04699490  1
  O  O6  1  0.01517084  0.60495858  0.56018537  1
  O  O7  1  0.98482916  0.39504142  0.43981463  1
