# generated using pymatgen
data_Li2O3
_symmetry_space_group_name_H-M   'P 1'
_cell_length_a   4.98185174
_cell_length_b   6.89821122
_cell_length_c   1.94526904
_cell_angle_alpha   66.72317382
_cell_angle_beta   76.64611741
_cell_angle_gamma   110.37204173
_symmetry_Int_Tables_number   1
_chemical_formula_structural   Li2O3
_chemical_formula_sum   'Li2 O3'
_cell_volume   52.03054840
_cell_formula_units_Z   1
loop_
 _symmetry_equiv_pos_site_id
 _symmetry_equiv_pos_as_xyz
  1  'x, y, z'
loop_
 _atom_site_type_symbol
 _atom_site_label
 _atom_site_symmetry_multiplicity
 _atom_site_fract_x
 _atom_site_fract_y
 _atom_site_fract_z
 _atom_site_occupancy
  Li  Li0  1  0.51635606  0.38015086  0.65120627  1
  Li  Li1  1  0.13375446  0.33133969  0.81495803  1
  O  O2  1  0.68433112  0.54998880  0.77071989  1
  O  O3  1  0.54550492  0.91489862  0.67918405  1
  O  O4  1  0.10395128  0.55373505  0.27424455  1
