# generated using pymatgen
data_Li3SF4
_symmetry_space_group_name_H-M   'P 1'
_cell_length_a   7.04668897
_cell_length_b   5.44486331
_cell_length_c   3.50581527
_cell_angle_alpha   111.00859556
_cell_angle_beta   79.24206426
_cell_angle_gamma   103.70013655
_symmetry_Int_Tables_number   1
_chemical_formula_structural   Li3SF4
_chemical_formula_sum   'Li3 S1 F4'
_cell_volume   121.22772203
_cell_formula_units_Z   1
loop_
 _symmetry_equiv_pos_site_id
 _symmetry_equiv_pos_as_xyz
  1  'x, y, z'
loop_
 _atom_site_type_symbol
 _atom_site_label
 _atom_site_symmetry_multiplicity
 _atom_site_fract_x
 _atom_site_fract_y
 _atom_site_fract_z
 _atom_site_occupancy
  F  F0  1  0.63904195  0.70041800  0.41595824  1
  F  F1  1  0.36095805  0.29958200  0.58404176  1
  F  F2  1  0.50000000  0.50000000  0.00000000  1
  F  F3  1  0.00000000  0.00000000  0.50000000  1
  Li  Li4  1  0.71918135  0.86904200  0.71401638  1
  Li  Li5  1  -0.71918135  -0.86904200  -0.71401638  1
  Li  Li6  1  0.50000000  0.00000000  0.00000000  1
  S  S7  1  0.50000000  0.50000000  0.50000000  1
