# generated using pymatgen
data_Li3AlP
_symmetry_space_group_name_H-M   'P 1'
_cell_length_a   4.93765599
_cell_length_b   2.92267382
_cell_length_c   5.57682545
_cell_angle_alpha   81.63435572
_cell_angle_beta   101.92748788
_cell_angle_gamma   126.31900079
_symmetry_Int_Tables_number   1
_chemical_formula_structural   Li3AlP
_chemical_formula_sum   'Li3 Al1 P1'
_cell_volume   63.41813008
_cell_formula_units_Z   1
loop_
 _symmetry_equiv_pos_site_id
 _symmetry_equiv_pos_as_xyz
  1  'x, y, z'
loop_
 _atom_site_type_symbol
 _atom_site_label
 _atom_site_symmetry_multiplicity
 _atom_site_fract_x
 _atom_site_fract_y
 _atom_site_fract_z
 _atom_site_occupancy
  Al  Al0  1  0.00000000  0.50000000  0.00000000  1
  Li  Li1  1  0.00000000  0.00000000  0.50000000  1
  Li  Li2  1  0.50000000  0.50000000  0.50000000  1
  Li  Li3  1  0.50000000  0.50000000  -0.00000000  1
  P  P4  1  0.50000000  -0.00000000  0.00000000  1
