# generated using pymatgen
data_LiS4O9
_symmetry_space_group_name_H-M   'P 1'
_cell_length_a   6.15240953
_cell_length_b   9.32736534
_cell_length_c   4.62195247
_cell_angle_alpha   102.23327194
_cell_angle_beta   65.96262938
_cell_angle_gamma   79.85153535
_symmetry_Int_Tables_number   1
_chemical_formula_structural   LiS4O9
_chemical_formula_sum   'Li1 S4 O9'
_cell_volume   226.26211212
_cell_formula_units_Z   1
loop_
 _symmetry_equiv_pos_site_id
 _symmetry_equiv_pos_as_xyz
  1  'x, y, z'
loop_
 _atom_site_type_symbol
 _atom_site_label
 _atom_site_symmetry_multiplicity
 _atom_site_fract_x
 _atom_site_fract_y
 _atom_site_fract_z
 _atom_site_occupancy
  Li  Li0  1  0.71653849  0.78528588  0.70233750  1
  O  O1  1  0.94379487  0.27579877  0.01319106  1
  O  O2  1  0.17810242  0.47043046  0.11173716  1
  O  O3  1  0.35689091  0.04477121  0.62304289  1
  O  O4  1  0.36660231  0.78785394  0.16274802  1
  O  O5  1  0.67024758  0.67567771  0.88767267  1
  O  O6  1  0.76470400  0.89259341  0.33720947  1
  O  O7  1  0.92694109  0.47163125  0.93404972  1
  O  O8  1  0.49955764  0.83308000  0.36261020  1
  O  O9  1  0.42589800  0.06014502  0.77633878  1
  S  S10  1  0.15014379  0.24973792  0.95555661  1
  S  S11  1  0.52901510  0.00450304  0.44614609  1
  S  S12  1  0.74457848  0.54787937  0.50923357  1
  S  S13  1  0.46538488  0.38810176  0.12932991  1
