# generated using pymatgen
data_LiO2
_symmetry_space_group_name_H-M   'P 1'
_cell_length_a   3.78383045
_cell_length_b   9.38176506
_cell_length_c   6.11105856
_cell_angle_alpha   68.70084036
_cell_angle_beta   107.83347577
_cell_angle_gamma   114.51489832
_symmetry_Int_Tables_number   1
_chemical_formula_structural   LiO2
_chemical_formula_sum   'Li5 O10'
_cell_volume   180.77685887
_cell_formula_units_Z   5
loop_
 _symmetry_equiv_pos_site_id
 _symmetry_equiv_pos_as_xyz
  1  'x, y, z'
loop_
 _atom_site_type_symbol
 _atom_site_label
 _atom_site_symmetry_multiplicity
 _atom_site_fract_x
 _atom_site_fract_y
 _atom_site_fract_z
 _atom_site_occupancy
  Li  Li0  1  0.84337933  0.91914033  0.39899030  1
  Li  Li1  1  0.62914735  0.69695531  0.16821010  1
  Li  Li2  1  0.89497724  0.62778253  0.40001684  1
  Li  Li3  1  0.11857235  0.87144015  0.17381618  1
  Li  Li4  1  0.97514088  0.04542932  0.02690641  1
  O  O5  1  0.65433565  0.65849411  0.80323772  1
  O  O6  1  0.20171438  0.02969466  0.92901310  1
  O  O7  1  0.62113800  0.74271171  0.84504783  1
  O  O8  1  0.29626484  0.60284202  0.00312567  1
  O  O9  1  0.85412812  0.69829565  0.03987284  1
  O  O10  1  0.32875250  0.12006144  0.44254199  1
  O  O11  1  0.11927364  0.84157230  0.00447977  1
  O  O12  1  0.43412616  0.39010068  0.22561550  1
  O  O13  1  0.04092608  0.24771416  0.77839660  1
  O  O14  1  0.63924016  0.97117967  0.92032919  1
