# generated using pymatgen
data_Li2Al3PS7O2
_symmetry_space_group_name_H-M   'P 1'
_cell_length_a   5.76133026
_cell_length_b   5.33224721
_cell_length_c   7.68171786
_cell_angle_alpha   108.17839670
_cell_angle_beta   88.59293881
_cell_angle_gamma   68.19560646
_symmetry_Int_Tables_number   1
_chemical_formula_structural   Li2Al3PS7O2
_chemical_formula_sum   'Li2 Al3 P1 S7 O2'
_cell_volume   205.51490346
_cell_formula_units_Z   1
loop_
 _symmetry_equiv_pos_site_id
 _symmetry_equiv_pos_as_xyz
  1  'x, y, z'
loop_
 _atom_site_type_symbol
 _atom_site_label
 _atom_site_symmetry_multiplicity
 _atom_site_fract_x
 _atom_site_fract_y
 _atom_site_fract_z
 _atom_site_occupancy
  Al  Al0  1  0.89645065  0.31212105  0.12703699  1
  Al  Al1  1  -0.89645065  -0.31212105  -0.12703699  1
  Al  Al2  1  0.00000000  0.00000000  0.00000000  1
  Li  Li3  1  0.16739845  0.27601397  0.03753402  1
  Li  Li4  1  0.83260155  0.72398603  0.96246598  1
  O  O5  1  0.50000000  0.00000000  0.00000000  1
  O  O6  1  0.50000000  0.00000000  0.50000000  1
  P  P7  1  0.00000000  0.00000000  0.50000000  1
  S  S8  1  0.21848165  0.57267458  0.39297782  1
  S  S9  1  0.78151835  0.42732542  0.60702218  1
  S  S10  1  0.36817733  0.30801375  0.50894128  1
  S  S11  1  0.63182267  0.69198625  0.49105872  1
  S  S12  1  0.12680098  0.80055546  0.27963176  1
  S  S13  1  0.87319902  0.19944454  0.72036824  1
  S  S14  1  0.00000000  0.50000000  0.50000000  1
