# generated using pymatgen
data_Li7O8
_symmetry_space_group_name_H-M   'P 1'
_cell_length_a   8.40240731
_cell_length_b   6.68793708
_cell_length_c   3.85124155
_cell_angle_alpha   83.55205763
_cell_angle_beta   89.92226806
_cell_angle_gamma   94.80527508
_symmetry_Int_Tables_number   1
_chemical_formula_structural   Li7O8
_chemical_formula_sum   'Li7 O8'
_cell_volume   214.28210000
_cell_formula_units_Z   1
loop_
 _symmetry_equiv_pos_site_id
 _symmetry_equiv_pos_as_xyz
  1  'x, y, z'
loop_
 _atom_site_type_symbol
 _atom_site_label
 _atom_site_symmetry_multiplicity
 _atom_site_fract_x
 _atom_site_fract_y
 _atom_site_fract_z
 _atom_site_occupancy
  Li  Li0  1  0.27845968  0.74766161  0.70091058  1
  Li  Li1  1  0.33877269  0.01606266  0.12450987  1
  Li  Li2  1  0.95556018  0.65744886  0.79826185  1
  Li  Li3  1  0.96622619  0.65372695  0.19862823  1
  Li  Li4  1  0.45973924  0.38290330  0.24396021  1
  Li  Li5  1  0.57756347  0.50651101  0.65447734  1
  Li  Li6  1  0.50605077  0.79954394  0.18630320  1
  O  O7  1  0.16173501  0.83994155  0.31240345  1
  O  O8  1  0.61438699  0.99035747  0.61902342  1
  O  O9  1  0.58638981  0.63179886  0.81909341  1
  O  O10  1  0.25243896  0.64377104  0.23084677  1
  O  O11  1  0.88063668  0.33171158  0.34384208  1
  O  O12  1  0.55788707  0.49651473  0.19495378  1
  O  O13  1  0.07609639  0.19033651  0.09325810  1
  O  O14  1  0.59210949  0.20654878  0.98342463  1
