# generated using pymatgen
data_Li2O3
_symmetry_space_group_name_H-M   'P 1'
_cell_length_a   10.08511619
_cell_length_b   4.72060945
_cell_length_c   11.16519719
_cell_angle_alpha   103.42513868
_cell_angle_beta   101.32406781
_cell_angle_gamma   142.94830693
_symmetry_Int_Tables_number   1
_chemical_formula_structural   Li2O3
_chemical_formula_sum   'Li6 O9'
_cell_volume   236.41688920
_cell_formula_units_Z   3
loop_
 _symmetry_equiv_pos_site_id
 _symmetry_equiv_pos_as_xyz
  1  'x, y, z'
loop_
 _atom_site_type_symbol
 _atom_site_label
 _atom_site_symmetry_multiplicity
 _atom_site_fract_x
 _atom_site_fract_y
 _atom_site_fract_z
 _atom_site_occupancy
  Li  Li0  1  0.59494505  0.57896727  0.44266616  1
  Li  Li1  1  -0.59494505  -0.57896727  -0.44266616  1
  Li  Li2  1  0.70956065  0.05773158  0.39721356  1
  Li  Li3  1  0.29043935  0.94226842  0.60278644  1
  Li  Li4  1  0.71798820  0.08362798  0.77469438  1
  Li  Li5  1  0.28201180  0.91637202  0.22530562  1
  O  O6  1  0.50000000  0.00000000  0.50000000  1
  O  O7  1  0.00000000  0.50000000  0.00000000  1
  O  O8  1  0.00000000  0.00000000  0.00000000  1
  O  O9  1  0.96155270  0.84239282  0.89946490  1
  O  O10  1  0.03844730  0.15760718  0.10053510  1
  O  O11  1  0.84198428  0.49059378  0.01622471  1
  O  O12  1  0.15801572  0.50940622  0.98377529  1
  O  O13  1  0.24691577  0.66978436  0.87473245  1
  O  O14  1  0.75308423  0.33021564  0.12526755  1
