# generated using pymatgen
data_Li8O7
_symmetry_space_group_name_H-M   'P 1'
_cell_length_a   3.97459448
_cell_length_b   8.82072336
_cell_length_c   7.39785696
_cell_angle_alpha   97.38532401
_cell_angle_beta   98.43547726
_cell_angle_gamma   110.22241865
_symmetry_Int_Tables_number   1
_chemical_formula_structural   Li8O7
_chemical_formula_sum   'Li8 O7'
_cell_volume   236.20800991
_cell_formula_units_Z   1
loop_
 _symmetry_equiv_pos_site_id
 _symmetry_equiv_pos_as_xyz
  1  'x, y, z'
loop_
 _atom_site_type_symbol
 _atom_site_label
 _atom_site_symmetry_multiplicity
 _atom_site_fract_x
 _atom_site_fract_y
 _atom_site_fract_z
 _atom_site_occupancy
  Li  Li0  1  0.24776346  0.22977364  0.05625493  1
  Li  Li1  1  0.77461407  0.35831571  0.00922139  1
  Li  Li2  1  0.73568406  0.66724447  0.51877300  1
  Li  Li3  1  0.04283496  0.26569024  0.70711662  1
  Li  Li4  1  0.69973838  0.62845855  0.13813138  1
  Li  Li5  1  0.84025004  0.94901486  0.36456856  1
  Li  Li6  1  0.11843551  0.06133716  0.22981461  1
  Li  Li7  1  0.53139435  0.40671046  0.45191406  1
  O  O8  1  0.50634955  0.16863966  0.83067372  1
  O  O9  1  0.12048952  0.86465740  0.44597359  1
  O  O10  1  0.23939757  0.00750393  0.53904991  1
  O  O11  1  0.34949198  0.62307692  0.41897620  1
  O  O12  1  0.53900337  0.31813202  0.62972482  1
  O  O13  1  0.35889676  0.89044643  0.90290560  1
  O  O14  1  0.52204120  0.92373169  0.18549275  1
