# generated using pymatgen
data_LiO2
_symmetry_space_group_name_H-M   'P 1'
_cell_length_a   7.09444788
_cell_length_b   5.45333453
_cell_length_c   4.71378055
_cell_angle_alpha   72.43853936
_cell_angle_beta   83.85608329
_cell_angle_gamma   119.93163395
_symmetry_Int_Tables_number   1
_chemical_formula_structural   LiO2
_chemical_formula_sum   'Li4 O8'
_cell_volume   143.16943844
_cell_formula_units_Z   4
loop_
 _symmetry_equiv_pos_site_id
 _symmetry_equiv_pos_as_xyz
  1  'x, y, z'
loop_
 _atom_site_type_symbol
 _atom_site_label
 _atom_site_symmetry_multiplicity
 _atom_site_fract_x
 _atom_site_fract_y
 _atom_site_fract_z
 _atom_site_occupancy
  Li  Li0  1  0.81344896  0.38768453  0.51218844  1
  Li  Li1  1  0.58912585  0.70599584  0.28733744  1
  Li  Li2  1  0.52549101  0.74820704  0.52312073  1
  Li  Li3  1  0.15215164  0.97213012  0.25980062  1
  O  O4  1  0.06209407  0.57130259  0.42025332  1
  O  O5  1  0.75003667  0.43113744  0.81236229  1
  O  O6  1  0.29235618  0.09748650  0.71170809  1
  O  O7  1  0.91668576  0.09946218  0.51504138  1
  O  O8  1  0.19528905  0.68808341  0.53313094  1
  O  O9  1  0.69489203  0.42434523  0.33397837  1
  O  O10  1  0.60724620  0.32757981  0.85530022  1
  O  O11  1  0.76406504  0.20757093  0.15281402  1
