# generated using pymatgen
data_LiO2
_symmetry_space_group_name_H-M   'P 1'
_cell_length_a   3.27997817
_cell_length_b   4.34762305
_cell_length_c   7.02781601
_cell_angle_alpha   75.20973164
_cell_angle_beta   102.61900520
_cell_angle_gamma   72.46238881
_symmetry_Int_Tables_number   1
_chemical_formula_structural   LiO2
_chemical_formula_sum   'Li2 O4'
_cell_volume   87.52210476
_cell_formula_units_Z   2
loop_
 _symmetry_equiv_pos_site_id
 _symmetry_equiv_pos_as_xyz
  1  'x, y, z'
loop_
 _atom_site_type_symbol
 _atom_site_label
 _atom_site_symmetry_multiplicity
 _atom_site_fract_x
 _atom_site_fract_y
 _atom_site_fract_z
 _atom_site_occupancy
  Li  Li0  1  0.95441304  0.12127634  0.34984039  1
  Li  Li1  1  0.63727052  0.81636263  0.87133755  1
  O  O2  1  0.93238839  0.31342767  0.53408276  1
  O  O3  1  0.35582870  0.03756381  0.54236041  1
  O  O4  1  0.69184980  0.49429540  0.42254545  1
  O  O5  1  0.88522285  0.29263430  0.66810884  1
