# generated using pymatgen
data_Li2Al
_symmetry_space_group_name_H-M   'P 1'
_cell_length_a   5.63231137
_cell_length_b   5.63231137
_cell_length_c   4.20718785
_cell_angle_alpha   90.00000000
_cell_angle_beta   90.00000000
_cell_angle_gamma   90.00000000
_symmetry_Int_Tables_number   1
_chemical_formula_structural   Li2Al
_chemical_formula_sum   'Li8 Al4'
_cell_volume   133.46433137
_cell_formula_units_Z   4
loop_
 _symmetry_equiv_pos_site_id
 _symmetry_equiv_pos_as_xyz
  1  'x, y, z'
loop_
 _atom_site_type_symbol
 _atom_site_label
 _atom_site_symmetry_multiplicity
 _atom_site_fract_x
 _atom_site_fract_y
 _atom_site_fract_z
 _atom_site_occupancy
  Al  Al0  1  0.62521498  0.37478502  -0.00000000  1
  Al  Al1  1  0.37478502  0.62521498  -0.00000000  1
  Al  Al2  1  0.12521498  0.12521498  0.50000000  1
  Al  Al3  1  0.87478502  0.87478502  0.50000000  1
  Li  Li4  1  0.84145323  -0.84145323  0.00000000  1
  Li  Li5  1  -0.84145323  0.84145323  0.00000000  1
  Li  Li6  1  1.34145323  1.34145323  0.50000000  1
  Li  Li7  1  -0.34145323  -0.34145323  0.50000000  1
  Li  Li8  1  0.00000000  0.50000000  0.25000000  1
  Li  Li9  1  0.00000000  0.50000000  0.75000000  1
  Li  Li10  1  0.50000000  0.00000000  0.25000000  1
  Li  Li11  1  0.50000000  0.00000000  0.75000000  1
