# generated using pymatgen
data_LiO4
_symmetry_space_group_name_H-M   'P 1'
_cell_length_a   4.15651931
_cell_length_b   4.84415613
_cell_length_c   3.20403375
_cell_angle_alpha   112.92315042
_cell_angle_beta   116.17488519
_cell_angle_gamma   61.88361508
_symmetry_Int_Tables_number   1
_chemical_formula_structural   LiO4
_chemical_formula_sum   'Li1 O4'
_cell_volume   49.70239432
_cell_formula_units_Z   1
loop_
 _symmetry_equiv_pos_site_id
 _symmetry_equiv_pos_as_xyz
  1  'x, y, z'
loop_
 _atom_site_type_symbol
 _atom_site_label
 _atom_site_symmetry_multiplicity
 _atom_site_fract_x
 _atom_site_fract_y
 _atom_site_fract_z
 _atom_site_occupancy
  Li  Li0  1  0.68750951  0.11300344  0.67427922  1
  O  O1  1  0.31729369  0.46280875  0.05963179  1
  O  O2  1  0.13963603  0.00334198  0.70057136  1
  O  O3  1  0.18575395  0.73564176  0.52241867  1
  O  O4  1  0.48590189  0.19100604  0.09942298  1
