# generated using pymatgen
data_Li7O3
_symmetry_space_group_name_H-M   'P 1'
_cell_length_a   6.15063101
_cell_length_b   4.49056050
_cell_length_c   6.07418977
_cell_angle_alpha   84.51845426
_cell_angle_beta   85.54622597
_cell_angle_gamma   99.99375184
_symmetry_Int_Tables_number   1
_chemical_formula_structural   Li7O3
_chemical_formula_sum   'Li7 O3'
_cell_volume   163.70505763
_cell_formula_units_Z   1
loop_
 _symmetry_equiv_pos_site_id
 _symmetry_equiv_pos_as_xyz
  1  'x, y, z'
loop_
 _atom_site_type_symbol
 _atom_site_label
 _atom_site_symmetry_multiplicity
 _atom_site_fract_x
 _atom_site_fract_y
 _atom_site_fract_z
 _atom_site_occupancy
  Li  Li0  1  0.10743868  0.00568411  0.84261254  1
  Li  Li1  1  -0.10743868  -0.00568411  -0.84261254  1
  Li  Li2  1  0.91806949  0.49887913  0.30825475  1
  Li  Li3  1  0.08193051  0.50112087  0.69174525  1
  Li  Li4  1  0.70086177  0.73492769  0.29727213  1
  Li  Li5  1  0.29913823  0.26507231  0.70272787  1
  Li  Li6  1  0.00000000  0.00000000  0.50000000  1
  O  O7  1  0.25126471  0.43391157  0.96701067  1
  O  O8  1  0.74873529  0.56608843  0.03298933  1
  O  O9  1  0.50000000  0.50000000  0.50000000  1
