# generated using pymatgen
data_Li3P4
_symmetry_space_group_name_H-M   'P 1'
_cell_length_a   4.20888555
_cell_length_b   4.36452514
_cell_length_c   4.94139146
_cell_angle_alpha   84.56319603
_cell_angle_beta   100.15085420
_cell_angle_gamma   103.68003410
_symmetry_Int_Tables_number   1
_chemical_formula_structural   Li3P4
_chemical_formula_sum   'Li3 P4'
_cell_volume   86.68296406
_cell_formula_units_Z   1
loop_
 _symmetry_equiv_pos_site_id
 _symmetry_equiv_pos_as_xyz
  1  'x, y, z'
loop_
 _atom_site_type_symbol
 _atom_site_label
 _atom_site_symmetry_multiplicity
 _atom_site_fract_x
 _atom_site_fract_y
 _atom_site_fract_z
 _atom_site_occupancy
  Li  Li0  1  0.90532060  0.66489562  0.59391143  1
  Li  Li1  1  0.17218041  0.25783264  0.22011041  1
  Li  Li2  1  0.63403557  0.02682569  0.63694748  1
  P  P3  1  0.01039767  0.95931843  0.93448348  1
  P  P4  1  0.77384533  0.50618626  0.19570343  1
  P  P5  1  0.36714374  0.44573606  0.61434839  1
  P  P6  1  0.46812386  0.49307230  0.87224655  1
