# generated using pymatgen
data_Li4PO2
_symmetry_space_group_name_H-M   'P 1'
_cell_length_a   10.64381140
_cell_length_b   6.48885695
_cell_length_c   4.36251008
_cell_angle_alpha   76.64912353
_cell_angle_beta   95.96398110
_cell_angle_gamma   85.97065442
_symmetry_Int_Tables_number   1
_chemical_formula_structural   Li4PO2
_chemical_formula_sum   'Li8 P2 O4'
_cell_volume   290.18570134
_cell_formula_units_Z   2
loop_
 _symmetry_equiv_pos_site_id
 _symmetry_equiv_pos_as_xyz
  1  'x, y, z'
loop_
 _atom_site_type_symbol
 _atom_site_label
 _atom_site_symmetry_multiplicity
 _atom_site_fract_x
 _atom_site_fract_y
 _atom_site_fract_z
 _atom_site_occupancy
  Li  Li0  1  0.50000000  0.50000000  0.50000000  1
  Li  Li1  1  0.69271944  0.91842471  0.95157605  1
  Li  Li2  1  -0.69271944  -0.91842471  -0.95157605  1
  Li  Li3  1  0.30713909  0.50839456  0.21516299  1
  Li  Li4  1  0.69286091  0.49160544  0.78483701  1
  Li  Li5  1  0.50000000  0.00000000  0.50000000  1
  Li  Li6  1  0.96092551  0.25815961  0.33408647  1
  Li  Li7  1  0.03907449  0.74184039  0.66591353  1
  O  O8  1  0.00000000  0.50000000  0.00000000  1
  O  O9  1  0.96208103  0.90394333  0.52228851  1
  O  O10  1  0.03791897  0.09605667  0.47771149  1
  O  O11  1  0.50000000  0.50000000  0.00000000  1
  P  P12  1  0.11263605  0.13654499  0.81947261  1
  P  P13  1  0.88736395  0.86345501  0.18052739  1
