# generated using pymatgen
data_Li4O
_symmetry_space_group_name_H-M   'P 1'
_cell_length_a   7.07100286
_cell_length_b   7.07100286
_cell_length_c   4.23229282
_cell_angle_alpha   90.00000000
_cell_angle_beta   90.00000000
_cell_angle_gamma   90.00000000
_symmetry_Int_Tables_number   1
_chemical_formula_structural   Li4O
_chemical_formula_sum   'Li8 O2'
_cell_volume   211.61075388
_cell_formula_units_Z   2
loop_
 _symmetry_equiv_pos_site_id
 _symmetry_equiv_pos_as_xyz
  1  'x, y, z'
loop_
 _atom_site_type_symbol
 _atom_site_label
 _atom_site_symmetry_multiplicity
 _atom_site_fract_x
 _atom_site_fract_y
 _atom_site_fract_z
 _atom_site_occupancy
  Li  Li0  1  0.09708981  0.26139690  0.00000000  1
  Li  Li1  1  -0.09708981  -0.26139690  0.00000000  1
  Li  Li2  1  0.23860310  0.59708981  0.50000000  1
  Li  Li3  1  0.76139690  0.40291019  0.50000000  1
  Li  Li4  1  0.40291019  0.76139690  0.50000000  1
  Li  Li5  1  0.59708981  0.23860310  0.50000000  1
  Li  Li6  1  0.26139690  0.09708981  0.00000000  1
  Li  Li7  1  -0.26139690  -0.09708981  0.00000000  1
  O  O8  1  0.00000000  0.00000000  0.00000000  1
  O  O9  1  0.50000000  0.50000000  0.50000000  1
