# generated using pymatgen
data_Li3O2
_symmetry_space_group_name_H-M   'P 1'
_cell_length_a   3.60546571
_cell_length_b   4.80478650
_cell_length_c   4.89026986
_cell_angle_alpha   73.47049435
_cell_angle_beta   80.14460980
_cell_angle_gamma   111.68382501
_symmetry_Int_Tables_number   1
_chemical_formula_structural   Li3O2
_chemical_formula_sum   'Li3 O2'
_cell_volume   71.74715593
_cell_formula_units_Z   1
loop_
 _symmetry_equiv_pos_site_id
 _symmetry_equiv_pos_as_xyz
  1  'x, y, z'
loop_
 _atom_site_type_symbol
 _atom_site_label
 _atom_site_symmetry_multiplicity
 _atom_site_fract_x
 _atom_site_fract_y
 _atom_site_fract_z
 _atom_site_occupancy
  Li  Li0  1  0.58505101  0.48307059  0.69066836  1
  Li  Li1  1  -0.58505101  -0.48307059  -0.69066836  1
  Li  Li2  1  0.00000000  0.00000000  0.50000000  1
  O  O3  1  0.50000000  0.00000000  0.00000000  1
  O  O4  1  0.00000000  0.50000000  0.50000000  1
