# generated using pymatgen
data_Li3Ti2O5
_symmetry_space_group_name_H-M   'P 1'
_cell_length_a   4.36278057
_cell_length_b   4.02546636
_cell_length_c   8.77444532
_cell_angle_alpha   103.35491900
_cell_angle_beta   82.94562150
_cell_angle_gamma   103.57389043
_symmetry_Int_Tables_number   1
_chemical_formula_structural   Li3Ti2O5
_chemical_formula_sum   'Li3 Ti2 O5'
_cell_volume   145.35987830
_cell_formula_units_Z   1
loop_
 _symmetry_equiv_pos_site_id
 _symmetry_equiv_pos_as_xyz
  1  'x, y, z'
loop_
 _atom_site_type_symbol
 _atom_site_label
 _atom_site_symmetry_multiplicity
 _atom_site_fract_x
 _atom_site_fract_y
 _atom_site_fract_z
 _atom_site_occupancy
  Li  Li0  1  0.93826411  0.10072792  0.93860434  1
  Li  Li1  1  0.09104765  0.71469862  0.10667188  1
  Li  Li2  1  0.39710885  0.34617882  0.31715612  1
  O  O3  1  0.18828923  0.44880453  0.86473889  1
  O  O4  1  0.05205515  0.34690001  0.77613819  1
  O  O5  1  0.46437818  0.80778506  0.55894184  1
  O  O6  1  0.76813854  0.97855431  0.05650605  1
  O  O7  1  0.27529681  0.30788748  0.90882164  1
  Ti  Ti8  1  0.79741137  0.39426530  0.28573588  1
  Ti  Ti9  1  0.89364788  0.51938041  0.65757463  1
