# generated using pymatgen
data_Li3O2
_symmetry_space_group_name_H-M   'P 1'
_cell_length_a   5.01173614
_cell_length_b   5.60489052
_cell_length_c   4.35112880
_cell_angle_alpha   133.72418489
_cell_angle_beta   124.28182992
_cell_angle_gamma   65.73844207
_symmetry_Int_Tables_number   1
_chemical_formula_structural   Li3O2
_chemical_formula_sum   'Li3 O2'
_cell_volume   72.93607396
_cell_formula_units_Z   1
loop_
 _symmetry_equiv_pos_site_id
 _symmetry_equiv_pos_as_xyz
  1  'x, y, z'
loop_
 _atom_site_type_symbol
 _atom_site_label
 _atom_site_symmetry_multiplicity
 _atom_site_fract_x
 _atom_site_fract_y
 _atom_site_fract_z
 _atom_site_occupancy
  Li  Li0  1  0.50000000  0.50000000  -0.00000000  1
  Li  Li1  1  0.69855654  0.97651611  0.01261470  1
  Li  Li2  1  -0.69855654  -0.97651611  -0.01261470  1
  O  O3  1  0.98254480  0.56305435  0.98006450  1
  O  O4  1  0.01745520  0.43694565  0.01993550  1
