# generated using pymatgen
data_Li6O
_symmetry_space_group_name_H-M   'P 1'
_cell_length_a   11.42155902
_cell_length_b   4.83029608
_cell_length_c   3.36866663
_cell_angle_alpha   85.18940433
_cell_angle_beta   98.17282493
_cell_angle_gamma   121.66470122
_symmetry_Int_Tables_number   1
_chemical_formula_structural   Li6O
_chemical_formula_sum   'Li6 O1'
_cell_volume   156.56548090
_cell_formula_units_Z   1
loop_
 _symmetry_equiv_pos_site_id
 _symmetry_equiv_pos_as_xyz
  1  'x, y, z'
loop_
 _atom_site_type_symbol
 _atom_site_label
 _atom_site_symmetry_multiplicity
 _atom_site_fract_x
 _atom_site_fract_y
 _atom_site_fract_z
 _atom_site_occupancy
  Li  Li0  1  0.02704573  0.95762953  0.67490373  1
  Li  Li1  1  0.31028459  0.08312915  0.24527337  1
  Li  Li2  1  0.03697273  0.86094065  0.06986225  1
  Li  Li3  1  0.80399019  0.59748689  0.10723131  1
  Li  Li4  1  0.39968310  0.51194595  0.96330931  1
  Li  Li5  1  0.92988342  0.88986653  0.30677452  1
  O  O6  1  0.08798516  0.66203547  0.26855523  1
