# generated using pymatgen
data_Li3Al3O8
_symmetry_space_group_name_H-M   'P 1'
_cell_length_a   4.69563025
_cell_length_b   8.36969527
_cell_length_c   4.85741688
_cell_angle_alpha   84.74186055
_cell_angle_beta   132.58008095
_cell_angle_gamma   83.60701040
_symmetry_Int_Tables_number   1
_chemical_formula_structural   Li3Al3O8
_chemical_formula_sum   'Li3 Al3 O8'
_cell_volume   136.00695813
_cell_formula_units_Z   1
loop_
 _symmetry_equiv_pos_site_id
 _symmetry_equiv_pos_as_xyz
  1  'x, y, z'
loop_
 _atom_site_type_symbol
 _atom_site_label
 _atom_site_symmetry_multiplicity
 _atom_site_fract_x
 _atom_site_fract_y
 _atom_site_fract_z
 _atom_site_occupancy
  Al  Al0  1  0.61344574  0.42011790  0.19816993  1
  Al  Al1  1  -0.61344574  -0.42011790  -0.19816993  1
  Al  Al2  1  0.50000000  0.50000000  0.50000000  1
  Li  Li3  1  0.94796870  0.70299187  0.79502907  1
  Li  Li4  1  0.05203130  0.29700813  0.20497093  1
  Li  Li5  1  0.50000000  0.00000000  0.50000000  1
  O  O6  1  0.00000000  0.00000000  0.00000000  1
  O  O7  1  0.37814046  0.87237161  0.49677427  1
  O  O8  1  0.62185954  0.12762839  0.50322573  1
  O  O9  1  0.27233959  0.06827767  0.18298636  1
  O  O10  1  0.72766041  0.93172233  0.81701364  1
  O  O11  1  0.06023073  0.27933134  0.82981135  1
  O  O12  1  0.93976927  0.72066866  0.17018865  1
  O  O13  1  0.00000000  0.50000000  0.50000000  1
