# generated using pymatgen
data_Li3ZrS4
_symmetry_space_group_name_H-M   'P 1'
_cell_length_a   4.10359116
_cell_length_b   13.13482280
_cell_length_c   9.21105842
_cell_angle_alpha   109.00626503
_cell_angle_beta   120.14615740
_cell_angle_gamma   68.68745408
_symmetry_Int_Tables_number   1
_chemical_formula_structural   Li3ZrS4
_chemical_formula_sum   'Li6 Zr2 S8'
_cell_volume   393.60069415
_cell_formula_units_Z   2
loop_
 _symmetry_equiv_pos_site_id
 _symmetry_equiv_pos_as_xyz
  1  'x, y, z'
loop_
 _atom_site_type_symbol
 _atom_site_label
 _atom_site_symmetry_multiplicity
 _atom_site_fract_x
 _atom_site_fract_y
 _atom_site_fract_z
 _atom_site_occupancy
  Li  Li0  1  0.00000000  0.50000000  0.50000000  1
  Li  Li1  1  0.92896304  0.66679013  0.94562230  1
  Li  Li2  1  -0.92896304  -0.66679013  -0.94562230  1
  Li  Li3  1  0.50000000  0.50000000  0.00000000  1
  Li  Li4  1  0.83164264  0.95807310  0.99079427  1
  Li  Li5  1  0.16835736  0.04192690  0.00920573  1
  S  S6  1  0.50000000  -0.00000000  0.00000000  1
  S  S7  1  0.25196023  0.50513706  0.67953088  1
  S  S8  1  0.74803977  0.49486294  0.32046912  1
  S  S9  1  0.49866299  0.77161026  0.64013908  1
  S  S10  1  0.50133701  0.22838974  0.35986092  1
  S  S11  1  0.87357509  0.50327780  0.18779396  1
  S  S12  1  0.12642491  0.49672220  0.81220604  1
  S  S13  1  0.00000000  0.00000000  0.50000000  1
  Zr  Zr14  1  0.50000000  0.50000000  0.50000000  1
  Zr  Zr15  1  0.50000000  -0.00000000  0.50000000  1
