# generated using pymatgen
data_LiPO
_symmetry_space_group_name_H-M   'P 1'
_cell_length_a   6.01402165
_cell_length_b   5.54212828
_cell_length_c   4.58197860
_cell_angle_alpha   116.92314360
_cell_angle_beta   78.83582316
_cell_angle_gamma   66.81798060
_symmetry_Int_Tables_number   1
_chemical_formula_structural   LiPO
_chemical_formula_sum   'Li3 P3 O3'
_cell_volume   111.54811440
_cell_formula_units_Z   3
loop_
 _symmetry_equiv_pos_site_id
 _symmetry_equiv_pos_as_xyz
  1  'x, y, z'
loop_
 _atom_site_type_symbol
 _atom_site_label
 _atom_site_symmetry_multiplicity
 _atom_site_fract_x
 _atom_site_fract_y
 _atom_site_fract_z
 _atom_site_occupancy
  Li  Li0  1  0.58016819  0.69589664  0.56252056  1
  Li  Li1  1  0.06468721  0.24977807  0.02315105  1
  Li  Li2  1  0.99647421  0.63687440  0.35615380  1
  O  O3  1  0.57449184  0.67331813  0.85079086  1
  O  O4  1  0.31833573  0.71359465  0.30288383  1
  O  O5  1  0.42734342  0.41434332  0.43750093  1
  P  P6  1  0.06400939  0.47461468  0.51008151  1
  P  P7  1  0.97258253  0.14057879  0.26323804  1
  P  P8  1  0.92589123  0.75014737  0.81889820  1
