# generated using pymatgen
data_Li4Zr2Al2S3
_symmetry_space_group_name_H-M   'P 1'
_cell_length_a   6.52494517
_cell_length_b   4.82817228
_cell_length_c   7.59293071
_cell_angle_alpha   97.56584014
_cell_angle_beta   74.08106892
_cell_angle_gamma   93.02545600
_symmetry_Int_Tables_number   1
_chemical_formula_structural   Li4Zr2Al2S3
_chemical_formula_sum   'Li4 Zr2 Al2 S3'
_cell_volume   227.99357849
_cell_formula_units_Z   1
loop_
 _symmetry_equiv_pos_site_id
 _symmetry_equiv_pos_as_xyz
  1  'x, y, z'
loop_
 _atom_site_type_symbol
 _atom_site_label
 _atom_site_symmetry_multiplicity
 _atom_site_fract_x
 _atom_site_fract_y
 _atom_site_fract_z
 _atom_site_occupancy
  Al  Al0  1  0.39543725  0.79813909  0.51335044  1
  Al  Al1  1  0.98406300  0.85704558  0.33450203  1
  Li  Li2  1  0.63948347  0.52531762  0.58151041  1
  Li  Li3  1  0.84922523  0.94857591  0.63235480  1
  Li  Li4  1  0.48410305  0.97662392  0.83143972  1
  Li  Li5  1  0.66901639  0.54735800  0.05236787  1
  S  S6  1  0.05519976  0.09686489  0.71427226  1
  S  S7  1  0.23763780  0.28444677  0.88841414  1
  S  S8  1  0.87406076  0.31365432  0.25580567  1
  Zr  Zr9  1  0.45070329  0.21088160  0.43001975  1
  Zr  Zr10  1  0.72221659  0.69579955  0.85316569  1
