# generated using pymatgen
data_Li7Ti2O5
_symmetry_space_group_name_H-M   'P 1'
_cell_length_a   4.39448068
_cell_length_b   8.70051430
_cell_length_c   7.00177181
_cell_angle_alpha   64.45042961
_cell_angle_beta   108.51023857
_cell_angle_gamma   84.60285685
_symmetry_Int_Tables_number   1
_chemical_formula_structural   Li7Ti2O5
_chemical_formula_sum   'Li7 Ti2 O5'
_cell_volume   220.52866159
_cell_formula_units_Z   1
loop_
 _symmetry_equiv_pos_site_id
 _symmetry_equiv_pos_as_xyz
  1  'x, y, z'
loop_
 _atom_site_type_symbol
 _atom_site_label
 _atom_site_symmetry_multiplicity
 _atom_site_fract_x
 _atom_site_fract_y
 _atom_site_fract_z
 _atom_site_occupancy
  Li  Li0  1  0.50777672  0.89942324  0.50720481  1
  Li  Li1  1  0.69656841  0.45340708  0.95962393  1
  Li  Li2  1  0.23702470  0.99201391  0.52473706  1
  Li  Li3  1  0.19061443  0.75220738  0.65668840  1
  Li  Li4  1  0.23787185  0.33790645  0.23754447  1
  Li  Li5  1  0.55612935  0.61098607  0.68324437  1
  Li  Li6  1  0.32328105  0.39934187  0.87147502  1
  O  O7  1  0.81544378  0.73868055  0.28737346  1
  O  O8  1  0.33189715  0.58536857  0.23989240  1
  O  O9  1  0.66120307  0.23221446  0.68028013  1
  O  O10  1  0.05334402  0.51714022  0.33212711  1
  O  O11  1  0.63982010  0.25138658  0.87261923  1
  Ti  Ti12  1  0.89013003  0.69224145  0.53509094  1
  Ti  Ti13  1  0.02721490  0.46373607  0.90418455  1
