# generated using pymatgen
data_Li5O6
_symmetry_space_group_name_H-M   'P 1'
_cell_length_a   7.75743716
_cell_length_b   5.88424137
_cell_length_c   5.68438333
_cell_angle_alpha   59.79730328
_cell_angle_beta   111.69065880
_cell_angle_gamma   110.30810202
_symmetry_Int_Tables_number   1
_chemical_formula_structural   Li5O6
_chemical_formula_sum   'Li5 O6'
_cell_volume   204.13332264
_cell_formula_units_Z   1
loop_
 _symmetry_equiv_pos_site_id
 _symmetry_equiv_pos_as_xyz
  1  'x, y, z'
loop_
 _atom_site_type_symbol
 _atom_site_label
 _atom_site_symmetry_multiplicity
 _atom_site_fract_x
 _atom_site_fract_y
 _atom_site_fract_z
 _atom_site_occupancy
  Li  Li0  1  0.59012100  0.69244793  0.53991178  1
  Li  Li1  1  0.63865260  0.07201568  0.40856400  1
  Li  Li2  1  0.83786211  0.05996276  0.08463585  1
  Li  Li3  1  0.76681293  0.62249639  0.93446451  1
  Li  Li4  1  0.57999374  0.72588936  0.96919381  1
  O  O5  1  0.80147147  0.28472232  0.55876369  1
  O  O6  1  0.80226445  0.31433927  0.18052446  1
  O  O7  1  0.57584576  0.58701635  0.42273853  1
  O  O8  1  0.16930902  0.25468445  0.94914150  1
  O  O9  1  0.88971205  0.71525894  0.49937828  1
  O  O10  1  0.17623656  0.68117561  0.15392228  1
