# generated using pymatgen
data_Li5O2
_symmetry_space_group_name_H-M   'P 1'
_cell_length_a   3.46416597
_cell_length_b   4.43556172
_cell_length_c   6.54717731
_cell_angle_alpha   79.27791400
_cell_angle_beta   115.93418229
_cell_angle_gamma   111.11110405
_symmetry_Int_Tables_number   1
_chemical_formula_structural   Li5O2
_chemical_formula_sum   'Li5 O2'
_cell_volume   84.34918742
_cell_formula_units_Z   1
loop_
 _symmetry_equiv_pos_site_id
 _symmetry_equiv_pos_as_xyz
  1  'x, y, z'
loop_
 _atom_site_type_symbol
 _atom_site_label
 _atom_site_symmetry_multiplicity
 _atom_site_fract_x
 _atom_site_fract_y
 _atom_site_fract_z
 _atom_site_occupancy
  Li  Li0  1  0.15587038  0.97578953  0.34310995  1
  Li  Li1  1  -0.15587038  -0.97578953  -0.34310995  1
  Li  Li2  1  0.43186239  0.27253371  0.20683774  1
  Li  Li3  1  0.56813761  0.72746629  0.79316226  1
  Li  Li4  1  0.50000000  0.00000000  0.00000000  1
  O  O5  1  0.50000000  0.00000000  0.50000000  1
  O  O6  1  0.50000000  0.50000000  0.50000000  1
