# generated using pymatgen
data_Li3ZrTi2O3
_symmetry_space_group_name_H-M   'P 1'
_cell_length_a   4.64558047
_cell_length_b   5.05880173
_cell_length_c   8.16598664
_cell_angle_alpha   80.02710843
_cell_angle_beta   104.59997394
_cell_angle_gamma   78.88160939
_symmetry_Int_Tables_number   1
_chemical_formula_structural   Li3ZrTi2O3
_chemical_formula_sum   'Li3 Zr1 Ti2 O3'
_cell_volume   177.18623946
_cell_formula_units_Z   1
loop_
 _symmetry_equiv_pos_site_id
 _symmetry_equiv_pos_as_xyz
  1  'x, y, z'
loop_
 _atom_site_type_symbol
 _atom_site_label
 _atom_site_symmetry_multiplicity
 _atom_site_fract_x
 _atom_site_fract_y
 _atom_site_fract_z
 _atom_site_occupancy
  Li  Li0  1  0.03697091  0.87599107  0.23635513  1
  Li  Li1  1  0.22753679  0.89947917  0.66665615  1
  Li  Li2  1  0.46887197  0.39268701  0.12585708  1
  O  O3  1  0.78424042  0.62108819  0.76011448  1
  O  O4  1  0.18875806  0.07842903  0.88655920  1
  O  O5  1  0.91562499  0.08764343  0.16549384  1
  Ti  Ti6  1  0.26275145  0.14155751  0.14176644  1
  Ti  Ti7  1  0.05268929  0.79072056  0.07430648  1
  Zr  Zr8  1  0.44140252  0.53564002  0.85980852  1
