# generated using pymatgen
data_Li5O2
_symmetry_space_group_name_H-M   'P 1'
_cell_length_a   3.46301916
_cell_length_b   4.34762873
_cell_length_c   9.86160885
_cell_angle_alpha   78.48707077
_cell_angle_beta   94.62089014
_cell_angle_gamma   104.48635347
_symmetry_Int_Tables_number   1
_chemical_formula_structural   Li5O2
_chemical_formula_sum   'Li5 O2'
_cell_volume   140.78930489
_cell_formula_units_Z   1
loop_
 _symmetry_equiv_pos_site_id
 _symmetry_equiv_pos_as_xyz
  1  'x, y, z'
loop_
 _atom_site_type_symbol
 _atom_site_label
 _atom_site_symmetry_multiplicity
 _atom_site_fract_x
 _atom_site_fract_y
 _atom_site_fract_z
 _atom_site_occupancy
  Li  Li0  1  0.00000000  0.50000000  0.00000000  1
  Li  Li1  1  0.29709859  0.21692962  0.48184645  1
  Li  Li2  1  -0.29709859  -0.21692962  -0.48184645  1
  Li  Li3  1  0.11115469  0.02452225  0.59251701  1
  Li  Li4  1  0.88884531  0.97547775  0.40748299  1
  O  O5  1  0.48622597  0.50536681  0.19973742  1
  O  O6  1  0.51377403  0.49463319  0.80026258  1
