# generated using pymatgen
data_Li5Zr2
_symmetry_space_group_name_H-M   'P 1'
_cell_length_a   5.17319703
_cell_length_b   9.66706495
_cell_length_c   6.05718588
_cell_angle_alpha   78.62931146
_cell_angle_beta   91.03135309
_cell_angle_gamma   41.37696809
_symmetry_Int_Tables_number   1
_chemical_formula_structural   Li5Zr2
_chemical_formula_sum   'Li5 Zr2'
_cell_volume   189.75666961
_cell_formula_units_Z   1
loop_
 _symmetry_equiv_pos_site_id
 _symmetry_equiv_pos_as_xyz
  1  'x, y, z'
loop_
 _atom_site_type_symbol
 _atom_site_label
 _atom_site_symmetry_multiplicity
 _atom_site_fract_x
 _atom_site_fract_y
 _atom_site_fract_z
 _atom_site_occupancy
  Li  Li0  1  0.01116736  0.41811511  0.04448605  1
  Li  Li1  1  -0.01116736  -0.41811511  -0.04448605  1
  Li  Li2  1  0.63834875  0.01186722  0.82789703  1
  Li  Li3  1  0.36165125  0.98813278  0.17210297  1
  Li  Li4  1  0.50000000  0.00000000  -0.00000000  1
  Zr  Zr5  1  0.50000000  0.00000000  0.50000000  1
  Zr  Zr6  1  0.50000000  0.50000000  0.50000000  1
