# generated using pymatgen
data_Li3O10
_symmetry_space_group_name_H-M   'P 1'
_cell_length_a   4.30022971
_cell_length_b   6.49683923
_cell_length_c   7.65796438
_cell_angle_alpha   119.10285376
_cell_angle_beta   123.76822369
_cell_angle_gamma   76.46838649
_symmetry_Int_Tables_number   1
_chemical_formula_structural   Li3O10
_chemical_formula_sum   'Li3 O10'
_cell_volume   155.20381600
_cell_formula_units_Z   1
loop_
 _symmetry_equiv_pos_site_id
 _symmetry_equiv_pos_as_xyz
  1  'x, y, z'
loop_
 _atom_site_type_symbol
 _atom_site_label
 _atom_site_symmetry_multiplicity
 _atom_site_fract_x
 _atom_site_fract_y
 _atom_site_fract_z
 _atom_site_occupancy
  Li  Li0  1  0.94873631  0.67168398  0.48862927  1
  Li  Li1  1  0.98856597  0.86109154  0.18731919  1
  Li  Li2  1  0.71346870  0.37626576  0.82295764  1
  O  O3  1  0.23146578  0.09917324  0.36133506  1
  O  O4  1  0.62402048  0.23503483  0.51929266  1
  O  O5  1  0.86415843  0.62115954  0.67770268  1
  O  O6  1  0.41525196  0.20660261  0.74377204  1
  O  O7  1  0.12106913  0.48809086  0.67909240  1
  O  O8  1  0.48675573  0.60052460  0.48309796  1
  O  O9  1  0.41969897  0.66644130  0.56688105  1
  O  O10  1  0.88859780  0.54977649  0.74418093  1
  O  O11  1  0.39595050  0.56322563  0.72563613  1
  O  O12  1  0.83375431  0.83116163  0.87940802  1
