# generated using pymatgen
data_Li3O2
_symmetry_space_group_name_H-M   'P 1'
_cell_length_a   5.16175343
_cell_length_b   3.43830479
_cell_length_c   7.72598156
_cell_angle_alpha   90.00000000
_cell_angle_beta   61.85351026
_cell_angle_gamma   90.00000000
_symmetry_Int_Tables_number   1
_chemical_formula_structural   Li3O2
_chemical_formula_sum   'Li6 O4'
_cell_volume   120.90325802
_cell_formula_units_Z   2
loop_
 _symmetry_equiv_pos_site_id
 _symmetry_equiv_pos_as_xyz
  1  'x, y, z'
loop_
 _atom_site_type_symbol
 _atom_site_label
 _atom_site_symmetry_multiplicity
 _atom_site_fract_x
 _atom_site_fract_y
 _atom_site_fract_z
 _atom_site_occupancy
  Li  Li0  1  0.91961873  0.24010155  0.34826183  1
  Li  Li1  1  -0.91961873  0.74010155  0.15173817  1
  Li  Li2  1  -0.91961873  -0.24010155  -0.34826183  1
  Li  Li3  1  0.91961873  0.25989845  0.84826183  1
  Li  Li4  1  0.50000000  0.00000000  0.00000000  1
  Li  Li5  1  0.50000000  0.50000000  0.50000000  1
  O  O6  1  0.69937560  0.33949587  0.21877368  1
  O  O7  1  0.30062440  0.83949587  0.28122632  1
  O  O8  1  0.30062440  0.66050413  0.78122632  1
  O  O9  1  0.69937560  0.16050413  0.71877368  1
