# generated using pymatgen
data_Li5Al4O6
_symmetry_space_group_name_H-M   'P 1'
_cell_length_a   4.34848262
_cell_length_b   7.72901357
_cell_length_c   7.32045663
_cell_angle_alpha   102.41318913
_cell_angle_beta   103.06959097
_cell_angle_gamma   98.73692822
_symmetry_Int_Tables_number   1
_chemical_formula_structural   Li5Al4O6
_chemical_formula_sum   'Li5 Al4 O6'
_cell_volume   228.80292596
_cell_formula_units_Z   1
loop_
 _symmetry_equiv_pos_site_id
 _symmetry_equiv_pos_as_xyz
  1  'x, y, z'
loop_
 _atom_site_type_symbol
 _atom_site_label
 _atom_site_symmetry_multiplicity
 _atom_site_fract_x
 _atom_site_fract_y
 _atom_site_fract_z
 _atom_site_occupancy
  Al  Al0  1  0.47823454  0.76227762  0.43115013  1
  Al  Al1  1  0.45988107  0.47562735  0.40379531  1
  Al  Al2  1  0.62749041  0.83845657  0.95805292  1
  Al  Al3  1  0.19557804  0.79390262  0.07505814  1
  Li  Li4  1  0.41981967  0.25219145  0.04591675  1
  Li  Li5  1  0.44192131  0.03572370  0.99651394  1
  Li  Li6  1  0.89711543  0.59911366  0.56540769  1
  Li  Li7  1  0.19612096  0.62439226  0.29283002  1
  Li  Li8  1  0.59059140  0.41563636  0.85209146  1
  O  O9  1  0.03803302  0.65981905  0.80439687  1
  O  O10  1  0.91053323  0.35743213  0.06258636  1
  O  O11  1  0.23545646  0.31188328  0.67665514  1
  O  O12  1  0.57478799  0.20486501  0.78004034  1
  O  O13  1  0.65453004  0.02570192  0.19216419  1
  O  O14  1  0.71906905  0.64729365  0.20177070  1
