# generated using pymatgen
data_Li2O
_symmetry_space_group_name_H-M   'P 1'
_cell_length_a   4.57960485
_cell_length_b   4.23174677
_cell_length_c   12.04335623
_cell_angle_alpha   66.42715582
_cell_angle_beta   63.68225332
_cell_angle_gamma   98.89369838
_symmetry_Int_Tables_number   1
_chemical_formula_structural   Li2O
_chemical_formula_sum   'Li6 O3'
_cell_volume   175.40307261
_cell_formula_units_Z   3
loop_
 _symmetry_equiv_pos_site_id
 _symmetry_equiv_pos_as_xyz
  1  'x, y, z'
loop_
 _atom_site_type_symbol
 _atom_site_label
 _atom_site_symmetry_multiplicity
 _atom_site_fract_x
 _atom_site_fract_y
 _atom_site_fract_z
 _atom_site_occupancy
  Li  Li0  1  0.00000000  0.00000000  0.00000000  1
  Li  Li1  1  0.80841593  0.36929325  0.72578530  1
  Li  Li2  1  -0.80841593  -0.36929325  -0.72578530  1
  Li  Li3  1  0.50000000  0.50000000  0.00000000  1
  Li  Li4  1  0.21086279  0.36656387  0.20213267  1
  Li  Li5  1  0.78913721  0.63343613  0.79786733  1
  O  O6  1  0.87672036  0.77589506  0.67996343  1
  O  O7  1  0.12327964  0.22410494  0.32003657  1
  O  O8  1  0.50000000  0.50000000  0.50000000  1
