# generated using pymatgen
data_Li7O4
_symmetry_space_group_name_H-M   'P 1'
_cell_length_a   6.37497748
_cell_length_b   2.90726314
_cell_length_c   10.42154586
_cell_angle_alpha   92.00883854
_cell_angle_beta   92.42506341
_cell_angle_gamma   83.91845288
_symmetry_Int_Tables_number   1
_chemical_formula_structural   Li7O4
_chemical_formula_sum   'Li7 O4'
_cell_volume   191.80028414
_cell_formula_units_Z   1
loop_
 _symmetry_equiv_pos_site_id
 _symmetry_equiv_pos_as_xyz
  1  'x, y, z'
loop_
 _atom_site_type_symbol
 _atom_site_label
 _atom_site_symmetry_multiplicity
 _atom_site_fract_x
 _atom_site_fract_y
 _atom_site_fract_z
 _atom_site_occupancy
  Li  Li0  1  0.17100742  0.54234020  0.26471343  1
  Li  Li1  1  -0.17100742  -0.54234020  -0.26471343  1
  Li  Li2  1  0.00000000  0.00000000  0.00000000  1
  Li  Li3  1  0.63777365  0.13106355  0.98751205  1
  Li  Li4  1  0.36222635  0.86893645  0.01248795  1
  Li  Li5  1  0.50000000  0.50000000  0.00000000  1
  Li  Li6  1  0.00000000  0.50000000  0.00000000  1
  O  O7  1  0.43529550  0.01782353  0.76923468  1
  O  O8  1  0.56470450  0.98217647  0.23076532  1
  O  O9  1  0.00000000  0.50000000  0.50000000  1
  O  O10  1  0.50000000  0.00000000  0.00000000  1
