# generated using pymatgen
data_Li5ZrP4(S2O3)2
_symmetry_space_group_name_H-M   'P 1'
_cell_length_a   7.53907959
_cell_length_b   5.81059342
_cell_length_c   8.86777215
_cell_angle_alpha   113.27358321
_cell_angle_beta   112.84616552
_cell_angle_gamma   59.12768993
_symmetry_Int_Tables_number   1
_chemical_formula_structural   Li5ZrP4(S2O3)2
_chemical_formula_sum   'Li5 Zr1 P4 S4 O6'
_cell_volume   297.69603437
_cell_formula_units_Z   1
loop_
 _symmetry_equiv_pos_site_id
 _symmetry_equiv_pos_as_xyz
  1  'x, y, z'
loop_
 _atom_site_type_symbol
 _atom_site_label
 _atom_site_symmetry_multiplicity
 _atom_site_fract_x
 _atom_site_fract_y
 _atom_site_fract_z
 _atom_site_occupancy
  Li  Li0  1  0.91696294  0.32599849  0.43158878  1
  Li  Li1  1  0.70060508  0.86628410  0.96241450  1
  Li  Li2  1  0.46883533  0.89953585  0.52756967  1
  Li  Li3  1  0.30998505  0.15012314  0.92118528  1
  Li  Li4  1  0.20230996  0.61786506  0.63782967  1
  O  O5  1  0.99976925  0.00215621  0.17214124  1
  O  O6  1  0.32376043  0.96478563  0.04440303  1
  O  O7  1  0.97216557  0.69970465  0.83818186  1
  O  O8  1  0.58642190  0.78027796  0.06417536  1
  O  O9  1  0.09266175  0.69356460  0.30407015  1
  O  O10  1  0.81416855  0.94380298  0.01623558  1
  P  P11  1  0.79773262  0.15623655  0.52286209  1
  P  P12  1  0.08693145  0.44682529  0.35940846  1
  P  P13  1  0.11413381  0.55295332  0.99808336  1
  P  P14  1  0.82461969  0.34320454  0.07645394  1
  S  S15  1  0.32004022  0.34568234  0.66674472  1
  S  S16  1  0.18402275  0.14634151  0.01212613  1
  S  S17  1  0.17021576  0.12273787  0.28881787  1
  S  S18  1  0.73573207  0.25891800  0.76351078  1
  Zr  Zr19  1  0.58657145  0.45743031  0.59574206  1
