# generated using pymatgen
data_Li4O5
_symmetry_space_group_name_H-M   'P 1'
_cell_length_a   7.86710019
_cell_length_b   4.60341392
_cell_length_c   6.52119998
_cell_angle_alpha   59.66389308
_cell_angle_beta   77.87448123
_cell_angle_gamma   117.21963959
_symmetry_Int_Tables_number   1
_chemical_formula_structural   Li4O5
_chemical_formula_sum   'Li4 O5'
_cell_volume   148.33737197
_cell_formula_units_Z   1
loop_
 _symmetry_equiv_pos_site_id
 _symmetry_equiv_pos_as_xyz
  1  'x, y, z'
loop_
 _atom_site_type_symbol
 _atom_site_label
 _atom_site_symmetry_multiplicity
 _atom_site_fract_x
 _atom_site_fract_y
 _atom_site_fract_z
 _atom_site_occupancy
  Li  Li0  1  0.65110911  0.02107368  0.73962246  1
  Li  Li1  1  0.61926018  0.11374904  0.18903697  1
  Li  Li2  1  0.97268027  0.55166824  0.21872353  1
  Li  Li3  1  0.57459232  0.98144149  0.98014858  1
  O  O4  1  0.02656081  0.88431866  0.15087853  1
  O  O5  1  0.41970131  0.59211164  0.59737028  1
  O  O6  1  0.79527966  0.45283001  0.54447127  1
  O  O7  1  0.86900081  0.18716953  0.17747280  1
  O  O8  1  0.69228822  0.81659381  0.09900412  1
