# generated using pymatgen
data_Li2ZrO5
_symmetry_space_group_name_H-M   'P 1'
_cell_length_a   5.63352920
_cell_length_b   4.33392839
_cell_length_c   4.97897350
_cell_angle_alpha   90.27445036
_cell_angle_beta   91.36692103
_cell_angle_gamma   130.94370548
_symmetry_Int_Tables_number   1
_chemical_formula_structural   Li2ZrO5
_chemical_formula_sum   'Li2 Zr1 O5'
_cell_volume   91.76351276
_cell_formula_units_Z   1
loop_
 _symmetry_equiv_pos_site_id
 _symmetry_equiv_pos_as_xyz
  1  'x, y, z'
loop_
 _atom_site_type_symbol
 _atom_site_label
 _atom_site_symmetry_multiplicity
 _atom_site_fract_x
 _atom_site_fract_y
 _atom_site_fract_z
 _atom_site_occupancy
  Li  Li0  1  0.69622000  0.93416775  0.30404000  1
  Li  Li1  1  -0.69622000  -0.93416775  -0.30404000  1
  O  O2  1  0.60037681  0.31410707  0.68349662  1
  O  O3  1  0.39962319  0.68589293  0.31650338  1
  O  O4  1  0.50000000  0.50000000  0.50000000  1
  O  O5  1  0.50000000  0.00000000  0.50000000  1
  O  O6  1  0.00000000  0.50000000  0.00000000  1
  Zr  Zr7  1  0.00000000  0.00000000  0.00000000  1
