# generated using pymatgen
data_Li3ZrTiO3
_symmetry_space_group_name_H-M   'P 1'
_cell_length_a   4.83263769
_cell_length_b   5.06153478
_cell_length_c   6.34096034
_cell_angle_alpha   106.40414181
_cell_angle_beta   133.63803115
_cell_angle_gamma   82.43880885
_symmetry_Int_Tables_number   1
_chemical_formula_structural   Li3ZrTiO3
_chemical_formula_sum   'Li3 Zr1 Ti1 O3'
_cell_volume   107.23260189
_cell_formula_units_Z   1
loop_
 _symmetry_equiv_pos_site_id
 _symmetry_equiv_pos_as_xyz
  1  'x, y, z'
loop_
 _atom_site_type_symbol
 _atom_site_label
 _atom_site_symmetry_multiplicity
 _atom_site_fract_x
 _atom_site_fract_y
 _atom_site_fract_z
 _atom_site_occupancy
  Li  Li0  1  0.53404710  0.72078817  0.27429748  1
  Li  Li1  1  0.34182139  0.30261180  0.30533572  1
  Li  Li2  1  0.45398922  0.05493810  0.95070067  1
  O  O3  1  0.89266855  0.73586719  0.43864721  1
  O  O4  1  0.44045904  0.28138070  0.92831719  1
  O  O5  1  0.16284253  0.33106905  0.45509576  1
  Ti  Ti6  1  0.35209240  0.48306463  0.80164072  1
  Zr  Zr7  1  0.79079755  0.45233053  0.75213750  1
