# generated using pymatgen
data_Li2O2
_symmetry_space_group_name_H-M   'P 1'
_cell_length_a   4.80115933
_cell_length_b   3.73654501
_cell_length_c   3.88070110
_cell_angle_alpha   100.38661256
_cell_angle_beta   92.85012466
_cell_angle_gamma   74.05477863
_symmetry_Int_Tables_number   1
_chemical_formula_structural   Li2O2
_chemical_formula_sum   'Li2 O2'
_cell_volume   65.84329236
_cell_formula_units_Z   1
loop_
 _symmetry_equiv_pos_site_id
 _symmetry_equiv_pos_as_xyz
  1  'x, y, z'
loop_
 _atom_site_type_symbol
 _atom_site_label
 _atom_site_symmetry_multiplicity
 _atom_site_fract_x
 _atom_site_fract_y
 _atom_site_fract_z
 _atom_site_occupancy
  Li  Li0  1  0.69116850  0.60978479  0.29003498  1
  Li  Li1  1  0.71522406  0.19434154  0.42621326  1
  O  O2  1  0.34346320  0.56643720  0.66645040  1
  O  O3  1  0.98481913  0.37864002  0.75805279  1
