# generated using pymatgen
data_LiP
_symmetry_space_group_name_H-M   'P 1'
_cell_length_a   13.12832663
_cell_length_b   4.95595394
_cell_length_c   3.52374181
_cell_angle_alpha   57.03231782
_cell_angle_beta   93.86135901
_cell_angle_gamma   97.11164932
_symmetry_Int_Tables_number   1
_chemical_formula_structural   LiP
_chemical_formula_sum   'Li4 P4'
_cell_volume   190.86973142
_cell_formula_units_Z   4
loop_
 _symmetry_equiv_pos_site_id
 _symmetry_equiv_pos_as_xyz
  1  'x, y, z'
loop_
 _atom_site_type_symbol
 _atom_site_label
 _atom_site_symmetry_multiplicity
 _atom_site_fract_x
 _atom_site_fract_y
 _atom_site_fract_z
 _atom_site_occupancy
  Li  Li0  1  0.10151026  0.06206936  0.69719507  1
  Li  Li1  1  0.33947419  0.60138241  0.66202174  1
  Li  Li2  1  0.95424431  0.54694814  0.61549909  1
  Li  Li3  1  0.14964549  0.49062865  0.26007375  1
  P  P4  1  0.70589521  0.20642138  0.50970754  1
  P  P5  1  0.50581079  0.49413166  0.23122225  1
  P  P6  1  0.43491738  0.12137549  0.22219510  1
  P  P7  1  0.29537309  0.79393331  0.20064089  1
