# generated using pymatgen
data_Li3Zr2
_symmetry_space_group_name_H-M   'P 1'
_cell_length_a   5.58413105
_cell_length_b   3.51873395
_cell_length_c   8.20523080
_cell_angle_alpha   60.42343609
_cell_angle_beta   102.88017761
_cell_angle_gamma   110.54603375
_symmetry_Int_Tables_number   1
_chemical_formula_structural   Li3Zr2
_chemical_formula_sum   'Li3 Zr2'
_cell_volume   131.05331795
_cell_formula_units_Z   1
loop_
 _symmetry_equiv_pos_site_id
 _symmetry_equiv_pos_as_xyz
  1  'x, y, z'
loop_
 _atom_site_type_symbol
 _atom_site_label
 _atom_site_symmetry_multiplicity
 _atom_site_fract_x
 _atom_site_fract_y
 _atom_site_fract_z
 _atom_site_occupancy
  Li  Li0  1  0.21445520  0.10699983  0.33923552  1
  Li  Li1  1  -0.21445520  -0.10699983  -0.33923552  1
  Li  Li2  1  0.00000000  0.00000000  0.50000000  1
  Zr  Zr3  1  0.50000000  0.00000000  0.50000000  1
  Zr  Zr4  1  0.00000000  0.00000000  0.00000000  1
