# generated using pymatgen
data_Li4TiO7
_symmetry_space_group_name_H-M   'P 1'
_cell_length_a   7.45045681
_cell_length_b   8.61678853
_cell_length_c   3.44095932
_cell_angle_alpha   69.86062625
_cell_angle_beta   107.70323276
_cell_angle_gamma   69.08429821
_symmetry_Int_Tables_number   1
_chemical_formula_structural   Li4TiO7
_chemical_formula_sum   'Li4 Ti1 O7'
_cell_volume   169.21861381
_cell_formula_units_Z   1
loop_
 _symmetry_equiv_pos_site_id
 _symmetry_equiv_pos_as_xyz
  1  'x, y, z'
loop_
 _atom_site_type_symbol
 _atom_site_label
 _atom_site_symmetry_multiplicity
 _atom_site_fract_x
 _atom_site_fract_y
 _atom_site_fract_z
 _atom_site_occupancy
  Li  Li0  1  0.27612606  0.53370526  0.01365113  1
  Li  Li1  1  0.61661203  0.69892663  0.73831336  1
  Li  Li2  1  0.22430157  0.27575172  0.61006972  1
  Li  Li3  1  0.93211378  0.02225428  0.13111627  1
  O  O4  1  0.93608230  0.30965857  0.57302549  1
  O  O5  1  0.64440426  0.52025178  0.39957617  1
  O  O6  1  0.49502914  0.35532528  0.51399773  1
  O  O7  1  0.24896718  0.03139286  0.13428292  1
  O  O8  1  0.01102591  0.21924604  0.25269492  1
  O  O9  1  0.45606674  0.30786424  0.04379645  1
  O  O10  1  0.28024952  0.12834862  0.46398422  1
  Ti  Ti11  1  0.23526958  0.72785307  0.34993149  1
