# generated using pymatgen
data_Li4Al3PO7
_symmetry_space_group_name_H-M   'P 1'
_cell_length_a   4.97639919
_cell_length_b   6.81443736
_cell_length_c   6.94620296
_cell_angle_alpha   101.46013471
_cell_angle_beta   69.05089992
_cell_angle_gamma   120.58828406
_symmetry_Int_Tables_number   1
_chemical_formula_structural   Li4Al3PO7
_chemical_formula_sum   'Li4 Al3 P1 O7'
_cell_volume   189.33181192
_cell_formula_units_Z   1
loop_
 _symmetry_equiv_pos_site_id
 _symmetry_equiv_pos_as_xyz
  1  'x, y, z'
loop_
 _atom_site_type_symbol
 _atom_site_label
 _atom_site_symmetry_multiplicity
 _atom_site_fract_x
 _atom_site_fract_y
 _atom_site_fract_z
 _atom_site_occupancy
  Al  Al0  1  0.00000000  0.50000000  0.00000000  1
  Al  Al1  1  0.11919010  0.19722087  0.20692846  1
  Al  Al2  1  -0.11919010  -0.19722087  -0.20692846  1
  Li  Li3  1  0.50000000  0.00000000  0.50000000  1
  Li  Li4  1  0.94797929  0.86833548  0.18917768  1
  Li  Li5  1  0.05202071  0.13166452  0.81082232  1
  Li  Li6  1  0.50000000  0.50000000  -0.00000000  1
  O  O7  1  0.68574485  0.66256194  0.65286993  1
  O  O8  1  0.31425515  0.33743806  0.34713007  1
  O  O9  1  0.56960588  0.25063658  0.07134057  1
  O  O10  1  0.43039412  0.74936342  0.92865943  1
  O  O11  1  0.08587666  0.77644755  0.95303022  1
  O  O12  1  0.91412334  0.22355245  0.04696978  1
  O  O13  1  0.50000000  0.00000000  0.00000000  1
  P  P14  1  0.00000000  0.50000000  0.50000000  1
