# generated using pymatgen
data_LiPO
_symmetry_space_group_name_H-M   'P 1'
_cell_length_a   6.46158680
_cell_length_b   2.45739548
_cell_length_c   7.12763363
_cell_angle_alpha   117.59448306
_cell_angle_beta   84.22542970
_cell_angle_gamma   124.69112208
_symmetry_Int_Tables_number   1
_chemical_formula_structural   LiPO
_chemical_formula_sum   'Li4 P4 O4'
_cell_volume   80.38223035
_cell_formula_units_Z   4
loop_
 _symmetry_equiv_pos_site_id
 _symmetry_equiv_pos_as_xyz
  1  'x, y, z'
loop_
 _atom_site_type_symbol
 _atom_site_label
 _atom_site_symmetry_multiplicity
 _atom_site_fract_x
 _atom_site_fract_y
 _atom_site_fract_z
 _atom_site_occupancy
  Li  Li0  1  0.63798501  0.81144666  0.92676697  1
  Li  Li1  1  0.29005725  0.82361978  0.42886411  1
  Li  Li2  1  0.69685655  0.71987662  0.44354146  1
  Li  Li3  1  0.17498627  0.59520878  0.74658282  1
  O  O4  1  0.64318833  0.28694353  0.94496746  1
  O  O5  1  0.74588945  0.86749229  0.28673301  1
  O  O6  1  0.54774789  0.80046501  0.39292469  1
  O  O7  1  0.72636018  0.59164110  0.62277589  1
  P  P8  1  0.67674421  0.38983589  0.74464901  1
  P  P9  1  0.56154984  0.60679110  0.16092952  1
  P  P10  1  0.90112376  0.29956609  0.82425341  1
  P  P11  1  0.32863683  0.33123427  0.75368257  1
