# generated using pymatgen
data_Li3ZrO3
_symmetry_space_group_name_H-M   'P 1'
_cell_length_a   3.77538661
_cell_length_b   5.76833121
_cell_length_c   4.91678555
_cell_angle_alpha   96.96362444
_cell_angle_beta   128.20638637
_cell_angle_gamma   95.72929698
_symmetry_Int_Tables_number   1
_chemical_formula_structural   Li3ZrO3
_chemical_formula_sum   'Li3 Zr1 O3'
_cell_volume   81.39385890
_cell_formula_units_Z   1
loop_
 _symmetry_equiv_pos_site_id
 _symmetry_equiv_pos_as_xyz
  1  'x, y, z'
loop_
 _atom_site_type_symbol
 _atom_site_label
 _atom_site_symmetry_multiplicity
 _atom_site_fract_x
 _atom_site_fract_y
 _atom_site_fract_z
 _atom_site_occupancy
  Li  Li0  1  0.68186461  0.48596326  0.34681177  1
  Li  Li1  1  -0.68186461  -0.48596326  -0.34681177  1
  Li  Li2  1  0.50000000  0.50000000  -0.00000000  1
  O  O3  1  0.50000000  0.50000000  0.50000000  1
  O  O4  1  0.34053247  0.26266254  0.45141873  1
  O  O5  1  0.65946753  0.73733746  0.54858127  1
  Zr  Zr6  1  0.00000000  0.00000000  0.50000000  1
