# generated using pymatgen
data_Li3SF4
_symmetry_space_group_name_H-M   'P 1'
_cell_length_a   5.15777055
_cell_length_b   6.67683871
_cell_length_c   4.27925436
_cell_angle_alpha   80.78989342
_cell_angle_beta   64.51636606
_cell_angle_gamma   114.47665226
_symmetry_Int_Tables_number   1
_chemical_formula_structural   Li3SF4
_chemical_formula_sum   'Li3 S1 F4'
_cell_volume   110.33245186
_cell_formula_units_Z   1
loop_
 _symmetry_equiv_pos_site_id
 _symmetry_equiv_pos_as_xyz
  1  'x, y, z'
loop_
 _atom_site_type_symbol
 _atom_site_label
 _atom_site_symmetry_multiplicity
 _atom_site_fract_x
 _atom_site_fract_y
 _atom_site_fract_z
 _atom_site_occupancy
  F  F0  1  0.34978057  0.54119569  0.10995621  1
  F  F1  1  0.42239315  0.31116613  0.57109864  1
  F  F2  1  0.66152051  0.22235727  0.51618263  1
  F  F3  1  0.73686721  0.17731825  0.74396339  1
  Li  Li4  1  0.94760224  0.47070379  0.11436297  1
  Li  Li5  1  0.09680969  0.00394701  0.39342320  1
  Li  Li6  1  0.23023402  0.26721917  0.17589307  1
  S  S7  1  0.29402665  0.90815398  0.97583265  1
