# generated using pymatgen
data_Li4ZrO5
_symmetry_space_group_name_H-M   'P 1'
_cell_length_a   6.72278149
_cell_length_b   5.82385494
_cell_length_c   6.54824159
_cell_angle_alpha   62.85197034
_cell_angle_beta   55.17761290
_cell_angle_gamma   86.89624049
_symmetry_Int_Tables_number   1
_chemical_formula_structural   Li4ZrO5
_chemical_formula_sum   'Li4 Zr1 O5'
_cell_volume   179.64946476
_cell_formula_units_Z   1
loop_
 _symmetry_equiv_pos_site_id
 _symmetry_equiv_pos_as_xyz
  1  'x, y, z'
loop_
 _atom_site_type_symbol
 _atom_site_label
 _atom_site_symmetry_multiplicity
 _atom_site_fract_x
 _atom_site_fract_y
 _atom_site_fract_z
 _atom_site_occupancy
  Li  Li0  1  0.63012070  0.88412620  0.50063305  1
  Li  Li1  1  0.46237189  0.95531578  0.08444146  1
  Li  Li2  1  0.78042894  0.55921483  0.07697398  1
  Li  Li3  1  0.81596428  0.34063001  0.63532899  1
  O  O4  1  0.73008773  0.71278394  0.14906116  1
  O  O5  1  0.98445694  0.95548454  0.81255417  1
  O  O6  1  0.81634008  0.29453484  0.41487996  1
  O  O7  1  0.07647805  0.24710552  0.93776132  1
  O  O8  1  0.76043958  0.54040023  0.30734840  1
  Zr  Zr9  1  0.15759267  0.22674490  0.17002388  1
