# generated using pymatgen
data_Li2O
_symmetry_space_group_name_H-M   'P 1'
_cell_length_a   4.81420679
_cell_length_b   5.22588916
_cell_length_c   7.80452965
_cell_angle_alpha   90.00000000
_cell_angle_beta   90.00000000
_cell_angle_gamma   90.00000000
_symmetry_Int_Tables_number   1
_chemical_formula_structural   Li2O
_chemical_formula_sum   'Li8 O4'
_cell_volume   196.35034556
_cell_formula_units_Z   4
loop_
 _symmetry_equiv_pos_site_id
 _symmetry_equiv_pos_as_xyz
  1  'x, y, z'
loop_
 _atom_site_type_symbol
 _atom_site_label
 _atom_site_symmetry_multiplicity
 _atom_site_fract_x
 _atom_site_fract_y
 _atom_site_fract_z
 _atom_site_occupancy
  Li  Li0  1  0.00000000  0.00000000  0.50000000  1
  Li  Li1  1  0.50000000  0.00000000  0.00000000  1
  Li  Li2  1  0.00000000  0.50000000  0.50000000  1
  Li  Li3  1  0.50000000  0.50000000  0.00000000  1
  Li  Li4  1  0.86412057  0.25000000  0.39046995  1
  Li  Li5  1  0.63587943  0.75000000  0.89046995  1
  Li  Li6  1  0.13587943  0.75000000  0.60953005  1
  Li  Li7  1  0.36412057  0.25000000  0.10953005  1
  O  O8  1  0.05160601  0.25000000  0.17360280  1
  O  O9  1  0.44839399  0.75000000  0.67360280  1
  O  O10  1  0.94839399  0.75000000  0.82639720  1
  O  O11  1  0.55160601  0.25000000  0.32639720  1
