# generated using pymatgen
data_Li3O4
_symmetry_space_group_name_H-M   'P 1'
_cell_length_a   5.80838880
_cell_length_b   9.27942178
_cell_length_c   6.35193290
_cell_angle_alpha   141.03239117
_cell_angle_beta   82.37492342
_cell_angle_gamma   127.00801726
_symmetry_Int_Tables_number   1
_chemical_formula_structural   Li3O4
_chemical_formula_sum   'Li3 O4'
_cell_volume   127.99235399
_cell_formula_units_Z   1
loop_
 _symmetry_equiv_pos_site_id
 _symmetry_equiv_pos_as_xyz
  1  'x, y, z'
loop_
 _atom_site_type_symbol
 _atom_site_label
 _atom_site_symmetry_multiplicity
 _atom_site_fract_x
 _atom_site_fract_y
 _atom_site_fract_z
 _atom_site_occupancy
  Li  Li0  1  0.32597503  0.74319615  0.85256930  1
  Li  Li1  1  -0.32597503  -0.74319615  -0.85256930  1
  Li  Li2  1  0.50000000  0.50000000  0.50000000  1
  O  O3  1  0.00783847  0.72181114  0.98488639  1
  O  O4  1  0.99216153  0.27818886  0.01511361  1
  O  O5  1  0.50000000  0.00000000  -0.00000000  1
  O  O6  1  0.00000000  0.50000000  0.00000000  1
