# generated using pymatgen
data_Li2ZrO3
_symmetry_space_group_name_H-M   'P 1'
_cell_length_a   6.03296497
_cell_length_b   6.50231511
_cell_length_c   4.83504535
_cell_angle_alpha   51.47837942
_cell_angle_beta   94.79001086
_cell_angle_gamma   59.11823501
_symmetry_Int_Tables_number   1
_chemical_formula_structural   Li2ZrO3
_chemical_formula_sum   'Li2 Zr1 O3'
_cell_volume   101.84138007
_cell_formula_units_Z   1
loop_
 _symmetry_equiv_pos_site_id
 _symmetry_equiv_pos_as_xyz
  1  'x, y, z'
loop_
 _atom_site_type_symbol
 _atom_site_label
 _atom_site_symmetry_multiplicity
 _atom_site_fract_x
 _atom_site_fract_y
 _atom_site_fract_z
 _atom_site_occupancy
  Li  Li0  1  0.96372555  0.71440128  0.54763604  1
  Li  Li1  1  -0.96372555  -0.71440128  -0.54763604  1
  O  O2  1  0.60657689  0.65526069  0.89926087  1
  O  O3  1  0.39342311  0.34473931  0.10073913  1
  O  O4  1  0.50000000  0.00000000  0.00000000  1
  Zr  Zr5  1  0.00000000  0.00000000  0.50000000  1
