# generated using pymatgen
data_Li3O
_symmetry_space_group_name_H-M   'P 1'
_cell_length_a   4.86678505
_cell_length_b   4.09161230
_cell_length_c   5.66345381
_cell_angle_alpha   101.69263991
_cell_angle_beta   120.11570370
_cell_angle_gamma   75.20640246
_symmetry_Int_Tables_number   1
_chemical_formula_structural   Li3O
_chemical_formula_sum   'Li6 O2'
_cell_volume   93.94398489
_cell_formula_units_Z   2
loop_
 _symmetry_equiv_pos_site_id
 _symmetry_equiv_pos_as_xyz
  1  'x, y, z'
loop_
 _atom_site_type_symbol
 _atom_site_label
 _atom_site_symmetry_multiplicity
 _atom_site_fract_x
 _atom_site_fract_y
 _atom_site_fract_z
 _atom_site_occupancy
  Li  Li0  1  0.67972588  0.15250268  0.07870168  1
  Li  Li1  1  0.28828074  0.42234858  0.97976965  1
  Li  Li2  1  0.55073098  0.52151340  0.70252767  1
  Li  Li3  1  0.74858184  0.06077916  0.84571187  1
  Li  Li4  1  0.81456399  0.84464255  0.21746372  1
  Li  Li5  1  0.07263185  0.84608033  0.46484440  1
  O  O6  1  0.83042556  0.49089836  0.80193582  1
  O  O7  1  0.49098055  0.78439561  0.18980459  1
