# generated using pymatgen
data_Li4(LaZr)3
_symmetry_space_group_name_H-M   'P 1'
_cell_length_a   4.61585183
_cell_length_b   8.53772444
_cell_length_c   9.57831634
_cell_angle_alpha   117.06183529
_cell_angle_beta   70.73925377
_cell_angle_gamma   78.31094964
_symmetry_Int_Tables_number   1
_chemical_formula_structural   Li4(LaZr)3
_chemical_formula_sum   'Li4 La3 Zr3'
_cell_volume   288.05468849
_cell_formula_units_Z   1
loop_
 _symmetry_equiv_pos_site_id
 _symmetry_equiv_pos_as_xyz
  1  'x, y, z'
loop_
 _atom_site_type_symbol
 _atom_site_label
 _atom_site_symmetry_multiplicity
 _atom_site_fract_x
 _atom_site_fract_y
 _atom_site_fract_z
 _atom_site_occupancy
  La  La0  1  0.50000000  0.00000000  0.50000000  1
  La  La1  1  0.30865626  0.39152676  0.16239086  1
  La  La2  1  0.69134374  0.60847324  0.83760914  1
  Li  Li3  1  0.50506871  0.79567382  0.19967103  1
  Li  Li4  1  -0.50506871  -0.79567382  -0.19967103  1
  Li  Li5  1  0.18444639  0.20232937  0.98818147  1
  Li  Li6  1  0.81555361  0.79767063  0.01181853  1
  Zr  Zr7  1  0.57779317  0.13626990  0.35674610  1
  Zr  Zr8  1  0.42220683  0.86373010  0.64325390  1
  Zr  Zr9  1  0.50000000  0.00000000  -0.00000000  1
