# generated using pymatgen
data_LiO2
_symmetry_space_group_name_H-M   'P 1'
_cell_length_a   4.26788400
_cell_length_b   4.75297710
_cell_length_c   3.44341896
_cell_angle_alpha   90.00000000
_cell_angle_beta   116.42531123
_cell_angle_gamma   90.00000000
_symmetry_Int_Tables_number   1
_chemical_formula_structural   LiO2
_chemical_formula_sum   'Li2 O4'
_cell_volume   62.55199713
_cell_formula_units_Z   2
loop_
 _symmetry_equiv_pos_site_id
 _symmetry_equiv_pos_as_xyz
  1  'x, y, z'
loop_
 _atom_site_type_symbol
 _atom_site_label
 _atom_site_symmetry_multiplicity
 _atom_site_fract_x
 _atom_site_fract_y
 _atom_site_fract_z
 _atom_site_occupancy
  Li  Li0  1  0.00000000  0.00000000  0.00000000  1
  Li  Li1  1  0.00000000  0.50000000  0.50000000  1
  O  O2  1  0.60793071  0.51044863  0.98946039  1
  O  O3  1  -0.60793071  1.01044863  -0.48946039  1
  O  O4  1  -0.60793071  -0.51044863  -0.98946039  1
  O  O5  1  0.60793071  -0.01044863  1.48946039  1
