# generated using pymatgen
data_LiO11
_symmetry_space_group_name_H-M   'P 1'
_cell_length_a   5.60886869
_cell_length_b   4.09072402
_cell_length_c   7.69743600
_cell_angle_alpha   80.67040858
_cell_angle_beta   85.19389921
_cell_angle_gamma   94.63609211
_symmetry_Int_Tables_number   1
_chemical_formula_structural   LiO11
_chemical_formula_sum   'Li1 O11'
_cell_volume   172.86126389
_cell_formula_units_Z   1
loop_
 _symmetry_equiv_pos_site_id
 _symmetry_equiv_pos_as_xyz
  1  'x, y, z'
loop_
 _atom_site_type_symbol
 _atom_site_label
 _atom_site_symmetry_multiplicity
 _atom_site_fract_x
 _atom_site_fract_y
 _atom_site_fract_z
 _atom_site_occupancy
  Li  Li0  1  0.00000000  0.50000000  0.50000000  1
  O  O1  1  0.50000000  0.00000000  0.50000000  1
  O  O2  1  0.18816700  0.00654625  0.27306066  1
  O  O3  1  -0.18816700  -0.00654625  -0.27306066  1
  O  O4  1  0.84100043  0.28366957  0.59044058  1
  O  O5  1  0.15899957  0.71633043  0.40955942  1
  O  O6  1  0.21269832  0.40414033  0.41143602  1
  O  O7  1  0.78730168  0.59585967  0.58856398  1
  O  O8  1  0.62113752  0.93619875  0.58259513  1
  O  O9  1  0.37886248  0.06380125  0.41740487  1
  O  O10  1  0.11836607  0.77511083  0.73735531  1
  O  O11  1  0.88163393  0.22488917  0.26264469  1
