# generated using pymatgen
data_LiO2
_symmetry_space_group_name_H-M   'P 1'
_cell_length_a   3.82075899
_cell_length_b   4.11997282
_cell_length_c   3.42456848
_cell_angle_alpha   59.50124392
_cell_angle_beta   110.45786560
_cell_angle_gamma   119.47198823
_symmetry_Int_Tables_number   1
_chemical_formula_structural   LiO2
_chemical_formula_sum   'Li2 O4'
_cell_volume   40.07865373
_cell_formula_units_Z   2
loop_
 _symmetry_equiv_pos_site_id
 _symmetry_equiv_pos_as_xyz
  1  'x, y, z'
loop_
 _atom_site_type_symbol
 _atom_site_label
 _atom_site_symmetry_multiplicity
 _atom_site_fract_x
 _atom_site_fract_y
 _atom_site_fract_z
 _atom_site_occupancy
  Li  Li0  1  0.60011409  0.38186937  0.93146630  1
  Li  Li1  1  -0.60011409  -0.38186937  -0.93146630  1
  O  O2  1  0.50000000  0.50000000  0.50000000  1
  O  O3  1  0.00000000  0.00000000  0.50000000  1
  O  O4  1  0.00906708  0.06173493  0.17630997  1
  O  O5  1  0.99093292  0.93826507  0.82369003  1
