# generated using pymatgen
data_Li2P3O11
_symmetry_space_group_name_H-M   'P 1'
_cell_length_a   5.05004118
_cell_length_b   5.67140939
_cell_length_c   7.36744045
_cell_angle_alpha   103.30295175
_cell_angle_beta   98.77331092
_cell_angle_gamma   91.41494743
_symmetry_Int_Tables_number   1
_chemical_formula_structural   Li2P3O11
_chemical_formula_sum   'Li2 P3 O11'
_cell_volume   202.55256067
_cell_formula_units_Z   1
loop_
 _symmetry_equiv_pos_site_id
 _symmetry_equiv_pos_as_xyz
  1  'x, y, z'
loop_
 _atom_site_type_symbol
 _atom_site_label
 _atom_site_symmetry_multiplicity
 _atom_site_fract_x
 _atom_site_fract_y
 _atom_site_fract_z
 _atom_site_occupancy
  Li  Li0  1  0.14718580  0.59856830  0.91165475  1
  Li  Li1  1  0.54578494  0.44412855  0.45961749  1
  O  O2  1  0.37584767  0.16588530  0.52601098  1
  O  O3  1  0.39278037  0.78930335  0.15935439  1
  O  O4  1  0.96831785  0.67722718  0.98581089  1
  O  O5  1  0.56505673  0.97157298  0.65212050  1
  O  O6  1  0.53044730  0.12696245  0.62407655  1
  O  O7  1  0.76210778  0.78217707  0.10466469  1
  O  O8  1  0.50991015  0.88816316  0.45528765  1
  O  O9  1  0.36419322  0.94158549  0.00395956  1
  O  O10  1  0.17730252  0.33313851  0.65054424  1
  O  O11  1  0.48780865  0.05969336  0.08365897  1
  O  O12  1  0.83432351  0.06581953  0.68600409  1
  P  P13  1  0.17564427  0.99854559  0.08065251  1
  P  P14  1  0.46101301  0.36985748  0.66141151  1
  P  P15  1  0.86240163  0.77280550  0.49091489  1
