# generated using pymatgen
data_Li3Al2
_symmetry_space_group_name_H-M   'P 1'
_cell_length_a   2.41247944
_cell_length_b   11.49782970
_cell_length_c   4.75587244
_cell_angle_alpha   98.11446625
_cell_angle_beta   118.94496568
_cell_angle_gamma   101.38153745
_symmetry_Int_Tables_number   1
_chemical_formula_structural   Li3Al2
_chemical_formula_sum   'Li3 Al2'
_cell_volume   108.77934083
_cell_formula_units_Z   1
loop_
 _symmetry_equiv_pos_site_id
 _symmetry_equiv_pos_as_xyz
  1  'x, y, z'
loop_
 _atom_site_type_symbol
 _atom_site_label
 _atom_site_symmetry_multiplicity
 _atom_site_fract_x
 _atom_site_fract_y
 _atom_site_fract_z
 _atom_site_occupancy
  Al  Al0  1  0.94492110  0.68813776  0.67905084  1
  Al  Al1  1  0.81422429  0.26440890  0.25061247  1
  Li  Li2  1  0.33729230  0.35047678  0.65301262  1
  Li  Li3  1  0.29638868  0.55431195  0.87506496  1
  Li  Li4  1  0.21789180  0.07417867  0.04895297  1
