# generated using pymatgen
data_Li2O2
_symmetry_space_group_name_H-M   'P 1'
_cell_length_a   6.11484612
_cell_length_b   4.74357331
_cell_length_c   4.53246932
_cell_angle_alpha   90.00000000
_cell_angle_beta   65.14831056
_cell_angle_gamma   90.00000000
_symmetry_Int_Tables_number   1
_chemical_formula_structural   Li2O2
_chemical_formula_sum   'Li4 O4'
_cell_volume   119.29553091
_cell_formula_units_Z   2
loop_
 _symmetry_equiv_pos_site_id
 _symmetry_equiv_pos_as_xyz
  1  'x, y, z'
loop_
 _atom_site_type_symbol
 _atom_site_label
 _atom_site_symmetry_multiplicity
 _atom_site_fract_x
 _atom_site_fract_y
 _atom_site_fract_z
 _atom_site_occupancy
  Li  Li0  1  0.00000000  0.00000000  0.50000000  1
  Li  Li1  1  0.00000000  0.50000000  0.00000000  1
  Li  Li2  1  0.50000000  0.00000000  0.00000000  1
  Li  Li3  1  0.50000000  0.50000000  0.50000000  1
  O  O4  1  0.98440048  0.15749015  0.99062129  1
  O  O5  1  -0.98440048  0.65749015  -0.49062129  1
  O  O6  1  -0.98440048  -0.15749015  -0.99062129  1
  O  O7  1  0.98440048  0.34250985  1.49062129  1
