# generated using pymatgen
data_Li6O
_symmetry_space_group_name_H-M   'P 1'
_cell_length_a   5.57607858
_cell_length_b   5.18075149
_cell_length_c   5.98575852
_cell_angle_alpha   88.18273835
_cell_angle_beta   65.09686927
_cell_angle_gamma   81.53719926
_symmetry_Int_Tables_number   1
_chemical_formula_structural   Li6O
_chemical_formula_sum   'Li6 O1'
_cell_volume   155.04449045
_cell_formula_units_Z   1
loop_
 _symmetry_equiv_pos_site_id
 _symmetry_equiv_pos_as_xyz
  1  'x, y, z'
loop_
 _atom_site_type_symbol
 _atom_site_label
 _atom_site_symmetry_multiplicity
 _atom_site_fract_x
 _atom_site_fract_y
 _atom_site_fract_z
 _atom_site_occupancy
  Li  Li0  1  0.01388843  0.74792662  0.73053301  1
  Li  Li1  1  0.59249076  0.13360022  0.42191595  1
  Li  Li2  1  0.07953464  0.25243157  0.17721370  1
  Li  Li3  1  0.62435988  0.69450739  0.98131247  1
  Li  Li4  1  0.75376219  0.76986472  0.34989522  1
  Li  Li5  1  0.98503768  0.16638910  0.62007441  1
  O  O6  1  0.19169085  0.07766651  0.65661216  1
