# generated using pymatgen
data_LiTiO2
_symmetry_space_group_name_H-M   'P 1'
_cell_length_a   4.83625713
_cell_length_b   6.00554106
_cell_length_c   5.27435383
_cell_angle_alpha   79.95179510
_cell_angle_beta   78.67097379
_cell_angle_gamma   87.92075071
_symmetry_Int_Tables_number   1
_chemical_formula_structural   LiTiO2
_chemical_formula_sum   'Li3 Ti3 O6'
_cell_volume   147.90098887
_cell_formula_units_Z   3
loop_
 _symmetry_equiv_pos_site_id
 _symmetry_equiv_pos_as_xyz
  1  'x, y, z'
loop_
 _atom_site_type_symbol
 _atom_site_label
 _atom_site_symmetry_multiplicity
 _atom_site_fract_x
 _atom_site_fract_y
 _atom_site_fract_z
 _atom_site_occupancy
  Li  Li0  1  0.94501323  0.16085990  0.26286176  1
  Li  Li1  1  0.33045061  0.71699593  0.06545989  1
  Li  Li2  1  0.46776459  0.41618566  0.65768035  1
  O  O3  1  0.12779095  0.53259246  0.18594580  1
  O  O4  1  0.22415628  0.29785271  0.75427272  1
  O  O5  1  0.89053664  0.62210749  0.06769167  1
  O  O6  1  0.80656530  0.87116181  0.34562485  1
  O  O7  1  0.49286720  0.91567675  0.90654454  1
  O  O8  1  0.21667721  0.16999143  0.61015407  1
  Ti  Ti9  1  0.13077108  0.36991473  0.35985825  1
  Ti  Ti10  1  0.30328675  0.61118816  0.50710990  1
  Ti  Ti11  1  0.73010811  0.59003075  0.54264452  1
