# generated using pymatgen
data_Li8F5
_symmetry_space_group_name_H-M   'P 1'
_cell_length_a   10.56610890
_cell_length_b   4.50954236
_cell_length_c   6.63119307
_cell_angle_alpha   65.62807495
_cell_angle_beta   72.61721495
_cell_angle_gamma   92.90137688
_symmetry_Int_Tables_number   1
_chemical_formula_structural   Li8F5
_chemical_formula_sum   'Li8 F5'
_cell_volume   269.11196794
_cell_formula_units_Z   1
loop_
 _symmetry_equiv_pos_site_id
 _symmetry_equiv_pos_as_xyz
  1  'x, y, z'
loop_
 _atom_site_type_symbol
 _atom_site_label
 _atom_site_symmetry_multiplicity
 _atom_site_fract_x
 _atom_site_fract_y
 _atom_site_fract_z
 _atom_site_occupancy
  F  F0  1  0.12665097  0.96998358  0.21064250  1
  F  F1  1  0.56870270  0.27506421  0.66292708  1
  F  F2  1  0.41061170  0.71649139  0.95842530  1
  F  F3  1  0.06707071  0.72890685  0.18313987  1
  F  F4  1  0.35053366  0.97358111  0.44150005  1
  Li  Li5  1  0.39998739  0.35815670  0.98310448  1
  Li  Li6  1  0.04258377  0.21982226  0.34758664  1
  Li  Li7  1  0.15814091  0.03387434  0.99953591  1
  Li  Li8  1  0.94951690  0.40359607  0.97916056  1
  Li  Li9  1  0.32811107  0.76677928  0.13898655  1
  Li  Li10  1  0.58505846  0.63607993  0.43581467  1
  Li  Li11  1  0.65873521  0.83721591  0.04852579  1
  Li  Li12  1  0.07904415  0.46018956  0.78277540  1
