# generated using pymatgen
data_LiP4O5
_symmetry_space_group_name_H-M   'P 1'
_cell_length_a   4.80179184
_cell_length_b   7.05789375
_cell_length_c   4.51957648
_cell_angle_alpha   90.70719990
_cell_angle_beta   86.76169490
_cell_angle_gamma   119.07820265
_symmetry_Int_Tables_number   1
_chemical_formula_structural   LiP4O5
_chemical_formula_sum   'Li1 P4 O5'
_cell_volume   133.63098725
_cell_formula_units_Z   1
loop_
 _symmetry_equiv_pos_site_id
 _symmetry_equiv_pos_as_xyz
  1  'x, y, z'
loop_
 _atom_site_type_symbol
 _atom_site_label
 _atom_site_symmetry_multiplicity
 _atom_site_fract_x
 _atom_site_fract_y
 _atom_site_fract_z
 _atom_site_occupancy
  Li  Li0  1  0.48573950  0.55465553  0.88446153  1
  O  O1  1  0.89790350  0.65438428  0.09080431  1
  O  O2  1  0.82859618  0.35790833  0.96433218  1
  O  O3  1  0.80205581  0.85034426  0.46785433  1
  O  O4  1  0.00931460  0.30223609  0.07394227  1
  O  O5  1  0.62759536  0.46673867  0.96537051  1
  P  P6  1  0.96576639  0.70905507  0.56593938  1
  P  P7  1  0.35818357  0.12875426  0.58170036  1
  P  P8  1  0.94843474  0.13661222  0.11358218  1
  P  P9  1  0.59531263  0.55804110  0.20571227  1
