# generated using pymatgen
data_Li3O4
_symmetry_space_group_name_H-M   'P 1'
_cell_length_a   5.39706492
_cell_length_b   6.86170994
_cell_length_c   4.73745802
_cell_angle_alpha   86.96947552
_cell_angle_beta   103.58721081
_cell_angle_gamma   110.70292249
_symmetry_Int_Tables_number   1
_chemical_formula_structural   Li3O4
_chemical_formula_sum   'Li6 O8'
_cell_volume   159.43279744
_cell_formula_units_Z   2
loop_
 _symmetry_equiv_pos_site_id
 _symmetry_equiv_pos_as_xyz
  1  'x, y, z'
loop_
 _atom_site_type_symbol
 _atom_site_label
 _atom_site_symmetry_multiplicity
 _atom_site_fract_x
 _atom_site_fract_y
 _atom_site_fract_z
 _atom_site_occupancy
  Li  Li0  1  0.50000000  0.50000000  0.50000000  1
  Li  Li1  1  0.00000000  0.50000000  0.00000000  1
  Li  Li2  1  0.88922752  0.64441170  0.82309411  1
  Li  Li3  1  -0.88922752  -0.64441170  -0.82309411  1
  Li  Li4  1  0.50000000  0.00000000  0.50000000  1
  Li  Li5  1  0.00000000  0.00000000  0.00000000  1
  O  O6  1  0.82589559  0.49622845  0.44849039  1
  O  O7  1  0.17410441  0.50377155  0.55150961  1
  O  O8  1  0.66703611  0.27440008  0.66934421  1
  O  O9  1  0.33296389  0.72559992  0.33065579  1
  O  O10  1  0.70495178  0.35153163  0.55106277  1
  O  O11  1  0.29504822  0.64846837  0.44893723  1
  O  O12  1  0.91902503  0.10350242  0.32854287  1
  O  O13  1  0.08097497  0.89649758  0.67145713  1
