# generated using pymatgen
data_Li2O
_symmetry_space_group_name_H-M   'P 1'
_cell_length_a   4.42330436
_cell_length_b   4.14186177
_cell_length_c   6.72944298
_cell_angle_alpha   90.00000000
_cell_angle_beta   88.82413782
_cell_angle_gamma   90.00000000
_symmetry_Int_Tables_number   1
_chemical_formula_structural   Li2O
_chemical_formula_sum   'Li8 O4'
_cell_volume   123.26224605
_cell_formula_units_Z   4
loop_
 _symmetry_equiv_pos_site_id
 _symmetry_equiv_pos_as_xyz
  1  'x, y, z'
loop_
 _atom_site_type_symbol
 _atom_site_label
 _atom_site_symmetry_multiplicity
 _atom_site_fract_x
 _atom_site_fract_y
 _atom_site_fract_z
 _atom_site_occupancy
  Li  Li0  1  0.25185914  0.45248606  0.17617953  1
  Li  Li1  1  -0.25185914  0.95248606  0.32382047  1
  Li  Li2  1  -0.25185914  -0.45248606  -0.17617953  1
  Li  Li3  1  0.25185914  0.04751394  0.67617953  1
  Li  Li4  1  0.52207290  0.40412493  0.68784386  1
  Li  Li5  1  0.47792710  0.90412493  0.81215614  1
  Li  Li6  1  0.47792710  0.59587507  0.31215614  1
  Li  Li7  1  0.52207290  0.09587507  0.18784386  1
  O  O8  1  0.08240134  0.92269123  0.74971200  1
  O  O9  1  0.91759866  0.42269123  0.75028800  1
  O  O10  1  0.91759866  0.07730877  0.25028800  1
  O  O11  1  0.08240134  0.57730877  0.24971200  1
