# generated using pymatgen
data_Li5O4
_symmetry_space_group_name_H-M   'P 1'
_cell_length_a   6.97709555
_cell_length_b   3.82718368
_cell_length_c   4.49732711
_cell_angle_alpha   109.33186627
_cell_angle_beta   99.16528961
_cell_angle_gamma   105.29274018
_symmetry_Int_Tables_number   1
_chemical_formula_structural   Li5O4
_chemical_formula_sum   'Li5 O4'
_cell_volume   105.21888433
_cell_formula_units_Z   1
loop_
 _symmetry_equiv_pos_site_id
 _symmetry_equiv_pos_as_xyz
  1  'x, y, z'
loop_
 _atom_site_type_symbol
 _atom_site_label
 _atom_site_symmetry_multiplicity
 _atom_site_fract_x
 _atom_site_fract_y
 _atom_site_fract_z
 _atom_site_occupancy
  Li  Li0  1  0.29458765  0.74651720  0.91162159  1
  Li  Li1  1  -0.29458765  -0.74651720  -0.91162159  1
  Li  Li2  1  0.47650119  0.89823972  0.69302944  1
  Li  Li3  1  0.52349881  0.10176028  0.30697056  1
  Li  Li4  1  0.00000000  0.50000000  0.50000000  1
  O  O5  1  0.66969727  0.06950182  0.83347019  1
  O  O6  1  0.33030273  0.93049818  0.16652981  1
  O  O7  1  0.58791107  0.48756040  0.94219492  1
  O  O8  1  0.41208893  0.51243960  0.05780508  1
