# generated using pymatgen
data_Li5LaO2
_symmetry_space_group_name_H-M   'P 1'
_cell_length_a   5.14173393
_cell_length_b   5.26498717
_cell_length_c   8.73399392
_cell_angle_alpha   80.98844840
_cell_angle_beta   119.27768624
_cell_angle_gamma   106.93256108
_symmetry_Int_Tables_number   1
_chemical_formula_structural   Li5LaO2
_chemical_formula_sum   'Li5 La1 O2'
_cell_volume   197.26726275
_cell_formula_units_Z   1
loop_
 _symmetry_equiv_pos_site_id
 _symmetry_equiv_pos_as_xyz
  1  'x, y, z'
loop_
 _atom_site_type_symbol
 _atom_site_label
 _atom_site_symmetry_multiplicity
 _atom_site_fract_x
 _atom_site_fract_y
 _atom_site_fract_z
 _atom_site_occupancy
  La  La0  1  0.00000000  0.00000000  0.50000000  1
  Li  Li1  1  0.51290952  0.29384062  0.91942695  1
  Li  Li2  1  -0.51290952  -0.29384062  -0.91942695  1
  Li  Li3  1  0.46467254  0.76699195  0.59085903  1
  Li  Li4  1  0.53532746  0.23300805  0.40914097  1
  Li  Li5  1  0.00000000  0.50000000  0.00000000  1
  O  O6  1  0.50000000  0.50000000  0.50000000  1
  O  O7  1  0.50000000  0.00000000  0.50000000  1
