# generated using pymatgen
data_LiO6
_symmetry_space_group_name_H-M   'P 1'
_cell_length_a   5.76991146
_cell_length_b   8.63362974
_cell_length_c   4.66863325
_cell_angle_alpha   88.51852972
_cell_angle_beta   96.23903651
_cell_angle_gamma   52.26710611
_symmetry_Int_Tables_number   1
_chemical_formula_structural   LiO6
_chemical_formula_sum   'Li2 O12'
_cell_volume   181.57703902
_cell_formula_units_Z   2
loop_
 _symmetry_equiv_pos_site_id
 _symmetry_equiv_pos_as_xyz
  1  'x, y, z'
loop_
 _atom_site_type_symbol
 _atom_site_label
 _atom_site_symmetry_multiplicity
 _atom_site_fract_x
 _atom_site_fract_y
 _atom_site_fract_z
 _atom_site_occupancy
  Li  Li0  1  0.78231302  0.05987613  0.98019949  1
  Li  Li1  1  0.94494793  0.60933067  0.27056114  1
  O  O2  1  0.01942114  0.29787787  0.51301220  1
  O  O3  1  0.31273395  0.38373254  0.83509690  1
  O  O4  1  0.44176220  0.08408569  0.39424441  1
  O  O5  1  0.70558942  0.49406037  0.99450912  1
  O  O6  1  0.29323038  0.66603348  0.78306684  1
  O  O7  1  0.03798237  0.68527716  0.00542711  1
  O  O8  1  0.64086300  0.72695850  0.41933310  1
  O  O9  1  0.34273054  0.03917378  0.04418586  1
  O  O10  1  0.44080042  0.34372075  0.73754740  1
  O  O11  1  0.42157010  0.11327617  0.19583195  1
  O  O12  1  0.00547100  0.38465800  0.47283452  1
  O  O13  1  0.51271399  0.25394649  0.83909760  1
