# generated using pymatgen
data_Li3O4
_symmetry_space_group_name_H-M   'P 1'
_cell_length_a   8.95677517
_cell_length_b   4.46208096
_cell_length_c   5.36526310
_cell_angle_alpha   90.00000000
_cell_angle_beta   67.84699898
_cell_angle_gamma   90.00000000
_symmetry_Int_Tables_number   1
_chemical_formula_structural   Li3O4
_chemical_formula_sum   'Li6 O8'
_cell_volume   198.59835170
_cell_formula_units_Z   2
loop_
 _symmetry_equiv_pos_site_id
 _symmetry_equiv_pos_as_xyz
  1  'x, y, z'
loop_
 _atom_site_type_symbol
 _atom_site_label
 _atom_site_symmetry_multiplicity
 _atom_site_fract_x
 _atom_site_fract_y
 _atom_site_fract_z
 _atom_site_occupancy
  Li  Li0  1  0.00919595  0.32684782  0.55673180  1
  Li  Li1  1  -0.00919595  0.82684782  -0.05673180  1
  Li  Li2  1  -0.00919595  -0.32684782  -0.55673180  1
  Li  Li3  1  0.00919595  0.17315218  1.05673180  1
  Li  Li4  1  0.50000000  0.00000000  0.50000000  1
  Li  Li5  1  0.50000000  0.50000000  0.00000000  1
  O  O6  1  0.32329085  0.06269530  0.94539299  1
  O  O7  1  0.67670915  0.56269530  0.55460701  1
  O  O8  1  0.67670915  0.93730470  0.05460701  1
  O  O9  1  0.32329085  0.43730470  0.44539299  1
  O  O10  1  0.00000000  0.00000000  0.50000000  1
  O  O11  1  0.00000000  0.50000000  0.00000000  1
  O  O12  1  0.50000000  0.00000000  0.00000000  1
  O  O13  1  0.50000000  0.50000000  0.50000000  1
