# generated using pymatgen
data_Li4(PO2)3
_symmetry_space_group_name_H-M   'P 1'
_cell_length_a   4.66598154
_cell_length_b   5.64265376
_cell_length_c   9.64632669
_cell_angle_alpha   131.65946162
_cell_angle_beta   78.42993231
_cell_angle_gamma   79.05260170
_symmetry_Int_Tables_number   1
_chemical_formula_structural   Li4(PO2)3
_chemical_formula_sum   'Li4 P3 O6'
_cell_volume   166.78226483
_cell_formula_units_Z   1
loop_
 _symmetry_equiv_pos_site_id
 _symmetry_equiv_pos_as_xyz
  1  'x, y, z'
loop_
 _atom_site_type_symbol
 _atom_site_label
 _atom_site_symmetry_multiplicity
 _atom_site_fract_x
 _atom_site_fract_y
 _atom_site_fract_z
 _atom_site_occupancy
  Li  Li0  1  0.60023809  0.97154127  0.90715758  1
  Li  Li1  1  0.39976191  0.02845873  0.09284242  1
  Li  Li2  1  0.00000000  0.00000000  0.50000000  1
  Li  Li3  1  0.50000000  0.50000000  0.00000000  1
  O  O4  1  0.50000000  0.00000000  0.50000000  1
  O  O5  1  0.15819793  0.54121456  0.31070583  1
  O  O6  1  0.84180207  0.45878544  0.68929417  1
  O  O7  1  0.49976181  0.51255401  0.75979762  1
  O  O8  1  0.50023819  0.48744599  0.24020238  1
  O  O9  1  0.50000000  0.50000000  0.50000000  1
  P  P10  1  0.91802531  0.64559140  0.38303114  1
  P  P11  1  -0.91802531  -0.64559140  -0.38303114  1
  P  P12  1  0.00000000  0.00000000  0.00000000  1
