# generated using pymatgen
data_Li3O2
_symmetry_space_group_name_H-M   'P 1'
_cell_length_a   6.22490454
_cell_length_b   5.60704512
_cell_length_c   3.68366508
_cell_angle_alpha   86.53050710
_cell_angle_beta   72.00440224
_cell_angle_gamma   58.99109791
_symmetry_Int_Tables_number   1
_chemical_formula_structural   Li3O2
_chemical_formula_sum   'Li3 O2'
_cell_volume   104.03652362
_cell_formula_units_Z   1
loop_
 _symmetry_equiv_pos_site_id
 _symmetry_equiv_pos_as_xyz
  1  'x, y, z'
loop_
 _atom_site_type_symbol
 _atom_site_label
 _atom_site_symmetry_multiplicity
 _atom_site_fract_x
 _atom_site_fract_y
 _atom_site_fract_z
 _atom_site_occupancy
  Li  Li0  1  0.85834124  0.35008982  0.41602490  1
  Li  Li1  1  -0.85834124  -0.35008982  -0.41602490  1
  Li  Li2  1  0.50000000  0.00000000  0.50000000  1
  O  O3  1  0.03758607  0.04642041  0.83701764  1
  O  O4  1  0.96241393  0.95357959  0.16298236  1
