# generated using pymatgen
data_Li2S7O2
_symmetry_space_group_name_H-M   'P 1'
_cell_length_a   3.83040564
_cell_length_b   7.12487229
_cell_length_c   9.41670588
_cell_angle_alpha   77.83823629
_cell_angle_beta   48.93335776
_cell_angle_gamma   76.27797226
_symmetry_Int_Tables_number   1
_chemical_formula_structural   Li2S7O2
_chemical_formula_sum   'Li2 S7 O2'
_cell_volume   187.70003471
_cell_formula_units_Z   1
loop_
 _symmetry_equiv_pos_site_id
 _symmetry_equiv_pos_as_xyz
  1  'x, y, z'
loop_
 _atom_site_type_symbol
 _atom_site_label
 _atom_site_symmetry_multiplicity
 _atom_site_fract_x
 _atom_site_fract_y
 _atom_site_fract_z
 _atom_site_occupancy
  Li  Li0  1  0.16448034  0.04284126  0.81756219  1
  Li  Li1  1  0.91382269  0.24625956  0.52248122  1
  O  O2  1  0.83552953  0.88510912  0.91164423  1
  O  O3  1  0.12711926  0.55341818  0.93960786  1
  S  S4  1  0.97649013  0.45713745  0.32839846  1
  S  S5  1  0.63541805  0.11402475  0.38536520  1
  S  S6  1  0.31765091  0.98824562  0.92894123  1
  S  S7  1  0.83036924  0.56485951  0.21523145  1
  S  S8  1  0.27427071  0.15339359  0.60815436  1
  S  S9  1  0.04090108  0.00243092  0.45606869  1
  S  S10  1  0.40036060  0.26417649  0.65880022  1
