# generated using pymatgen
data_Li3O2
_symmetry_space_group_name_H-M   'P 1'
_cell_length_a   5.99980045
_cell_length_b   4.64687712
_cell_length_c   4.79370724
_cell_angle_alpha   124.13510260
_cell_angle_beta   95.91015149
_cell_angle_gamma   110.08463216
_symmetry_Int_Tables_number   1
_chemical_formula_structural   Li3O2
_chemical_formula_sum   'Li6 O4'
_cell_volume   96.08869528
_cell_formula_units_Z   2
loop_
 _symmetry_equiv_pos_site_id
 _symmetry_equiv_pos_as_xyz
  1  'x, y, z'
loop_
 _atom_site_type_symbol
 _atom_site_label
 _atom_site_symmetry_multiplicity
 _atom_site_fract_x
 _atom_site_fract_y
 _atom_site_fract_z
 _atom_site_occupancy
  Li  Li0  1  0.50000000  -0.00000000  0.50000000  1
  Li  Li1  1  0.56083493  0.75214538  0.88813921  1
  Li  Li2  1  -0.56083493  -0.75214538  -0.88813921  1
  Li  Li3  1  0.00000000  0.50000000  0.00000000  1
  Li  Li4  1  0.55556851  0.02629304  0.86821464  1
  Li  Li5  1  0.44443149  0.97370696  0.13178536  1
  O  O6  1  0.00000000  0.00000000  0.50000000  1
  O  O7  1  0.33636461  0.95730897  0.74987123  1
  O  O8  1  0.66363539  0.04269103  0.25012877  1
  O  O9  1  0.00000000  0.50000000  0.50000000  1
