# generated using pymatgen
data_Li7O2
_symmetry_space_group_name_H-M   'P 1'
_cell_length_a   7.20391785
_cell_length_b   5.10967259
_cell_length_c   4.94158511
_cell_angle_alpha   66.51961280
_cell_angle_beta   93.30911946
_cell_angle_gamma   81.90069992
_symmetry_Int_Tables_number   1
_chemical_formula_structural   Li7O2
_chemical_formula_sum   'Li7 O2'
_cell_volume   163.86858212
_cell_formula_units_Z   1
loop_
 _symmetry_equiv_pos_site_id
 _symmetry_equiv_pos_as_xyz
  1  'x, y, z'
loop_
 _atom_site_type_symbol
 _atom_site_label
 _atom_site_symmetry_multiplicity
 _atom_site_fract_x
 _atom_site_fract_y
 _atom_site_fract_z
 _atom_site_occupancy
  Li  Li0  1  0.49150573  0.77951620  0.70730992  1
  Li  Li1  1  -0.49150573  -0.77951620  -0.70730992  1
  Li  Li2  1  0.81004550  0.57501958  0.21486218  1
  Li  Li3  1  0.18995450  0.42498042  0.78513782  1
  Li  Li4  1  0.37203818  0.86095849  0.01319675  1
  Li  Li5  1  0.62796182  0.13904151  0.98680325  1
  Li  Li6  1  0.00000000  0.00000000  0.50000000  1
  O  O7  1  0.00000000  0.50000000  0.00000000  1
  O  O8  1  0.00000000  0.50000000  0.50000000  1
