# generated using pymatgen
data_Li2P3
_symmetry_space_group_name_H-M   'P 1'
_cell_length_a   3.45126333
_cell_length_b   5.60897769
_cell_length_c   5.62237686
_cell_angle_alpha   76.92521634
_cell_angle_beta   62.47994274
_cell_angle_gamma   99.94774403
_symmetry_Int_Tables_number   1
_chemical_formula_structural   Li2P3
_chemical_formula_sum   'Li2 P3'
_cell_volume   89.04594271
_cell_formula_units_Z   1
loop_
 _symmetry_equiv_pos_site_id
 _symmetry_equiv_pos_as_xyz
  1  'x, y, z'
loop_
 _atom_site_type_symbol
 _atom_site_label
 _atom_site_symmetry_multiplicity
 _atom_site_fract_x
 _atom_site_fract_y
 _atom_site_fract_z
 _atom_site_occupancy
  Li  Li0  1  0.00000000  0.50000000  0.50000000  1
  Li  Li1  1  0.50000000  0.50000000  0.00000000  1
  P  P2  1  0.60905195  0.19859704  0.02233964  1
  P  P3  1  -0.60905195  -0.19859704  -0.02233964  1
  P  P4  1  0.00000000  0.00000000  0.00000000  1
