# generated using pymatgen
data_Li3P4
_symmetry_space_group_name_H-M   'P 1'
_cell_length_a   3.73963396
_cell_length_b   5.69448700
_cell_length_c   8.28179723
_cell_angle_alpha   87.81468440
_cell_angle_beta   93.80312304
_cell_angle_gamma   74.12818463
_symmetry_Int_Tables_number   1
_chemical_formula_structural   Li3P4
_chemical_formula_sum   'Li3 P4'
_cell_volume   168.97489246
_cell_formula_units_Z   1
loop_
 _symmetry_equiv_pos_site_id
 _symmetry_equiv_pos_as_xyz
  1  'x, y, z'
loop_
 _atom_site_type_symbol
 _atom_site_label
 _atom_site_symmetry_multiplicity
 _atom_site_fract_x
 _atom_site_fract_y
 _atom_site_fract_z
 _atom_site_occupancy
  Li  Li0  1  0.91806118  0.09673269  0.84447884  1
  Li  Li1  1  0.31894268  0.04622766  0.11024716  1
  Li  Li2  1  0.66477175  0.56415016  0.72999663  1
  P  P3  1  0.83743516  0.71267021  0.60112054  1
  P  P4  1  0.47131182  0.26695386  0.55061205  1
  P  P5  1  0.94770521  0.76810843  0.95140004  1
  P  P6  1  0.45452274  0.46097469  0.32052964  1
