# generated using pymatgen
data_Li3Ti2O4
_symmetry_space_group_name_H-M   'P 1'
_cell_length_a   6.29315246
_cell_length_b   4.77951310
_cell_length_c   7.85371645
_cell_angle_alpha   129.16461917
_cell_angle_beta   67.07834810
_cell_angle_gamma   99.66136826
_symmetry_Int_Tables_number   1
_chemical_formula_structural   Li3Ti2O4
_chemical_formula_sum   'Li3 Ti2 O4'
_cell_volume   167.67869871
_cell_formula_units_Z   1
loop_
 _symmetry_equiv_pos_site_id
 _symmetry_equiv_pos_as_xyz
  1  'x, y, z'
loop_
 _atom_site_type_symbol
 _atom_site_label
 _atom_site_symmetry_multiplicity
 _atom_site_fract_x
 _atom_site_fract_y
 _atom_site_fract_z
 _atom_site_occupancy
  Li  Li0  1  0.87484247  0.57483026  0.28468846  1
  Li  Li1  1  0.86507602  0.88689913  0.71667134  1
  Li  Li2  1  0.01047599  0.09918550  0.43144936  1
  O  O3  1  0.12750794  0.58947076  0.31500101  1
  O  O4  1  0.97637174  0.66573333  0.38189624  1
  O  O5  1  0.91372294  0.78902374  0.23966914  1
  O  O6  1  0.36573158  0.87908232  0.14726411  1
  Ti  Ti7  1  0.52092300  0.92499173  0.96967608  1
  Ti  Ti8  1  0.30199886  0.59580428  0.58069221  1
