# generated using pymatgen
data_Li3O5
_symmetry_space_group_name_H-M   'P 1'
_cell_length_a   5.72215492
_cell_length_b   3.41545545
_cell_length_c   10.61266526
_cell_angle_alpha   100.90341542
_cell_angle_beta   89.97388114
_cell_angle_gamma   86.29340579
_symmetry_Int_Tables_number   1
_chemical_formula_structural   Li3O5
_chemical_formula_sum   'Li6 O10'
_cell_volume   203.22406846
_cell_formula_units_Z   2
loop_
 _symmetry_equiv_pos_site_id
 _symmetry_equiv_pos_as_xyz
  1  'x, y, z'
loop_
 _atom_site_type_symbol
 _atom_site_label
 _atom_site_symmetry_multiplicity
 _atom_site_fract_x
 _atom_site_fract_y
 _atom_site_fract_z
 _atom_site_occupancy
  Li  Li0  1  0.24308969  0.07587267  0.38913986  1
  Li  Li1  1  0.45805527  0.52696215  0.79782070  1
  Li  Li2  1  0.83975736  0.73743377  0.37697760  1
  Li  Li3  1  0.20915007  0.95205719  0.01459945  1
  Li  Li4  1  0.98688251  0.12749616  0.49071387  1
  Li  Li5  1  0.82381317  0.48233413  0.07914930  1
  O  O6  1  0.50979255  0.84966541  0.82272013  1
  O  O7  1  0.11561417  0.58632810  0.30583079  1
  O  O8  1  0.99303835  0.60205725  0.83209919  1
  O  O9  1  0.77114255  0.80098785  0.22729127  1
  O  O10  1  0.18769256  0.01250025  0.22837070  1
  O  O11  1  0.42525328  0.88529726  0.25208120  1
  O  O12  1  0.70891511  0.00112261  0.63938878  1
  O  O13  1  0.24143909  0.33063072  0.56711643  1
  O  O14  1  0.31296046  0.07609828  0.72696876  1
  O  O15  1  0.95949104  0.22629710  0.80705563  1
