# generated using pymatgen
data_Li3O2
_symmetry_space_group_name_H-M   'P 1'
_cell_length_a   4.69402480
_cell_length_b   5.73657077
_cell_length_c   3.36196473
_cell_angle_alpha   96.60939952
_cell_angle_beta   134.86626010
_cell_angle_gamma   53.96875560
_symmetry_Int_Tables_number   1
_chemical_formula_structural   Li3O2
_chemical_formula_sum   'Li3 O2'
_cell_volume   44.22087921
_cell_formula_units_Z   1
loop_
 _symmetry_equiv_pos_site_id
 _symmetry_equiv_pos_as_xyz
  1  'x, y, z'
loop_
 _atom_site_type_symbol
 _atom_site_label
 _atom_site_symmetry_multiplicity
 _atom_site_fract_x
 _atom_site_fract_y
 _atom_site_fract_z
 _atom_site_occupancy
  Li  Li0  1  0.50000000  0.00000000  0.50000000  1
  Li  Li1  1  0.04526113  0.67078484  0.96916020  1
  Li  Li2  1  -0.04526113  -0.67078484  -0.96916020  1
  O  O3  1  0.93245893  0.87757542  0.72842650  1
  O  O4  1  0.06754107  0.12242458  0.27157350  1
