# generated using pymatgen
data_Li5O3
_symmetry_space_group_name_H-M   'P 1'
_cell_length_a   7.17214740
_cell_length_b   4.62484138
_cell_length_c   3.42250323
_cell_angle_alpha   82.90755792
_cell_angle_beta   95.68784295
_cell_angle_gamma   77.47871957
_symmetry_Int_Tables_number   1
_chemical_formula_structural   Li5O3
_chemical_formula_sum   'Li5 O3'
_cell_volume   109.04408700
_cell_formula_units_Z   1
loop_
 _symmetry_equiv_pos_site_id
 _symmetry_equiv_pos_as_xyz
  1  'x, y, z'
loop_
 _atom_site_type_symbol
 _atom_site_label
 _atom_site_symmetry_multiplicity
 _atom_site_fract_x
 _atom_site_fract_y
 _atom_site_fract_z
 _atom_site_occupancy
  Li  Li0  1  0.82138991  0.85013816  0.35203901  1
  Li  Li1  1  0.87521739  0.17642168  0.20650558  1
  Li  Li2  1  0.08810277  0.55732357  0.28547158  1
  Li  Li3  1  0.36392827  0.88588652  0.42384824  1
  Li  Li4  1  0.98458269  0.35489747  0.67974907  1
  O  O5  1  0.42464178  0.65171015  0.11078400  1
  O  O6  1  0.15541604  0.28349332  0.49291340  1
  O  O7  1  0.90285817  0.44080688  0.02548694  1
