# generated using pymatgen
data_Li5Zr4
_symmetry_space_group_name_H-M   'P 1'
_cell_length_a   9.13199361
_cell_length_b   5.06855481
_cell_length_c   7.24589512
_cell_angle_alpha   56.75286436
_cell_angle_beta   130.65365870
_cell_angle_gamma   95.93197475
_symmetry_Int_Tables_number   1
_chemical_formula_structural   Li5Zr4
_chemical_formula_sum   'Li5 Zr4'
_cell_volume   195.02312599
_cell_formula_units_Z   1
loop_
 _symmetry_equiv_pos_site_id
 _symmetry_equiv_pos_as_xyz
  1  'x, y, z'
loop_
 _atom_site_type_symbol
 _atom_site_label
 _atom_site_symmetry_multiplicity
 _atom_site_fract_x
 _atom_site_fract_y
 _atom_site_fract_z
 _atom_site_occupancy
  Li  Li0  1  0.94074114  0.65047527  0.33882709  1
  Li  Li1  1  0.33076907  0.76456942  0.93109101  1
  Li  Li2  1  0.61072598  0.23919449  0.90530370  1
  Li  Li3  1  0.04184634  0.05846322  0.06086683  1
  Li  Li4  1  0.58736420  0.27041594  0.10151261  1
  Zr  Zr5  1  0.25859383  0.93334846  0.60628731  1
  Zr  Zr6  1  0.92387498  0.27956821  0.63777556  1
  Zr  Zr7  1  0.29209667  0.47977795  0.18418639  1
  Zr  Zr8  1  0.35525124  0.20179880  0.01297015  1
