# generated using pymatgen
data_Li5O3
_symmetry_space_group_name_H-M   'P 1'
_cell_length_a   4.03525584
_cell_length_b   5.06817315
_cell_length_c   4.93036649
_cell_angle_alpha   89.41166201
_cell_angle_beta   110.84556651
_cell_angle_gamma   109.72908159
_symmetry_Int_Tables_number   1
_chemical_formula_structural   Li5O3
_chemical_formula_sum   'Li5 O3'
_cell_volume   88.00665360
_cell_formula_units_Z   1
loop_
 _symmetry_equiv_pos_site_id
 _symmetry_equiv_pos_as_xyz
  1  'x, y, z'
loop_
 _atom_site_type_symbol
 _atom_site_label
 _atom_site_symmetry_multiplicity
 _atom_site_fract_x
 _atom_site_fract_y
 _atom_site_fract_z
 _atom_site_occupancy
  Li  Li0  1  0.14233696  0.52745152  0.21490191  1
  Li  Li1  1  0.53528835  0.41097556  0.69454506  1
  Li  Li2  1  0.84078083  0.87109270  0.74742113  1
  Li  Li3  1  0.67588573  0.04415445  0.58984560  1
  Li  Li4  1  0.61605023  0.39232297  0.27181526  1
  O  O5  1  0.73177962  0.83923155  0.39621816  1
  O  O6  1  0.14002349  0.13186825  0.16994916  1
  O  O7  1  0.70656906  0.51793153  0.57990654  1
