# generated using pymatgen
data_Li2O2
_symmetry_space_group_name_H-M   'P 1'
_cell_length_a   5.06412684
_cell_length_b   2.55858196
_cell_length_c   4.98607905
_cell_angle_alpha   73.81460324
_cell_angle_beta   102.62147001
_cell_angle_gamma   67.37082829
_symmetry_Int_Tables_number   1
_chemical_formula_structural   Li2O2
_chemical_formula_sum   'Li2 O2'
_cell_volume   53.26012793
_cell_formula_units_Z   1
loop_
 _symmetry_equiv_pos_site_id
 _symmetry_equiv_pos_as_xyz
  1  'x, y, z'
loop_
 _atom_site_type_symbol
 _atom_site_label
 _atom_site_symmetry_multiplicity
 _atom_site_fract_x
 _atom_site_fract_y
 _atom_site_fract_z
 _atom_site_occupancy
  Li  Li0  1  0.21552672  0.01017147  0.50914723  1
  Li  Li1  1  0.66183391  0.44868214  0.84280076  1
  O  O2  1  0.51349114  0.52419091  0.59238473  1
  O  O3  1  0.32454682  0.90929592  0.19920218  1
