# generated using pymatgen
data_Li7O
_symmetry_space_group_name_H-M   'P 1'
_cell_length_a   6.02020652
_cell_length_b   4.69195668
_cell_length_c   4.00780214
_cell_angle_alpha   90.20288163
_cell_angle_beta   72.63184396
_cell_angle_gamma   91.35357210
_symmetry_Int_Tables_number   1
_chemical_formula_structural   Li7O
_chemical_formula_sum   'Li7 O1'
_cell_volume   108.01419908
_cell_formula_units_Z   1
loop_
 _symmetry_equiv_pos_site_id
 _symmetry_equiv_pos_as_xyz
  1  'x, y, z'
loop_
 _atom_site_type_symbol
 _atom_site_label
 _atom_site_symmetry_multiplicity
 _atom_site_fract_x
 _atom_site_fract_y
 _atom_site_fract_z
 _atom_site_occupancy
  Li  Li0  1  0.12660327  0.63439940  0.38220255  1
  Li  Li1  1  0.15095353  0.05745269  0.42152395  1
  Li  Li2  1  0.62254777  0.51297058  0.53737792  1
  Li  Li3  1  0.09697068  0.26063752  0.06788580  1
  Li  Li4  1  0.32368224  0.19779984  0.99773225  1
  Li  Li5  1  0.34345728  0.56337629  0.59009564  1
  Li  Li6  1  0.79544717  0.22705034  0.89183495  1
  O  O7  1  0.67083298  0.65513832  0.82551095  1
