# generated using pymatgen
data_Li(S2O)2
_symmetry_space_group_name_H-M   'P 1'
_cell_length_a   9.42143037
_cell_length_b   5.58293679
_cell_length_c   3.13055700
_cell_angle_alpha   92.02828536
_cell_angle_beta   85.07919841
_cell_angle_gamma   114.50853178
_symmetry_Int_Tables_number   1
_chemical_formula_structural   Li(S2O)2
_chemical_formula_sum   'Li2 S8 O4'
_cell_volume   149.27631989
_cell_formula_units_Z   2
loop_
 _symmetry_equiv_pos_site_id
 _symmetry_equiv_pos_as_xyz
  1  'x, y, z'
loop_
 _atom_site_type_symbol
 _atom_site_label
 _atom_site_symmetry_multiplicity
 _atom_site_fract_x
 _atom_site_fract_y
 _atom_site_fract_z
 _atom_site_occupancy
  Li  Li0  1  0.66596637  0.24576636  0.42253888  1
  Li  Li1  1  0.72395983  0.95879369  0.73013113  1
  O  O2  1  0.60403297  0.66678168  0.95126709  1
  O  O3  1  0.32565394  0.72619139  0.92795350  1
  O  O4  1  0.30835838  0.13485387  0.02017005  1
  O  O5  1  0.76236540  0.56215461  0.28306467  1
  S  S6  1  0.94881309  0.93916067  0.10663930  1
  S  S7  1  0.60473008  0.79089705  0.30804248  1
  S  S8  1  0.60035260  0.39450360  0.59100956  1
  S  S9  1  0.28968183  0.79522933  0.68900077  1
  S  S10  1  0.00238111  0.78161610  0.26925368  1
  S  S11  1  0.73137294  0.72485914  0.03818260  1
  S  S12  1  0.52929515  0.06429309  0.98949361  1
  S  S13  1  0.24179917  0.25792463  0.22128531  1
