# generated using pymatgen
data_Li5Ti2O3
_symmetry_space_group_name_H-M   'P 1'
_cell_length_a   4.92557051
_cell_length_b   4.06750229
_cell_length_c   7.10992473
_cell_angle_alpha   81.48753954
_cell_angle_beta   84.41122412
_cell_angle_gamma   115.94122631
_symmetry_Int_Tables_number   1
_chemical_formula_structural   Li5Ti2O3
_chemical_formula_sum   'Li5 Ti2 O3'
_cell_volume   124.55900591
_cell_formula_units_Z   1
loop_
 _symmetry_equiv_pos_site_id
 _symmetry_equiv_pos_as_xyz
  1  'x, y, z'
loop_
 _atom_site_type_symbol
 _atom_site_label
 _atom_site_symmetry_multiplicity
 _atom_site_fract_x
 _atom_site_fract_y
 _atom_site_fract_z
 _atom_site_occupancy
  Li  Li0  1  0.47959041  0.20909070  0.74665066  1
  Li  Li1  1  0.54218150  0.85086726  0.22929125  1
  Li  Li2  1  0.94756065  0.55612847  0.43186975  1
  Li  Li3  1  0.25282529  0.30573603  0.44389463  1
  Li  Li4  1  0.22672288  0.60353170  0.69572991  1
  O  O5  1  0.24567229  0.06697508  0.01441515  1
  O  O6  1  0.14845293  0.93599915  0.90855737  1
  O  O7  1  0.26117221  0.74509083  0.40046080  1
  Ti  Ti8  1  0.51179359  0.14601872  0.95263681  1
  Ti  Ti9  1  0.87753641  0.52416952  0.79171871  1
