# generated using pymatgen
data_Li5O3
_symmetry_space_group_name_H-M   'P 1'
_cell_length_a   5.78720546
_cell_length_b   3.27604831
_cell_length_c   5.21080966
_cell_angle_alpha   95.13113165
_cell_angle_beta   83.17695804
_cell_angle_gamma   108.72280660
_symmetry_Int_Tables_number   1
_chemical_formula_structural   Li5O3
_chemical_formula_sum   'Li5 O3'
_cell_volume   92.76376030
_cell_formula_units_Z   1
loop_
 _symmetry_equiv_pos_site_id
 _symmetry_equiv_pos_as_xyz
  1  'x, y, z'
loop_
 _atom_site_type_symbol
 _atom_site_label
 _atom_site_symmetry_multiplicity
 _atom_site_fract_x
 _atom_site_fract_y
 _atom_site_fract_z
 _atom_site_occupancy
  Li  Li0  1  0.88751469  0.17032156  0.08610018  1
  Li  Li1  1  0.74113783  0.78986147  0.56995032  1
  Li  Li2  1  0.81359698  0.86654943  0.90917157  1
  Li  Li3  1  0.48178784  0.22583877  0.56369191  1
  Li  Li4  1  0.24383870  0.62550789  0.77604758  1
  O  O5  1  0.59820496  0.79429232  0.18790613  1
  O  O6  1  0.24612693  0.35789617  0.17682142  1
  O  O7  1  0.64447227  0.18667206  0.28363548  1
