# generated using pymatgen
data_Li6O
_symmetry_space_group_name_H-M   'P 1'
_cell_length_a   4.97430760
_cell_length_b   5.65570830
_cell_length_c   7.08957153
_cell_angle_alpha   62.49172699
_cell_angle_beta   50.70722777
_cell_angle_gamma   80.59003965
_symmetry_Int_Tables_number   1
_chemical_formula_structural   Li6O
_chemical_formula_sum   'Li6 O1'
_cell_volume   134.46956042
_cell_formula_units_Z   1
loop_
 _symmetry_equiv_pos_site_id
 _symmetry_equiv_pos_as_xyz
  1  'x, y, z'
loop_
 _atom_site_type_symbol
 _atom_site_label
 _atom_site_symmetry_multiplicity
 _atom_site_fract_x
 _atom_site_fract_y
 _atom_site_fract_z
 _atom_site_occupancy
  Li  Li0  1  0.50000000  -0.00000000  0.00000000  1
  Li  Li1  1  0.00000000  0.50000000  0.50000000  1
  Li  Li2  1  0.47906209  0.28804398  0.37447899  1
  Li  Li3  1  -0.47906209  -0.28804398  -0.37447899  1
  Li  Li4  1  0.65266813  0.63610612  0.78637811  1
  Li  Li5  1  0.34733187  0.36389388  0.21362189  1
  O  O6  1  0.00000000  0.00000000  0.50000000  1
