# generated using pymatgen
data_LiAl3PO3
_symmetry_space_group_name_H-M   'P 1'
_cell_length_a   4.53971505
_cell_length_b   3.30962541
_cell_length_c   5.23649286
_cell_angle_alpha   93.97512708
_cell_angle_beta   70.28050513
_cell_angle_gamma   81.91138288
_symmetry_Int_Tables_number   1
_chemical_formula_structural   LiAl3PO3
_chemical_formula_sum   'Li1 Al3 P1 O3'
_cell_volume   72.74817121
_cell_formula_units_Z   1
loop_
 _symmetry_equiv_pos_site_id
 _symmetry_equiv_pos_as_xyz
  1  'x, y, z'
loop_
 _atom_site_type_symbol
 _atom_site_label
 _atom_site_symmetry_multiplicity
 _atom_site_fract_x
 _atom_site_fract_y
 _atom_site_fract_z
 _atom_site_occupancy
  Al  Al0  1  0.90365528  0.69101264  0.06346321  1
  Al  Al1  1  0.34135609  0.26203269  0.69068529  1
  Al  Al2  1  0.50147686  0.69615075  0.68429273  1
  Li  Li3  1  0.15572149  0.79066496  0.90098457  1
  O  O4  1  0.21551256  0.75444645  0.32061416  1
  O  O5  1  0.21579867  0.31675645  0.09823549  1
  O  O6  1  0.73342723  0.09401628  0.82115797  1
  P  P7  1  0.02550627  0.25469293  0.27255130  1
