# generated using pymatgen
data_Li7S4
_symmetry_space_group_name_H-M   'P 1'
_cell_length_a   5.80635897
_cell_length_b   6.84896337
_cell_length_c   6.57994612
_cell_angle_alpha   73.16981914
_cell_angle_beta   95.16960366
_cell_angle_gamma   126.98249204
_symmetry_Int_Tables_number   1
_chemical_formula_structural   Li7S4
_chemical_formula_sum   'Li7 S4'
_cell_volume   198.85937641
_cell_formula_units_Z   1
loop_
 _symmetry_equiv_pos_site_id
 _symmetry_equiv_pos_as_xyz
  1  'x, y, z'
loop_
 _atom_site_type_symbol
 _atom_site_label
 _atom_site_symmetry_multiplicity
 _atom_site_fract_x
 _atom_site_fract_y
 _atom_site_fract_z
 _atom_site_occupancy
  Li  Li0  1  0.00000000  0.50000000  0.50000000  1
  Li  Li1  1  0.00000000  0.00000000  0.00000000  1
  Li  Li2  1  0.50000000  0.00000000  0.00000000  1
  Li  Li3  1  0.56487327  0.55314922  0.58983628  1
  Li  Li4  1  -0.56487327  -0.55314922  -0.58983628  1
  Li  Li5  1  0.77098264  0.19220842  0.39700850  1
  Li  Li6  1  0.22901736  0.80779158  0.60299150  1
  S  S7  1  0.00000000  0.50000000  0.00000000  1
  S  S8  1  0.04867800  0.80351538  0.70347061  1
  S  S9  1  0.95132200  0.19648462  0.29652939  1
  S  S10  1  0.50000000  0.50000000  0.00000000  1
