# generated using pymatgen
data_Li5PO3
_symmetry_space_group_name_H-M   'P 1'
_cell_length_a   4.33577069
_cell_length_b   6.44247331
_cell_length_c   5.92264571
_cell_angle_alpha   87.27732225
_cell_angle_beta   88.02745858
_cell_angle_gamma   116.14519744
_symmetry_Int_Tables_number   1
_chemical_formula_structural   Li5PO3
_chemical_formula_sum   'Li5 P1 O3'
_cell_volume   148.05966545
_cell_formula_units_Z   1
loop_
 _symmetry_equiv_pos_site_id
 _symmetry_equiv_pos_as_xyz
  1  'x, y, z'
loop_
 _atom_site_type_symbol
 _atom_site_label
 _atom_site_symmetry_multiplicity
 _atom_site_fract_x
 _atom_site_fract_y
 _atom_site_fract_z
 _atom_site_occupancy
  Li  Li0  1  0.00000000  0.50000000  0.50000000  1
  Li  Li1  1  0.50656025  0.70062893  0.35955893  1
  Li  Li2  1  -0.50656025  -0.70062893  -0.35955893  1
  Li  Li3  1  0.50000000  0.50000000  0.00000000  1
  Li  Li4  1  0.50000000  0.50000000  0.50000000  1
  O  O5  1  0.28815237  0.80564809  0.88956892  1
  O  O6  1  0.71184763  0.19435191  0.11043108  1
  O  O7  1  0.00000000  0.50000000  -0.00000000  1
  P  P8  1  0.50000000  0.00000000  0.50000000  1
