# generated using pymatgen
data_Li7O2
_symmetry_space_group_name_H-M   'P 1'
_cell_length_a   6.67654327
_cell_length_b   3.72833397
_cell_length_c   3.80361991
_cell_angle_alpha   93.49399770
_cell_angle_beta   82.60840227
_cell_angle_gamma   91.11508705
_symmetry_Int_Tables_number   1
_chemical_formula_structural   Li7O2
_chemical_formula_sum   'Li7 O2'
_cell_volume   93.71337698
_cell_formula_units_Z   1
loop_
 _symmetry_equiv_pos_site_id
 _symmetry_equiv_pos_as_xyz
  1  'x, y, z'
loop_
 _atom_site_type_symbol
 _atom_site_label
 _atom_site_symmetry_multiplicity
 _atom_site_fract_x
 _atom_site_fract_y
 _atom_site_fract_z
 _atom_site_occupancy
  Li  Li0  1  0.21288274  0.20255165  0.40579458  1
  Li  Li1  1  -0.21288274  -0.20255165  -0.40579458  1
  Li  Li2  1  0.50000000  0.00000000  0.50000000  1
  Li  Li3  1  0.00000000  0.00000000  0.00000000  1
  Li  Li4  1  0.50000000  0.50000000  0.50000000  1
  Li  Li5  1  0.39173782  0.62457460  0.24147864  1
  Li  Li6  1  0.60826218  0.37542540  0.75852136  1
  O  O7  1  0.00000000  0.50000000  0.50000000  1
  O  O8  1  0.00000000  0.50000000  0.00000000  1
