# generated using pymatgen
data_Li3Al2(S3O2)2
_symmetry_space_group_name_H-M   'P 1'
_cell_length_a   5.54487007
_cell_length_b   9.08903395
_cell_length_c   7.00173245
_cell_angle_alpha   103.54808894
_cell_angle_beta   87.82624672
_cell_angle_gamma   53.21852605
_symmetry_Int_Tables_number   1
_chemical_formula_structural   Li3Al2(S3O2)2
_chemical_formula_sum   'Li3 Al2 S6 O4'
_cell_volume   267.46585909
_cell_formula_units_Z   1
loop_
 _symmetry_equiv_pos_site_id
 _symmetry_equiv_pos_as_xyz
  1  'x, y, z'
loop_
 _atom_site_type_symbol
 _atom_site_label
 _atom_site_symmetry_multiplicity
 _atom_site_fract_x
 _atom_site_fract_y
 _atom_site_fract_z
 _atom_site_occupancy
  Al  Al0  1  0.04042625  0.78144327  0.37579201  1
  Al  Al1  1  0.88289908  0.55138199  0.48616166  1
  Li  Li2  1  0.93076149  0.51538468  0.23525731  1
  Li  Li3  1  0.11073812  0.24913476  0.57047919  1
  Li  Li4  1  0.22508596  0.89823999  0.80778232  1
  O  O5  1  0.04586685  0.30323276  0.83636081  1
  O  O6  1  0.13924787  0.12519199  0.90957063  1
  O  O7  1  0.52597440  0.32138684  0.59216956  1
  O  O8  1  0.15349136  0.46407609  0.69538041  1
  S  S9  1  0.69418014  0.75457179  0.72764599  1
  S  S10  1  0.84518635  0.81018422  0.18848298  1
  S  S11  1  0.03751961  0.89104402  0.03199041  1
  S  S12  1  0.62333825  0.15136502  0.65584457  1
  S  S13  1  0.19947416  0.17569308  0.37063568  1
  S  S14  1  0.27941554  0.28730766  0.39037373  1
