# generated using pymatgen
data_Li3P4O
_symmetry_space_group_name_H-M   'P 1'
_cell_length_a   7.47594542
_cell_length_b   4.75933542
_cell_length_c   5.86711919
_cell_angle_alpha   96.78742466
_cell_angle_beta   106.88774820
_cell_angle_gamma   125.14206698
_symmetry_Int_Tables_number   1
_chemical_formula_structural   Li3P4O
_chemical_formula_sum   'Li3 P4 O1'
_cell_volume   152.09031002
_cell_formula_units_Z   1
loop_
 _symmetry_equiv_pos_site_id
 _symmetry_equiv_pos_as_xyz
  1  'x, y, z'
loop_
 _atom_site_type_symbol
 _atom_site_label
 _atom_site_symmetry_multiplicity
 _atom_site_fract_x
 _atom_site_fract_y
 _atom_site_fract_z
 _atom_site_occupancy
  Li  Li0  1  0.00000000  0.50000000  0.50000000  1
  Li  Li1  1  0.50000000  0.50000000  0.00000000  1
  Li  Li2  1  0.00000000  0.50000000  -0.00000000  1
  O  O3  1  0.00000000  0.00000000  0.50000000  1
  P  P4  1  0.00000000  0.00000000  0.00000000  1
  P  P5  1  0.50000000  0.50000000  0.50000000  1
  P  P6  1  0.50000000  -0.00000000  0.50000000  1
  P  P7  1  0.50000000  -0.00000000  0.00000000  1
