# generated using pymatgen
data_Li2Zr
_symmetry_space_group_name_H-M   'P 1'
_cell_length_a   9.62274916
_cell_length_b   5.95840556
_cell_length_c   6.85365982
_cell_angle_alpha   104.62247398
_cell_angle_beta   54.36748962
_cell_angle_gamma   70.73810635
_symmetry_Int_Tables_number   1
_chemical_formula_structural   Li2Zr
_chemical_formula_sum   'Li8 Zr4'
_cell_volume   245.72146173
_cell_formula_units_Z   4
loop_
 _symmetry_equiv_pos_site_id
 _symmetry_equiv_pos_as_xyz
  1  'x, y, z'
loop_
 _atom_site_type_symbol
 _atom_site_label
 _atom_site_symmetry_multiplicity
 _atom_site_fract_x
 _atom_site_fract_y
 _atom_site_fract_z
 _atom_site_occupancy
  Li  Li0  1  0.69017645  0.91206296  0.52101984  1
  Li  Li1  1  0.39146754  0.14790884  0.06748682  1
  Li  Li2  1  0.32109197  0.35549851  0.03146504  1
  Li  Li3  1  0.22309480  0.03249937  0.55281161  1
  Li  Li4  1  0.75756001  0.51894184  0.03620903  1
  Li  Li5  1  0.38360693  0.38478237  0.58105148  1
  Li  Li6  1  0.69306973  0.06978800  0.35477344  1
  Li  Li7  1  0.49656725  0.68621956  0.08387961  1
  Zr  Zr8  1  0.90948305  0.65364816  0.96967913  1
  Zr  Zr9  1  0.05271924  0.20305029  0.54237600  1
  Zr  Zr10  1  0.96598150  0.77260030  0.72347381  1
  Zr  Zr11  1  0.57949632  0.96180717  0.23664674  1
