# generated using pymatgen
data_Li2PO3
_symmetry_space_group_name_H-M   'P 1'
_cell_length_a   3.84183790
_cell_length_b   4.07368455
_cell_length_c   4.85904099
_cell_angle_alpha   60.17973048
_cell_angle_beta   76.07743532
_cell_angle_gamma   88.45366775
_symmetry_Int_Tables_number   1
_chemical_formula_structural   Li2PO3
_chemical_formula_sum   'Li2 P1 O3'
_cell_volume   63.64962929
_cell_formula_units_Z   1
loop_
 _symmetry_equiv_pos_site_id
 _symmetry_equiv_pos_as_xyz
  1  'x, y, z'
loop_
 _atom_site_type_symbol
 _atom_site_label
 _atom_site_symmetry_multiplicity
 _atom_site_fract_x
 _atom_site_fract_y
 _atom_site_fract_z
 _atom_site_occupancy
  Li  Li0  1  0.71517618  0.23344332  0.21888617  1
  Li  Li1  1  -0.71517618  -0.23344332  -0.21888617  1
  O  O2  1  0.92354401  0.66668382  0.93244313  1
  O  O3  1  0.07645599  0.33331618  0.06755687  1
  O  O4  1  0.50000000  0.50000000  0.00000000  1
  P  P5  1  0.00000000  0.00000000  0.00000000  1
