# generated using pymatgen
data_Li7O9
_symmetry_space_group_name_H-M   'P 1'
_cell_length_a   9.84417040
_cell_length_b   4.79303340
_cell_length_c   6.78368406
_cell_angle_alpha   64.02137126
_cell_angle_beta   128.27549623
_cell_angle_gamma   116.57320704
_symmetry_Int_Tables_number   1
_chemical_formula_structural   Li7O9
_chemical_formula_sum   'Li7 O9'
_cell_volume   218.74721599
_cell_formula_units_Z   1
loop_
 _symmetry_equiv_pos_site_id
 _symmetry_equiv_pos_as_xyz
  1  'x, y, z'
loop_
 _atom_site_type_symbol
 _atom_site_label
 _atom_site_symmetry_multiplicity
 _atom_site_fract_x
 _atom_site_fract_y
 _atom_site_fract_z
 _atom_site_occupancy
  Li  Li0  1  0.71063982  0.56341353  0.00622394  1
  Li  Li1  1  0.21280318  0.99806815  0.68465133  1
  Li  Li2  1  0.86095571  0.84239245  0.46888917  1
  Li  Li3  1  0.21752222  0.30729875  0.81660012  1
  Li  Li4  1  0.51252603  0.16984007  0.72550693  1
  Li  Li5  1  0.28356931  0.89972685  0.22524732  1
  Li  Li6  1  0.82134742  0.16526363  0.49247461  1
  O  O7  1  0.70385075  0.88946412  0.89061458  1
  O  O8  1  0.34502163  0.95523520  0.45745191  1
  O  O9  1  0.99476405  0.80601668  0.10125002  1
  O  O10  1  0.72210492  0.40809533  0.80961582  1
  O  O11  1  0.87630239  0.57726877  0.60190174  1
  O  O12  1  0.16721627  0.57122255  0.53420416  1
  O  O13  1  0.49275356  0.17423495  0.85103843  1
  O  O14  1  0.04303991  0.78048016  0.77444964  1
  O  O15  1  0.32334362  0.91260005  0.05437149  1
