# generated using pymatgen
data_Li3O4
_symmetry_space_group_name_H-M   'P 1'
_cell_length_a   9.04559103
_cell_length_b   4.85923487
_cell_length_c   4.14101999
_cell_angle_alpha   90.00000000
_cell_angle_beta   114.29856696
_cell_angle_gamma   90.00000000
_symmetry_Int_Tables_number   1
_chemical_formula_structural   Li3O4
_chemical_formula_sum   'Li6 O8'
_cell_volume   165.89284561
_cell_formula_units_Z   2
loop_
 _symmetry_equiv_pos_site_id
 _symmetry_equiv_pos_as_xyz
  1  'x, y, z'
loop_
 _atom_site_type_symbol
 _atom_site_label
 _atom_site_symmetry_multiplicity
 _atom_site_fract_x
 _atom_site_fract_y
 _atom_site_fract_z
 _atom_site_occupancy
  Li  Li0  1  0.29989783  0.10485753  0.48001904  1
  Li  Li1  1  -0.29989783  0.60485753  0.01998096  1
  Li  Li2  1  -0.29989783  -0.10485753  -0.48001904  1
  Li  Li3  1  0.29989783  0.39514247  0.98001904  1
  Li  Li4  1  0.00000000  0.00000000  0.50000000  1
  Li  Li5  1  0.00000000  0.50000000  0.00000000  1
  O  O6  1  0.49420237  0.04672252  0.24050385  1
  O  O7  1  0.50579763  0.54672252  0.25949615  1
  O  O8  1  0.50579763  0.95327748  0.75949615  1
  O  O9  1  0.49420237  0.45327748  0.74050385  1
  O  O10  1  0.50000000  0.00000000  0.00000000  1
  O  O11  1  0.50000000  0.50000000  0.50000000  1
  O  O12  1  0.00000000  0.00000000  0.00000000  1
  O  O13  1  0.00000000  0.50000000  0.50000000  1
