# generated using pymatgen
data_Li8O3
_symmetry_space_group_name_H-M   'P 1'
_cell_length_a   4.10798000
_cell_length_b   5.96218467
_cell_length_c   7.05449546
_cell_angle_alpha   91.10533712
_cell_angle_beta   72.78456978
_cell_angle_gamma   47.47367600
_symmetry_Int_Tables_number   1
_chemical_formula_structural   Li8O3
_chemical_formula_sum   'Li8 O3'
_cell_volume   115.57512373
_cell_formula_units_Z   1
loop_
 _symmetry_equiv_pos_site_id
 _symmetry_equiv_pos_as_xyz
  1  'x, y, z'
loop_
 _atom_site_type_symbol
 _atom_site_label
 _atom_site_symmetry_multiplicity
 _atom_site_fract_x
 _atom_site_fract_y
 _atom_site_fract_z
 _atom_site_occupancy
  Li  Li0  1  0.50000000  0.50000000  0.00000000  1
  Li  Li1  1  0.00000000  0.00000000  0.00000000  1
  Li  Li2  1  0.99400285  0.59443884  0.31863683  1
  Li  Li3  1  -0.99400285  -0.59443884  -0.31863683  1
  Li  Li4  1  0.00000000  0.50000000  0.50000000  1
  Li  Li5  1  0.04749257  0.75953625  0.69390924  1
  Li  Li6  1  0.95250743  0.24046375  0.30609076  1
  Li  Li7  1  0.00000000  0.50000000  0.00000000  1
  O  O8  1  0.52802924  0.70126319  0.53975180  1
  O  O9  1  0.47197076  0.29873681  0.46024820  1
  O  O10  1  0.50000000  0.00000000  0.50000000  1
