# generated using pymatgen
data_Li2O5
_symmetry_space_group_name_H-M   'P 1'
_cell_length_a   7.13856903
_cell_length_b   6.75547669
_cell_length_c   5.27439902
_cell_angle_alpha   95.97469925
_cell_angle_beta   93.14466383
_cell_angle_gamma   49.36712530
_symmetry_Int_Tables_number   1
_chemical_formula_structural   Li2O5
_chemical_formula_sum   'Li4 O10'
_cell_volume   191.95268493
_cell_formula_units_Z   2
loop_
 _symmetry_equiv_pos_site_id
 _symmetry_equiv_pos_as_xyz
  1  'x, y, z'
loop_
 _atom_site_type_symbol
 _atom_site_label
 _atom_site_symmetry_multiplicity
 _atom_site_fract_x
 _atom_site_fract_y
 _atom_site_fract_z
 _atom_site_occupancy
  Li  Li0  1  0.50000000  0.50000000  0.00000000  1
  Li  Li1  1  0.90614659  0.27946244  0.82633132  1
  Li  Li2  1  -0.90614659  -0.27946244  -0.82633132  1
  Li  Li3  1  0.00000000  0.00000000  0.50000000  1
  O  O4  1  0.50585427  0.68472067  0.57930197  1
  O  O5  1  0.49414573  0.31527933  0.42069803  1
  O  O6  1  0.32579367  0.48269214  0.28589866  1
  O  O7  1  0.67420633  0.51730786  0.71410134  1
  O  O8  1  0.37089841  0.19631543  0.16797448  1
  O  O9  1  0.62910159  0.80368457  0.83202552  1
  O  O10  1  0.35985709  0.69649622  0.97477176  1
  O  O11  1  0.64014291  0.30350378  0.02522824  1
  O  O12  1  0.77911093  0.70336516  0.22091132  1
  O  O13  1  0.22088907  0.29663484  0.77908868  1
