# generated using pymatgen
data_LiLa3
_symmetry_space_group_name_H-M   'P 1'
_cell_length_a   4.58256623
_cell_length_b   6.60869715
_cell_length_c   5.85269675
_cell_angle_alpha   79.84549030
_cell_angle_beta   90.61663292
_cell_angle_gamma   56.75692334
_symmetry_Int_Tables_number   1
_chemical_formula_structural   LiLa3
_chemical_formula_sum   'Li1 La3'
_cell_volume   144.67218011
_cell_formula_units_Z   1
loop_
 _symmetry_equiv_pos_site_id
 _symmetry_equiv_pos_as_xyz
  1  'x, y, z'
loop_
 _atom_site_type_symbol
 _atom_site_label
 _atom_site_symmetry_multiplicity
 _atom_site_fract_x
 _atom_site_fract_y
 _atom_site_fract_z
 _atom_site_occupancy
  La  La0  1  0.89230084  0.31329013  0.73549476  1
  La  La1  1  0.78341536  0.68553168  0.05457473  1
  La  La2  1  0.86770766  0.30682502  0.36799177  1
  Li  Li3  1  0.61771604  0.24562737  0.59810531  1
