# generated using pymatgen
data_Li3O
_symmetry_space_group_name_H-M   'P 1'
_cell_length_a   5.27814038
_cell_length_b   6.50014269
_cell_length_c   5.13442747
_cell_angle_alpha   73.70262346
_cell_angle_beta   70.98000362
_cell_angle_gamma   93.25840362
_symmetry_Int_Tables_number   1
_chemical_formula_structural   Li3O
_chemical_formula_sum   'Li6 O2'
_cell_volume   157.69733832
_cell_formula_units_Z   2
loop_
 _symmetry_equiv_pos_site_id
 _symmetry_equiv_pos_as_xyz
  1  'x, y, z'
loop_
 _atom_site_type_symbol
 _atom_site_label
 _atom_site_symmetry_multiplicity
 _atom_site_fract_x
 _atom_site_fract_y
 _atom_site_fract_z
 _atom_site_occupancy
  Li  Li0  1  0.03247360  0.36798215  0.04162420  1
  Li  Li1  1  0.52394459  0.39600076  0.05956067  1
  Li  Li2  1  0.35206533  0.78348764  0.73074718  1
  Li  Li3  1  0.72973129  0.91155649  0.97306234  1
  Li  Li4  1  0.24639384  0.01435986  0.68091027  1
  Li  Li5  1  0.68793325  0.69634027  0.88206062  1
  O  O6  1  0.86590559  0.08919541  0.22261013  1
  O  O7  1  0.86192422  0.60643837  0.23802441  1
