# generated using pymatgen
data_Li4O3
_symmetry_space_group_name_H-M   'P 1'
_cell_length_a   3.53463193
_cell_length_b   8.69458315
_cell_length_c   4.11558038
_cell_angle_alpha   111.18827968
_cell_angle_beta   116.58414538
_cell_angle_gamma   79.39611840
_symmetry_Int_Tables_number   1
_chemical_formula_structural   Li4O3
_chemical_formula_sum   'Li4 O3'
_cell_volume   105.42482374
_cell_formula_units_Z   1
loop_
 _symmetry_equiv_pos_site_id
 _symmetry_equiv_pos_as_xyz
  1  'x, y, z'
loop_
 _atom_site_type_symbol
 _atom_site_label
 _atom_site_symmetry_multiplicity
 _atom_site_fract_x
 _atom_site_fract_y
 _atom_site_fract_z
 _atom_site_occupancy
  Li  Li0  1  0.29500279  0.20460452  0.32111131  1
  Li  Li1  1  -0.29500279  -0.20460452  -0.32111131  1
  Li  Li2  1  0.60434174  0.63204159  0.43777698  1
  Li  Li3  1  0.39565826  0.36795841  0.56222302  1
  O  O4  1  0.50000000  0.50000000  0.00000000  1
  O  O5  1  0.00000000  0.00000000  0.00000000  1
  O  O6  1  0.00000000  0.50000000  0.00000000  1
