# generated using pymatgen
data_Li3Al
_symmetry_space_group_name_H-M   'P 1'
_cell_length_a   3.30832700
_cell_length_b   11.42726794
_cell_length_c   5.06005600
_cell_angle_alpha   59.81584605
_cell_angle_beta   81.36074873
_cell_angle_gamma   96.00680772
_symmetry_Int_Tables_number   1
_chemical_formula_structural   Li3Al
_chemical_formula_sum   'Li6 Al2'
_cell_volume   159.80840933
_cell_formula_units_Z   2
loop_
 _symmetry_equiv_pos_site_id
 _symmetry_equiv_pos_as_xyz
  1  'x, y, z'
loop_
 _atom_site_type_symbol
 _atom_site_label
 _atom_site_symmetry_multiplicity
 _atom_site_fract_x
 _atom_site_fract_y
 _atom_site_fract_z
 _atom_site_occupancy
  Al  Al0  1  0.67266210  0.97181318  0.36431364  1
  Al  Al1  1  0.32733790  0.02818682  0.63568636  1
  Li  Li2  1  0.50000000  0.00000000  0.00000000  1
  Li  Li3  1  0.14509143  0.34776112  0.34793026  1
  Li  Li4  1  -0.14509143  -0.34776112  -0.34793026  1
  Li  Li5  1  0.61622744  0.33956599  0.76853689  1
  Li  Li6  1  0.38377256  0.66043401  0.23146311  1
  Li  Li7  1  0.00000000  0.00000000  0.00000000  1
