# generated using pymatgen
data_Li2S2O
_symmetry_space_group_name_H-M   'P 1'
_cell_length_a   5.87265488
_cell_length_b   5.68238090
_cell_length_c   7.55304213
_cell_angle_alpha   119.58000238
_cell_angle_beta   81.60136964
_cell_angle_gamma   87.06256504
_symmetry_Int_Tables_number   1
_chemical_formula_structural   Li2S2O
_chemical_formula_sum   'Li4 S4 O2'
_cell_volume   214.60872238
_cell_formula_units_Z   2
loop_
 _symmetry_equiv_pos_site_id
 _symmetry_equiv_pos_as_xyz
  1  'x, y, z'
loop_
 _atom_site_type_symbol
 _atom_site_label
 _atom_site_symmetry_multiplicity
 _atom_site_fract_x
 _atom_site_fract_y
 _atom_site_fract_z
 _atom_site_occupancy
  Li  Li0  1  0.50000000  0.00000000  0.00000000  1
  Li  Li1  1  0.00000000  0.50000000  0.00000000  1
  Li  Li2  1  0.51195770  0.17446897  0.24941625  1
  Li  Li3  1  -0.51195770  -0.17446897  -0.24941625  1
  O  O4  1  0.31873722  0.65385996  0.88780996  1
  O  O5  1  0.68126278  0.34614004  0.11219004  1
  S  S6  1  0.14304631  0.41686114  0.30884292  1
  S  S7  1  0.85695369  0.58313886  0.69115708  1
  S  S8  1  0.00000000  0.50000000  0.50000000  1
  S  S9  1  0.50000000  0.00000000  0.50000000  1
