# generated using pymatgen
data_Li7O4
_symmetry_space_group_name_H-M   'P 1'
_cell_length_a   9.36559938
_cell_length_b   5.99429115
_cell_length_c   4.25040550
_cell_angle_alpha   70.97366254
_cell_angle_beta   70.48785639
_cell_angle_gamma   105.23800318
_symmetry_Int_Tables_number   1
_chemical_formula_structural   Li7O4
_chemical_formula_sum   'Li7 O4'
_cell_volume   193.24329690
_cell_formula_units_Z   1
loop_
 _symmetry_equiv_pos_site_id
 _symmetry_equiv_pos_as_xyz
  1  'x, y, z'
loop_
 _atom_site_type_symbol
 _atom_site_label
 _atom_site_symmetry_multiplicity
 _atom_site_fract_x
 _atom_site_fract_y
 _atom_site_fract_z
 _atom_site_occupancy
  Li  Li0  1  0.50000000  0.00000000  0.00000000  1
  Li  Li1  1  0.50000000  0.50000000  -0.00000000  1
  Li  Li2  1  0.00000000  0.00000000  0.50000000  1
  Li  Li3  1  0.14072096  0.83379089  0.24867164  1
  Li  Li4  1  -0.14072096  -0.83379089  -0.24867164  1
  Li  Li5  1  0.40431373  0.74071723  0.82558207  1
  Li  Li6  1  0.59568627  0.25928277  0.17441793  1
  O  O7  1  0.00000000  0.50000000  0.50000000  1
  O  O8  1  0.99084499  0.82344508  0.97958402  1
  O  O9  1  0.00915501  0.17655492  0.02041598  1
  O  O10  1  0.00000000  0.50000000  0.00000000  1
