# generated using pymatgen
data_Li2O2
_symmetry_space_group_name_H-M   'P 1'
_cell_length_a   11.00966465
_cell_length_b   3.37747119
_cell_length_c   2.04840064
_cell_angle_alpha   84.01588565
_cell_angle_beta   111.21126988
_cell_angle_gamma   74.19345225
_symmetry_Int_Tables_number   1
_chemical_formula_structural   Li2O2
_chemical_formula_sum   'Li2 O2'
_cell_volume   66.55486389
_cell_formula_units_Z   1
loop_
 _symmetry_equiv_pos_site_id
 _symmetry_equiv_pos_as_xyz
  1  'x, y, z'
loop_
 _atom_site_type_symbol
 _atom_site_label
 _atom_site_symmetry_multiplicity
 _atom_site_fract_x
 _atom_site_fract_y
 _atom_site_fract_z
 _atom_site_occupancy
  Li  Li0  1  0.50000000  0.50000000  0.00000000  1
  Li  Li1  1  0.00000000  0.50000000  0.50000000  1
  O  O2  1  0.99132255  0.19847141  0.43497174  1
  O  O3  1  -0.99132255  -0.19847141  -0.43497174  1
