# generated using pymatgen
data_LiS7
_symmetry_space_group_name_H-M   'P 1'
_cell_length_a   7.94533237
_cell_length_b   3.94412544
_cell_length_c   4.99558330
_cell_angle_alpha   83.69012459
_cell_angle_beta   81.04155502
_cell_angle_gamma   84.27388950
_symmetry_Int_Tables_number   1
_chemical_formula_structural   LiS7
_chemical_formula_sum   'Li1 S7'
_cell_volume   153.15639907
_cell_formula_units_Z   1
loop_
 _symmetry_equiv_pos_site_id
 _symmetry_equiv_pos_as_xyz
  1  'x, y, z'
loop_
 _atom_site_type_symbol
 _atom_site_label
 _atom_site_symmetry_multiplicity
 _atom_site_fract_x
 _atom_site_fract_y
 _atom_site_fract_z
 _atom_site_occupancy
  Li  Li0  1  0.50000000  0.00000000  0.50000000  1
  S  S1  1  0.00000000  0.00000000  0.00000000  1
  S  S2  1  0.02227939  0.73932529  0.82176412  1
  S  S3  1  -0.02227939  -0.73932529  -0.82176412  1
  S  S4  1  0.53059225  0.44491621  0.61208521  1
  S  S5  1  0.46940775  0.55508379  0.38791479  1
  S  S6  1  0.00000000  0.50000000  0.50000000  1
  S  S7  1  0.00000000  0.00000000  0.50000000  1
