# generated using pymatgen
data_Li2La3O3
_symmetry_space_group_name_H-M   'P 1'
_cell_length_a   7.44629418
_cell_length_b   8.77169149
_cell_length_c   4.23198529
_cell_angle_alpha   45.48006625
_cell_angle_beta   110.94438626
_cell_angle_gamma   110.07289744
_symmetry_Int_Tables_number   1
_chemical_formula_structural   Li2La3O3
_chemical_formula_sum   'Li2 La3 O3'
_cell_volume   182.27882206
_cell_formula_units_Z   1
loop_
 _symmetry_equiv_pos_site_id
 _symmetry_equiv_pos_as_xyz
  1  'x, y, z'
loop_
 _atom_site_type_symbol
 _atom_site_label
 _atom_site_symmetry_multiplicity
 _atom_site_fract_x
 _atom_site_fract_y
 _atom_site_fract_z
 _atom_site_occupancy
  La  La0  1  0.59524578  0.28487945  0.90401281  1
  La  La1  1  0.27974369  0.37028009  0.19965635  1
  La  La2  1  0.83434252  0.71471418  0.72652888  1
  Li  Li3  1  0.61399028  0.58042201  0.25591521  1
  Li  Li4  1  0.08985158  0.80121376  0.42551065  1
  O  O5  1  0.62810624  0.88582068  0.48445723  1
  O  O6  1  0.96305902  0.09563977  0.87214718  1
  O  O7  1  0.30700810  0.87066253  0.41947901  1
