# generated using pymatgen
data_Li3O2
_symmetry_space_group_name_H-M   'P 1'
_cell_length_a   5.13325822
_cell_length_b   3.93934979
_cell_length_c   6.47441338
_cell_angle_alpha   90.00000000
_cell_angle_beta   95.55745597
_cell_angle_gamma   90.00000000
_symmetry_Int_Tables_number   1
_chemical_formula_structural   Li3O2
_chemical_formula_sum   'Li6 O4'
_cell_volume   130.30824765
_cell_formula_units_Z   2
loop_
 _symmetry_equiv_pos_site_id
 _symmetry_equiv_pos_as_xyz
  1  'x, y, z'
loop_
 _atom_site_type_symbol
 _atom_site_label
 _atom_site_symmetry_multiplicity
 _atom_site_fract_x
 _atom_site_fract_y
 _atom_site_fract_z
 _atom_site_occupancy
  Li  Li0  1  0.50000000  -0.00000000  0.50000000  1
  Li  Li1  1  0.50000000  0.50000000  -0.00000000  1
  Li  Li2  1  0.76848709  0.93702149  0.41006036  1
  Li  Li3  1  -0.76848709  1.43702149  0.08993964  1
  Li  Li4  1  -0.76848709  -0.93702149  -0.41006036  1
  Li  Li5  1  0.76848709  -0.43702149  0.91006036  1
  O  O6  1  0.96080958  0.48130629  0.62198250  1
  O  O7  1  0.03919042  0.98130629  0.87801750  1
  O  O8  1  0.03919042  0.51869371  0.37801750  1
  O  O9  1  0.96080958  0.01869371  0.12198250  1
