# generated using pymatgen
data_Li2S3
_symmetry_space_group_name_H-M   'P 1'
_cell_length_a   5.28360366
_cell_length_b   3.95464192
_cell_length_c   5.31900965
_cell_angle_alpha   75.81355195
_cell_angle_beta   135.01689474
_cell_angle_gamma   88.74994197
_symmetry_Int_Tables_number   1
_chemical_formula_structural   Li2S3
_chemical_formula_sum   'Li2 S3'
_cell_volume   73.01467178
_cell_formula_units_Z   1
loop_
 _symmetry_equiv_pos_site_id
 _symmetry_equiv_pos_as_xyz
  1  'x, y, z'
loop_
 _atom_site_type_symbol
 _atom_site_label
 _atom_site_symmetry_multiplicity
 _atom_site_fract_x
 _atom_site_fract_y
 _atom_site_fract_z
 _atom_site_occupancy
  Li  Li0  1  0.15026444  0.42934798  0.28500406  1
  Li  Li1  1  0.30635564  0.15332433  0.00527978  1
  S  S2  1  0.47496185  0.70656832  0.83233401  1
  S  S3  1  0.86451035  0.73789806  0.15745682  1
  S  S4  1  0.40672948  0.11606592  0.69434269  1
