# generated using pymatgen
data_Li3O2
_symmetry_space_group_name_H-M   'P 1'
_cell_length_a   8.92941122
_cell_length_b   4.94820792
_cell_length_c   4.03089410
_cell_angle_alpha   74.79080239
_cell_angle_beta   70.27636422
_cell_angle_gamma   100.03462741
_symmetry_Int_Tables_number   1
_chemical_formula_structural   Li3O2
_chemical_formula_sum   'Li6 O4'
_cell_volume   154.86452185
_cell_formula_units_Z   2
loop_
 _symmetry_equiv_pos_site_id
 _symmetry_equiv_pos_as_xyz
  1  'x, y, z'
loop_
 _atom_site_type_symbol
 _atom_site_label
 _atom_site_symmetry_multiplicity
 _atom_site_fract_x
 _atom_site_fract_y
 _atom_site_fract_z
 _atom_site_occupancy
  Li  Li0  1  0.50000000  0.50000000  0.00000000  1
  Li  Li1  1  0.04050689  0.38217121  0.24174650  1
  Li  Li2  1  -0.04050689  -0.38217121  -0.24174650  1
  Li  Li3  1  0.31185255  0.08261283  0.76548784  1
  Li  Li4  1  0.68814745  0.91738717  0.23451216  1
  Li  Li5  1  0.00000000  0.00000000  0.50000000  1
  O  O6  1  0.27939612  0.47069357  0.55935349  1
  O  O7  1  0.72060388  0.52930643  0.44064651  1
  O  O8  1  0.34395638  0.82686612  0.38814547  1
  O  O9  1  0.65604362  0.17313388  0.61185453  1
