# generated using pymatgen
data_Li6S5O
_symmetry_space_group_name_H-M   'P 1'
_cell_length_a   8.42405212
_cell_length_b   3.75787936
_cell_length_c   4.92905376
_cell_angle_alpha   82.86329227
_cell_angle_beta   90.11257662
_cell_angle_gamma   92.01601459
_symmetry_Int_Tables_number   1
_chemical_formula_structural   Li6S5O
_chemical_formula_sum   'Li6 S5 O1'
_cell_volume   154.73176533
_cell_formula_units_Z   1
loop_
 _symmetry_equiv_pos_site_id
 _symmetry_equiv_pos_as_xyz
  1  'x, y, z'
loop_
 _atom_site_type_symbol
 _atom_site_label
 _atom_site_symmetry_multiplicity
 _atom_site_fract_x
 _atom_site_fract_y
 _atom_site_fract_z
 _atom_site_occupancy
  Li  Li0  1  0.05153760  0.25839448  0.76255437  1
  Li  Li1  1  0.33595254  0.98593621  0.86864298  1
  Li  Li2  1  0.69473350  0.80119488  0.39787083  1
  Li  Li3  1  0.07590284  0.51222187  0.06936605  1
  Li  Li4  1  0.51838372  0.68208887  0.86044311  1
  Li  Li5  1  0.16545893  0.41838871  0.27524249  1
  O  O6  1  0.54508444  0.99686566  0.90633435  1
  S  S7  1  0.71559383  0.45467815  0.17648083  1
  S  S8  1  0.04407593  0.05831000  0.47257586  1
  S  S9  1  0.91268613  0.93607371  0.39955407  1
  S  S10  1  0.21567809  0.89739572  0.32333976  1
  S  S11  1  0.15753136  0.67572749  0.65493315  1
