# generated using pymatgen
data_Li2O2
_symmetry_space_group_name_H-M   'P 1'
_cell_length_a   7.35832211
_cell_length_b   6.39626285
_cell_length_c   6.72078455
_cell_angle_alpha   59.29100883
_cell_angle_beta   104.33794256
_cell_angle_gamma   78.99850365
_symmetry_Int_Tables_number   1
_chemical_formula_structural   Li2O2
_chemical_formula_sum   'Li7 O7'
_cell_volume   243.62645529
_cell_formula_units_Z   3
loop_
 _symmetry_equiv_pos_site_id
 _symmetry_equiv_pos_as_xyz
  1  'x, y, z'
loop_
 _atom_site_type_symbol
 _atom_site_label
 _atom_site_symmetry_multiplicity
 _atom_site_fract_x
 _atom_site_fract_y
 _atom_site_fract_z
 _atom_site_occupancy
  Li  Li0  1  0.72387380  0.10999780  0.27968654  1
  Li  Li1  1  0.48765902  0.40844583  0.01250223  1
  Li  Li2  1  0.25324688  0.86942601  0.36175672  1
  Li  Li3  1  0.39330757  0.78515603  0.15099325  1
  Li  Li4  1  0.91014091  0.67770475  0.59969373  1
  Li  Li5  1  0.41416575  0.97124770  0.48274405  1
  Li  Li6  1  0.45102286  0.04979885  0.11184881  1
  O  O7  1  0.69518080  0.16531028  0.45004099  1
  O  O8  1  0.27710916  0.04422056  0.80570347  1
  O  O9  1  0.10100174  0.92308129  0.48764109  1
  O  O10  1  0.94100689  0.20639076  0.58367574  1
  O  O11  1  0.09622520  0.29837473  0.56004161  1
  O  O12  1  0.29804129  0.07453591  0.14420078  1
  O  O13  1  0.26053574  0.66216329  0.54071693  1
