# generated using pymatgen
data_LiCl3
_symmetry_space_group_name_H-M   'P 1'
_cell_length_a   4.65468155
_cell_length_b   6.25819266
_cell_length_c   2.84057796
_cell_angle_alpha   117.49712387
_cell_angle_beta   114.08135683
_cell_angle_gamma   72.91435122
_symmetry_Int_Tables_number   1
_chemical_formula_structural   LiCl3
_chemical_formula_sum   'Li1 Cl3'
_cell_volume   66.44012621
_cell_formula_units_Z   1
loop_
 _symmetry_equiv_pos_site_id
 _symmetry_equiv_pos_as_xyz
  1  'x, y, z'
loop_
 _atom_site_type_symbol
 _atom_site_label
 _atom_site_symmetry_multiplicity
 _atom_site_fract_x
 _atom_site_fract_y
 _atom_site_fract_z
 _atom_site_occupancy
  Cl  Cl0  1  0.87772413  0.73867713  0.17406848  1
  Cl  Cl1  1  0.04805334  0.82008132  0.01254863  1
  Cl  Cl2  1  0.00223869  0.57701326  0.22145780  1
  Li  Li3  1  0.46239204  0.83014922  0.35910388  1
