# generated using pymatgen
data_Li7O
_symmetry_space_group_name_H-M   'P 1'
_cell_length_a   5.22310240
_cell_length_b   7.55797220
_cell_length_c   5.32026480
_cell_angle_alpha   77.06767894
_cell_angle_beta   108.36140003
_cell_angle_gamma   75.18153789
_symmetry_Int_Tables_number   1
_chemical_formula_structural   Li7O
_chemical_formula_sum   'Li7 O1'
_cell_volume   181.78944680
_cell_formula_units_Z   1
loop_
 _symmetry_equiv_pos_site_id
 _symmetry_equiv_pos_as_xyz
  1  'x, y, z'
loop_
 _atom_site_type_symbol
 _atom_site_label
 _atom_site_symmetry_multiplicity
 _atom_site_fract_x
 _atom_site_fract_y
 _atom_site_fract_z
 _atom_site_occupancy
  Li  Li0  1  0.97477651  0.42116094  0.68395369  1
  Li  Li1  1  0.79895431  0.61512969  0.96586865  1
  Li  Li2  1  0.31205193  0.60706495  0.46004669  1
  Li  Li3  1  0.82542390  0.96370761  0.59367280  1
  Li  Li4  1  0.03299854  0.23150836  0.49749148  1
  Li  Li5  1  0.44888406  0.15781615  0.81940046  1
  Li  Li6  1  0.64427313  0.90031961  0.73274435  1
  O  O7  1  0.00636556  0.98921274  0.01485884  1
