# generated using pymatgen
data_Li7O4
_symmetry_space_group_name_H-M   'P 1'
_cell_length_a   8.61299628
_cell_length_b   3.42565562
_cell_length_c   7.42771860
_cell_angle_alpha   89.56405087
_cell_angle_beta   105.50356523
_cell_angle_gamma   63.32932068
_symmetry_Int_Tables_number   1
_chemical_formula_structural   Li7O4
_chemical_formula_sum   'Li7 O4'
_cell_volume   186.62921130
_cell_formula_units_Z   1
loop_
 _symmetry_equiv_pos_site_id
 _symmetry_equiv_pos_as_xyz
  1  'x, y, z'
loop_
 _atom_site_type_symbol
 _atom_site_label
 _atom_site_symmetry_multiplicity
 _atom_site_fract_x
 _atom_site_fract_y
 _atom_site_fract_z
 _atom_site_occupancy
  Li  Li0  1  0.50000000  0.50000000  0.00000000  1
  Li  Li1  1  0.84902387  0.71764581  0.60530622  1
  Li  Li2  1  -0.84902387  -0.71764581  -0.60530622  1
  Li  Li3  1  0.18191146  0.25528890  0.73140761  1
  Li  Li4  1  0.81808854  0.74471110  0.26859239  1
  Li  Li5  1  0.50000000  0.00000000  0.00000000  1
  Li  Li6  1  0.50000000  0.00000000  0.50000000  1
  O  O7  1  0.00000000  0.50000000  -0.00000000  1
  O  O8  1  0.58302976  0.91110947  0.35316186  1
  O  O9  1  0.41697024  0.08889053  0.64683814  1
  O  O10  1  0.50000000  0.50000000  0.50000000  1
