# generated using pymatgen
data_Li3O
_symmetry_space_group_name_H-M   'P 1'
_cell_length_a   5.51578568
_cell_length_b   3.33799295
_cell_length_c   5.18925153
_cell_angle_alpha   96.96281674
_cell_angle_beta   61.94596762
_cell_angle_gamma   99.41847448
_symmetry_Int_Tables_number   1
_chemical_formula_structural   Li3O
_chemical_formula_sum   'Li3 O1'
_cell_volume   83.07265122
_cell_formula_units_Z   1
loop_
 _symmetry_equiv_pos_site_id
 _symmetry_equiv_pos_as_xyz
  1  'x, y, z'
loop_
 _atom_site_type_symbol
 _atom_site_label
 _atom_site_symmetry_multiplicity
 _atom_site_fract_x
 _atom_site_fract_y
 _atom_site_fract_z
 _atom_site_occupancy
  Li  Li0  1  0.69886291  0.19052900  0.70466707  1
  Li  Li1  1  -0.69886291  -0.19052900  -0.70466707  1
  Li  Li2  1  0.50000000  -0.00000000  0.00000000  1
  O  O3  1  0.50000000  0.50000000  0.50000000  1
