# generated using pymatgen
data_LiO3
_symmetry_space_group_name_H-M   'P 1'
_cell_length_a   3.22879084
_cell_length_b   3.63167135
_cell_length_c   3.47867968
_cell_angle_alpha   90.34079187
_cell_angle_beta   100.14641182
_cell_angle_gamma   120.85462994
_symmetry_Int_Tables_number   1
_chemical_formula_structural   LiO3
_chemical_formula_sum   'Li1 O3'
_cell_volume   34.24544209
_cell_formula_units_Z   1
loop_
 _symmetry_equiv_pos_site_id
 _symmetry_equiv_pos_as_xyz
  1  'x, y, z'
loop_
 _atom_site_type_symbol
 _atom_site_label
 _atom_site_symmetry_multiplicity
 _atom_site_fract_x
 _atom_site_fract_y
 _atom_site_fract_z
 _atom_site_occupancy
  Li  Li0  1  0.32826440  0.05797818  0.11328680  1
  O  O1  1  0.25686955  0.80841206  0.76481971  1
  O  O2  1  0.73322860  0.22901767  0.36784683  1
  O  O3  1  0.58678233  0.79574359  0.34693796  1
