# generated using pymatgen
data_Li3Al3O5
_symmetry_space_group_name_H-M   'P 1'
_cell_length_a   5.05963641
_cell_length_b   2.63886393
_cell_length_c   11.47141969
_cell_angle_alpha   96.82763765
_cell_angle_beta   85.22114779
_cell_angle_gamma   103.18755011
_symmetry_Int_Tables_number   1
_chemical_formula_structural   Li3Al3O5
_chemical_formula_sum   'Li3 Al3 O5'
_cell_volume   147.81587444
_cell_formula_units_Z   1
loop_
 _symmetry_equiv_pos_site_id
 _symmetry_equiv_pos_as_xyz
  1  'x, y, z'
loop_
 _atom_site_type_symbol
 _atom_site_label
 _atom_site_symmetry_multiplicity
 _atom_site_fract_x
 _atom_site_fract_y
 _atom_site_fract_z
 _atom_site_occupancy
  Al  Al0  1  0.26849286  0.51633190  0.65083768  1
  Al  Al1  1  -0.26849286  -0.51633190  -0.65083768  1
  Al  Al2  1  0.00000000  0.00000000  0.00000000  1
  Li  Li3  1  0.50000000  -0.00000000  0.50000000  1
  Li  Li4  1  0.39094108  0.49996291  0.06828174  1
  Li  Li5  1  0.60905892  0.50003709  0.93171826  1
  O  O6  1  0.24012606  0.14958164  0.82982275  1
  O  O7  1  0.75987394  0.85041836  0.17017725  1
  O  O8  1  0.15371801  0.39924570  0.38720870  1
  O  O9  1  0.84628199  0.60075430  0.61279130  1
  O  O10  1  0.00000000  0.50000000  0.50000000  1
