# generated using pymatgen
data_Li3S8O7
_symmetry_space_group_name_H-M   'P 1'
_cell_length_a   5.43215622
_cell_length_b   7.80328632
_cell_length_c   6.53794539
_cell_angle_alpha   98.77613489
_cell_angle_beta   101.76634901
_cell_angle_gamma   77.89193596
_symmetry_Int_Tables_number   1
_chemical_formula_structural   Li3S8O7
_chemical_formula_sum   'Li3 S8 O7'
_cell_volume   263.52474736
_cell_formula_units_Z   1
loop_
 _symmetry_equiv_pos_site_id
 _symmetry_equiv_pos_as_xyz
  1  'x, y, z'
loop_
 _atom_site_type_symbol
 _atom_site_label
 _atom_site_symmetry_multiplicity
 _atom_site_fract_x
 _atom_site_fract_y
 _atom_site_fract_z
 _atom_site_occupancy
  Li  Li0  1  0.76869749  0.11399030  0.50298638  1
  Li  Li1  1  0.61198781  0.66728921  0.81776234  1
  Li  Li2  1  0.09531445  0.99203779  0.33850990  1
  O  O3  1  0.23857337  0.33408878  0.00073034  1
  O  O4  1  0.23605328  0.02233600  0.14124653  1
  O  O5  1  0.26960688  0.49396194  0.96949003  1
  O  O6  1  0.80042104  0.79446955  0.23607150  1
  O  O7  1  0.95895271  0.85686784  0.96301084  1
  O  O8  1  0.92464581  0.23624408  0.55750385  1
  O  O9  1  0.98342191  0.40475301  0.21704935  1
  S  S10  1  0.77430052  0.89882210  0.03589305  1
  S  S11  1  0.98806895  0.35206987  0.70693195  1
  S  S12  1  0.49744908  0.18545731  0.95937107  1
  S  S13  1  0.93992545  0.51127876  0.82128060  1
  S  S14  1  0.31237399  0.81940708  0.11215017  1
  S  S15  1  0.43069729  0.17907544  0.25807400  1
  S  S16  1  0.70361118  0.62986840  0.50348156  1
  S  S17  1  0.86529046  0.31667110  0.35109297  1
