# generated using pymatgen
data_Li3Zr
_symmetry_space_group_name_H-M   'P 1'
_cell_length_a   10.87925073
_cell_length_b   5.88384147
_cell_length_c   3.04134595
_cell_angle_alpha   74.14953011
_cell_angle_beta   88.61099370
_cell_angle_gamma   102.31444626
_symmetry_Int_Tables_number   1
_chemical_formula_structural   Li3Zr
_chemical_formula_sum   'Li6 Zr2'
_cell_volume   182.26462088
_cell_formula_units_Z   2
loop_
 _symmetry_equiv_pos_site_id
 _symmetry_equiv_pos_as_xyz
  1  'x, y, z'
loop_
 _atom_site_type_symbol
 _atom_site_label
 _atom_site_symmetry_multiplicity
 _atom_site_fract_x
 _atom_site_fract_y
 _atom_site_fract_z
 _atom_site_occupancy
  Li  Li0  1  0.50000000  -0.00000000  0.00000000  1
  Li  Li1  1  0.83516629  0.46355950  0.44949213  1
  Li  Li2  1  -0.83516629  -0.46355950  -0.44949213  1
  Li  Li3  1  0.50000000  -0.00000000  0.50000000  1
  Li  Li4  1  0.00000000  0.00000000  0.50000000  1
  Li  Li5  1  0.50000000  0.50000000  -0.00000000  1
  Zr  Zr6  1  0.00000000  0.50000000  0.50000000  1
  Zr  Zr7  1  0.50000000  0.50000000  0.50000000  1
