# generated using pymatgen
data_Li8Al2F
_symmetry_space_group_name_H-M   'P 1'
_cell_length_a   6.14455800
_cell_length_b   6.61507881
_cell_length_c   7.50826073
_cell_angle_alpha   126.87188885
_cell_angle_beta   49.82579415
_cell_angle_gamma   111.84068836
_symmetry_Int_Tables_number   1
_chemical_formula_structural   Li8Al2F
_chemical_formula_sum   'Li8 Al2 F1'
_cell_volume   186.48950167
_cell_formula_units_Z   1
loop_
 _symmetry_equiv_pos_site_id
 _symmetry_equiv_pos_as_xyz
  1  'x, y, z'
loop_
 _atom_site_type_symbol
 _atom_site_label
 _atom_site_symmetry_multiplicity
 _atom_site_fract_x
 _atom_site_fract_y
 _atom_site_fract_z
 _atom_site_occupancy
  Al  Al0  1  0.32961423  0.81336703  0.68364984  1
  Al  Al1  1  0.13247661  0.29115603  0.14055322  1
  F  F2  1  0.02326316  0.78172803  0.65431780  1
  Li  Li3  1  0.16718414  0.32244894  0.71675618  1
  Li  Li4  1  0.89142304  0.24157091  0.02974814  1
  Li  Li5  1  0.58966565  0.55119597  0.51450178  1
  Li  Li6  1  0.74490540  0.44392286  0.52947367  1
  Li  Li7  1  0.05921772  0.33287795  0.52492188  1
  Li  Li8  1  0.65957929  0.02304765  0.85995733  1
  Li  Li9  1  0.33514103  0.54407737  0.51116950  1
  Li  Li10  1  0.01654315  0.57834993  0.84353558  1
