# generated using pymatgen
data_LiO4
_symmetry_space_group_name_H-M   'P 1'
_cell_length_a   4.30308890
_cell_length_b   4.49533827
_cell_length_c   4.49837251
_cell_angle_alpha   65.02109405
_cell_angle_beta   89.01919158
_cell_angle_gamma   85.02124690
_symmetry_Int_Tables_number   1
_chemical_formula_structural   LiO4
_chemical_formula_sum   'Li1 O4'
_cell_volume   78.56064367
_cell_formula_units_Z   1
loop_
 _symmetry_equiv_pos_site_id
 _symmetry_equiv_pos_as_xyz
  1  'x, y, z'
loop_
 _atom_site_type_symbol
 _atom_site_label
 _atom_site_symmetry_multiplicity
 _atom_site_fract_x
 _atom_site_fract_y
 _atom_site_fract_z
 _atom_site_occupancy
  Li  Li0  1  0.44005140  0.76078380  0.44859640  1
  O  O1  1  0.99904787  0.82392240  0.54529820  1
  O  O2  1  0.30426062  0.58584436  0.28992533  1
  O  O3  1  0.64648838  0.86240592  0.24835304  1
  O  O4  1  0.80375976  0.79365868  0.86674525  1
