# generated using pymatgen
data_Li3O5
_symmetry_space_group_name_H-M   'P 1'
_cell_length_a   3.48963082
_cell_length_b   9.88906166
_cell_length_c   3.96894098
_cell_angle_alpha   123.07938492
_cell_angle_beta   94.82741021
_cell_angle_gamma   93.95043111
_symmetry_Int_Tables_number   1
_chemical_formula_structural   Li3O5
_chemical_formula_sum   'Li3 O5'
_cell_volume   113.27125584
_cell_formula_units_Z   1
loop_
 _symmetry_equiv_pos_site_id
 _symmetry_equiv_pos_as_xyz
  1  'x, y, z'
loop_
 _atom_site_type_symbol
 _atom_site_label
 _atom_site_symmetry_multiplicity
 _atom_site_fract_x
 _atom_site_fract_y
 _atom_site_fract_z
 _atom_site_occupancy
  Li  Li0  1  0.50000000  0.50000000  0.50000000  1
  Li  Li1  1  0.42979058  0.42076303  0.69277730  1
  Li  Li2  1  -0.42979058  -0.42076303  -0.69277730  1
  O  O3  1  0.50000000  -0.00000000  0.50000000  1
  O  O4  1  0.50000000  0.50000000  0.00000000  1
  O  O5  1  0.91065954  0.37453099  0.47044689  1
  O  O6  1  0.08934046  0.62546901  0.52955311  1
  O  O7  1  0.00000000  0.00000000  0.00000000  1
