# generated using pymatgen
data_Li3Ti2
_symmetry_space_group_name_H-M   'P 1'
_cell_length_a   3.10442566
_cell_length_b   8.99760586
_cell_length_c   4.08606815
_cell_angle_alpha   104.92817385
_cell_angle_beta   88.20403908
_cell_angle_gamma   79.77447425
_symmetry_Int_Tables_number   1
_chemical_formula_structural   Li3Ti2
_chemical_formula_sum   'Li3 Ti2'
_cell_volume   108.17290295
_cell_formula_units_Z   1
loop_
 _symmetry_equiv_pos_site_id
 _symmetry_equiv_pos_as_xyz
  1  'x, y, z'
loop_
 _atom_site_type_symbol
 _atom_site_label
 _atom_site_symmetry_multiplicity
 _atom_site_fract_x
 _atom_site_fract_y
 _atom_site_fract_z
 _atom_site_occupancy
  Li  Li0  1  0.86977358  0.04798180  0.86061766  1
  Li  Li1  1  0.21102413  0.92103980  0.62391313  1
  Li  Li2  1  0.70037238  0.33617618  0.52994754  1
  Ti  Ti3  1  0.89613367  0.54511488  0.59816944  1
  Ti  Ti4  1  0.95233707  0.70079563  0.90849027  1
