# generated using pymatgen
data_Li3O7
_symmetry_space_group_name_H-M   'P 1'
_cell_length_a   3.52955077
_cell_length_b   8.15590211
_cell_length_c   5.44132022
_cell_angle_alpha   105.23147444
_cell_angle_beta   45.48831719
_cell_angle_gamma   102.40598062
_symmetry_Int_Tables_number   1
_chemical_formula_structural   Li3O7
_chemical_formula_sum   'Li3 O7'
_cell_volume   107.66860284
_cell_formula_units_Z   1
loop_
 _symmetry_equiv_pos_site_id
 _symmetry_equiv_pos_as_xyz
  1  'x, y, z'
loop_
 _atom_site_type_symbol
 _atom_site_label
 _atom_site_symmetry_multiplicity
 _atom_site_fract_x
 _atom_site_fract_y
 _atom_site_fract_z
 _atom_site_occupancy
  Li  Li0  1  0.65933300  0.13454359  0.85392105  1
  Li  Li1  1  0.36741314  0.96905199  0.72265041  1
  Li  Li2  1  0.01733898  0.16015978  0.01938621  1
  O  O3  1  0.00472341  0.85340499  0.63019525  1
  O  O4  1  0.84806892  0.50762635  0.74999109  1
  O  O5  1  0.42743369  0.74145267  0.98435929  1
  O  O6  1  0.63495371  0.35417477  0.36843826  1
  O  O7  1  0.28338126  0.41668998  0.91297641  1
  O  O8  1  0.51754947  0.37225313  0.23582433  1
  O  O9  1  0.46569038  0.64131259  0.27309842  1
