# generated using pymatgen
data_LiLaO8
_symmetry_space_group_name_H-M   'P 1'
_cell_length_a   4.19216237
_cell_length_b   6.27532290
_cell_length_c   4.57758094
_cell_angle_alpha   87.02039819
_cell_angle_beta   92.79036621
_cell_angle_gamma   95.35243791
_symmetry_Int_Tables_number   1
_chemical_formula_structural   LiLaO8
_chemical_formula_sum   'Li1 La1 O8'
_cell_volume   119.61963848
_cell_formula_units_Z   1
loop_
 _symmetry_equiv_pos_site_id
 _symmetry_equiv_pos_as_xyz
  1  'x, y, z'
loop_
 _atom_site_type_symbol
 _atom_site_label
 _atom_site_symmetry_multiplicity
 _atom_site_fract_x
 _atom_site_fract_y
 _atom_site_fract_z
 _atom_site_occupancy
  La  La0  1  0.04577748  0.35302063  0.01805305  1
  Li  Li1  1  0.47286242  0.32046287  0.36853975  1
  O  O2  1  0.93389174  0.10170753  0.25834929  1
  O  O3  1  0.06303979  0.11134817  0.88125895  1
  O  O4  1  0.23281073  0.18714193  0.97175155  1
  O  O5  1  0.21205921  0.68157606  0.56968208  1
  O  O6  1  0.56187289  0.15091843  0.17843949  1
  O  O7  1  0.13942243  0.87583437  0.55392659  1
  O  O8  1  0.77582238  0.27287758  0.19246965  1
  O  O9  1  0.14134894  0.15398169  0.15013270  1
