# generated using pymatgen
data_Li3O
_symmetry_space_group_name_H-M   'P 1'
_cell_length_a   3.31182390
_cell_length_b   8.02792829
_cell_length_c   6.38868396
_cell_angle_alpha   69.50785190
_cell_angle_beta   72.79084249
_cell_angle_gamma   64.09847507
_symmetry_Int_Tables_number   1
_chemical_formula_structural   Li3O
_chemical_formula_sum   'Li6 O2'
_cell_volume   141.05070105
_cell_formula_units_Z   2
loop_
 _symmetry_equiv_pos_site_id
 _symmetry_equiv_pos_as_xyz
  1  'x, y, z'
loop_
 _atom_site_type_symbol
 _atom_site_label
 _atom_site_symmetry_multiplicity
 _atom_site_fract_x
 _atom_site_fract_y
 _atom_site_fract_z
 _atom_site_occupancy
  Li  Li0  1  0.64465570  0.15373293  0.60157832  1
  Li  Li1  1  -0.64465570  -0.15373293  -0.60157832  1
  Li  Li2  1  0.01764284  0.60951024  0.42948591  1
  Li  Li3  1  0.98235716  0.39048976  0.57051409  1
  Li  Li4  1  0.04081867  0.80115622  0.31608881  1
  Li  Li5  1  0.95918133  0.19884378  0.68391119  1
  O  O6  1  0.50000000  0.50000000  0.00000000  1
  O  O7  1  0.50000000  -0.00000000  0.50000000  1
