# generated using pymatgen
data_Li6TiO7
_symmetry_space_group_name_H-M   'P 1'
_cell_length_a   6.57791374
_cell_length_b   8.05184238
_cell_length_c   5.04923417
_cell_angle_alpha   120.81875582
_cell_angle_beta   105.46281147
_cell_angle_gamma   63.05936640
_symmetry_Int_Tables_number   1
_chemical_formula_structural   Li6TiO7
_chemical_formula_sum   'Li6 Ti1 O7'
_cell_volume   204.53405775
_cell_formula_units_Z   1
loop_
 _symmetry_equiv_pos_site_id
 _symmetry_equiv_pos_as_xyz
  1  'x, y, z'
loop_
 _atom_site_type_symbol
 _atom_site_label
 _atom_site_symmetry_multiplicity
 _atom_site_fract_x
 _atom_site_fract_y
 _atom_site_fract_z
 _atom_site_occupancy
  Li  Li0  1  0.75422244  0.78570337  0.59446105  1
  Li  Li1  1  0.36136693  0.77328033  0.88266237  1
  Li  Li2  1  0.91612751  0.76530350  0.24837971  1
  Li  Li3  1  0.82908086  0.03484140  0.92050552  1
  Li  Li4  1  0.87418282  0.51822384  0.39288419  1
  Li  Li5  1  0.70467816  0.98472618  0.36151585  1
  O  O6  1  0.50202257  0.16433385  0.87373394  1
  O  O7  1  0.46403645  0.38694067  0.82941405  1
  O  O8  1  0.55386957  0.03232547  0.48907545  1
  O  O9  1  0.44077440  0.93625944  0.49727425  1
  O  O10  1  0.45636521  0.51104329  0.63980074  1
  O  O11  1  0.39529132  0.50257048  0.90549455  1
  O  O12  1  0.05016994  0.52242613  0.99493778  1
  Ti  Ti13  1  0.49156664  0.33102053  0.18984063  1
