# generated using pymatgen
data_LiO3
_symmetry_space_group_name_H-M   'P 1'
_cell_length_a   2.21467264
_cell_length_b   4.54292824
_cell_length_c   4.78675392
_cell_angle_alpha   83.43227466
_cell_angle_beta   99.74014676
_cell_angle_gamma   51.77295240
_symmetry_Int_Tables_number   1
_chemical_formula_structural   LiO3
_chemical_formula_sum   'Li1 O3'
_cell_volume   35.76381571
_cell_formula_units_Z   1
loop_
 _symmetry_equiv_pos_site_id
 _symmetry_equiv_pos_as_xyz
  1  'x, y, z'
loop_
 _atom_site_type_symbol
 _atom_site_label
 _atom_site_symmetry_multiplicity
 _atom_site_fract_x
 _atom_site_fract_y
 _atom_site_fract_z
 _atom_site_occupancy
  Li  Li0  1  0.12357056  0.94344796  0.33390245  1
  O  O1  1  0.17154500  0.61740242  0.97953923  1
  O  O2  1  0.50239014  0.68832226  0.53374217  1
  O  O3  1  0.88282783  0.45248846  0.72333563  1
