# generated using pymatgen
data_Li5O3
_symmetry_space_group_name_H-M   'P 1'
_cell_length_a   4.94264527
_cell_length_b   5.44579155
_cell_length_c   4.79267393
_cell_angle_alpha   44.83424579
_cell_angle_beta   84.46043708
_cell_angle_gamma   94.02121496
_symmetry_Int_Tables_number   1
_chemical_formula_structural   Li5O3
_chemical_formula_sum   'Li5 O3'
_cell_volume   88.74679507
_cell_formula_units_Z   1
loop_
 _symmetry_equiv_pos_site_id
 _symmetry_equiv_pos_as_xyz
  1  'x, y, z'
loop_
 _atom_site_type_symbol
 _atom_site_label
 _atom_site_symmetry_multiplicity
 _atom_site_fract_x
 _atom_site_fract_y
 _atom_site_fract_z
 _atom_site_occupancy
  Li  Li0  1  0.45599625  0.18272362  0.96216178  1
  Li  Li1  1  0.37725733  0.72225341  0.00465074  1
  Li  Li2  1  0.26830495  0.33846584  0.21578209  1
  Li  Li3  1  0.74486530  0.20249083  0.18061090  1
  Li  Li4  1  0.18966517  0.10897205  0.10384764  1
  O  O5  1  0.01231612  0.47722387  0.62827019  1
  O  O6  1  0.13596236  0.55734421  0.07148541  1
  O  O7  1  0.32097060  0.03309704  0.80417216  1
