# generated using pymatgen
data_Li4S3O8
_symmetry_space_group_name_H-M   'P 1'
_cell_length_a   7.88588577
_cell_length_b   7.92092960
_cell_length_c   6.39613311
_cell_angle_alpha   112.83469910
_cell_angle_beta   124.37369218
_cell_angle_gamma   100.84017036
_symmetry_Int_Tables_number   1
_chemical_formula_structural   Li4S3O8
_chemical_formula_sum   'Li4 S3 O8'
_cell_volume   256.71030320
_cell_formula_units_Z   1
loop_
 _symmetry_equiv_pos_site_id
 _symmetry_equiv_pos_as_xyz
  1  'x, y, z'
loop_
 _atom_site_type_symbol
 _atom_site_label
 _atom_site_symmetry_multiplicity
 _atom_site_fract_x
 _atom_site_fract_y
 _atom_site_fract_z
 _atom_site_occupancy
  Li  Li0  1  0.29831814  0.28739361  0.48961981  1
  Li  Li1  1  0.54278409  0.21435616  0.52715130  1
  Li  Li2  1  0.85999951  0.67408958  0.56272920  1
  Li  Li3  1  0.01242587  0.86356768  0.61510896  1
  O  O4  1  0.74266787  0.91621902  0.46294270  1
  O  O5  1  0.35551787  0.82239607  0.80849774  1
  O  O6  1  0.66822099  0.07960622  0.10400327  1
  O  O7  1  0.85430142  0.66118591  0.02637095  1
  O  O8  1  0.19282445  0.40497900  0.81445732  1
  O  O9  1  0.79231749  0.51557802  0.82335023  1
  O  O10  1  0.43343968  0.13020495  0.68999365  1
  O  O11  1  0.88046669  0.52833318  0.58882065  1
  S  S12  1  0.61880197  0.22979469  0.06130924  1
  S  S13  1  0.20583293  0.47380947  0.07019641  1
  S  S14  1  0.60704259  0.97892032  0.61707469  1
