# generated using pymatgen
data_Li4O
_symmetry_space_group_name_H-M   'P 1'
_cell_length_a   3.45591602
_cell_length_b   6.08869625
_cell_length_c   6.64700192
_cell_angle_alpha   91.49815745
_cell_angle_beta   126.30495457
_cell_angle_gamma   94.72765130
_symmetry_Int_Tables_number   1
_chemical_formula_structural   Li4O
_chemical_formula_sum   'Li4 O1'
_cell_volume   111.84147666
_cell_formula_units_Z   1
loop_
 _symmetry_equiv_pos_site_id
 _symmetry_equiv_pos_as_xyz
  1  'x, y, z'
loop_
 _atom_site_type_symbol
 _atom_site_label
 _atom_site_symmetry_multiplicity
 _atom_site_fract_x
 _atom_site_fract_y
 _atom_site_fract_z
 _atom_site_occupancy
  Li  Li0  1  0.50000000  -0.00000000  0.00000000  1
  Li  Li1  1  0.50000000  0.50000000  0.00000000  1
  Li  Li2  1  0.66115529  0.11376899  0.56877971  1
  Li  Li3  1  -0.66115529  -0.11376899  -0.56877971  1
  O  O4  1  0.50000000  0.50000000  0.50000000  1
