# generated using pymatgen
data_LiS8
_symmetry_space_group_name_H-M   'P 1'
_cell_length_a   3.14602848
_cell_length_b   7.23988930
_cell_length_c   7.23441966
_cell_angle_alpha   73.37699288
_cell_angle_beta   94.96339183
_cell_angle_gamma   79.13980413
_symmetry_Int_Tables_number   1
_chemical_formula_structural   LiS8
_chemical_formula_sum   'Li1 S8'
_cell_volume   153.32736425
_cell_formula_units_Z   1
loop_
 _symmetry_equiv_pos_site_id
 _symmetry_equiv_pos_as_xyz
  1  'x, y, z'
loop_
 _atom_site_type_symbol
 _atom_site_label
 _atom_site_symmetry_multiplicity
 _atom_site_fract_x
 _atom_site_fract_y
 _atom_site_fract_z
 _atom_site_occupancy
  Li  Li0  1  0.50000000  0.00000000  0.00000000  1
  S  S1  1  0.00000000  0.50000000  0.00000000  1
  S  S2  1  0.00000000  0.00000000  0.50000000  1
  S  S3  1  0.23642099  0.19681180  0.42055481  1
  S  S4  1  -0.23642099  -0.19681180  -0.42055481  1
  S  S5  1  0.95137098  0.53940285  0.81830966  1
  S  S6  1  0.04862902  0.46059715  0.18169034  1
  S  S7  1  0.00000000  0.50000000  0.50000000  1
  S  S8  1  0.50000000  0.00000000  0.50000000  1
