# generated using pymatgen
data_Li3P
_symmetry_space_group_name_H-M   'P 1'
_cell_length_a   4.32850706
_cell_length_b   6.44574416
_cell_length_c   6.39384966
_cell_angle_alpha   90.00000000
_cell_angle_beta   77.13301996
_cell_angle_gamma   90.00000000
_symmetry_Int_Tables_number   1
_chemical_formula_structural   Li3P
_chemical_formula_sum   'Li6 P2'
_cell_volume   173.91181726
_cell_formula_units_Z   2
loop_
 _symmetry_equiv_pos_site_id
 _symmetry_equiv_pos_as_xyz
  1  'x, y, z'
loop_
 _atom_site_type_symbol
 _atom_site_label
 _atom_site_symmetry_multiplicity
 _atom_site_fract_x
 _atom_site_fract_y
 _atom_site_fract_z
 _atom_site_occupancy
  Li  Li0  1  0.89233939  0.76011410  0.04804573  1
  Li  Li1  1  -0.89233939  1.26011410  0.45195427  1
  Li  Li2  1  -0.89233939  -0.76011410  -0.04804573  1
  Li  Li3  1  0.89233939  -0.26011410  0.54804573  1
  Li  Li4  1  0.00000000  0.00000000  0.50000000  1
  Li  Li5  1  0.00000000  0.50000000  -0.00000000  1
  P  P6  1  0.50000000  0.00000000  -0.00000000  1
  P  P7  1  0.50000000  0.50000000  0.50000000  1
