# generated using pymatgen
data_Li5O2
_symmetry_space_group_name_H-M   'P 1'
_cell_length_a   5.68369282
_cell_length_b   4.92320865
_cell_length_c   5.36282489
_cell_angle_alpha   104.89259759
_cell_angle_beta   54.40412926
_cell_angle_gamma   104.97553727
_symmetry_Int_Tables_number   1
_chemical_formula_structural   Li5O2
_chemical_formula_sum   'Li5 O2'
_cell_volume   116.78753732
_cell_formula_units_Z   1
loop_
 _symmetry_equiv_pos_site_id
 _symmetry_equiv_pos_as_xyz
  1  'x, y, z'
loop_
 _atom_site_type_symbol
 _atom_site_label
 _atom_site_symmetry_multiplicity
 _atom_site_fract_x
 _atom_site_fract_y
 _atom_site_fract_z
 _atom_site_occupancy
  Li  Li0  1  0.81093044  0.93557559  0.41583434  1
  Li  Li1  1  0.00327823  0.17755298  0.07581042  1
  Li  Li2  1  0.87794574  0.64059945  0.78023084  1
  Li  Li3  1  0.36839360  0.90595542  0.93214280  1
  Li  Li4  1  0.44529265  0.93093774  0.40960898  1
  O  O5  1  0.31728629  0.33521912  0.10096663  1
  O  O6  1  0.50621310  0.17653010  0.65182333  1
