# generated using pymatgen
data_Li4P3O4
_symmetry_space_group_name_H-M   'P 1'
_cell_length_a   5.90905996
_cell_length_b   5.80128345
_cell_length_c   6.95982613
_cell_angle_alpha   123.80552557
_cell_angle_beta   111.96947769
_cell_angle_gamma   100.11475035
_symmetry_Int_Tables_number   1
_chemical_formula_structural   Li4P3O4
_chemical_formula_sum   'Li4 P3 O4'
_cell_volume   159.42923499
_cell_formula_units_Z   1
loop_
 _symmetry_equiv_pos_site_id
 _symmetry_equiv_pos_as_xyz
  1  'x, y, z'
loop_
 _atom_site_type_symbol
 _atom_site_label
 _atom_site_symmetry_multiplicity
 _atom_site_fract_x
 _atom_site_fract_y
 _atom_site_fract_z
 _atom_site_occupancy
  Li  Li0  1  0.50000000  0.00000000  0.00000000  1
  Li  Li1  1  0.50000000  0.00000000  0.50000000  1
  Li  Li2  1  0.72803346  0.52924123  0.61911901  1
  Li  Li3  1  0.27196654  0.47075877  0.38088099  1
  O  O4  1  0.59290282  0.39603798  0.07409634  1
  O  O5  1  0.40709718  0.60396202  0.92590366  1
  O  O6  1  0.27655387  0.30970058  0.45225530  1
  O  O7  1  0.72344613  0.69029942  0.54774470  1
  P  P8  1  0.00000000  0.00000000  0.00000000  1
  P  P9  1  0.39518570  0.21862292  0.49914441  1
  P  P10  1  -0.39518570  -0.21862292  -0.49914441  1
