# generated using pymatgen
data_Li2Ti
_symmetry_space_group_name_H-M   'P 1'
_cell_length_a   4.91582782
_cell_length_b   4.91582782
_cell_length_c   10.02401538
_cell_angle_alpha   90.00000000
_cell_angle_beta   90.00000000
_cell_angle_gamma   120.00000000
_symmetry_Int_Tables_number   1
_chemical_formula_structural   Li2Ti
_chemical_formula_sum   'Li6 Ti3'
_cell_volume   209.78077341
_cell_formula_units_Z   3
loop_
 _symmetry_equiv_pos_site_id
 _symmetry_equiv_pos_as_xyz
  1  'x, y, z'
loop_
 _atom_site_type_symbol
 _atom_site_label
 _atom_site_symmetry_multiplicity
 _atom_site_fract_x
 _atom_site_fract_y
 _atom_site_fract_z
 _atom_site_occupancy
  Li  Li0  1  0.00000000  0.00000000  0.12163028  1
  Li  Li1  1  0.00000000  0.00000000  -0.12163028  1
  Li  Li2  1  0.66666667  0.33333333  0.45496361  1
  Li  Li3  1  0.66666667  0.33333333  0.21170306  1
  Li  Li4  1  0.33333333  0.66666667  0.78829694  1
  Li  Li5  1  0.33333333  0.66666667  0.54503639  1
  Ti  Ti6  1  0.00000000  0.00000000  0.50000000  1
  Ti  Ti7  1  0.66666667  0.33333333  0.83333333  1
  Ti  Ti8  1  0.33333333  0.66666667  0.16666667  1
