# generated using pymatgen
data_Li3(SO)2
_symmetry_space_group_name_H-M   'P 1'
_cell_length_a   2.76000041
_cell_length_b   5.99799184
_cell_length_c   7.63269566
_cell_angle_alpha   118.91564592
_cell_angle_beta   69.30541558
_cell_angle_gamma   75.80448085
_symmetry_Int_Tables_number   1
_chemical_formula_structural   Li3(SO)2
_chemical_formula_sum   'Li3 S2 O2'
_cell_volume   89.11229369
_cell_formula_units_Z   1
loop_
 _symmetry_equiv_pos_site_id
 _symmetry_equiv_pos_as_xyz
  1  'x, y, z'
loop_
 _atom_site_type_symbol
 _atom_site_label
 _atom_site_symmetry_multiplicity
 _atom_site_fract_x
 _atom_site_fract_y
 _atom_site_fract_z
 _atom_site_occupancy
  Li  Li0  1  0.50000000  0.50000000  0.00000000  1
  Li  Li1  1  0.50000000  0.00000000  0.00000000  1
  Li  Li2  1  0.00000000  0.50000000  0.50000000  1
  O  O3  1  0.69225010  0.80452018  0.44060823  1
  O  O4  1  0.30774990  0.19547982  0.55939177  1
  S  S5  1  0.78095713  0.11952047  0.74599934  1
  S  S6  1  -0.78095713  -0.11952047  -0.74599934  1
