# generated using pymatgen
data_LiP3O5
_symmetry_space_group_name_H-M   'P 1'
_cell_length_a   4.07496453
_cell_length_b   3.95405032
_cell_length_c   4.78435244
_cell_angle_alpha   104.62005849
_cell_angle_beta   76.32356717
_cell_angle_gamma   101.10425518
_symmetry_Int_Tables_number   1
_chemical_formula_structural   LiP3O5
_chemical_formula_sum   'Li1 P3 O5'
_cell_volume   71.74948989
_cell_formula_units_Z   1
loop_
 _symmetry_equiv_pos_site_id
 _symmetry_equiv_pos_as_xyz
  1  'x, y, z'
loop_
 _atom_site_type_symbol
 _atom_site_label
 _atom_site_symmetry_multiplicity
 _atom_site_fract_x
 _atom_site_fract_y
 _atom_site_fract_z
 _atom_site_occupancy
  Li  Li0  1  0.16224206  0.72727092  0.78798077  1
  O  O1  1  0.84500155  0.62495524  0.58279780  1
  O  O2  1  0.80359082  0.09730733  0.13833881  1
  O  O3  1  0.00316418  0.16520136  0.66673866  1
  O  O4  1  0.86069008  0.84314871  0.89512586  1
  O  O5  1  0.76985350  0.17155398  0.67835959  1
  P  P6  1  0.53668670  0.72613106  0.04505743  1
  P  P7  1  0.95253741  0.30126156  0.87188456  1
  P  P8  1  0.48695613  0.16834909  0.30880154  1
