# generated using pymatgen
data_LiO2
_symmetry_space_group_name_H-M   'P 1'
_cell_length_a   6.26688553
_cell_length_b   3.79463830
_cell_length_c   2.48939173
_cell_angle_alpha   50.14216857
_cell_angle_beta   89.24513464
_cell_angle_gamma   58.60701416
_symmetry_Int_Tables_number   1
_chemical_formula_structural   LiO2
_chemical_formula_sum   'Li1 O2'
_cell_volume   33.82894136
_cell_formula_units_Z   1
loop_
 _symmetry_equiv_pos_site_id
 _symmetry_equiv_pos_as_xyz
  1  'x, y, z'
loop_
 _atom_site_type_symbol
 _atom_site_label
 _atom_site_symmetry_multiplicity
 _atom_site_fract_x
 _atom_site_fract_y
 _atom_site_fract_z
 _atom_site_occupancy
  Li  Li0  1  0.55728734  0.06778545  0.06735985  1
  O  O1  1  0.00414826  0.02095446  0.89209686  1
  O  O2  1  0.38147133  0.25063986  0.43988380  1
