# generated using pymatgen
data_Li3O2
_symmetry_space_group_name_H-M   'P 1'
_cell_length_a   2.65144198
_cell_length_b   6.25537122
_cell_length_c   8.06182686
_cell_angle_alpha   133.18026779
_cell_angle_beta   112.17847943
_cell_angle_gamma   57.23704021
_symmetry_Int_Tables_number   1
_chemical_formula_structural   Li3O2
_chemical_formula_sum   'Li6 O4'
_cell_volume   81.98626913
_cell_formula_units_Z   2
loop_
 _symmetry_equiv_pos_site_id
 _symmetry_equiv_pos_as_xyz
  1  'x, y, z'
loop_
 _atom_site_type_symbol
 _atom_site_label
 _atom_site_symmetry_multiplicity
 _atom_site_fract_x
 _atom_site_fract_y
 _atom_site_fract_z
 _atom_site_occupancy
  Li  Li0  1  0.50000000  0.00000000  0.50000000  1
  Li  Li1  1  0.00000000  0.00000000  0.50000000  1
  Li  Li2  1  0.17845843  0.80027671  0.14084107  1
  Li  Li3  1  -0.17845843  -0.80027671  -0.14084107  1
  Li  Li4  1  0.00000000  0.00000000  0.00000000  1
  Li  Li5  1  0.00000000  0.50000000  0.00000000  1
  O  O6  1  0.50000000  0.50000000  0.50000000  1
  O  O7  1  0.65711000  0.50304055  0.61083286  1
  O  O8  1  0.34289000  0.49695945  0.38916714  1
  O  O9  1  0.00000000  0.50000000  0.50000000  1
