# generated using pymatgen
data_Li3P
_symmetry_space_group_name_H-M   'P 1'
_cell_length_a   7.19620592
_cell_length_b   4.03965906
_cell_length_c   7.11869724
_cell_angle_alpha   81.49597897
_cell_angle_beta   121.43267759
_cell_angle_gamma   89.49585156
_symmetry_Int_Tables_number   1
_chemical_formula_structural   Li3P
_chemical_formula_sum   'Li6 P2'
_cell_volume   173.72524416
_cell_formula_units_Z   2
loop_
 _symmetry_equiv_pos_site_id
 _symmetry_equiv_pos_as_xyz
  1  'x, y, z'
loop_
 _atom_site_type_symbol
 _atom_site_label
 _atom_site_symmetry_multiplicity
 _atom_site_fract_x
 _atom_site_fract_y
 _atom_site_fract_z
 _atom_site_occupancy
  Li  Li0  1  0.50000000  0.00000000  0.50000000  1
  Li  Li1  1  0.50000000  0.50000000  0.00000000  1
  Li  Li2  1  0.00000000  0.00000000  0.50000000  1
  Li  Li3  1  0.50000000  0.00000000  0.00000000  1
  Li  Li4  1  0.00000000  0.50000000  0.50000000  1
  Li  Li5  1  0.50000000  0.50000000  0.50000000  1
  P  P6  1  0.17032786  0.78905452  0.28652487  1
  P  P7  1  -0.17032786  -0.78905452  -0.28652487  1
