# generated using pymatgen
data_Li4PO3
_symmetry_space_group_name_H-M   'P 1'
_cell_length_a   6.13296572
_cell_length_b   7.67824954
_cell_length_c   3.93221609
_cell_angle_alpha   120.68038882
_cell_angle_beta   98.73199538
_cell_angle_gamma   104.44175423
_symmetry_Int_Tables_number   1
_chemical_formula_structural   Li4PO3
_chemical_formula_sum   'Li4 P1 O3'
_cell_volume   145.30385145
_cell_formula_units_Z   1
loop_
 _symmetry_equiv_pos_site_id
 _symmetry_equiv_pos_as_xyz
  1  'x, y, z'
loop_
 _atom_site_type_symbol
 _atom_site_label
 _atom_site_symmetry_multiplicity
 _atom_site_fract_x
 _atom_site_fract_y
 _atom_site_fract_z
 _atom_site_occupancy
  Li  Li0  1  0.00000000  0.00000000  0.00000000  1
  Li  Li1  1  0.13806265  0.52071105  0.19820413  1
  Li  Li2  1  -0.13806265  -0.52071105  -0.19820413  1
  Li  Li3  1  0.50000000  0.50000000  0.50000000  1
  O  O4  1  0.50000000  0.00000000  0.50000000  1
  O  O5  1  0.06560115  0.12507846  0.43415700  1
  O  O6  1  0.93439885  0.87492154  0.56584300  1
  P  P7  1  0.00000000  0.00000000  0.50000000  1
