# generated using pymatgen
data_Li2O
_symmetry_space_group_name_H-M   'P 1'
_cell_length_a   8.54766390
_cell_length_b   4.02827454
_cell_length_c   5.75877277
_cell_angle_alpha   73.94340986
_cell_angle_beta   79.45685851
_cell_angle_gamma   44.88311689
_symmetry_Int_Tables_number   1
_chemical_formula_structural   Li2O
_chemical_formula_sum   'Li6 O3'
_cell_volume   134.44116919
_cell_formula_units_Z   3
loop_
 _symmetry_equiv_pos_site_id
 _symmetry_equiv_pos_as_xyz
  1  'x, y, z'
loop_
 _atom_site_type_symbol
 _atom_site_label
 _atom_site_symmetry_multiplicity
 _atom_site_fract_x
 _atom_site_fract_y
 _atom_site_fract_z
 _atom_site_occupancy
  Li  Li0  1  0.00000000  0.50000000  0.50000000  1
  Li  Li1  1  0.00000000  0.50000000  0.00000000  1
  Li  Li2  1  0.50000000  0.00000000  0.00000000  1
  Li  Li3  1  0.10051596  0.58794110  0.82718979  1
  Li  Li4  1  -0.10051596  -0.58794110  -0.82718979  1
  Li  Li5  1  0.50000000  0.00000000  0.50000000  1
  O  O6  1  0.00000000  0.00000000  0.50000000  1
  O  O7  1  0.23082566  0.11033366  0.69284836  1
  O  O8  1  0.76917434  0.88966634  0.30715164  1
