# generated using pymatgen
data_Li3Al3O5
_symmetry_space_group_name_H-M   'P 1'
_cell_length_a   3.61948000
_cell_length_b   9.38983051
_cell_length_c   4.15020846
_cell_angle_alpha   76.43178696
_cell_angle_beta   77.45965184
_cell_angle_gamma   123.45502641
_symmetry_Int_Tables_number   1
_chemical_formula_structural   Li3Al3O5
_chemical_formula_sum   'Li3 Al3 O5'
_cell_volume   103.43341266
_cell_formula_units_Z   1
loop_
 _symmetry_equiv_pos_site_id
 _symmetry_equiv_pos_as_xyz
  1  'x, y, z'
loop_
 _atom_site_type_symbol
 _atom_site_label
 _atom_site_symmetry_multiplicity
 _atom_site_fract_x
 _atom_site_fract_y
 _atom_site_fract_z
 _atom_site_occupancy
  Al  Al0  1  0.92163821  0.67178937  0.96518430  1
  Al  Al1  1  -0.92163821  -0.67178937  -0.96518430  1
  Al  Al2  1  0.00000000  0.00000000  0.00000000  1
  Li  Li3  1  0.50000000  0.00000000  0.00000000  1
  Li  Li4  1  0.00000000  0.50000000  0.00000000  1
  Li  Li5  1  0.50000000  0.50000000  0.00000000  1
  O  O6  1  0.99314165  0.80466743  0.46012794  1
  O  O7  1  0.00685835  0.19533257  0.53987206  1
  O  O8  1  0.75308071  0.13545680  0.59232912  1
  O  O9  1  0.24691929  0.86454320  0.40767088  1
  O  O10  1  0.00000000  0.00000000  0.50000000  1
