# generated using pymatgen
data_Li5S4
_symmetry_space_group_name_H-M   'P 1'
_cell_length_a   8.85309488
_cell_length_b   8.98212521
_cell_length_c   3.93778146
_cell_angle_alpha   86.04011705
_cell_angle_beta   124.84280600
_cell_angle_gamma   55.68501443
_symmetry_Int_Tables_number   1
_chemical_formula_structural   Li5S4
_chemical_formula_sum   'Li5 S4'
_cell_volume   173.36448125
_cell_formula_units_Z   1
loop_
 _symmetry_equiv_pos_site_id
 _symmetry_equiv_pos_as_xyz
  1  'x, y, z'
loop_
 _atom_site_type_symbol
 _atom_site_label
 _atom_site_symmetry_multiplicity
 _atom_site_fract_x
 _atom_site_fract_y
 _atom_site_fract_z
 _atom_site_occupancy
  Li  Li0  1  0.37701180  0.10207459  0.13343059  1
  Li  Li1  1  0.74565157  0.88445160  0.40142908  1
  Li  Li2  1  0.41789898  0.92770749  0.79290226  1
  Li  Li3  1  0.78847945  0.40752347  0.23001371  1
  Li  Li4  1  0.89281750  0.18699672  0.02457588  1
  S  S5  1  0.00572529  0.12398522  0.87561820  1
  S  S6  1  0.62865941  0.67662931  0.57179878  1
  S  S7  1  0.63779694  0.98786521  0.58276468  1
  S  S8  1  0.90139987  0.04122797  0.12065939  1
