# generated using pymatgen
data_Li4O3
_symmetry_space_group_name_H-M   'P 1'
_cell_length_a   8.80002215
_cell_length_b   3.26160649
_cell_length_c   2.95620443
_cell_angle_alpha   49.64229420
_cell_angle_beta   108.51846217
_cell_angle_gamma   104.37909398
_symmetry_Int_Tables_number   1
_chemical_formula_structural   Li4O3
_chemical_formula_sum   'Li4 O3'
_cell_volume   61.20198109
_cell_formula_units_Z   1
loop_
 _symmetry_equiv_pos_site_id
 _symmetry_equiv_pos_as_xyz
  1  'x, y, z'
loop_
 _atom_site_type_symbol
 _atom_site_label
 _atom_site_symmetry_multiplicity
 _atom_site_fract_x
 _atom_site_fract_y
 _atom_site_fract_z
 _atom_site_occupancy
  Li  Li0  1  0.15614655  0.61615333  0.68442336  1
  Li  Li1  1  -0.15614655  -0.61615333  -0.68442336  1
  Li  Li2  1  0.90742885  0.20417438  0.12868320  1
  Li  Li3  1  0.09257115  0.79582562  0.87131680  1
  O  O4  1  0.00232461  0.16199409  0.88843166  1
  O  O5  1  0.99767539  0.83800591  0.11156834  1
  O  O6  1  0.50000000  0.50000000  0.00000000  1
