# generated using pymatgen
data_Li5F
_symmetry_space_group_name_H-M   'P 1'
_cell_length_a   5.38429363
_cell_length_b   5.87438535
_cell_length_c   5.26513816
_cell_angle_alpha   104.09297644
_cell_angle_beta   87.52816818
_cell_angle_gamma   120.20692912
_symmetry_Int_Tables_number   1
_chemical_formula_structural   Li5F
_chemical_formula_sum   'Li5 F1'
_cell_volume   138.96124467
_cell_formula_units_Z   1
loop_
 _symmetry_equiv_pos_site_id
 _symmetry_equiv_pos_as_xyz
  1  'x, y, z'
loop_
 _atom_site_type_symbol
 _atom_site_label
 _atom_site_symmetry_multiplicity
 _atom_site_fract_x
 _atom_site_fract_y
 _atom_site_fract_z
 _atom_site_occupancy
  F  F0  1  0.93651769  0.76239159  0.35309023  1
  Li  Li1  1  0.64487950  0.54288388  0.34868788  1
  Li  Li2  1  0.73012811  0.42904367  0.51577013  1
  Li  Li3  1  0.21059362  0.41932144  0.45802267  1
  Li  Li4  1  0.96623068  0.55110723  0.18648452  1
  Li  Li5  1  0.93095173  0.20718311  0.89429215  1
