# generated using pymatgen
data_Li6Zr2TiO7
_symmetry_space_group_name_H-M   'P 1'
_cell_length_a   7.33362901
_cell_length_b   6.15644846
_cell_length_c   6.74210763
_cell_angle_alpha   97.74903664
_cell_angle_beta   100.76704175
_cell_angle_gamma   111.56120282
_symmetry_Int_Tables_number   1
_chemical_formula_structural   Li6Zr2TiO7
_chemical_formula_sum   'Li6 Zr2 Ti1 O7'
_cell_volume   271.13034454
_cell_formula_units_Z   1
loop_
 _symmetry_equiv_pos_site_id
 _symmetry_equiv_pos_as_xyz
  1  'x, y, z'
loop_
 _atom_site_type_symbol
 _atom_site_label
 _atom_site_symmetry_multiplicity
 _atom_site_fract_x
 _atom_site_fract_y
 _atom_site_fract_z
 _atom_site_occupancy
  Li  Li0  1  0.00708632  0.90676281  0.11991149  1
  Li  Li1  1  0.43932778  0.18985045  0.96922651  1
  Li  Li2  1  0.24126035  0.66125040  0.15403954  1
  Li  Li3  1  0.93692189  0.24446198  0.97895137  1
  Li  Li4  1  0.60121347  0.32746787  0.57561688  1
  Li  Li5  1  0.43641156  0.76527955  0.74569682  1
  O  O6  1  0.11476164  0.92638445  0.81371457  1
  O  O7  1  0.26882904  0.88467453  0.17048049  1
  O  O8  1  0.17991986  0.76092135  0.48567786  1
  O  O9  1  0.77140734  0.14247665  0.47530472  1
  O  O10  1  0.46063448  0.11381901  0.58747647  1
  O  O11  1  0.07327193  0.45097403  0.39670366  1
  O  O12  1  0.18644362  0.38649108  0.83173611  1
  Ti  Ti13  1  0.48797544  0.63438861  0.35109057  1
  Zr  Zr14  1  0.04758586  0.54418776  0.74595007  1
  Zr  Zr15  1  0.15275315  0.38902930  0.13700858  1
