# generated using pymatgen
data_Li2S3O5
_symmetry_space_group_name_H-M   'P 1'
_cell_length_a   7.64021108
_cell_length_b   4.03528392
_cell_length_c   6.42098355
_cell_angle_alpha   100.89714567
_cell_angle_beta   70.72357865
_cell_angle_gamma   70.57220837
_symmetry_Int_Tables_number   1
_chemical_formula_structural   Li2S3O5
_chemical_formula_sum   'Li2 S3 O5'
_cell_volume   165.99601321
_cell_formula_units_Z   1
loop_
 _symmetry_equiv_pos_site_id
 _symmetry_equiv_pos_as_xyz
  1  'x, y, z'
loop_
 _atom_site_type_symbol
 _atom_site_label
 _atom_site_symmetry_multiplicity
 _atom_site_fract_x
 _atom_site_fract_y
 _atom_site_fract_z
 _atom_site_occupancy
  Li  Li0  1  0.68968748  0.93854762  0.36248358  1
  Li  Li1  1  0.33118203  0.69881745  0.32449841  1
  O  O2  1  0.06684797  0.34481940  0.61364375  1
  O  O3  1  0.57076031  0.33909295  0.45303951  1
  O  O4  1  0.80426346  0.25737890  0.73161935  1
  O  O5  1  0.63539689  0.66666074  0.58048327  1
  O  O6  1  0.25917624  0.62184536  0.11792292  1
  S  S7  1  0.50682424  0.36701797  0.19598975  1
  S  S8  1  0.11948594  0.74803526  0.51224871  1
  S  S9  1  0.49826097  0.05942740  0.37331197  1
