# generated using pymatgen
data_Li6O5
_symmetry_space_group_name_H-M   'P 1'
_cell_length_a   6.53697096
_cell_length_b   7.31446665
_cell_length_c   7.14665168
_cell_angle_alpha   70.75894195
_cell_angle_beta   77.37965149
_cell_angle_gamma   122.40870225
_symmetry_Int_Tables_number   1
_chemical_formula_structural   Li6O5
_chemical_formula_sum   'Li6 O5'
_cell_volume   236.55743310
_cell_formula_units_Z   1
loop_
 _symmetry_equiv_pos_site_id
 _symmetry_equiv_pos_as_xyz
  1  'x, y, z'
loop_
 _atom_site_type_symbol
 _atom_site_label
 _atom_site_symmetry_multiplicity
 _atom_site_fract_x
 _atom_site_fract_y
 _atom_site_fract_z
 _atom_site_occupancy
  Li  Li0  1  0.00000000  0.50000000  0.50000000  1
  Li  Li1  1  0.50000000  0.00000000  0.50000000  1
  Li  Li2  1  0.00000000  0.00000000  0.50000000  1
  Li  Li3  1  0.66968815  0.20807905  0.95663583  1
  Li  Li4  1  -0.66968815  -0.20807905  -0.95663583  1
  Li  Li5  1  0.00000000  0.00000000  0.00000000  1
  O  O6  1  0.92148811  0.44426474  0.89264926  1
  O  O7  1  0.07851189  0.55573526  0.10735074  1
  O  O8  1  0.22536457  0.41095191  0.36410483  1
  O  O9  1  0.77463543  0.58904809  0.63589517  1
  O  O10  1  0.50000000  0.50000000  0.00000000  1
