# generated using pymatgen
data_Li2Zr
_symmetry_space_group_name_H-M   'P 1'
_cell_length_a   8.30715987
_cell_length_b   3.51587137
_cell_length_c   6.53674869
_cell_angle_alpha   75.35190375
_cell_angle_beta   127.73160069
_cell_angle_gamma   92.57207453
_symmetry_Int_Tables_number   1
_chemical_formula_structural   Li2Zr
_chemical_formula_sum   'Li4 Zr2'
_cell_volume   144.57279287
_cell_formula_units_Z   2
loop_
 _symmetry_equiv_pos_site_id
 _symmetry_equiv_pos_as_xyz
  1  'x, y, z'
loop_
 _atom_site_type_symbol
 _atom_site_label
 _atom_site_symmetry_multiplicity
 _atom_site_fract_x
 _atom_site_fract_y
 _atom_site_fract_z
 _atom_site_occupancy
  Li  Li0  1  0.13630373  0.99551179  0.62502428  1
  Li  Li1  1  -0.13630373  -0.99551179  -0.62502428  1
  Li  Li2  1  0.00000000  0.50000000  0.50000000  1
  Li  Li3  1  0.00000000  0.50000000  0.00000000  1
  Zr  Zr4  1  0.73010401  0.65907327  0.09473881  1
  Zr  Zr5  1  0.26989599  0.34092673  0.90526119  1
