# generated using pymatgen
data_Li2S8O5
_symmetry_space_group_name_H-M   'P 1'
_cell_length_a   9.00001170
_cell_length_b   7.59961807
_cell_length_c   7.80374870
_cell_angle_alpha   92.12228064
_cell_angle_beta   31.23068654
_cell_angle_gamma   96.59367853
_symmetry_Int_Tables_number   1
_chemical_formula_structural   Li2S8O5
_chemical_formula_sum   'Li2 S8 O5'
_cell_volume   272.96628721
_cell_formula_units_Z   1
loop_
 _symmetry_equiv_pos_site_id
 _symmetry_equiv_pos_as_xyz
  1  'x, y, z'
loop_
 _atom_site_type_symbol
 _atom_site_label
 _atom_site_symmetry_multiplicity
 _atom_site_fract_x
 _atom_site_fract_y
 _atom_site_fract_z
 _atom_site_occupancy
  Li  Li0  1  0.12051462  0.64013223  0.84792577  1
  Li  Li1  1  -0.12051462  -0.64013223  -0.84792577  1
  O  O2  1  0.50000000  0.50000000  -0.00000000  1
  O  O3  1  0.38786782  0.48140459  0.73663780  1
  O  O4  1  0.61213218  0.51859541  0.26336220  1
  O  O5  1  0.50000000  0.00000000  0.00000000  1
  O  O6  1  0.00000000  0.50000000  0.00000000  1
  S  S7  1  0.46457566  0.05651255  0.44964636  1
  S  S8  1  0.53542434  0.94348745  0.55035364  1
  S  S9  1  0.50000000  0.50000000  0.50000000  1
  S  S10  1  0.62103116  0.27494155  0.54741843  1
  S  S11  1  0.37896884  0.72505845  0.45258157  1
  S  S12  1  0.35535137  0.54924747  0.47568529  1
  S  S13  1  0.64464863  0.45075253  0.52431471  1
  S  S14  1  0.00000000  0.50000000  0.50000000  1
