# generated using pymatgen
data_Li2O
_symmetry_space_group_name_H-M   'P 1'
_cell_length_a   6.56200379
_cell_length_b   6.13736775
_cell_length_c   6.94750157
_cell_angle_alpha   80.91407226
_cell_angle_beta   96.36407794
_cell_angle_gamma   32.34147842
_symmetry_Int_Tables_number   1
_chemical_formula_structural   Li2O
_chemical_formula_sum   'Li4 O2'
_cell_volume   131.05402985
_cell_formula_units_Z   2
loop_
 _symmetry_equiv_pos_site_id
 _symmetry_equiv_pos_as_xyz
  1  'x, y, z'
loop_
 _atom_site_type_symbol
 _atom_site_label
 _atom_site_symmetry_multiplicity
 _atom_site_fract_x
 _atom_site_fract_y
 _atom_site_fract_z
 _atom_site_occupancy
  Li  Li0  1  0.31994259  0.40027116  0.27667243  1
  Li  Li1  1  0.73735638  0.60373237  0.13613692  1
  Li  Li2  1  0.28430560  0.10586901  0.52934762  1
  Li  Li3  1  0.75409160  0.57570866  0.39146221  1
  O  O4  1  0.62837207  0.10878347  0.83553504  1
  O  O5  1  0.74781401  0.72122228  0.85695742  1
