# generated using pymatgen
data_Li3Ti2
_symmetry_space_group_name_H-M   'P 1'
_cell_length_a   8.39393333
_cell_length_b   4.31776289
_cell_length_c   4.93687875
_cell_angle_alpha   90.00000000
_cell_angle_beta   69.98974355
_cell_angle_gamma   90.00000000
_symmetry_Int_Tables_number   1
_chemical_formula_structural   Li3Ti2
_chemical_formula_sum   'Li6 Ti4'
_cell_volume   168.12576691
_cell_formula_units_Z   2
loop_
 _symmetry_equiv_pos_site_id
 _symmetry_equiv_pos_as_xyz
  1  'x, y, z'
loop_
 _atom_site_type_symbol
 _atom_site_label
 _atom_site_symmetry_multiplicity
 _atom_site_fract_x
 _atom_site_fract_y
 _atom_site_fract_z
 _atom_site_occupancy
  Li  Li0  1  0.88194085  0.52703593  0.29973151  1
  Li  Li1  1  -0.88194085  1.02703593  0.20026849  1
  Li  Li2  1  -0.88194085  -0.52703593  -0.29973151  1
  Li  Li3  1  0.88194085  -0.02703593  0.79973151  1
  Li  Li4  1  0.50000000  0.00000000  0.00000000  1
  Li  Li5  1  0.50000000  0.50000000  0.50000000  1
  Ti  Ti6  1  0.00000000  0.00000000  0.00000000  1
  Ti  Ti7  1  0.00000000  0.50000000  0.50000000  1
  Ti  Ti8  1  0.00000000  0.00000000  0.50000000  1
  Ti  Ti9  1  0.00000000  0.50000000  -0.00000000  1
