# generated using pymatgen
data_Li5(S2O)2
_symmetry_space_group_name_H-M   'P 1'
_cell_length_a   6.06677399
_cell_length_b   6.72356402
_cell_length_c   6.16775237
_cell_angle_alpha   77.52618432
_cell_angle_beta   64.44371239
_cell_angle_gamma   85.77336729
_symmetry_Int_Tables_number   1
_chemical_formula_structural   Li5(S2O)2
_chemical_formula_sum   'Li5 S4 O2'
_cell_volume   221.55831352
_cell_formula_units_Z   1
loop_
 _symmetry_equiv_pos_site_id
 _symmetry_equiv_pos_as_xyz
  1  'x, y, z'
loop_
 _atom_site_type_symbol
 _atom_site_label
 _atom_site_symmetry_multiplicity
 _atom_site_fract_x
 _atom_site_fract_y
 _atom_site_fract_z
 _atom_site_occupancy
  Li  Li0  1  0.93228377  0.17768516  0.76793591  1
  Li  Li1  1  -0.93228377  -0.17768516  -0.76793591  1
  Li  Li2  1  0.65410923  0.45429507  0.95817487  1
  Li  Li3  1  0.34589077  0.54570493  0.04182513  1
  Li  Li4  1  0.50000000  0.00000000  0.00000000  1
  O  O5  1  0.23758538  0.79529766  0.27132940  1
  O  O6  1  0.76241462  0.20470234  0.72867060  1
  S  S7  1  0.50000000  0.50000000  0.50000000  1
  S  S8  1  0.00000000  0.50000000  0.50000000  1
  S  S9  1  0.64636259  0.81267792  0.91783336  1
  S  S10  1  0.35363741  0.18732208  0.08216664  1
