# generated using pymatgen
data_Li3O4
_symmetry_space_group_name_H-M   'P 1'
_cell_length_a   6.94588301
_cell_length_b   2.47826678
_cell_length_c   8.95369204
_cell_angle_alpha   54.40141792
_cell_angle_beta   95.03388656
_cell_angle_gamma   65.27752594
_symmetry_Int_Tables_number   1
_chemical_formula_structural   Li3O4
_chemical_formula_sum   'Li3 O4'
_cell_volume   101.74966272
_cell_formula_units_Z   1
loop_
 _symmetry_equiv_pos_site_id
 _symmetry_equiv_pos_as_xyz
  1  'x, y, z'
loop_
 _atom_site_type_symbol
 _atom_site_label
 _atom_site_symmetry_multiplicity
 _atom_site_fract_x
 _atom_site_fract_y
 _atom_site_fract_z
 _atom_site_occupancy
  Li  Li0  1  0.03119723  0.03779280  0.62303993  1
  Li  Li1  1  0.16223649  0.99608376  0.88668166  1
  Li  Li2  1  0.32392610  0.48143466  0.54215981  1
  O  O3  1  0.86718721  0.09546070  0.41261694  1
  O  O4  1  0.63327095  0.08318403  0.03298912  1
  O  O5  1  0.46986864  0.86995824  0.27897283  1
  O  O6  1  0.49311978  0.79874467  0.54217983  1
