# generated using pymatgen
data_Li7Al2
_symmetry_space_group_name_H-M   'P 1'
_cell_length_a   5.93557223
_cell_length_b   5.53044489
_cell_length_c   8.49091293
_cell_angle_alpha   119.00347620
_cell_angle_beta   98.26593964
_cell_angle_gamma   93.01704651
_symmetry_Int_Tables_number   1
_chemical_formula_structural   Li7Al2
_chemical_formula_sum   'Li7 Al2'
_cell_volume   238.81620372
_cell_formula_units_Z   1
loop_
 _symmetry_equiv_pos_site_id
 _symmetry_equiv_pos_as_xyz
  1  'x, y, z'
loop_
 _atom_site_type_symbol
 _atom_site_label
 _atom_site_symmetry_multiplicity
 _atom_site_fract_x
 _atom_site_fract_y
 _atom_site_fract_z
 _atom_site_occupancy
  Al  Al0  1  0.63517215  0.09832616  0.07007670  1
  Al  Al1  1  0.36482785  0.90167384  0.92992330  1
  Li  Li2  1  0.27246863  0.18316362  0.80815630  1
  Li  Li3  1  -0.27246863  -0.18316362  -0.80815630  1
  Li  Li4  1  0.50000000  0.50000000  0.00000000  1
  Li  Li5  1  0.50000000  0.50000000  0.50000000  1
  Li  Li6  1  0.87238117  0.98904048  0.83135978  1
  Li  Li7  1  0.12761883  0.01095952  0.16864022  1
  Li  Li8  1  0.00000000  0.00000000  0.50000000  1
