# generated using pymatgen
data_Li4S5O
_symmetry_space_group_name_H-M   'P 1'
_cell_length_a   8.76331859
_cell_length_b   3.81361520
_cell_length_c   6.61821820
_cell_angle_alpha   74.58723300
_cell_angle_beta   108.76493311
_cell_angle_gamma   100.88505062
_symmetry_Int_Tables_number   1
_chemical_formula_structural   Li4S5O
_chemical_formula_sum   'Li4 S5 O1'
_cell_volume   200.59400844
_cell_formula_units_Z   1
loop_
 _symmetry_equiv_pos_site_id
 _symmetry_equiv_pos_as_xyz
  1  'x, y, z'
loop_
 _atom_site_type_symbol
 _atom_site_label
 _atom_site_symmetry_multiplicity
 _atom_site_fract_x
 _atom_site_fract_y
 _atom_site_fract_z
 _atom_site_occupancy
  Li  Li0  1  0.00000000  0.00000000  0.50000000  1
  Li  Li1  1  0.95585063  0.29211954  0.56687029  1
  Li  Li2  1  -0.95585063  -0.29211954  -0.56687029  1
  Li  Li3  1  0.00000000  0.00000000  0.00000000  1
  O  O4  1  0.50000000  0.00000000  0.00000000  1
  S  S5  1  0.33535577  0.05200000  0.88005380  1
  S  S6  1  0.66464423  0.94800000  0.11994620  1
  S  S7  1  0.32591380  0.67609665  0.63121283  1
  S  S8  1  0.67408620  0.32390335  0.36878717  1
  S  S9  1  0.50000000  0.50000000  0.50000000  1
