# generated using pymatgen
data_Li2O2
_symmetry_space_group_name_H-M   'P 1'
_cell_length_a   3.52336011
_cell_length_b   5.61338381
_cell_length_c   5.06280047
_cell_angle_alpha   86.24547886
_cell_angle_beta   61.04376635
_cell_angle_gamma   85.41305607
_symmetry_Int_Tables_number   1
_chemical_formula_structural   Li2O2
_chemical_formula_sum   'Li3 O3'
_cell_volume   87.29266825
_cell_formula_units_Z   1
loop_
 _symmetry_equiv_pos_site_id
 _symmetry_equiv_pos_as_xyz
  1  'x, y, z'
loop_
 _atom_site_type_symbol
 _atom_site_label
 _atom_site_symmetry_multiplicity
 _atom_site_fract_x
 _atom_site_fract_y
 _atom_site_fract_z
 _atom_site_occupancy
  Li  Li0  1  0.93312889  0.93782287  0.62947336  1
  Li  Li1  1  0.48116295  0.98108124  0.78407306  1
  Li  Li2  1  0.51754616  0.11067531  0.39777943  1
  O  O3  1  0.25927575  0.45834372  0.20895893  1
  O  O4  1  0.83528803  0.08941670  0.03704602  1
  O  O5  1  0.10170653  0.63573071  0.69953986  1
