# generated using pymatgen
data_Li2O
_symmetry_space_group_name_H-M   'P 1'
_cell_length_a   3.85514718
_cell_length_b   3.93310590
_cell_length_c   4.51655019
_cell_angle_alpha   101.45994243
_cell_angle_beta   96.65731568
_cell_angle_gamma   104.31785865
_symmetry_Int_Tables_number   1
_chemical_formula_structural   Li2O
_chemical_formula_sum   'Li2 O1'
_cell_volume   64.04305514
_cell_formula_units_Z   1
loop_
 _symmetry_equiv_pos_site_id
 _symmetry_equiv_pos_as_xyz
  1  'x, y, z'
loop_
 _atom_site_type_symbol
 _atom_site_label
 _atom_site_symmetry_multiplicity
 _atom_site_fract_x
 _atom_site_fract_y
 _atom_site_fract_z
 _atom_site_occupancy
  Li  Li0  1  0.08469573  0.20729414  0.30729095  1
  Li  Li1  1  0.74156581  0.67329314  0.54046207  1
  O  O2  1  0.25294807  0.60810143  0.93801821  1
