# generated using pymatgen
data_Li2O
_symmetry_space_group_name_H-M   'P 1'
_cell_length_a   5.16261113
_cell_length_b   5.79027717
_cell_length_c   2.48387067
_cell_angle_alpha   64.35822499
_cell_angle_beta   75.63605556
_cell_angle_gamma   91.73766936
_symmetry_Int_Tables_number   1
_chemical_formula_structural   Li2O
_chemical_formula_sum   'Li2 O1'
_cell_volume   64.03448739
_cell_formula_units_Z   1
loop_
 _symmetry_equiv_pos_site_id
 _symmetry_equiv_pos_as_xyz
  1  'x, y, z'
loop_
 _atom_site_type_symbol
 _atom_site_label
 _atom_site_symmetry_multiplicity
 _atom_site_fract_x
 _atom_site_fract_y
 _atom_site_fract_z
 _atom_site_occupancy
  Li  Li0  1  0.79565027  0.93016835  0.76843247  1
  Li  Li1  1  0.78376250  0.47316956  0.51845931  1
  O  O2  1  0.75871105  0.05629145  0.09959412  1
