# generated using pymatgen
data_LiSO
_symmetry_space_group_name_H-M   'P 1'
_cell_length_a   3.68852548
_cell_length_b   9.52817748
_cell_length_c   3.90151328
_cell_angle_alpha   73.78528314
_cell_angle_beta   58.53511553
_cell_angle_gamma   96.25612533
_symmetry_Int_Tables_number   1
_chemical_formula_structural   LiSO
_chemical_formula_sum   'Li2 S2 O2'
_cell_volume   106.73462057
_cell_formula_units_Z   2
loop_
 _symmetry_equiv_pos_site_id
 _symmetry_equiv_pos_as_xyz
  1  'x, y, z'
loop_
 _atom_site_type_symbol
 _atom_site_label
 _atom_site_symmetry_multiplicity
 _atom_site_fract_x
 _atom_site_fract_y
 _atom_site_fract_z
 _atom_site_occupancy
  Li  Li0  1  0.21774469  0.69993756  0.48900291  1
  Li  Li1  1  0.71140829  0.02170346  0.30609289  1
  O  O2  1  0.88054806  0.95006242  0.95254715  1
  O  O3  1  0.49661265  0.98152953  0.72611019  1
  S  S4  1  0.23227232  0.90207197  0.21903868  1
  S  S5  1  0.49377273  0.13063460  0.01521270  1
