# generated using pymatgen
data_Li7O
_symmetry_space_group_name_H-M   'P 1'
_cell_length_a   4.92537783
_cell_length_b   5.94153152
_cell_length_c   8.26434776
_cell_angle_alpha   61.28855562
_cell_angle_beta   101.82800294
_cell_angle_gamma   110.47503884
_symmetry_Int_Tables_number   1
_chemical_formula_structural   Li7O
_chemical_formula_sum   'Li7 O1'
_cell_volume   198.51355593
_cell_formula_units_Z   1
loop_
 _symmetry_equiv_pos_site_id
 _symmetry_equiv_pos_as_xyz
  1  'x, y, z'
loop_
 _atom_site_type_symbol
 _atom_site_label
 _atom_site_symmetry_multiplicity
 _atom_site_fract_x
 _atom_site_fract_y
 _atom_site_fract_z
 _atom_site_occupancy
  Li  Li0  1  0.69036558  0.58217181  0.76240040  1
  Li  Li1  1  0.65334283  0.21692626  0.68259358  1
  Li  Li2  1  0.13055888  0.95549104  0.39135827  1
  Li  Li3  1  0.43998122  0.78560640  0.68412582  1
  Li  Li4  1  0.80423555  0.45748227  0.38996805  1
  Li  Li5  1  0.44529689  0.43692057  0.71298661  1
  Li  Li6  1  0.78092138  0.36712817  0.87199021  1
  O  O7  1  0.09637230  0.13228553  0.56078109  1
