# generated using pymatgen
data_Li5O
_symmetry_space_group_name_H-M   'P 1'
_cell_length_a   8.56327238
_cell_length_b   3.52500427
_cell_length_c   4.83337498
_cell_angle_alpha   95.89622712
_cell_angle_beta   65.06572452
_cell_angle_gamma   103.43520177
_symmetry_Int_Tables_number   1
_chemical_formula_structural   Li5O
_chemical_formula_sum   'Li5 O1'
_cell_volume   128.67682603
_cell_formula_units_Z   1
loop_
 _symmetry_equiv_pos_site_id
 _symmetry_equiv_pos_as_xyz
  1  'x, y, z'
loop_
 _atom_site_type_symbol
 _atom_site_label
 _atom_site_symmetry_multiplicity
 _atom_site_fract_x
 _atom_site_fract_y
 _atom_site_fract_z
 _atom_site_occupancy
  Li  Li0  1  0.50000000  0.00000000  0.50000000  1
  Li  Li1  1  0.50000000  0.00000000  0.00000000  1
  Li  Li2  1  0.00000000  0.00000000  0.50000000  1
  Li  Li3  1  0.10292439  0.69397265  0.17246519  1
  Li  Li4  1  -0.10292439  -0.69397265  -0.17246519  1
  O  O5  1  0.00000000  0.00000000  0.00000000  1
