# generated using pymatgen
data_Li2TiP3(OF)4
_symmetry_space_group_name_H-M   'P 1'
_cell_length_a   3.99176282
_cell_length_b   8.86453837
_cell_length_c   6.27764431
_cell_angle_alpha   90.25073284
_cell_angle_beta   101.66751080
_cell_angle_gamma   84.75696231
_symmetry_Int_Tables_number   1
_chemical_formula_structural   Li2TiP3(OF)4
_chemical_formula_sum   'Li2 Ti1 P3 O4 F4'
_cell_volume   216.61259311
_cell_formula_units_Z   1
loop_
 _symmetry_equiv_pos_site_id
 _symmetry_equiv_pos_as_xyz
  1  'x, y, z'
loop_
 _atom_site_type_symbol
 _atom_site_label
 _atom_site_symmetry_multiplicity
 _atom_site_fract_x
 _atom_site_fract_y
 _atom_site_fract_z
 _atom_site_occupancy
  F  F0  1  0.40805878  0.97041059  0.04490796  1
  F  F1  1  0.62263409  0.57713902  0.90512141  1
  F  F2  1  0.03919462  0.86898793  0.48859522  1
  F  F3  1  0.21290549  0.41698837  0.31852663  1
  Li  Li4  1  0.25481870  0.40330515  0.97423170  1
  Li  Li5  1  0.75472428  0.00000725  0.32528088  1
  O  O6  1  0.22956298  0.64575607  0.47954047  1
  O  O7  1  0.62914348  0.52199818  0.44619205  1
  O  O8  1  0.43895532  0.21103999  0.14801103  1
  O  O9  1  0.47170699  0.28687618  0.58172812  1
  P  P10  1  0.29501378  0.06832801  0.37517410  1
  P  P11  1  0.78898246  0.97048904  0.78856315  1
  P  P12  1  0.38442954  0.57833243  0.34058682  1
  Ti  Ti13  1  0.90589943  0.48660755  0.28268970  1
