# generated using pymatgen
data_Li5P3O4
_symmetry_space_group_name_H-M   'P 1'
_cell_length_a   8.15636292
_cell_length_b   4.03219579
_cell_length_c   6.65676120
_cell_angle_alpha   101.85912454
_cell_angle_beta   79.06821947
_cell_angle_gamma   101.50450956
_symmetry_Int_Tables_number   1
_chemical_formula_structural   Li5P3O4
_chemical_formula_sum   'Li5 P3 O4'
_cell_volume   207.41281344
_cell_formula_units_Z   1
loop_
 _symmetry_equiv_pos_site_id
 _symmetry_equiv_pos_as_xyz
  1  'x, y, z'
loop_
 _atom_site_type_symbol
 _atom_site_label
 _atom_site_symmetry_multiplicity
 _atom_site_fract_x
 _atom_site_fract_y
 _atom_site_fract_z
 _atom_site_occupancy
  Li  Li0  1  0.54477798  0.02285896  0.26694542  1
  Li  Li1  1  0.45522202  0.97714104  0.73305458  1
  Li  Li2  1  0.62069295  0.69219162  0.85984198  1
  Li  Li3  1  0.37930705  0.30780838  0.14015802  1
  Li  Li4  1  0.00000000  0.50000000  0.50000000  1
  O  O5  1  0.21371078  0.62881009  0.16577393  1
  O  O6  1  0.78628922  0.37118991  0.83422607  1
  O  O7  1  0.50000000  0.50000000  0.50000000  1
  O  O8  1  0.00000000  0.50000000  0.00000000  1
  P  P9  1  0.20143192  0.42178764  0.54799967  1
  P  P10  1  -0.20143192  -0.42178764  -0.54799967  1
  P  P11  1  0.00000000  0.00000000  0.00000000  1
