# generated using pymatgen
data_Li3La4Al3
_symmetry_space_group_name_H-M   'P 1'
_cell_length_a   5.38418096
_cell_length_b   5.02701147
_cell_length_c   14.05713131
_cell_angle_alpha   89.84470909
_cell_angle_beta   111.94939872
_cell_angle_gamma   49.83411785
_symmetry_Int_Tables_number   1
_chemical_formula_structural   Li3La4Al3
_chemical_formula_sum   'Li3 La4 Al3'
_cell_volume   253.22040292
_cell_formula_units_Z   1
loop_
 _symmetry_equiv_pos_site_id
 _symmetry_equiv_pos_as_xyz
  1  'x, y, z'
loop_
 _atom_site_type_symbol
 _atom_site_label
 _atom_site_symmetry_multiplicity
 _atom_site_fract_x
 _atom_site_fract_y
 _atom_site_fract_z
 _atom_site_occupancy
  Al  Al0  1  0.50000000  0.00000000  0.50000000  1
  Al  Al1  1  0.50000000  0.50000000  0.50000000  1
  Al  Al2  1  0.50000000  0.00000000  0.00000000  1
  La  La3  1  0.47231553  0.27802454  0.88843167  1
  La  La4  1  -0.47231553  -0.27802454  -0.88843167  1
  La  La5  1  0.86476216  0.11611181  0.73918000  1
  La  La6  1  0.13523784  0.88388819  0.26082000  1
  Li  Li7  1  0.00000000  0.50000000  -0.00000000  1
  Li  Li8  1  0.50000000  0.50000000  0.00000000  1
  Li  Li9  1  0.00000000  0.00000000  0.50000000  1
