# generated using pymatgen
data_Li3O4
_symmetry_space_group_name_H-M   'P 1'
_cell_length_a   2.62904139
_cell_length_b   7.39184679
_cell_length_c   7.74091459
_cell_angle_alpha   111.36181630
_cell_angle_beta   51.40557436
_cell_angle_gamma   99.36146369
_symmetry_Int_Tables_number   1
_chemical_formula_structural   Li3O4
_chemical_formula_sum   'Li3 O4'
_cell_volume   109.06631722
_cell_formula_units_Z   1
loop_
 _symmetry_equiv_pos_site_id
 _symmetry_equiv_pos_as_xyz
  1  'x, y, z'
loop_
 _atom_site_type_symbol
 _atom_site_label
 _atom_site_symmetry_multiplicity
 _atom_site_fract_x
 _atom_site_fract_y
 _atom_site_fract_z
 _atom_site_occupancy
  Li  Li0  1  0.50000000  0.00000000  0.50000000  1
  Li  Li1  1  0.95431823  0.01137014  0.72290441  1
  Li  Li2  1  -0.95431823  -0.01137014  -0.72290441  1
  O  O3  1  0.00000000  0.00000000  0.50000000  1
  O  O4  1  0.00000000  0.50000000  0.50000000  1
  O  O5  1  0.18641604  0.85648120  0.44663908  1
  O  O6  1  0.81358396  0.14351880  0.55336092  1
