# generated using pymatgen
data_LiLaO2
_symmetry_space_group_name_H-M   'P 1'
_cell_length_a   3.22213808
_cell_length_b   12.46450940
_cell_length_c   7.77636503
_cell_angle_alpha   90.00000000
_cell_angle_beta   90.00000000
_cell_angle_gamma   90.00000000
_symmetry_Int_Tables_number   1
_chemical_formula_structural   LiLaO2
_chemical_formula_sum   'Li4 La4 O8'
_cell_volume   312.31725321
_cell_formula_units_Z   4
loop_
 _symmetry_equiv_pos_site_id
 _symmetry_equiv_pos_as_xyz
  1  'x, y, z'
loop_
 _atom_site_type_symbol
 _atom_site_label
 _atom_site_symmetry_multiplicity
 _atom_site_fract_x
 _atom_site_fract_y
 _atom_site_fract_z
 _atom_site_occupancy
  La  La0  1  0.00000000  0.00000000  0.00000000  1
  La  La1  1  0.00000000  0.00000000  0.50000000  1
  La  La2  1  0.50000000  0.50000000  0.00000000  1
  La  La3  1  0.50000000  0.50000000  0.50000000  1
  Li  Li4  1  0.00000000  0.73868280  0.25000000  1
  Li  Li5  1  0.00000000  0.26131720  0.75000000  1
  Li  Li6  1  0.50000000  0.23868280  0.25000000  1
  Li  Li7  1  0.50000000  0.76131720  0.75000000  1
  O  O8  1  0.00000000  0.42783155  0.25000000  1
  O  O9  1  0.00000000  0.57216845  0.75000000  1
  O  O10  1  0.50000000  0.92783155  0.25000000  1
  O  O11  1  0.50000000  0.07216845  0.75000000  1
  O  O12  1  0.00000000  0.24855395  0.25000000  1
  O  O13  1  0.00000000  0.75144605  0.75000000  1
  O  O14  1  0.50000000  0.74855395  0.25000000  1
  O  O15  1  0.50000000  0.25144605  0.75000000  1
