# generated using pymatgen
data_Li5O3
_symmetry_space_group_name_H-M   'P 1'
_cell_length_a   2.96984357
_cell_length_b   10.47629156
_cell_length_c   3.14172859
_cell_angle_alpha   95.30679791
_cell_angle_beta   83.98436332
_cell_angle_gamma   104.27248617
_symmetry_Int_Tables_number   1
_chemical_formula_structural   Li5O3
_chemical_formula_sum   'Li5 O3'
_cell_volume   93.98415152
_cell_formula_units_Z   1
loop_
 _symmetry_equiv_pos_site_id
 _symmetry_equiv_pos_as_xyz
  1  'x, y, z'
loop_
 _atom_site_type_symbol
 _atom_site_label
 _atom_site_symmetry_multiplicity
 _atom_site_fract_x
 _atom_site_fract_y
 _atom_site_fract_z
 _atom_site_occupancy
  Li  Li0  1  0.42265022  0.17112423  0.12020098  1
  Li  Li1  1  -0.42265022  -0.17112423  -0.12020098  1
  Li  Li2  1  0.29861018  0.27014335  0.53716567  1
  Li  Li3  1  0.70138982  0.72985665  0.46283433  1
  Li  Li4  1  0.50000000  0.00000000  0.50000000  1
  O  O5  1  0.00000000  0.00000000  0.00000000  1
  O  O6  1  0.50000000  0.00000000  0.00000000  1
  O  O7  1  0.50000000  0.50000000  0.00000000  1
