# generated using pymatgen
data_Li6O5
_symmetry_space_group_name_H-M   'P 1'
_cell_length_a   9.27146758
_cell_length_b   2.71471573
_cell_length_c   8.43124881
_cell_angle_alpha   103.50317173
_cell_angle_beta   109.92926522
_cell_angle_gamma   86.01577577
_symmetry_Int_Tables_number   1
_chemical_formula_structural   Li6O5
_chemical_formula_sum   'Li6 O5'
_cell_volume   193.97444780
_cell_formula_units_Z   1
loop_
 _symmetry_equiv_pos_site_id
 _symmetry_equiv_pos_as_xyz
  1  'x, y, z'
loop_
 _atom_site_type_symbol
 _atom_site_label
 _atom_site_symmetry_multiplicity
 _atom_site_fract_x
 _atom_site_fract_y
 _atom_site_fract_z
 _atom_site_occupancy
  Li  Li0  1  0.50000000  0.00000000  0.50000000  1
  Li  Li1  1  0.50000000  0.00000000  0.00000000  1
  Li  Li2  1  0.62189421  0.32494905  0.16242561  1
  Li  Li3  1  -0.62189421  -0.32494905  -0.16242561  1
  Li  Li4  1  0.33608729  0.42633456  0.42529694  1
  Li  Li5  1  0.66391271  0.57366544  0.57470306  1
  O  O6  1  0.44619506  0.92048284  0.20720720  1
  O  O7  1  0.55380494  0.07951716  0.79279280  1
  O  O8  1  0.00000000  0.50000000  0.00000000  1
  O  O9  1  0.84084195  0.09940214  0.23111530  1
  O  O10  1  0.15915805  0.90059786  0.76888470  1
