# generated using pymatgen
data_Li8O
_symmetry_space_group_name_H-M   'P 1'
_cell_length_a   6.10567998
_cell_length_b   4.97753158
_cell_length_c   9.22352506
_cell_angle_alpha   108.64571161
_cell_angle_beta   99.42648134
_cell_angle_gamma   117.82790058
_symmetry_Int_Tables_number   1
_chemical_formula_structural   Li8O
_chemical_formula_sum   'Li8 O1'
_cell_volume   217.88013054
_cell_formula_units_Z   1
loop_
 _symmetry_equiv_pos_site_id
 _symmetry_equiv_pos_as_xyz
  1  'x, y, z'
loop_
 _atom_site_type_symbol
 _atom_site_label
 _atom_site_symmetry_multiplicity
 _atom_site_fract_x
 _atom_site_fract_y
 _atom_site_fract_z
 _atom_site_occupancy
  Li  Li0  1  0.00000000  0.00000000  0.00000000  1
  Li  Li1  1  0.50000000  0.50000000  0.50000000  1
  Li  Li2  1  0.00000000  0.00000000  0.50000000  1
  Li  Li3  1  0.50000000  0.50000000  0.00000000  1
  Li  Li4  1  0.72721196  0.75788143  0.72447616  1
  Li  Li5  1  -0.72721196  -0.75788143  -0.72447616  1
  Li  Li6  1  0.32238582  0.65534782  0.90156477  1
  Li  Li7  1  0.67761418  0.34465218  0.09843523  1
  O  O8  1  0.00000000  0.50000000  0.50000000  1
