# generated using pymatgen
data_Li3O4
_symmetry_space_group_name_H-M   'P 1'
_cell_length_a   4.76202254
_cell_length_b   5.64244929
_cell_length_c   4.16735069
_cell_angle_alpha   88.67316863
_cell_angle_beta   78.89037553
_cell_angle_gamma   47.40433831
_symmetry_Int_Tables_number   1
_chemical_formula_structural   Li3O4
_chemical_formula_sum   'Li3 O4'
_cell_volume   79.98849476
_cell_formula_units_Z   1
loop_
 _symmetry_equiv_pos_site_id
 _symmetry_equiv_pos_as_xyz
  1  'x, y, z'
loop_
 _atom_site_type_symbol
 _atom_site_label
 _atom_site_symmetry_multiplicity
 _atom_site_fract_x
 _atom_site_fract_y
 _atom_site_fract_z
 _atom_site_occupancy
  Li  Li0  1  0.22390321  0.18175497  0.32806518  1
  Li  Li1  1  0.32453993  0.20678326  0.61972169  1
  Li  Li2  1  0.83676494  0.77366878  0.42201097  1
  O  O3  1  0.14383437  0.61328615  0.94938783  1
  O  O4  1  0.19358265  0.54906289  0.19221713  1
  O  O5  1  0.83781584  0.19414532  0.37371287  1
  O  O6  1  0.50280462  0.61724360  0.81785633  1
