# generated using pymatgen
data_Li2O
_symmetry_space_group_name_H-M   'P 1'
_cell_length_a   3.76368222
_cell_length_b   5.08759844
_cell_length_c   1.93203357
_cell_angle_alpha   105.47798078
_cell_angle_beta   79.61066715
_cell_angle_gamma   93.49927780
_symmetry_Int_Tables_number   1
_chemical_formula_structural   Li2O
_chemical_formula_sum   'Li2 O1'
_cell_volume   35.06531012
_cell_formula_units_Z   1
loop_
 _symmetry_equiv_pos_site_id
 _symmetry_equiv_pos_as_xyz
  1  'x, y, z'
loop_
 _atom_site_type_symbol
 _atom_site_label
 _atom_site_symmetry_multiplicity
 _atom_site_fract_x
 _atom_site_fract_y
 _atom_site_fract_z
 _atom_site_occupancy
  Li  Li0  1  0.56812128  0.80109561  0.12463682  1
  Li  Li1  1  0.52755620  0.47186006  0.52384478  1
  O  O2  1  0.92370382  0.03791248  0.27038155  1
