# generated using pymatgen
data_LiLa
_symmetry_space_group_name_H-M   'P 1'
_cell_length_a   4.86429696
_cell_length_b   4.32796900
_cell_length_c   6.98534804
_cell_angle_alpha   97.02048087
_cell_angle_beta   110.67805265
_cell_angle_gamma   86.00087128
_symmetry_Int_Tables_number   1
_chemical_formula_structural   LiLa
_chemical_formula_sum   'Li2 La2'
_cell_volume   136.49806641
_cell_formula_units_Z   2
loop_
 _symmetry_equiv_pos_site_id
 _symmetry_equiv_pos_as_xyz
  1  'x, y, z'
loop_
 _atom_site_type_symbol
 _atom_site_label
 _atom_site_symmetry_multiplicity
 _atom_site_fract_x
 _atom_site_fract_y
 _atom_site_fract_z
 _atom_site_occupancy
  La  La0  1  0.87023535  0.94131108  0.27612276  1
  La  La1  1  0.77087270  0.07687106  0.84453226  1
  Li  Li2  1  0.25431303  0.50138535  0.97714519  1
  Li  Li3  1  0.44927852  0.35364354  0.83682239  1
