# generated using pymatgen
data_Li5O4
_symmetry_space_group_name_H-M   'P 1'
_cell_length_a   9.29904312
_cell_length_b   5.95744388
_cell_length_c   4.53702490
_cell_angle_alpha   103.62794734
_cell_angle_beta   101.94072689
_cell_angle_gamma   41.50753905
_symmetry_Int_Tables_number   1
_chemical_formula_structural   Li5O4
_chemical_formula_sum   'Li5 O4'
_cell_volume   161.70000192
_cell_formula_units_Z   1
loop_
 _symmetry_equiv_pos_site_id
 _symmetry_equiv_pos_as_xyz
  1  'x, y, z'
loop_
 _atom_site_type_symbol
 _atom_site_label
 _atom_site_symmetry_multiplicity
 _atom_site_fract_x
 _atom_site_fract_y
 _atom_site_fract_z
 _atom_site_occupancy
  Li  Li0  1  0.19021581  0.52083458  0.42107273  1
  Li  Li1  1  0.02937904  0.52953578  0.68659353  1
  Li  Li2  1  0.64933360  0.97842200  0.76843849  1
  Li  Li3  1  0.92953272  0.61224739  0.42535359  1
  Li  Li4  1  0.55461474  0.73211925  0.02518827  1
  O  O5  1  0.58093934  0.83486270  0.93257726  1
  O  O6  1  0.18376937  0.83881204  0.43792421  1
  O  O7  1  0.50167126  0.32997409  0.70824980  1
  O  O8  1  0.95221886  0.87983166  0.49181999  1
