# generated using pymatgen
data_Li3Zr2O2
_symmetry_space_group_name_H-M   'P 1'
_cell_length_a   4.21596748
_cell_length_b   5.36266558
_cell_length_c   15.31016168
_cell_angle_alpha   101.17795161
_cell_angle_beta   51.79446777
_cell_angle_gamma   109.59873171
_symmetry_Int_Tables_number   1
_chemical_formula_structural   Li3Zr2O2
_chemical_formula_sum   'Li6 Zr4 O4'
_cell_volume   256.19797922
_cell_formula_units_Z   2
loop_
 _symmetry_equiv_pos_site_id
 _symmetry_equiv_pos_as_xyz
  1  'x, y, z'
loop_
 _atom_site_type_symbol
 _atom_site_label
 _atom_site_symmetry_multiplicity
 _atom_site_fract_x
 _atom_site_fract_y
 _atom_site_fract_z
 _atom_site_occupancy
  Li  Li0  1  0.65184107  0.13063140  0.26193442  1
  Li  Li1  1  -0.65184107  -0.13063140  -0.26193442  1
  Li  Li2  1  0.06475437  0.87761848  0.96176166  1
  Li  Li3  1  0.93524563  0.12238152  0.03823834  1
  Li  Li4  1  0.50000000  0.00000000  0.50000000  1
  Li  Li5  1  0.00000000  0.50000000  0.50000000  1
  O  O6  1  0.39994962  0.37905400  0.76119682  1
  O  O7  1  0.60005038  0.62094600  0.23880318  1
  O  O8  1  0.84073624  0.31776737  0.20913209  1
  O  O9  1  0.15926376  0.68223263  0.79086791  1
  Zr  Zr10  1  0.50000000  0.00000000  0.00000000  1
  Zr  Zr11  1  0.50000000  0.50000000  0.50000000  1
  Zr  Zr12  1  0.50000000  0.50000000  0.00000000  1
  Zr  Zr13  1  0.00000000  0.50000000  0.00000000  1
