# generated using pymatgen
data_LiO10
_symmetry_space_group_name_H-M   'P 1'
_cell_length_a   7.82412113
_cell_length_b   4.47083480
_cell_length_c   3.60742415
_cell_angle_alpha   97.91449912
_cell_angle_beta   111.08254688
_cell_angle_gamma   100.13248859
_symmetry_Int_Tables_number   1
_chemical_formula_structural   LiO10
_chemical_formula_sum   'Li1 O10'
_cell_volume   113.09727711
_cell_formula_units_Z   1
loop_
 _symmetry_equiv_pos_site_id
 _symmetry_equiv_pos_as_xyz
  1  'x, y, z'
loop_
 _atom_site_type_symbol
 _atom_site_label
 _atom_site_symmetry_multiplicity
 _atom_site_fract_x
 _atom_site_fract_y
 _atom_site_fract_z
 _atom_site_occupancy
  Li  Li0  1  0.50000000  0.50000000  0.50000000  1
  O  O1  1  0.51950273  0.56911222  0.09773603  1
  O  O2  1  -0.51950273  -0.56911222  -0.09773603  1
  O  O3  1  0.50000000  0.00000000  0.00000000  1
  O  O4  1  0.51111958  0.86426139  0.88252271  1
  O  O5  1  0.48888042  0.13573861  0.11747729  1
  O  O6  1  0.05776778  0.29979296  0.92834519  1
  O  O7  1  0.94223222  0.70020704  0.07165481  1
  O  O8  1  0.91042814  0.74798134  0.27193580  1
  O  O9  1  0.08957186  0.25201866  0.72806420  1
  O  O10  1  0.00000000  0.50000000  0.50000000  1
