# generated using pymatgen
data_Li4O
_symmetry_space_group_name_H-M   'P 1'
_cell_length_a   5.95922322
_cell_length_b   7.11178857
_cell_length_c   8.20508254
_cell_angle_alpha   122.69172938
_cell_angle_beta   64.69049799
_cell_angle_gamma   80.75176189
_symmetry_Int_Tables_number   1
_chemical_formula_structural   Li4O
_chemical_formula_sum   'Li8 O2'
_cell_volume   226.82020000
_cell_formula_units_Z   2
loop_
 _symmetry_equiv_pos_site_id
 _symmetry_equiv_pos_as_xyz
  1  'x, y, z'
loop_
 _atom_site_type_symbol
 _atom_site_label
 _atom_site_symmetry_multiplicity
 _atom_site_fract_x
 _atom_site_fract_y
 _atom_site_fract_z
 _atom_site_occupancy
  Li  Li0  1  0.11317573  0.19909731  0.43073688  1
  Li  Li1  1  -0.11317573  -0.19909731  -0.43073688  1
  Li  Li2  1  0.02485196  0.17014829  0.02276432  1
  Li  Li3  1  0.97514804  0.82985171  0.97723568  1
  Li  Li4  1  0.00000000  0.00000000  0.50000000  1
  Li  Li5  1  0.56926836  0.45895167  0.75091941  1
  Li  Li6  1  0.43073164  0.54104833  0.24908059  1
  Li  Li7  1  0.50000000  0.00000000  -0.00000000  1
  O  O8  1  0.00000000  0.50000000  0.50000000  1
  O  O9  1  0.50000000  0.00000000  0.50000000  1
