# generated using pymatgen
data_LiBr
_symmetry_space_group_name_H-M   'P 1'
_cell_length_a   4.76206860
_cell_length_b   4.76206860
_cell_length_c   10.46716956
_cell_angle_alpha   90.00000000
_cell_angle_beta   90.00000000
_cell_angle_gamma   120.00000000
_symmetry_Int_Tables_number   1
_chemical_formula_structural   LiBr
_chemical_formula_sum   'Li6 Br6'
_cell_volume   205.56595321
_cell_formula_units_Z   6
loop_
 _symmetry_equiv_pos_site_id
 _symmetry_equiv_pos_as_xyz
  1  'x, y, z'
loop_
 _atom_site_type_symbol
 _atom_site_label
 _atom_site_symmetry_multiplicity
 _atom_site_fract_x
 _atom_site_fract_y
 _atom_site_fract_z
 _atom_site_occupancy
  Br  Br0  1  0.50000000  0.00000000  0.00000000  1
  Br  Br1  1  0.00000000  0.50000000  0.00000000  1
  Br  Br2  1  0.50000000  0.50000000  0.00000000  1
  Br  Br3  1  0.50000000  0.00000000  0.50000000  1
  Br  Br4  1  0.00000000  0.50000000  0.50000000  1
  Br  Br5  1  0.50000000  0.50000000  0.50000000  1
  Li  Li6  1  0.33333333  0.66666667  0.25000000  1
  Li  Li7  1  0.66666667  0.33333333  0.75000000  1
  Li  Li8  1  0.33333333  0.66666667  0.48055141  1
  Li  Li9  1  0.66666667  0.33333333  0.98055141  1
  Li  Li10  1  0.66666667  0.33333333  0.51944859  1
  Li  Li11  1  0.33333333  0.66666667  0.01944859  1
