# generated using pymatgen
data_Li2Se
_symmetry_space_group_name_H-M   'P 1'
_cell_length_a   14.87816779
_cell_length_b   14.87816779
_cell_length_c   3.77342577
_cell_angle_alpha   90.00000000
_cell_angle_beta   90.00000000
_cell_angle_gamma   120.00000000
_symmetry_Int_Tables_number   1
_chemical_formula_structural   Li2Se
_chemical_formula_sum   'Li36 Se18'
_cell_volume   723.37808372
_cell_formula_units_Z   18
loop_
 _symmetry_equiv_pos_site_id
 _symmetry_equiv_pos_as_xyz
  1  'x, y, z'
loop_
 _atom_site_type_symbol
 _atom_site_label
 _atom_site_symmetry_multiplicity
 _atom_site_fract_x
 _atom_site_fract_y
 _atom_site_fract_z
 _atom_site_occupancy
  Li  Li0  1  0.76770535  0.14484171  0.94039435  1
  Li  Li1  1  -0.14484171  0.62286365  0.94039435  1
  Li  Li2  1  -0.62286365  -0.76770535  0.94039435  1
  Li  Li3  1  0.14484171  0.76770535  -0.94039435  1
  Li  Li4  1  0.62286365  -0.14484171  -0.94039435  1
  Li  Li5  1  -0.76770535  -0.62286365  -0.94039435  1
  Li  Li6  1  -0.76770535  -0.14484171  -0.94039435  1
  Li  Li7  1  0.14484171  -0.62286365  -0.94039435  1
  Li  Li8  1  0.62286365  0.76770535  -0.94039435  1
  Li  Li9  1  -0.14484171  -0.76770535  0.94039435  1
  Li  Li10  1  -0.62286365  0.14484171  0.94039435  1
  Li  Li11  1  0.76770535  0.62286365  0.94039435  1
  Li  Li12  1  1.43437202  0.47817504  1.27372768  1
  Li  Li13  1  0.52182496  0.95619698  1.27372768  1
  Li  Li14  1  0.04380302  -0.43437202  1.27372768  1
  Li  Li15  1  0.81150837  1.10103869  -0.60706101  1
  Li  Li16  1  1.28953031  0.18849163  -0.60706101  1
  Li  Li17  1  -0.10103869  -0.28953031  -0.60706101  1
  Li  Li18  1  -0.10103869  0.18849163  -0.60706101  1
  Li  Li19  1  0.81150837  -0.28953031  -0.60706101  1
  Li  Li20  1  1.28953031  1.10103869  -0.60706101  1
  Li  Li21  1  0.52182496  -0.43437202  1.27372768  1
  Li  Li22  1  0.04380302  0.47817504  1.27372768  1
  Li  Li23  1  1.43437202  0.95619698  1.27372768  1
  Li  Li24  1  1.10103869  0.81150837  1.60706101  1
  Li  Li25  1  0.18849163  1.28953031  1.60706101  1
  Li  Li26  1  -0.28953031  -0.10103869  1.60706101  1
  Li  Li27  1  0.47817504  1.43437202  -0.27372768  1
  Li  Li28  1  0.95619698  0.52182496  -0.27372768  1
  Li  Li29  1  -0.43437202  0.04380302  -0.27372768  1
  Li  Li30  1  -0.43437202  0.52182496  -0.27372768  1
  Li  Li31  1  0.47817504  0.04380302  -0.27372768  1
  Li  Li32  1  0.95619698  1.43437202  -0.27372768  1
  Li  Li33  1  0.18849163  -0.10103869  1.60706101  1
  Li  Li34  1  -0.28953031  0.81150837  1.60706101  1
  Li  Li35  1  1.10103869  1.28953031  1.60706101  1
  Se  Se36  1  0.33988399  0.00000000  -0.00000000  1
  Se  Se37  1  0.00000000  0.33988399  0.00000000  1
  Se  Se38  1  0.66011601  0.66011601  0.00000000  1
  Se  Se39  1  0.66011601  0.00000000  0.00000000  1
  Se  Se40  1  0.00000000  0.66011601  0.00000000  1
  Se  Se41  1  0.33988399  0.33988399  0.00000000  1
  Se  Se42  1  0.00655065  0.33333333  0.33333333  1
  Se  Se43  1  0.66666667  0.67321732  0.33333333  1
  Se  Se44  1  0.32678268  0.99344935  0.33333333  1
  Se  Se45  1  0.32678268  0.33333333  0.33333333  1
  Se  Se46  1  0.66666667  0.99344935  0.33333333  1
  Se  Se47  1  0.00655065  0.67321732  0.33333333  1
  Se  Se48  1  0.67321732  0.66666667  0.66666667  1
  Se  Se49  1  0.33333333  0.00655065  0.66666667  1
  Se  Se50  1  0.99344935  0.32678268  0.66666667  1
  Se  Se51  1  0.99344935  0.66666667  0.66666667  1
  Se  Se52  1  0.33333333  0.32678268  0.66666667  1
  Se  Se53  1  0.67321732  0.00655065  0.66666667  1
