# generated using pymatgen
data_Li2HfTe3
_symmetry_space_group_name_H-M   'P 1'
_cell_length_a   11.10371990
_cell_length_b   7.19565829
_cell_length_c   10.85732724
_cell_angle_alpha   90.00000000
_cell_angle_beta   90.00000000
_cell_angle_gamma   90.00000000
_symmetry_Int_Tables_number   1
_chemical_formula_structural   Li2HfTe3
_chemical_formula_sum   'Li16 Hf8 Te24'
_cell_volume   867.48496602
_cell_formula_units_Z   8
loop_
 _symmetry_equiv_pos_site_id
 _symmetry_equiv_pos_as_xyz
  1  'x, y, z'
loop_
 _atom_site_type_symbol
 _atom_site_label
 _atom_site_symmetry_multiplicity
 _atom_site_fract_x
 _atom_site_fract_y
 _atom_site_fract_z
 _atom_site_occupancy
  Hf  Hf0  1  0.81248897  0.65486654  0.90161009  1
  Hf  Hf1  1  0.18751103  0.34513346  0.90161009  1
  Hf  Hf2  1  0.68751103  0.15486654  0.59838991  1
  Hf  Hf3  1  0.31248897  0.84513346  0.59838991  1
  Hf  Hf4  1  0.18751103  0.34513346  0.09838991  1
  Hf  Hf5  1  0.81248897  0.65486654  0.09838991  1
  Hf  Hf6  1  0.31248897  0.84513346  0.40161009  1
  Hf  Hf7  1  0.68751103  0.15486654  0.40161009  1
  Li  Li8  1  0.73274136  0.83939686  0.62826207  1
  Li  Li9  1  0.26725864  0.16060314  0.62826207  1
  Li  Li10  1  0.76725864  0.33939686  0.87173793  1
  Li  Li11  1  0.23274136  0.66060314  0.87173793  1
  Li  Li12  1  0.26725864  0.16060314  0.37173793  1
  Li  Li13  1  0.73274136  0.83939686  0.37173793  1
  Li  Li14  1  0.23274136  0.66060314  0.12826207  1
  Li  Li15  1  0.76725864  0.33939686  0.12826207  1
  Li  Li16  1  0.80507444  0.34934811  -0.00000000  1
  Li  Li17  1  0.19492556  0.65065189  -0.00000000  1
  Li  Li18  1  0.69492556  0.84934811  0.50000000  1
  Li  Li19  1  0.30507444  0.15065189  0.50000000  1
  Li  Li20  1  0.00000000  0.50000000  0.00000000  1
  Li  Li21  1  0.50000000  -0.00000000  0.50000000  1
  Li  Li22  1  0.00000000  0.00000000  0.00000000  1
  Li  Li23  1  0.50000000  0.50000000  0.50000000  1
  Te  Te24  1  0.54551165  0.88989719  0.64773480  1
  Te  Te25  1  -0.54551165  -0.88989719  0.64773480  1
  Te  Te26  1  -0.04551165  1.38989719  -0.14773480  1
  Te  Te27  1  1.04551165  -0.38989719  -0.14773480  1
  Te  Te28  1  -0.54551165  -0.88989719  -0.64773480  1
  Te  Te29  1  0.54551165  0.88989719  -0.64773480  1
  Te  Te30  1  1.04551165  -0.38989719  1.14773480  1
  Te  Te31  1  -0.04551165  1.38989719  1.14773480  1
  Te  Te32  1  0.06093871  0.90384308  0.14562011  1
  Te  Te33  1  0.93906129  0.09615692  0.14562011  1
  Te  Te34  1  0.43906129  0.40384308  0.35437989  1
  Te  Te35  1  0.56093871  0.59615692  0.35437989  1
  Te  Te36  1  0.93906129  0.09615692  0.85437989  1
  Te  Te37  1  0.06093871  0.90384308  0.85437989  1
  Te  Te38  1  0.56093871  0.59615692  0.64562011  1
  Te  Te39  1  0.43906129  0.40384308  0.64562011  1
  Te  Te40  1  0.00000000  0.00000000  0.50000000  1
  Te  Te41  1  0.50000000  0.50000000  -0.00000000  1
  Te  Te42  1  0.30157569  0.35850685  -0.00000000  1
  Te  Te43  1  0.69842431  0.64149315  0.00000000  1
  Te  Te44  1  0.19842431  0.85850685  0.50000000  1
  Te  Te45  1  0.80157569  0.14149315  0.50000000  1
  Te  Te46  1  0.00000000  0.50000000  0.50000000  1
  Te  Te47  1  0.50000000  -0.00000000  0.00000000  1
