# generated using pymatgen
data_Li8La3Zr2O10
_symmetry_space_group_name_H-M   'P 1'
_cell_length_a   5.50698517
_cell_length_b   5.50698517
_cell_length_c   7.74889986
_cell_angle_alpha   90.00000000
_cell_angle_beta   90.00000000
_cell_angle_gamma   90.00000000
_symmetry_Int_Tables_number   1
_chemical_formula_structural   Li8La3Zr2O10
_chemical_formula_sum   'Li8 La3 Zr2 O10'
_cell_volume   235.00000000
_cell_formula_units_Z   1
loop_
 _symmetry_equiv_pos_site_id
 _symmetry_equiv_pos_as_xyz
  1  'x, y, z'
loop_
 _atom_site_type_symbol
 _atom_site_label
 _atom_site_symmetry_multiplicity
 _atom_site_fract_x
 _atom_site_fract_y
 _atom_site_fract_z
 _atom_site_occupancy
  Li  Li0  1  0.91152801  0.93772849  0.99162376  1
  Li  Li1  1  0.09507580  0.08837295  0.05696666  1
  Li  Li2  1  0.02488385  0.15105128  0.16136660  1
  Li  Li3  1  0.14067752  0.20381589  0.43058260  1
  Li  Li4  1  0.14972952  0.25971529  0.38047026  1
  Li  Li5  1  0.14133120  0.34852800  0.57152040  1
  Li  Li6  1  0.30560855  0.42529189  0.75853903  1
  Li  Li7  1  0.24777598  0.52581885  0.75783168  1
  La  La8  1  0.32002002  0.54834048  0.87397715  1
  La  La9  1  0.38618946  0.72279037  0.03520265  1
  La  La10  1  0.45324473  0.78404259  0.22776484  1
  Zr  Zr11  1  0.55439736  0.76224719  0.35156624  1
  Zr  Zr12  1  0.53174012  0.92407151  0.37344490  1
  O  O13  1  0.64556578  0.96523995  0.48259939  1
  O  O14  1  0.60057286  0.98511908  0.59590723  1
  O  O15  1  0.67091476  0.04714384  0.61418242  1
  O  O16  1  0.77839664  0.09492494  0.73014642  1
  O  O17  1  0.83822518  0.17122386  0.02883737  1
  O  O18  1  0.74039102  0.21327842  0.12132293  1
  O  O19  1  0.76582857  0.24610143  0.06983838  1
  O  O20  1  0.81318234  0.42629208  0.19830782  1
  O  O21  1  0.95489270  0.54624109  0.48451560  1
  O  O22  1  0.00679883  0.50879671  0.49786684  1
