# generated using pymatgen
data_Li5In2Ga2Cl9
_symmetry_space_group_name_H-M   'P 1'
_cell_length_a   13.44257868
_cell_length_b   13.44257868
_cell_length_c   12.78721316
_cell_angle_alpha   90.00000000
_cell_angle_beta   90.00000000
_cell_angle_gamma   90.00000000
_symmetry_Int_Tables_number   1
_chemical_formula_structural   Li5In2Ga2Cl9
_chemical_formula_sum   'Li5 In2 Ga2 Cl9'
_cell_volume   2310.68677540
_cell_formula_units_Z   1
loop_
 _symmetry_equiv_pos_site_id
 _symmetry_equiv_pos_as_xyz
  1  'x, y, z'
loop_
 _atom_site_type_symbol
 _atom_site_label
 _atom_site_symmetry_multiplicity
 _atom_site_fract_x
 _atom_site_fract_y
 _atom_site_fract_z
 _atom_site_occupancy
  Li  Li0  1  0.04242649  0.08907506  0.99688915  1
  Li  Li1  1  0.02005848  0.05755082  0.14257074  1
  Li  Li2  1  0.17986045  0.12780533  0.25167148  1
  Li  Li3  1  0.17766644  0.35209898  0.33789993  1
  Li  Li4  1  0.26866884  0.40647065  0.67456028  1
  Ga  Ga5  1  0.33449135  0.38991659  0.70723880  1
  Ga  Ga6  1  0.40840980  0.62036779  0.86149794  1
  Cl  Cl7  1  0.46615577  0.59374209  0.01989898  1
  Cl  Cl8  1  0.40039386  0.66954724  0.18709929  1
  Cl  Cl9  1  0.59146560  0.79665396  0.36566313  1
  Cl  Cl10  1  0.45996421  0.94362743  0.51321648  1
  Cl  Cl11  1  0.55027194  0.88908881  0.59670322  1
  Cl  Cl12  1  0.75594226  0.98473242  0.64966212  1
  Cl  Cl13  1  0.72268952  0.24637821  0.93797709  1
  Cl  Cl14  1  0.86459874  0.31763015  0.95353644  1
  Cl  Cl15  1  0.88184019  0.27601225  0.23420016  1
  In  In16  1  0.90358154  0.34424350  0.40214264  1
  In  In17  1  0.89674841  0.47494500  0.50056460  1
