# generated using pymatgen
data_Li6In3Br9F7
_symmetry_space_group_name_H-M   'P 1'
_cell_length_a   10.59308555
_cell_length_b   10.29709864
_cell_length_c   6.70739895
_cell_angle_alpha   81.09856867
_cell_angle_beta   70.08260172
_cell_angle_gamma   95.07691459
_symmetry_Int_Tables_number   1
_chemical_formula_structural   Li6In3Br9F7
_chemical_formula_sum   'Li6 In3 Br9 F7'
_cell_volume   671.68411273
_cell_formula_units_Z   1
loop_
 _symmetry_equiv_pos_site_id
 _symmetry_equiv_pos_as_xyz
  1  'x, y, z'
loop_
 _atom_site_type_symbol
 _atom_site_label
 _atom_site_symmetry_multiplicity
 _atom_site_fract_x
 _atom_site_fract_y
 _atom_site_fract_z
 _atom_site_occupancy
  Li  Li0  1  0.08891403  0.92483295  0.04574379  1
  Li  Li1  1  0.13802104  0.11175352  0.01865541  1
  Li  Li2  1  0.00645913  0.21541224  0.18421976  1
  Li  Li3  1  0.10191786  0.15141256  0.34293438  1
  Li  Li4  1  0.22728136  0.26186887  0.42506374  1
  Li  Li5  1  0.26010641  0.34553592  0.50000875  1
  In  In6  1  0.32353224  0.29958467  0.59962669  1
  In  In7  1  0.33970957  0.54408080  0.71475931  1
  In  In8  1  0.34801254  0.48337026  0.88117949  1
  Br  Br9  1  0.30148069  0.62543663  0.97495327  1
  Br  Br10  1  0.40800304  0.70532024  0.97957882  1
  Br  Br11  1  0.45161510  0.69349881  0.23411641  1
  Br  Br12  1  0.50032823  0.86362894  0.29906588  1
  Br  Br13  1  0.57245292  0.92628201  0.32435534  1
  Br  Br14  1  0.64124520  0.86717576  0.41662974  1
  Br  Br15  1  0.50370403  0.91721504  0.64613094  1
  Br  Br16  1  0.72139717  0.09981295  0.63867587  1
  Br  Br17  1  0.73970160  0.14234675  0.69174079  1
  F  F18  1  0.71821300  0.26221685  0.88214109  1
  F  F19  1  0.82877779  0.29389417  0.98945281  1
  F  F20  1  0.73709112  0.28874685  0.03566911  1
  F  F21  1  0.76353275  0.36712839  0.23660024  1
  F  F22  1  0.80338824  0.46453978  0.31350528  1
  F  F23  1  0.96385677  0.53666637  0.49584583  1
  F  F24  1  0.93218773  0.58283671  0.58994035  1
