# generated using pymatgen
data_LiTiO3
_symmetry_space_group_name_H-M   'P 1'
_cell_length_a   11.15045367
_cell_length_b   11.15045367
_cell_length_c   11.15045367
_cell_angle_alpha   90.00000000
_cell_angle_beta   90.00000000
_cell_angle_gamma   90.00000000
_symmetry_Int_Tables_number   1
_chemical_formula_structural   LiTiO3
_chemical_formula_sum   'Li1 Ti1 O3'
_cell_volume   1386.36508527
_cell_formula_units_Z   1
loop_
 _symmetry_equiv_pos_site_id
 _symmetry_equiv_pos_as_xyz
  1  'x, y, z'
loop_
 _atom_site_type_symbol
 _atom_site_label
 _atom_site_symmetry_multiplicity
 _atom_site_fract_x
 _atom_site_fract_y
 _atom_site_fract_z
 _atom_site_occupancy
  Li  Li0  1  0.97298376  0.07341704  0.08187563  1
  Ti  Ti1  1  0.13537155  0.29853777  0.58392820  1
  O  O2  1  0.32982811  0.56558839  0.95711162  1
  O  O3  1  0.53350475  0.05632481  0.58382351  1
  O  O4  1  0.79034277  0.21351245  0.19111387  1
