# generated using pymatgen
data_LiTiO6
_symmetry_space_group_name_H-M   'P 1'
_cell_length_a   11.22666189
_cell_length_b   11.22666189
_cell_length_c   11.22666189
_cell_angle_alpha   90.00000000
_cell_angle_beta   90.00000000
_cell_angle_gamma   90.00000000
_symmetry_Int_Tables_number   1
_chemical_formula_structural   LiTiO6
_chemical_formula_sum   'Li1 Ti1 O6'
_cell_volume   1414.98530600
_cell_formula_units_Z   1
loop_
 _symmetry_equiv_pos_site_id
 _symmetry_equiv_pos_as_xyz
  1  'x, y, z'
loop_
 _atom_site_type_symbol
 _atom_site_label
 _atom_site_symmetry_multiplicity
 _atom_site_fract_x
 _atom_site_fract_y
 _atom_site_fract_z
 _atom_site_occupancy
  Li  Li0  1  0.07094362  0.05691120  0.95403359  1
  Ti  Ti1  1  0.16483233  0.27429087  0.34722864  1
  O  O2  1  0.28714092  0.47265524  0.72416564  1
  O  O3  1  0.40568247  0.66223712  0.93010728  1
  O  O4  1  0.53879813  0.86512579  0.35899433  1
  O  O5  1  0.63785232  0.10453414  0.61656101  1
  O  O6  1  0.78336413  0.16277910  0.01577569  1
  O  O7  1  0.90363853  0.47401646  0.24239603  1
