# generated using pymatgen
data_Li4AlS4
_symmetry_space_group_name_H-M   'P 1'
_cell_length_a   14.92354906
_cell_length_b   14.92354906
_cell_length_c   13.58908908
_cell_angle_alpha   90.00000000
_cell_angle_beta   90.00000000
_cell_angle_gamma   90.00000000
_symmetry_Int_Tables_number   1
_chemical_formula_structural   Li4AlS4
_chemical_formula_sum   'Li4 Al1 S4'
_cell_volume   3026.45750940
_cell_formula_units_Z   1
loop_
 _symmetry_equiv_pos_site_id
 _symmetry_equiv_pos_as_xyz
  1  'x, y, z'
loop_
 _atom_site_type_symbol
 _atom_site_label
 _atom_site_symmetry_multiplicity
 _atom_site_fract_x
 _atom_site_fract_y
 _atom_site_fract_z
 _atom_site_occupancy
  Li  Li0  1  0.02035254  0.00532276  0.93585981  1
  Li  Li1  1  0.02229108  0.25780201  0.28443566  1
  Li  Li2  1  0.23615990  0.30721243  0.55856283  1
  Li  Li3  1  0.27611068  0.55722120  0.79206951  1
  Al  Al4  1  0.40210043  0.64701643  0.12501336  1
  S  S5  1  0.57543299  0.97032126  0.51710381  1
  S  S6  1  0.62724423  0.07612451  0.65806469  1
  S  S7  1  0.70529158  0.31451455  0.11089579  1
  S  S8  1  0.96509435  0.33972881  0.41275885  1
