# generated using pymatgen
data_Li4Ti3PO10
_symmetry_space_group_name_H-M   'P 1'
_cell_length_a   4.21725410
_cell_length_b   5.01282233
_cell_length_c   6.43319664
_cell_angle_alpha   90.00000000
_cell_angle_beta   90.00000000
_cell_angle_gamma   90.00000000
_symmetry_Int_Tables_number   1
_chemical_formula_structural   Li4Ti3PO10
_chemical_formula_sum   'Li4 Ti3 P1 O10'
_cell_volume   136.00000000
_cell_formula_units_Z   1
loop_
 _symmetry_equiv_pos_site_id
 _symmetry_equiv_pos_as_xyz
  1  'x, y, z'
loop_
 _atom_site_type_symbol
 _atom_site_label
 _atom_site_symmetry_multiplicity
 _atom_site_fract_x
 _atom_site_fract_y
 _atom_site_fract_z
 _atom_site_occupancy
  Li  Li0  1  0.05182253  0.08231663  0.99028543  1
  Li  Li1  1  0.08356121  0.02261730  0.12309921  1
  Li  Li2  1  0.05170282  0.11458892  0.26897268  1
  Li  Li3  1  0.22303292  0.25343321  0.36560240  1
  Ti  Ti4  1  0.20753855  0.32468895  0.61022081  1
  Ti  Ti5  1  0.19566800  0.48144948  0.68490767  1
  Ti  Ti6  1  0.41166145  0.45123757  0.85651001  1
  P  P7  1  0.31807588  0.66872782  0.07439048  1
  O  O8  1  0.44048708  0.69788705  0.24365780  1
  O  O9  1  0.55226834  0.73128576  0.25946685  1
  O  O10  1  0.55893677  0.87427945  0.37027536  1
  O  O11  1  0.51765662  0.89122502  0.55291088  1
  O  O12  1  0.68088380  0.04708424  0.75011997  1
  O  O13  1  0.80803179  0.07663430  0.98022753  1
  O  O14  1  0.73850379  0.29339798  0.12607231  1
  O  O15  1  0.85047055  0.42910141  0.17575728  1
  O  O16  1  0.84193221  0.43786046  0.39125677  1
  O  O17  1  0.89432130  0.48937958  0.47253540  1
