# generated using pymatgen
data_Li2Ta3Cl4
_symmetry_space_group_name_H-M   'P 1'
_cell_length_a   10.95154417
_cell_length_b   10.95154417
_cell_length_c   11.40708595
_cell_angle_alpha   90.00000000
_cell_angle_beta   90.00000000
_cell_angle_gamma   90.00000000
_symmetry_Int_Tables_number   1
_chemical_formula_structural   Li2Ta3Cl4
_chemical_formula_sum   'Li2 Ta3 Cl4'
_cell_volume   1368.12390770
_cell_formula_units_Z   1
loop_
 _symmetry_equiv_pos_site_id
 _symmetry_equiv_pos_as_xyz
  1  'x, y, z'
loop_
 _atom_site_type_symbol
 _atom_site_label
 _atom_site_symmetry_multiplicity
 _atom_site_fract_x
 _atom_site_fract_y
 _atom_site_fract_z
 _atom_site_occupancy
  Li  Li0  1  0.95518341  0.00192672  0.01410253  1
  Li  Li1  1  0.15106263  0.20876398  0.30206199  1
  Ta  Ta2  1  0.15379658  0.37011465  0.59531798  1
  Ta  Ta3  1  0.27677181  0.51896787  0.92876716  1
  Ta  Ta4  1  0.46431327  0.77712504  0.10867244  1
  Cl  Cl5  1  0.46816068  0.93228853  0.48806021  1
  Cl  Cl6  1  0.69264138  0.15561421  0.83957895  1
  Cl  Cl7  1  0.85386999  0.29770415  0.98308217  1
  Cl  Cl8  1  0.97889695  0.40501365  0.25084223  1
