# generated using pymatgen
data_Li5LaZrS8
_symmetry_space_group_name_H-M   'P 1'
_cell_length_a   8.76061903
_cell_length_b   8.76061903
_cell_length_c   8.97182541
_cell_angle_alpha   90.00000000
_cell_angle_beta   90.00000000
_cell_angle_gamma   90.00000000
_symmetry_Int_Tables_number   1
_chemical_formula_structural   Li5LaZrS8
_chemical_formula_sum   'Li5 La1 Zr1 S8'
_cell_volume   688.57365693
_cell_formula_units_Z   1
loop_
 _symmetry_equiv_pos_site_id
 _symmetry_equiv_pos_as_xyz
  1  'x, y, z'
loop_
 _atom_site_type_symbol
 _atom_site_label
 _atom_site_symmetry_multiplicity
 _atom_site_fract_x
 _atom_site_fract_y
 _atom_site_fract_z
 _atom_site_occupancy
  Li  Li0  1  0.00224956  0.03541195  0.00842440  1
  Li  Li1  1  0.07859470  0.13863807  0.09969443  1
  Li  Li2  1  0.21820221  0.22635622  0.36562765  1
  Li  Li3  1  0.19683800  0.24687300  0.44264607  1
  Li  Li4  1  0.29470059  0.33266939  0.79134398  1
  Zr  Zr5  1  0.42781683  0.51148218  0.82843513  1
  S  S6  1  0.31452764  0.69063173  0.94810618  1
  S  S7  1  0.46167080  0.83033083  0.14496545  1
  S  S8  1  0.63241761  0.79864966  0.47220345  1
  S  S9  1  0.69275860  0.95616613  0.47624130  1
  S  S10  1  0.75373025  0.10695013  0.83626679  1
  S  S11  1  0.82060498  0.12556096  0.84886613  1
  S  S12  1  0.87497484  0.36220921  0.03995118  1
  S  S13  1  0.93870697  0.31109773  0.28814851  1
  La  La14  1  0.90002915  0.45495075  0.54098005  1
