# generated using pymatgen
data_Li2TiO4
_symmetry_space_group_name_H-M   'P 1'
_cell_length_a   11.08094317
_cell_length_b   11.08094317
_cell_length_c   11.08094317
_cell_angle_alpha   90.00000000
_cell_angle_beta   90.00000000
_cell_angle_gamma   90.00000000
_symmetry_Int_Tables_number   1
_chemical_formula_structural   Li2TiO4
_chemical_formula_sum   'Li2 Ti1 O4'
_cell_volume   1360.59911072
_cell_formula_units_Z   1
loop_
 _symmetry_equiv_pos_site_id
 _symmetry_equiv_pos_as_xyz
  1  'x, y, z'
loop_
 _atom_site_type_symbol
 _atom_site_label
 _atom_site_symmetry_multiplicity
 _atom_site_fract_x
 _atom_site_fract_y
 _atom_site_fract_z
 _atom_site_occupancy
  Li  Li0  1  0.99169268  0.90219237  0.08397105  1
  Li  Li1  1  0.14884266  0.24603646  0.43997166  1
  Ti  Ti2  1  0.27367727  0.39845252  0.78944775  1
  O  O3  1  0.45035762  0.62330801  0.06771025  1
  O  O4  1  0.59545419  0.87679955  0.55948023  1
  O  O5  1  0.80998760  0.10697585  0.81636018  1
  O  O6  1  0.91515046  0.29358930  0.34200558  1
