# generated using pymatgen
data_Li3AlO4
_symmetry_space_group_name_H-M   'P 1'
_cell_length_a   11.81121481
_cell_length_b   11.81121481
_cell_length_c   14.04765157
_cell_angle_alpha   90.00000000
_cell_angle_beta   90.00000000
_cell_angle_gamma   120.00000000
_symmetry_Int_Tables_number   1
_chemical_formula_structural   Li3AlO4
_chemical_formula_sum   'Li3 Al1 O4'
_cell_volume   1697.16276279
_cell_formula_units_Z   1
loop_
 _symmetry_equiv_pos_site_id
 _symmetry_equiv_pos_as_xyz
  1  'x, y, z'
loop_
 _atom_site_type_symbol
 _atom_site_label
 _atom_site_symmetry_multiplicity
 _atom_site_fract_x
 _atom_site_fract_y
 _atom_site_fract_z
 _atom_site_occupancy
  Li  Li0  1  0.98331430  0.92780538  0.95733503  1
  Li  Li1  1  0.10633761  0.22502038  0.32339367  1
  Li  Li2  1  0.34480798  0.38494828  0.73803286  1
  Al  Al3  1  0.45895528  0.55246703  0.96662924  1
  O  O4  1  0.54751974  0.79409697  0.38617887  1
  O  O5  1  0.58280525  0.96962557  0.65243928  1
  O  O6  1  0.67864078  0.24284654  0.98922138  1
  O  O7  1  0.96802617  0.32042449  0.28955886  1
