# generated using pymatgen
data_BaLiTiO3
_symmetry_space_group_name_H-M   'P 1'
_cell_length_a   3.63424119
_cell_length_b   3.63424119
_cell_length_c   3.63424119
_cell_angle_alpha   90.00000000
_cell_angle_beta   90.00000000
_cell_angle_gamma   90.00000000
_symmetry_Int_Tables_number   1
_chemical_formula_structural   BaLiTiO3
_chemical_formula_sum   'Ba1 Li1 Ti1 O3'
_cell_volume   48.00000000
_cell_formula_units_Z   1
loop_
 _symmetry_equiv_pos_site_id
 _symmetry_equiv_pos_as_xyz
  1  'x, y, z'
loop_
 _atom_site_type_symbol
 _atom_site_label
 _atom_site_symmetry_multiplicity
 _atom_site_fract_x
 _atom_site_fract_y
 _atom_site_fract_z
 _atom_site_occupancy
  Li  Li0  1  0.96611065  0.09871194  0.98705624  1
  Ti  Ti1  1  0.23927053  0.33862870  0.52288416  1
  O  O2  1  0.38606451  0.59629718  0.77672237  1
  O  O3  1  0.44017775  0.86036614  0.40473586  1
  O  O4  1  0.65662309  0.10853636  0.72274665  1
  Ba  Ba5  1  0.90645491  0.42438654  0.26571417  1
