# generated using pymatgen
data_Li5(TiS3)2
_symmetry_space_group_name_H-M   'P 1'
_cell_length_a   10.78721490
_cell_length_b   10.78721490
_cell_length_c   11.37610092
_cell_angle_alpha   90.00000000
_cell_angle_beta   90.00000000
_cell_angle_gamma   90.00000000
_symmetry_Int_Tables_number   1
_chemical_formula_structural   Li5(TiS3)2
_chemical_formula_sum   'Li5 Ti2 S6'
_cell_volume   1323.76866695
_cell_formula_units_Z   1
loop_
 _symmetry_equiv_pos_site_id
 _symmetry_equiv_pos_as_xyz
  1  'x, y, z'
loop_
 _atom_site_type_symbol
 _atom_site_label
 _atom_site_symmetry_multiplicity
 _atom_site_fract_x
 _atom_site_fract_y
 _atom_site_fract_z
 _atom_site_occupancy
  Li  Li0  1  0.94157734  0.97703961  0.05309980  1
  Li  Li1  1  0.06250485  0.17461173  0.13112295  1
  Li  Li2  1  0.09454689  0.22585765  0.46219411  1
  Li  Li3  1  0.19428510  0.32075324  0.67296162  1
  Li  Li4  1  0.32010944  0.53329801  0.72446793  1
  Ti  Ti5  1  0.36707146  0.68401612  0.93194703  1
  Ti  Ti6  1  0.52839908  0.73347739  0.20674793  1
  S  S7  1  0.57677826  0.83165991  0.42350916  1
  S  S8  1  0.60065078  0.00429568  0.62719426  1
  S  S9  1  0.63928094  0.15773555  0.79835270  1
  S  S10  1  0.67140444  0.33842878  0.94362078  1
  S  S11  1  0.91146464  0.41748412  0.29423101  1
  S  S12  1  0.00361176  0.45773196  0.46693044  1
