# generated using pymatgen
data_Li2LaNbO5
_symmetry_space_group_name_H-M   'P 1'
_cell_length_a   12.24357345
_cell_length_b   12.24357345
_cell_length_c   13.36696756
_cell_angle_alpha   90.00000000
_cell_angle_beta   90.00000000
_cell_angle_gamma   90.00000000
_symmetry_Int_Tables_number   1
_chemical_formula_structural   Li2LaNbO5
_chemical_formula_sum   'Li4 La2 Nb2 O10'
_cell_volume   2003.77648457
_cell_formula_units_Z   2
loop_
 _symmetry_equiv_pos_site_id
 _symmetry_equiv_pos_as_xyz
  1  'x, y, z'
loop_
 _atom_site_type_symbol
 _atom_site_label
 _atom_site_symmetry_multiplicity
 _atom_site_fract_x
 _atom_site_fract_y
 _atom_site_fract_z
 _atom_site_occupancy
  Li  Li0  1  0.90685325  0.05047268  0.96712410  1
  Li  Li1  1  0.04743238  0.06971822  0.23030070  1
  Li  Li2  1  0.06184526  0.19591120  0.26973415  1
  Li  Li3  1  0.17710630  0.28800510  0.50013824  1
  Nb  Nb4  1  0.12372822  0.37396751  0.62515370  1
  Nb  Nb5  1  0.18927811  0.47381537  0.68804552  1
  O  O6  1  0.26488960  0.61211747  0.94568343  1
  O  O7  1  0.35466864  0.71927776  0.08575859  1
  O  O8  1  0.44142541  0.80412547  0.22921321  1
  O  O9  1  0.52373020  0.80741233  0.27590491  1
  O  O10  1  0.58003631  0.97338175  0.49810844  1
  O  O11  1  0.51618370  0.93676909  0.54149374  1
  O  O12  1  0.69611649  0.06460579  0.69324957  1
  O  O13  1  0.75297704  0.07243465  0.93681013  1
  O  O14  1  0.74650881  0.17346536  0.12501909  1
  O  O15  1  0.88123127  0.39238312  0.25559256  1
  La  La16  1  0.81227728  0.52580712  0.31192146  1
  La  La17  1  0.86855389  0.47033832  0.45597616  1
