# generated using pymatgen
data_BaLi2TiO4
_symmetry_space_group_name_H-M   'P 1'
_cell_length_a   3.76638297
_cell_length_b   3.76638297
_cell_length_c   4.37061684
_cell_angle_alpha   90.00000000
_cell_angle_beta   90.00000000
_cell_angle_gamma   90.00000000
_symmetry_Int_Tables_number   1
_chemical_formula_structural   BaLi2TiO4
_chemical_formula_sum   'Ba1 Li2 Ti1 O4'
_cell_volume   62.00000000
_cell_formula_units_Z   1
loop_
 _symmetry_equiv_pos_site_id
 _symmetry_equiv_pos_as_xyz
  1  'x, y, z'
loop_
 _atom_site_type_symbol
 _atom_site_label
 _atom_site_symmetry_multiplicity
 _atom_site_fract_x
 _atom_site_fract_y
 _atom_site_fract_z
 _atom_site_occupancy
  Li  Li0  1  0.93448618  0.08233834  0.93137902  1
  Li  Li1  1  0.10788825  0.13580776  0.37891475  1
  Ti  Ti2  1  0.21912645  0.46319342  0.68055242  1
  O  O3  1  0.41781561  0.64098950  0.05816100  1
  O  O4  1  0.48302344  0.85398468  0.29637371  1
  O  O5  1  0.52703502  0.04904225  0.56747745  1
  O  O6  1  0.77499769  0.15371614  0.00305459  1
  Ba  Ba7  1  0.78504937  0.48023690  0.32713910  1
