# generated using pymatgen
data_Li5Al2InO9
_symmetry_space_group_name_H-M   'P 1'
_cell_length_a   12.13499527
_cell_length_b   12.13499527
_cell_length_c   11.22963215
_cell_angle_alpha   90.00000000
_cell_angle_beta   90.00000000
_cell_angle_gamma   90.00000000
_symmetry_Int_Tables_number   1
_chemical_formula_structural   Li5Al2InO9
_chemical_formula_sum   'Li5 Al2 In1 O9'
_cell_volume   1653.65440974
_cell_formula_units_Z   1
loop_
 _symmetry_equiv_pos_site_id
 _symmetry_equiv_pos_as_xyz
  1  'x, y, z'
loop_
 _atom_site_type_symbol
 _atom_site_label
 _atom_site_symmetry_multiplicity
 _atom_site_fract_x
 _atom_site_fract_y
 _atom_site_fract_z
 _atom_site_occupancy
  Li  Li0  1  0.92786362  0.08904427  0.90414428  1
  Li  Li1  1  0.03769265  0.12721444  0.06613596  1
  Li  Li2  1  0.14452924  0.24151517  0.36923467  1
  Li  Li3  1  0.25029746  0.30489966  0.41373245  1
  Li  Li4  1  0.20663800  0.42569153  0.58220477  1
  Al  Al5  1  0.28811715  0.47836529  0.68101809  1
  Al  Al6  1  0.39545162  0.57590573  0.95679378  1
  O  O7  1  0.45054033  0.72044962  0.08774102  1
  O  O8  1  0.38171195  0.72056235  0.20490869  1
  O  O9  1  0.62132536  0.93749691  0.36907266  1
  O  O10  1  0.68386206  0.92614871  0.54476897  1
  O  O11  1  0.59718961  0.10569627  0.76348402  1
  O  O12  1  0.75029157  0.23500819  0.77464570  1
  O  O13  1  0.75906215  0.29940961  0.92499718  1
  O  O14  1  0.91859122  0.41582450  0.05968691  1
  O  O15  1  0.92606040  0.35110202  0.34443400  1
  In  In16  1  0.03488817  0.55917450  0.36521430  1
