# generated using pymatgen
data_Na(ScS4)2
_symmetry_space_group_name_H-M   'P 1'
_cell_length_a   8.96599380
_cell_length_b   8.60829985
_cell_length_c   12.29854339
_cell_angle_alpha   100.08375475
_cell_angle_beta   67.02178591
_cell_angle_gamma   80.76158941
_symmetry_Int_Tables_number   1
_chemical_formula_structural   Na(ScS4)2
_chemical_formula_sum   'Na1 Sc2 S8'
_cell_volume   832.52367432
_cell_formula_units_Z   1
loop_
 _symmetry_equiv_pos_site_id
 _symmetry_equiv_pos_as_xyz
  1  'x, y, z'
loop_
 _atom_site_type_symbol
 _atom_site_label
 _atom_site_symmetry_multiplicity
 _atom_site_fract_x
 _atom_site_fract_y
 _atom_site_fract_z
 _atom_site_occupancy
  Na  Na0  1  0.07123261  0.08755806  0.92379470  1
  Sc  Sc1  1  0.05575310  0.08311104  0.22758966  1
  Sc  Sc2  1  0.09816307  0.35399609  0.56129081  1
  S  S3  1  0.20451573  0.51962052  0.70189461  1
  S  S4  1  0.36860426  0.65209122  0.00026652  1
  S  S5  1  0.50562819  0.82128844  0.24732901  1
  S  S6  1  0.46860452  0.82495459  0.50297707  1
  S  S7  1  0.65330882  0.01869389  0.58217318  1
  S  S8  1  0.71992208  0.25871792  0.86577885  1
  S  S9  1  0.76041162  0.29273215  0.15814861  1
  S  S10  1  0.96219859  0.51781355  0.43049836  1
