# generated using pymatgen
data_Li4La(ZrS)3
_symmetry_space_group_name_H-M   'P 1'
_cell_length_a   14.63435849
_cell_length_b   14.63435849
_cell_length_c   15.03130728
_cell_angle_alpha   90.00000000
_cell_angle_beta   90.00000000
_cell_angle_gamma   90.00000000
_symmetry_Int_Tables_number   1
_chemical_formula_structural   Li4La(ZrS)3
_chemical_formula_sum   'Li4 La1 Zr3 S3'
_cell_volume   3219.17163369
_cell_formula_units_Z   1
loop_
 _symmetry_equiv_pos_site_id
 _symmetry_equiv_pos_as_xyz
  1  'x, y, z'
loop_
 _atom_site_type_symbol
 _atom_site_label
 _atom_site_symmetry_multiplicity
 _atom_site_fract_x
 _atom_site_fract_y
 _atom_site_fract_z
 _atom_site_occupancy
  Li  Li0  1  0.01355340  0.91400317  0.01990829  1
  Li  Li1  1  0.07859862  0.15504455  0.23724773  1
  Li  Li2  1  0.13765228  0.29834447  0.43188886  1
  Li  Li3  1  0.20952034  0.37270811  0.77300980  1
  Zr  Zr4  1  0.33240420  0.66851405  0.94322445  1
  Zr  Zr5  1  0.40356316  0.63796583  0.23879072  1
  Zr  Zr6  1  0.55266339  0.92375704  0.45589534  1
  S  S7  1  0.65755827  0.98422233  0.63077961  1
  S  S8  1  0.75882937  0.25638294  0.00031688  1
  S  S9  1  0.87208677  0.37083198  0.17521213  1
  La  La10  1  0.95418842  0.45297102  0.38033362  1
