# generated using pymatgen
data_K2(InN)3
_symmetry_space_group_name_H-M   'P 1'
_cell_length_a   6.85528099
_cell_length_b   12.61788170
_cell_length_c   10.93178238
_cell_angle_alpha   77.46791787
_cell_angle_beta   103.13050739
_cell_angle_gamma   107.44719374
_symmetry_Int_Tables_number   1
_chemical_formula_structural   K2(InN)3
_chemical_formula_sum   'K2 In3 N3'
_cell_volume   867.14914818
_cell_formula_units_Z   1
loop_
 _symmetry_equiv_pos_site_id
 _symmetry_equiv_pos_as_xyz
  1  'x, y, z'
loop_
 _atom_site_type_symbol
 _atom_site_label
 _atom_site_symmetry_multiplicity
 _atom_site_fract_x
 _atom_site_fract_y
 _atom_site_fract_z
 _atom_site_occupancy
  K  K0  1  0.05087834  0.92254993  0.09868713  1
  K  K1  1  0.19189622  0.20125905  0.36600854  1
  In  In2  1  0.28359984  0.49006511  0.57341322  1
  In  In3  1  0.29283929  0.61197766  0.05759505  1
  In  In4  1  0.55955284  0.80511130  0.32286277  1
  N  N5  1  0.65370277  0.02298987  0.68936619  1
  N  N6  1  0.72377180  0.22704163  0.92036900  1
  N  N7  1  0.94354056  0.44793902  0.27832413  1
