# generated using pymatgen
data_Li2AlO4
_symmetry_space_group_name_H-M   'P 1'
_cell_length_a   8.84836644
_cell_length_b   8.84836644
_cell_length_c   12.19610354
_cell_angle_alpha   90.00000000
_cell_angle_beta   90.00000000
_cell_angle_gamma   120.00000000
_symmetry_Int_Tables_number   1
_chemical_formula_structural   Li2AlO4
_chemical_formula_sum   'Li2 Al1 O4'
_cell_volume   826.94749220
_cell_formula_units_Z   1
loop_
 _symmetry_equiv_pos_site_id
 _symmetry_equiv_pos_as_xyz
  1  'x, y, z'
loop_
 _atom_site_type_symbol
 _atom_site_label
 _atom_site_symmetry_multiplicity
 _atom_site_fract_x
 _atom_site_fract_y
 _atom_site_fract_z
 _atom_site_occupancy
  Li  Li0  1  0.01568448  0.03781853  0.02273323  1
  Li  Li1  1  0.23829514  0.26401628  0.46384222  1
  Al  Al2  1  0.20527848  0.54718576  0.75358500  1
  O  O3  1  0.38100569  0.75934826  0.11395232  1
  O  O4  1  0.51587705  0.94562434  0.53379356  1
  O  O5  1  0.70869413  0.19192550  0.80564728  1
  O  O6  1  0.82413636  0.29256080  0.23054259  1
