# generated using pymatgen
data_Li6Sc2(TaBr2)3
_symmetry_space_group_name_H-M   'P 1'
_cell_length_a   6.09284039
_cell_length_b   10.32603108
_cell_length_c   11.27705404
_cell_angle_alpha   119.01713532
_cell_angle_beta   97.54992871
_cell_angle_gamma   93.90470047
_symmetry_Int_Tables_number   1
_chemical_formula_structural   Li6Sc2(TaBr2)3
_chemical_formula_sum   'Li6 Sc2 Ta3 Br6'
_cell_volume   607.90255320
_cell_formula_units_Z   1
loop_
 _symmetry_equiv_pos_site_id
 _symmetry_equiv_pos_as_xyz
  1  'x, y, z'
loop_
 _atom_site_type_symbol
 _atom_site_label
 _atom_site_symmetry_multiplicity
 _atom_site_fract_x
 _atom_site_fract_y
 _atom_site_fract_z
 _atom_site_occupancy
  Li  Li0  1  0.09355602  0.06013243  0.95346773  1
  Li  Li1  1  0.05699821  0.18355136  0.06238240  1
  Li  Li2  1  0.16553533  0.25553349  0.26722965  1
  Li  Li3  1  0.11577686  0.23127506  0.39827737  1
  Li  Li4  1  0.18523417  0.43320654  0.54778547  1
  Li  Li5  1  0.22888810  0.54244703  0.81675523  1
  Ta  Ta6  1  0.31899102  0.54169141  0.86010902  1
  Ta  Ta7  1  0.46094248  0.60161077  0.17005490  1
  Ta  Ta8  1  0.49078595  0.77590456  0.14822473  1
  Sc  Sc9  1  0.55935175  0.87268338  0.37125415  1
  Sc  Sc10  1  0.54678735  0.89366677  0.51967620  1
  Br  Br11  1  0.57941723  0.99273214  0.78614962  1
  Br  Br12  1  0.64033802  0.06981272  0.76137475  1
  Br  Br13  1  0.67928944  0.32308961  0.07432331  1
  Br  Br14  1  0.88727651  0.25098711  0.17540664  1
  Br  Br15  1  0.92701376  0.44327275  0.23290092  1
  Br  Br16  1  0.99837259  0.50302926  0.42836675  1
