# generated using pymatgen
data_Li5Y2TiCl5
_symmetry_space_group_name_H-M   'P 1'
_cell_length_a   10.94257704
_cell_length_b   10.94257704
_cell_length_c   9.95841350
_cell_angle_alpha   90.00000000
_cell_angle_beta   90.00000000
_cell_angle_gamma   90.00000000
_symmetry_Int_Tables_number   1
_chemical_formula_structural   Li5Y2TiCl5
_chemical_formula_sum   'Li5 Y2 Ti1 Cl5'
_cell_volume   1192.42035425
_cell_formula_units_Z   1
loop_
 _symmetry_equiv_pos_site_id
 _symmetry_equiv_pos_as_xyz
  1  'x, y, z'
loop_
 _atom_site_type_symbol
 _atom_site_label
 _atom_site_symmetry_multiplicity
 _atom_site_fract_x
 _atom_site_fract_y
 _atom_site_fract_z
 _atom_site_occupancy
  Li  Li0  1  0.95544801  0.91950203  0.91508707  1
  Li  Li1  1  0.00283290  0.11733412  0.16509079  1
  Li  Li2  1  0.22333286  0.23487502  0.44132748  1
  Li  Li3  1  0.29164519  0.36804571  0.68434517  1
  Li  Li4  1  0.30640612  0.48682260  0.84458017  1
  Ti  Ti5  1  0.42288003  0.59787654  0.91057362  1
  Cl  Cl6  1  0.37379998  0.75185770  0.22068236  1
  Cl  Cl7  1  0.60519686  0.94101507  0.37442374  1
  Cl  Cl8  1  0.64605498  0.99263269  0.57814259  1
  Cl  Cl9  1  0.68394004  0.03584086  0.89304224  1
  Cl  Cl10  1  0.76247575  0.33028397  0.97331175  1
  Y  Y11  1  0.76018282  0.45645592  0.17017942  1
  Y  Y12  1  0.99951329  0.56014014  0.37166756  1
