# generated using pymatgen
data_Li3Ge3S5
_symmetry_space_group_name_H-M   'P 1'
_cell_length_a   4.48547239
_cell_length_b   4.48547239
_cell_length_c   5.66615532
_cell_angle_alpha   90.00000000
_cell_angle_beta   90.00000000
_cell_angle_gamma   90.00000000
_symmetry_Int_Tables_number   1
_chemical_formula_structural   Li3Ge3S5
_chemical_formula_sum   'Li3 Ge3 S5'
_cell_volume   114.00000000
_cell_formula_units_Z   1
loop_
 _symmetry_equiv_pos_site_id
 _symmetry_equiv_pos_as_xyz
  1  'x, y, z'
loop_
 _atom_site_type_symbol
 _atom_site_label
 _atom_site_symmetry_multiplicity
 _atom_site_fract_x
 _atom_site_fract_y
 _atom_site_fract_z
 _atom_site_occupancy
  Li  Li0  1  0.97930367  0.93131875  0.98756702  1
  Li  Li1  1  0.07136110  0.10292553  0.17095560  1
  Li  Li2  1  0.22335155  0.27537918  0.55453700  1
  Ge  Ge3  1  0.29648349  0.45954854  0.66578782  1
  Ge  Ge4  1  0.39816937  0.50621147  0.87917649  1
  Ge  Ge5  1  0.44111302  0.69940495  0.25137529  1
  S  S6  1  0.48023449  0.82562503  0.39598333  1
  S  S7  1  0.58571503  0.10153675  0.57066824  1
  S  S8  1  0.63806239  0.18665353  0.86952894  1
  S  S9  1  0.89870635  0.42285261  0.14001847  1
  S  S10  1  0.83200614  0.37504830  0.36803678  1
