# generated using pymatgen
data_Li3Nb2O4
_symmetry_space_group_name_H-M   'P 1'
_cell_length_a   13.95537114
_cell_length_b   13.95537114
_cell_length_c   14.34616501
_cell_angle_alpha   90.00000000
_cell_angle_beta   90.00000000
_cell_angle_gamma   90.00000000
_symmetry_Int_Tables_number   1
_chemical_formula_structural   Li3Nb2O4
_chemical_formula_sum   'Li3 Nb2 O4'
_cell_volume   2793.94983250
_cell_formula_units_Z   1
loop_
 _symmetry_equiv_pos_site_id
 _symmetry_equiv_pos_as_xyz
  1  'x, y, z'
loop_
 _atom_site_type_symbol
 _atom_site_label
 _atom_site_symmetry_multiplicity
 _atom_site_fract_x
 _atom_site_fract_y
 _atom_site_fract_z
 _atom_site_occupancy
  Li  Li0  1  0.92680884  0.91627736  0.98617914  1
  Li  Li1  1  0.10838031  0.18636987  0.24245186  1
  Li  Li2  1  0.20089890  0.25999525  0.50568967  1
  Nb  Nb3  1  0.39820672  0.55911719  0.95755211  1
  Nb  Nb4  1  0.52773128  0.76156336  0.20062145  1
  O  O5  1  0.60233653  0.87654008  0.45923569  1
  O  O6  1  0.71350908  0.16912355  0.75617435  1
  O  O7  1  0.79834777  0.28772462  0.00609530  1
  O  O8  1  0.85531431  0.33869667  0.40830207  1
