# generated using pymatgen
data_LiTiO5
_symmetry_space_group_name_H-M   'P 1'
_cell_length_a   9.14324049
_cell_length_b   9.14324049
_cell_length_c   9.14324049
_cell_angle_alpha   90.00000000
_cell_angle_beta   90.00000000
_cell_angle_gamma   90.00000000
_symmetry_Int_Tables_number   1
_chemical_formula_structural   LiTiO5
_chemical_formula_sum   'Li1 Ti1 O5'
_cell_volume   764.36435948
_cell_formula_units_Z   1
loop_
 _symmetry_equiv_pos_site_id
 _symmetry_equiv_pos_as_xyz
  1  'x, y, z'
loop_
 _atom_site_type_symbol
 _atom_site_label
 _atom_site_symmetry_multiplicity
 _atom_site_fract_x
 _atom_site_fract_y
 _atom_site_fract_z
 _atom_site_occupancy
  Li  Li0  1  0.95074934  0.03717182  0.96163472  1
  Ti  Ti1  1  0.16652010  0.26084468  0.30999681  1
  O  O2  1  0.30484732  0.49637110  0.82869364  1
  O  O3  1  0.39269052  0.65002204  0.20631352  1
  O  O4  1  0.54172470  0.89188808  0.43954904  1
  O  O5  1  0.64918155  0.08247830  0.85937451  1
  O  O6  1  0.82166470  0.30522115  0.23710084  1
