# generated using pymatgen
data_LiLaTi2F6
_symmetry_space_group_name_H-M   'P 1'
_cell_length_a   10.95983956
_cell_length_b   10.95983956
_cell_length_c   12.01206046
_cell_angle_alpha   90.00000000
_cell_angle_beta   90.00000000
_cell_angle_gamma   90.00000000
_symmetry_Int_Tables_number   1
_chemical_formula_structural   LiLaTi2F6
_chemical_formula_sum   'Li1 La1 Ti2 F6'
_cell_volume   1442.86567868
_cell_formula_units_Z   1
loop_
 _symmetry_equiv_pos_site_id
 _symmetry_equiv_pos_as_xyz
  1  'x, y, z'
loop_
 _atom_site_type_symbol
 _atom_site_label
 _atom_site_symmetry_multiplicity
 _atom_site_fract_x
 _atom_site_fract_y
 _atom_site_fract_z
 _atom_site_occupancy
  Li  Li0  1  0.07820544  0.03837749  0.99274519  1
  Ti  Ti1  1  0.07113443  0.14678979  0.26871334  1
  Ti  Ti2  1  0.27078188  0.33677568  0.49443785  1
  F  F3  1  0.21050908  0.54644721  0.81913401  1
  F  F4  1  0.49311419  0.71237356  0.06378657  1
  F  F5  1  0.59745067  0.71608942  0.37704607  1
  F  F6  1  0.57856012  0.96464843  0.60055160  1
  F  F7  1  0.61648605  0.07656842  0.77579368  1
  F  F8  1  0.78550579  0.39100793  0.10941037  1
  La  La9  1  0.88702486  0.36582172  0.28432077  1
