# generated using pymatgen
data_Li3ScInN10
_symmetry_space_group_name_H-M   'P 1'
_cell_length_a   7.50767271
_cell_length_b   9.66264625
_cell_length_c   11.89733083
_cell_angle_alpha   104.21257251
_cell_angle_beta   119.72946944
_cell_angle_gamma   109.58588454
_symmetry_Int_Tables_number   1
_chemical_formula_structural   Li3ScInN10
_chemical_formula_sum   'Li3 Sc1 In1 N10'
_cell_volume   610.16538388
_cell_formula_units_Z   1
loop_
 _symmetry_equiv_pos_site_id
 _symmetry_equiv_pos_as_xyz
  1  'x, y, z'
loop_
 _atom_site_type_symbol
 _atom_site_label
 _atom_site_symmetry_multiplicity
 _atom_site_fract_x
 _atom_site_fract_y
 _atom_site_fract_z
 _atom_site_occupancy
  Li  Li0  1  0.97944093  0.00904812  0.99808958  1
  Li  Li1  1  0.99665531  0.12075770  0.08949606  1
  Li  Li2  1  0.18503199  0.13880391  0.26754212  1
  In  In3  1  0.10577219  0.37299442  0.54089338  1
  Sc  Sc4  1  0.36471178  0.43169518  0.71613428  1
  N  N5  1  0.25791019  0.60086584  0.88079509  1
  N  N6  1  0.39574776  0.74324717  0.98810155  1
  N  N7  1  0.48804943  0.81708985  0.21176953  1
  N  N8  1  0.59255905  0.86975824  0.48692111  1
  N  N9  1  0.51711803  0.03837165  0.54380420  1
  N  N10  1  0.67537032  0.17725089  0.78593852  1
  N  N11  1  0.78588104  0.26183397  0.96393751  1
  N  N12  1  0.78502535  0.25510654  0.06905094  1
  N  N13  1  0.84937489  0.39138249  0.27908033  1
  N  N14  1  0.87111405  0.47583830  0.35080649  1
