# generated using pymatgen
data_Li6LaZr2O4
_symmetry_space_group_name_H-M   'P 1'
_cell_length_a   9.38162221
_cell_length_b   9.38162221
_cell_length_c   10.07451260
_cell_angle_alpha   90.00000000
_cell_angle_beta   90.00000000
_cell_angle_gamma   90.00000000
_symmetry_Int_Tables_number   1
_chemical_formula_structural   Li6LaZr2O4
_chemical_formula_sum   'Li6 La1 Zr2 O4'
_cell_volume   886.70656697
_cell_formula_units_Z   1
loop_
 _symmetry_equiv_pos_site_id
 _symmetry_equiv_pos_as_xyz
  1  'x, y, z'
loop_
 _atom_site_type_symbol
 _atom_site_label
 _atom_site_symmetry_multiplicity
 _atom_site_fract_x
 _atom_site_fract_y
 _atom_site_fract_z
 _atom_site_occupancy
  Li  Li0  1  0.02216030  0.95014603  0.95046534  1
  Li  Li1  1  0.13136625  0.15245373  0.17729436  1
  Li  Li2  1  0.19689657  0.15279603  0.38125340  1
  Li  Li3  1  0.24992251  0.30443108  0.54573334  1
  Li  Li4  1  0.29388867  0.49658433  0.87387750  1
  Li  Li5  1  0.32853576  0.61656414  0.05782389  1
  Zr  Zr6  1  0.43739494  0.82072610  0.30564458  1
  Zr  Zr7  1  0.46781576  0.93205161  0.36471742  1
  O  O8  1  0.65531381  0.92545090  0.62854434  1
  O  O9  1  0.63480985  0.21828338  0.77927047  1
  O  O10  1  0.78794945  0.26490262  0.06835165  1
  O  O11  1  0.80820296  0.30014472  0.18043802  1
  La  La12  1  0.00682071  0.52993909  0.35832236  1
