# generated using pymatgen
data_Li6Ta3Cl10
_symmetry_space_group_name_H-M   'P 1'
_cell_length_a   14.38175256
_cell_length_b   14.38175256
_cell_length_c   14.50498998
_cell_angle_alpha   90.00000000
_cell_angle_beta   90.00000000
_cell_angle_gamma   90.00000000
_symmetry_Int_Tables_number   1
_chemical_formula_structural   Li6Ta3Cl10
_chemical_formula_sum   'Li6 Ta3 Cl10'
_cell_volume   3000.13680061
_cell_formula_units_Z   1
loop_
 _symmetry_equiv_pos_site_id
 _symmetry_equiv_pos_as_xyz
  1  'x, y, z'
loop_
 _atom_site_type_symbol
 _atom_site_label
 _atom_site_symmetry_multiplicity
 _atom_site_fract_x
 _atom_site_fract_y
 _atom_site_fract_z
 _atom_site_occupancy
  Li  Li0  1  0.02192272  0.92480333  0.00063669  1
  Li  Li1  1  0.00104030  0.16474822  0.22195591  1
  Li  Li2  1  0.06838457  0.22670863  0.34163031  1
  Li  Li3  1  0.08955334  0.32787122  0.37067007  1
  Li  Li4  1  0.27681028  0.39673384  0.56281578  1
  Li  Li5  1  0.17663415  0.42740267  0.69695569  1
  Ta  Ta6  1  0.36038073  0.42358550  0.87451055  1
  Ta  Ta7  1  0.28943842  0.51456708  0.06109820  1
  Ta  Ta8  1  0.43116090  0.67834913  0.06783280  1
  Cl  Cl9  1  0.46548519  0.75948865  0.26453432  1
  Cl  Cl10  1  0.47078737  0.77447042  0.39474114  1
  Cl  Cl11  1  0.62885412  0.92053862  0.45542819  1
  Cl  Cl12  1  0.69901084  0.95877914  0.64680159  1
  Cl  Cl13  1  0.68016031  0.17150216  0.84422178  1
  Cl  Cl14  1  0.83000258  0.20203497  0.84836999  1
  Cl  Cl15  1  0.85224974  0.17973566  0.15419293  1
  Cl  Cl16  1  0.88928651  0.31543662  0.18866856  1
  Cl  Cl17  1  0.93181839  0.49787165  0.30199272  1
  Cl  Cl18  1  0.04304778  0.60470677  0.44985385  1
