# generated using pymatgen
data_Li3AlO5
_symmetry_space_group_name_H-M   'P 1'
_cell_length_a   8.36883721
_cell_length_b   8.36883721
_cell_length_c   11.93132728
_cell_angle_alpha   90.00000000
_cell_angle_beta   90.00000000
_cell_angle_gamma   120.00000000
_symmetry_Int_Tables_number   1
_chemical_formula_structural   Li3AlO5
_chemical_formula_sum   'Li3 Al1 O5'
_cell_volume   723.68510001
_cell_formula_units_Z   1
loop_
 _symmetry_equiv_pos_site_id
 _symmetry_equiv_pos_as_xyz
  1  'x, y, z'
loop_
 _atom_site_type_symbol
 _atom_site_label
 _atom_site_symmetry_multiplicity
 _atom_site_fract_x
 _atom_site_fract_y
 _atom_site_fract_z
 _atom_site_occupancy
  Li  Li0  1  0.00754751  0.03129515  0.08805251  1
  Li  Li1  1  0.20458461  0.21037687  0.38052160  1
  Li  Li2  1  0.18335901  0.37130484  0.56729944  1
  Al  Al3  1  0.40140852  0.45493083  0.79213295  1
  O  O4  1  0.47796996  0.67978253  0.23926097  1
  O  O5  1  0.63649190  0.88299072  0.53200220  1
  O  O6  1  0.71880328  0.05023081  0.84308821  1
  O  O7  1  0.70371289  0.16077835  0.99452654  1
  O  O8  1  0.91693541  0.34460315  0.37685640  1
