# generated using pymatgen
data_LiGaCl
_symmetry_space_group_name_H-M   'P 1'
_cell_length_a   9.68889206
_cell_length_b   9.68889206
_cell_length_c   10.06623808
_cell_angle_alpha   90.00000000
_cell_angle_beta   90.00000000
_cell_angle_gamma   90.00000000
_symmetry_Int_Tables_number   1
_chemical_formula_structural   LiGaCl
_chemical_formula_sum   'Li3 Ga3 Cl3'
_cell_volume   944.96436873
_cell_formula_units_Z   3
loop_
 _symmetry_equiv_pos_site_id
 _symmetry_equiv_pos_as_xyz
  1  'x, y, z'
loop_
 _atom_site_type_symbol
 _atom_site_label
 _atom_site_symmetry_multiplicity
 _atom_site_fract_x
 _atom_site_fract_y
 _atom_site_fract_z
 _atom_site_occupancy
  Li  Li0  1  0.92032932  0.92005170  0.01101404  1
  Li  Li1  1  0.05984288  0.10374844  0.32173328  1
  Li  Li2  1  0.17294667  0.30450820  0.49675753  1
  Ga  Ga3  1  0.39057623  0.47583718  0.94921573  1
  Ga  Ga4  1  0.54370292  0.80311559  0.20058545  1
  Ga  Ga5  1  0.58334633  0.94477981  0.43267009  1
  Cl  Cl6  1  0.76569501  0.98961925  0.72206531  1
  Cl  Cl7  1  0.77067091  0.16676029  0.09449546  1
  Cl  Cl8  1  0.91732422  0.35549021  0.31744422  1
