# generated using pymatgen
data_LiYCl6
_symmetry_space_group_name_H-M   'P 1'
_cell_length_a   4.10195482
_cell_length_b   4.10195482
_cell_length_c   4.51681026
_cell_angle_alpha   90.00000000
_cell_angle_beta   90.00000000
_cell_angle_gamma   90.00000000
_symmetry_Int_Tables_number   1
_chemical_formula_structural   LiYCl6
_chemical_formula_sum   'Li1 Y1 Cl6'
_cell_volume   76.00000000
_cell_formula_units_Z   1
loop_
 _symmetry_equiv_pos_site_id
 _symmetry_equiv_pos_as_xyz
  1  'x, y, z'
loop_
 _atom_site_type_symbol
 _atom_site_label
 _atom_site_symmetry_multiplicity
 _atom_site_fract_x
 _atom_site_fract_y
 _atom_site_fract_z
 _atom_site_occupancy
  Li  Li0  1  0.05838558  0.06807339  0.08454096  1
  Y  Y1  1  0.11298716  0.24905763  0.39099329  1
  Cl  Cl2  1  0.19235873  0.37737653  0.55971742  1
  Cl  Cl3  1  0.44678683  0.60881776  0.04276657  1
  Cl  Cl4  1  0.58174546  0.85867098  0.27331708  1
  Cl  Cl5  1  0.63789733  0.06831632  0.66450364  1
  Cl  Cl6  1  0.74349462  0.11920915  0.05990840  1
  Cl  Cl7  1  0.91218535  0.48531681  0.28300292  1
