# generated using pymatgen
data_Li4ScNb3S4
_symmetry_space_group_name_H-M   'P 1'
_cell_length_a   13.46456423
_cell_length_b   13.46456423
_cell_length_c   14.33635015
_cell_angle_alpha   90.00000000
_cell_angle_beta   90.00000000
_cell_angle_gamma   90.00000000
_symmetry_Int_Tables_number   1
_chemical_formula_structural   Li4ScNb3S4
_chemical_formula_sum   'Li4 Sc1 Nb3 S4'
_cell_volume   2599.10128889
_cell_formula_units_Z   1
loop_
 _symmetry_equiv_pos_site_id
 _symmetry_equiv_pos_as_xyz
  1  'x, y, z'
loop_
 _atom_site_type_symbol
 _atom_site_label
 _atom_site_symmetry_multiplicity
 _atom_site_fract_x
 _atom_site_fract_y
 _atom_site_fract_z
 _atom_site_occupancy
  Li  Li0  1  0.98328137  0.92165474  0.01969432  1
  Li  Li1  1  0.02885455  0.06858835  0.14018593  1
  Li  Li2  1  0.26115395  0.18058754  0.47846499  1
  Li  Li3  1  0.25617608  0.34164741  0.66352384  1
  Nb  Nb4  1  0.34637368  0.52361969  0.85591819  1
  Nb  Nb5  1  0.49580544  0.67930151  0.18285864  1
  Nb  Nb6  1  0.54884439  0.76523593  0.34399457  1
  S  S7  1  0.52657418  0.02093493  0.48233775  1
  S  S8  1  0.59250661  0.99712805  0.82797984  1
  S  S9  1  0.70084053  0.23388500  0.94088036  1
  S  S10  1  0.73587431  0.33274708  0.15162808  1
  Sc  Sc11  1  0.96260100  0.43810682  0.36168698  1
