# generated using pymatgen
data_Li4LaGaS3
_symmetry_space_group_name_H-M   'P 1'
_cell_length_a   11.61052935
_cell_length_b   11.61052935
_cell_length_c   11.17911979
_cell_angle_alpha   90.00000000
_cell_angle_beta   90.00000000
_cell_angle_gamma   90.00000000
_symmetry_Int_Tables_number   1
_chemical_formula_structural   Li4LaGaS3
_chemical_formula_sum   'Li4 La1 Ga1 S3'
_cell_volume   1506.99444391
_cell_formula_units_Z   1
loop_
 _symmetry_equiv_pos_site_id
 _symmetry_equiv_pos_as_xyz
  1  'x, y, z'
loop_
 _atom_site_type_symbol
 _atom_site_label
 _atom_site_symmetry_multiplicity
 _atom_site_fract_x
 _atom_site_fract_y
 _atom_site_fract_z
 _atom_site_occupancy
  Li  Li0  1  0.01064031  0.94397674  0.97602223  1
  Li  Li1  1  0.07751528  0.17059598  0.22296391  1
  Li  Li2  1  0.28330421  0.45456032  0.53839064  1
  Li  Li3  1  0.39576226  0.60395643  0.92431755  1
  Ga  Ga4  1  0.39437176  0.72653286  0.10622869  1
  S  S5  1  0.60043211  0.89348696  0.45561251  1
  S  S6  1  0.64062490  0.04161026  0.65812361  1
  S  S7  1  0.69858951  0.30431853  0.10704597  1
  La  La8  1  0.96443641  0.52003268  0.34926064  1
