# generated using pymatgen
data_Li3AlO3
_symmetry_space_group_name_H-M   'P 1'
_cell_length_a   10.73862008
_cell_length_b   10.73862008
_cell_length_c   21.27334032
_cell_angle_alpha   90.00000000
_cell_angle_beta   90.00000000
_cell_angle_gamma   120.00000000
_symmetry_Int_Tables_number   1
_chemical_formula_structural   Li3AlO3
_chemical_formula_sum   'Li3 Al1 O3'
_cell_volume   2124.53199025
_cell_formula_units_Z   1
loop_
 _symmetry_equiv_pos_site_id
 _symmetry_equiv_pos_as_xyz
  1  'x, y, z'
loop_
 _atom_site_type_symbol
 _atom_site_label
 _atom_site_symmetry_multiplicity
 _atom_site_fract_x
 _atom_site_fract_y
 _atom_site_fract_z
 _atom_site_occupancy
  Li  Li0  1  0.93363440  0.03265440  0.97202317  1
  Li  Li1  1  0.17637576  0.21675463  0.27498383  1
  Li  Li2  1  0.37681805  0.41683291  0.83857065  1
  Al  Al3  1  0.50577580  0.64021416  0.19237427  1
  O  O4  1  0.60215541  0.96144640  0.44845872  1
  O  O5  1  0.81369849  0.11772258  0.84492419  1
  O  O6  1  0.92176702  0.43088043  0.17693667  1
