# generated using pymatgen
data_Ba2LiTi2O2
_symmetry_space_group_name_H-M   'P 1'
_cell_length_a   3.49954933
_cell_length_b   3.49954933
_cell_length_c   5.22583551
_cell_angle_alpha   90.00000000
_cell_angle_beta   90.00000000
_cell_angle_gamma   90.00000000
_symmetry_Int_Tables_number   1
_chemical_formula_structural   Ba2LiTi2O2
_chemical_formula_sum   'Ba2 Li1 Ti2 O2'
_cell_volume   64.00000000
_cell_formula_units_Z   1
loop_
 _symmetry_equiv_pos_site_id
 _symmetry_equiv_pos_as_xyz
  1  'x, y, z'
loop_
 _atom_site_type_symbol
 _atom_site_label
 _atom_site_symmetry_multiplicity
 _atom_site_fract_x
 _atom_site_fract_y
 _atom_site_fract_z
 _atom_site_occupancy
  Li  Li0  1  0.03086064  0.95600421  0.08660201  1
  Ti  Ti1  1  0.17832277  0.31183253  0.41094851  1
  Ti  Ti2  1  0.34658019  0.42140834  0.66503783  1
  O  O3  1  0.37037769  0.70481832  0.10132389  1
  O  O4  1  0.49232917  0.84544042  0.46768583  1
  Ba  Ba5  1  0.78896435  0.15173320  0.80344073  1
  Ba  Ba6  1  0.95138306  0.46043875  0.31531227  1
