# generated using pymatgen
data_Ba2Li2Ti2O3
_symmetry_space_group_name_H-M   'P 1'
_cell_length_a   3.82355979
_cell_length_b   4.03907415
_cell_length_c   5.05062228
_cell_angle_alpha   90.00000000
_cell_angle_beta   90.00000000
_cell_angle_gamma   90.00000000
_symmetry_Int_Tables_number   1
_chemical_formula_structural   Ba2Li2Ti2O3
_chemical_formula_sum   'Ba2 Li2 Ti2 O3'
_cell_volume   78.00000000
_cell_formula_units_Z   1
loop_
 _symmetry_equiv_pos_site_id
 _symmetry_equiv_pos_as_xyz
  1  'x, y, z'
loop_
 _atom_site_type_symbol
 _atom_site_label
 _atom_site_symmetry_multiplicity
 _atom_site_fract_x
 _atom_site_fract_y
 _atom_site_fract_z
 _atom_site_occupancy
  Li  Li0  1  0.09310456  0.91438754  0.92594844  1
  Li  Li1  1  0.04511755  0.08265438  0.32113357  1
  Ti  Ti2  1  0.21366175  0.28207450  0.54777587  1
  Ti  Ti3  1  0.41501819  0.46236087  0.87671304  1
  O  O4  1  0.51367013  0.72488159  0.08192630  1
  O  O5  1  0.53638022  0.94100860  0.45605097  1
  O  O6  1  0.71056275  0.16873566  0.80869950  1
  Ba  Ba7  1  0.85643846  0.17835636  0.11571237  1
  Ba  Ba8  1  0.81646580  0.48801554  0.33270448  1
