# generated using pymatgen
data_Li2AlO4
_symmetry_space_group_name_H-M   'P 1'
_cell_length_a   10.29194769
_cell_length_b   10.29194769
_cell_length_c   8.88413984
_cell_angle_alpha   90.00000000
_cell_angle_beta   90.00000000
_cell_angle_gamma   120.00000000
_symmetry_Int_Tables_number   1
_chemical_formula_structural   Li2AlO4
_chemical_formula_sum   'Li2 Al1 O4'
_cell_volume   814.96912894
_cell_formula_units_Z   1
loop_
 _symmetry_equiv_pos_site_id
 _symmetry_equiv_pos_as_xyz
  1  'x, y, z'
loop_
 _atom_site_type_symbol
 _atom_site_label
 _atom_site_symmetry_multiplicity
 _atom_site_fract_x
 _atom_site_fract_y
 _atom_site_fract_z
 _atom_site_occupancy
  Li  Li0  1  0.02189014  0.02686775  0.96457968  1
  Li  Li1  1  0.17267115  0.19801916  0.31030222  1
  Al  Al2  1  0.34481424  0.55565948  0.72526347  1
  O  O3  1  0.36411274  0.67458730  0.03942446  1
  O  O4  1  0.60145592  0.95274933  0.59282513  1
  O  O5  1  0.63036698  0.21867309  0.87021026  1
  O  O6  1  0.90658887  0.48115081  0.27086703  1
