# generated using pymatgen
data_Li4InO4
_symmetry_space_group_name_H-M   'P 1'
_cell_length_a   3.66913148
_cell_length_b   12.61321588
_cell_length_c   13.16491817
_cell_angle_alpha   99.79359315
_cell_angle_beta   106.96755149
_cell_angle_gamma   99.05814862
_symmetry_Int_Tables_number   1
_chemical_formula_structural   Li4InO4
_chemical_formula_sum   'Li4 In1 O4'
_cell_volume   560.22199466
_cell_formula_units_Z   1
loop_
 _symmetry_equiv_pos_site_id
 _symmetry_equiv_pos_as_xyz
  1  'x, y, z'
loop_
 _atom_site_type_symbol
 _atom_site_label
 _atom_site_symmetry_multiplicity
 _atom_site_fract_x
 _atom_site_fract_y
 _atom_site_fract_z
 _atom_site_occupancy
  Li  Li0  1  0.99408833  0.01926646  0.96760791  1
  Li  Li1  1  0.18175128  0.13807838  0.22904215  1
  Li  Li2  1  0.18635290  0.40937384  0.63334924  1
  Li  Li3  1  0.29967610  0.57874559  0.83779839  1
  In  In4  1  0.41718262  0.70058258  0.22613484  1
  O  O5  1  0.46589954  0.93122275  0.43050206  1
  O  O6  1  0.72872856  0.16909645  0.76934535  1
  O  O7  1  0.85489951  0.35027140  0.11982323  1
  O  O8  1  0.90159212  0.36123687  0.35168851  1
