# generated using pymatgen
data_K4ScTiO6
_symmetry_space_group_name_H-M   'P 1'
_cell_length_a   11.91661772
_cell_length_b   10.95992394
_cell_length_c   14.30655318
_cell_angle_alpha   74.28358293
_cell_angle_beta   103.71941286
_cell_angle_gamma   101.81517200
_symmetry_Int_Tables_number   1
_chemical_formula_structural   K4ScTiO6
_chemical_formula_sum   'K4 Sc1 Ti1 O6'
_cell_volume   1727.49960168
_cell_formula_units_Z   1
loop_
 _symmetry_equiv_pos_site_id
 _symmetry_equiv_pos_as_xyz
  1  'x, y, z'
loop_
 _atom_site_type_symbol
 _atom_site_label
 _atom_site_symmetry_multiplicity
 _atom_site_fract_x
 _atom_site_fract_y
 _atom_site_fract_z
 _atom_site_occupancy
  K  K0  1  0.01343888  0.03356564  0.05327779  1
  K  K1  1  0.11619696  0.18023109  0.14842023  1
  K  K2  1  0.24850578  0.28361178  0.46714094  1
  K  K3  1  0.15881716  0.44894255  0.63530330  1
  Sc  Sc4  1  0.41705868  0.59285479  0.82071783  1
  Ti  Ti5  1  0.47415410  0.58643861  0.04578813  1
  O  O6  1  0.59267848  0.89330639  0.21856730  1
  O  O7  1  0.56520507  0.02591605  0.59561860  1
  O  O8  1  0.65498515  0.00010969  0.66004407  1
  O  O9  1  0.79006129  0.15936194  0.94711775  1
  O  O10  1  0.89555726  0.33352630  0.17693155  1
  O  O11  1  0.99707554  0.39141262  0.48646848  1
