# generated using pymatgen
data_LiTaO5
_symmetry_space_group_name_H-M   'P 1'
_cell_length_a   10.57697378
_cell_length_b   10.57697378
_cell_length_c   9.77322015
_cell_angle_alpha   90.00000000
_cell_angle_beta   90.00000000
_cell_angle_gamma   90.00000000
_symmetry_Int_Tables_number   1
_chemical_formula_structural   LiTaO5
_chemical_formula_sum   'Li2 Ta2 O10'
_cell_volume   1093.35334334
_cell_formula_units_Z   2
loop_
 _symmetry_equiv_pos_site_id
 _symmetry_equiv_pos_as_xyz
  1  'x, y, z'
loop_
 _atom_site_type_symbol
 _atom_site_label
 _atom_site_symmetry_multiplicity
 _atom_site_fract_x
 _atom_site_fract_y
 _atom_site_fract_z
 _atom_site_occupancy
  Li  Li0  1  0.97904690  0.95462438  0.94189567  1
  Li  Li1  1  0.01774970  0.12716421  0.12920697  1
  Ta  Ta2  1  0.19460750  0.15321447  0.42313009  1
  Ta  Ta3  1  0.22747119  0.31908506  0.65555926  1
  O  O4  1  0.19905660  0.39206868  0.65524264  1
  O  O5  1  0.37599323  0.50275777  0.94599890  1
  O  O6  1  0.33872194  0.62419609  0.07835062  1
  O  O7  1  0.55668039  0.87881028  0.39888672  1
  O  O8  1  0.52297468  0.90377813  0.42888793  1
  O  O9  1  0.63788845  0.02022897  0.70400850  1
  O  O10  1  0.73833849  0.07702305  0.91467049  1
  O  O11  1  0.84031696  0.19002020  0.08838280  1
  O  O12  1  0.86256368  0.37914887  0.27021700  1
  O  O13  1  0.00695661  0.50670559  0.52434408  1
