# generated using pymatgen
data_Li4ScTa3Cl7
_symmetry_space_group_name_H-M   'P 1'
_cell_length_a   14.10883885
_cell_length_b   14.10883885
_cell_length_c   13.59248601
_cell_angle_alpha   90.00000000
_cell_angle_beta   90.00000000
_cell_angle_gamma   90.00000000
_symmetry_Int_Tables_number   1
_chemical_formula_structural   Li4ScTa3Cl7
_chemical_formula_sum   'Li4 Sc1 Ta3 Cl7'
_cell_volume   2705.71120660
_cell_formula_units_Z   1
loop_
 _symmetry_equiv_pos_site_id
 _symmetry_equiv_pos_as_xyz
  1  'x, y, z'
loop_
 _atom_site_type_symbol
 _atom_site_label
 _atom_site_symmetry_multiplicity
 _atom_site_fract_x
 _atom_site_fract_y
 _atom_site_fract_z
 _atom_site_occupancy
  Li  Li0  1  0.05447970  0.07324855  0.92168496  1
  Li  Li1  1  0.98852608  0.06647230  0.27178843  1
  Li  Li2  1  0.10187249  0.26928184  0.25165147  1
  Li  Li3  1  0.29573466  0.28782867  0.57098876  1
  Ta  Ta4  1  0.25982098  0.47409138  0.68240493  1
  Ta  Ta5  1  0.41623389  0.44375676  0.89524640  1
  Ta  Ta6  1  0.40135789  0.66878174  0.10393885  1
  Cl  Cl7  1  0.38093623  0.77354964  0.25195026  1
  Cl  Cl8  1  0.62434475  0.79339276  0.43177859  1
  Cl  Cl9  1  0.62626250  0.87276122  0.54480987  1
  Cl  Cl10  1  0.61080012  0.07404214  0.74813365  1
  Cl  Cl11  1  0.81890977  0.15895639  0.84192669  1
  Cl  Cl12  1  0.70666282  0.30230191  0.19220299  1
  Cl  Cl13  1  0.81555313  0.37367646  0.17416214  1
  Sc  Sc14  1  0.99322967  0.41036176  0.52324189  1
