# generated using pymatgen
data_Li2ScCl4
_symmetry_space_group_name_H-M   'P 1'
_cell_length_a   3.54314202
_cell_length_b   3.54314202
_cell_length_c   4.93872186
_cell_angle_alpha   90.00000000
_cell_angle_beta   90.00000000
_cell_angle_gamma   90.00000000
_symmetry_Int_Tables_number   1
_chemical_formula_structural   Li2ScCl4
_chemical_formula_sum   'Li2 Sc1 Cl4'
_cell_volume   62.00000000
_cell_formula_units_Z   1
loop_
 _symmetry_equiv_pos_site_id
 _symmetry_equiv_pos_as_xyz
  1  'x, y, z'
loop_
 _atom_site_type_symbol
 _atom_site_label
 _atom_site_symmetry_multiplicity
 _atom_site_fract_x
 _atom_site_fract_y
 _atom_site_fract_z
 _atom_site_occupancy
  Li  Li0  1  0.08319966  0.00055285  0.04445158  1
  Li  Li1  1  0.07913393  0.20671846  0.42526827  1
  Sc  Sc2  1  0.36120593  0.51055811  0.71824436  1
  Cl  Cl3  1  0.50768166  0.61351962  0.12918687  1
  Cl  Cl4  1  0.47254519  0.93506663  0.47478991  1
  Cl  Cl5  1  0.68797123  0.16420237  0.89256099  1
  Cl  Cl6  1  0.89479902  0.34830022  0.21994275  1
