# generated using pymatgen
data_Li6TiF6
_symmetry_space_group_name_H-M   'P 1'
_cell_length_a   11.25534035
_cell_length_b   11.25534035
_cell_length_c   11.34648396
_cell_angle_alpha   90.00000000
_cell_angle_beta   90.00000000
_cell_angle_gamma   90.00000000
_symmetry_Int_Tables_number   1
_chemical_formula_structural   Li6TiF6
_chemical_formula_sum   'Li6 Ti1 F6'
_cell_volume   1437.40306918
_cell_formula_units_Z   1
loop_
 _symmetry_equiv_pos_site_id
 _symmetry_equiv_pos_as_xyz
  1  'x, y, z'
loop_
 _atom_site_type_symbol
 _atom_site_label
 _atom_site_symmetry_multiplicity
 _atom_site_fract_x
 _atom_site_fract_y
 _atom_site_fract_z
 _atom_site_occupancy
  Li  Li0  1  0.06821642  0.08387405  0.98515949  1
  Li  Li1  1  0.99227928  0.12010601  0.12597456  1
  Li  Li2  1  0.11797084  0.22251981  0.32915381  1
  Li  Li3  1  0.30435055  0.41050286  0.58933640  1
  Li  Li4  1  0.24302310  0.55165857  0.86374642  1
  Li  Li5  1  0.29735231  0.64396330  0.91742084  1
  Ti  Ti6  1  0.52877692  0.81141299  0.19884985  1
  F  F7  1  0.61848927  0.86793547  0.37252226  1
  F  F8  1  0.62500502  0.03131464  0.59033489  1
  F  F9  1  0.65053049  0.18841729  0.74195151  1
  F  F10  1  0.72072571  0.24169039  0.09293837  1
  F  F11  1  0.89478252  0.46406033  0.17465063  1
  F  F12  1  0.83382816  0.46969174  0.46961035  1
