# generated using pymatgen
data_LiSc2TaO10
_symmetry_space_group_name_H-M   'P 1'
_cell_length_a   12.05084481
_cell_length_b   12.05084481
_cell_length_c   12.10768648
_cell_angle_alpha   90.00000000
_cell_angle_beta   90.00000000
_cell_angle_gamma   90.00000000
_symmetry_Int_Tables_number   1
_chemical_formula_structural   LiSc2TaO10
_chemical_formula_sum   'Li1 Sc2 Ta1 O10'
_cell_volume   1758.31286832
_cell_formula_units_Z   1
loop_
 _symmetry_equiv_pos_site_id
 _symmetry_equiv_pos_as_xyz
  1  'x, y, z'
loop_
 _atom_site_type_symbol
 _atom_site_label
 _atom_site_symmetry_multiplicity
 _atom_site_fract_x
 _atom_site_fract_y
 _atom_site_fract_z
 _atom_site_occupancy
  Li  Li0  1  0.04725195  0.91122107  0.05563704  1
  Ta  Ta1  1  0.04551438  0.09504543  0.22532894  1
  O  O2  1  0.06575730  0.18885367  0.31378464  1
  O  O3  1  0.23774302  0.39683703  0.46338599  1
  O  O4  1  0.32116181  0.39665789  0.84221289  1
  O  O5  1  0.27674072  0.66839056  0.96604084  1
  O  O6  1  0.48862793  0.68222582  0.15383348  1
  O  O7  1  0.46438600  0.73317957  0.35625332  1
  O  O8  1  0.65021159  0.86153264  0.40189237  1
  O  O9  1  0.61521717  0.98651318  0.73934706  1
  O  O10  1  0.63415488  0.07656288  0.93880046  1
  O  O11  1  0.86630246  0.21223887  0.06248920  1
  Sc  Sc12  1  0.78550838  0.31872877  0.26711981  1
  Sc  Sc13  1  0.91517013  0.47441544  0.48039538  1
