# generated using pymatgen
data_Li3AlO4
_symmetry_space_group_name_H-M   'P 1'
_cell_length_a   9.77098661
_cell_length_b   9.77098661
_cell_length_c   13.51305849
_cell_angle_alpha   90.00000000
_cell_angle_beta   90.00000000
_cell_angle_gamma   120.00000000
_symmetry_Int_Tables_number   1
_chemical_formula_structural   Li3AlO4
_chemical_formula_sum   'Li3 Al1 O4'
_cell_volume   1117.27768307
_cell_formula_units_Z   1
loop_
 _symmetry_equiv_pos_site_id
 _symmetry_equiv_pos_as_xyz
  1  'x, y, z'
loop_
 _atom_site_type_symbol
 _atom_site_label
 _atom_site_symmetry_multiplicity
 _atom_site_fract_x
 _atom_site_fract_y
 _atom_site_fract_z
 _atom_site_occupancy
  Li  Li0  1  0.91672146  0.03378767  0.09881634  1
  Li  Li1  1  0.08675416  0.23287100  0.27391581  1
  Li  Li2  1  0.15146337  0.31964083  0.68832933  1
  Al  Al3  1  0.32161913  0.53642699  0.02180235  1
  O  O4  1  0.41440227  0.78238718  0.37036302  1
  O  O5  1  0.70049927  0.02162060  0.69043705  1
  O  O6  1  0.67221346  0.24074706  0.01608315  1
  O  O7  1  0.95817760  0.40438382  0.31224853  1
