# generated using pymatgen
data_LiTi2F7
_symmetry_space_group_name_H-M   'P 1'
_cell_length_a   11.51203753
_cell_length_b   11.51203753
_cell_length_c   11.83866760
_cell_angle_alpha   90.00000000
_cell_angle_beta   90.00000000
_cell_angle_gamma   90.00000000
_symmetry_Int_Tables_number   1
_chemical_formula_structural   LiTi2F7
_chemical_formula_sum   'Li1 Ti2 F7'
_cell_volume   1568.94319752
_cell_formula_units_Z   1
loop_
 _symmetry_equiv_pos_site_id
 _symmetry_equiv_pos_as_xyz
  1  'x, y, z'
loop_
 _atom_site_type_symbol
 _atom_site_label
 _atom_site_symmetry_multiplicity
 _atom_site_fract_x
 _atom_site_fract_y
 _atom_site_fract_z
 _atom_site_occupancy
  Li  Li0  1  0.91380706  0.06709574  0.90725135  1
  Ti  Ti1  1  0.16157363  0.07050205  0.26005658  1
  Ti  Ti2  1  0.27652477  0.36477467  0.52299728  1
  F  F3  1  0.35643927  0.51926815  0.70118419  1
  F  F4  1  0.43002092  0.55994967  0.09609704  1
  F  F5  1  0.49489260  0.85600402  0.32172210  1
  F  F6  1  0.60068819  0.88103120  0.54475217  1
  F  F7  1  0.77163397  0.18739591  0.81942722  1
  F  F8  1  0.87447236  0.28988279  0.14074237  1
  F  F9  1  0.94374305  0.42769992  0.43007325  1
