# generated using pymatgen
data_Li2AlF5
_symmetry_space_group_name_H-M   'P 1'
_cell_length_a   10.83726344
_cell_length_b   10.83726344
_cell_length_c   10.52859004
_cell_angle_alpha   90.00000000
_cell_angle_beta   90.00000000
_cell_angle_gamma   90.00000000
_symmetry_Int_Tables_number   1
_chemical_formula_structural   Li2AlF5
_chemical_formula_sum   'Li4 Al2 F10'
_cell_volume   1236.54372150
_cell_formula_units_Z   2
loop_
 _symmetry_equiv_pos_site_id
 _symmetry_equiv_pos_as_xyz
  1  'x, y, z'
loop_
 _atom_site_type_symbol
 _atom_site_label
 _atom_site_symmetry_multiplicity
 _atom_site_fract_x
 _atom_site_fract_y
 _atom_site_fract_z
 _atom_site_occupancy
  Li  Li0  1  0.03097336  0.92189974  0.05510591  1
  Li  Li1  1  0.09763265  0.09513272  0.22176918  1
  Li  Li2  1  0.18095821  0.27262979  0.38845228  1
  Li  Li3  1  0.25772491  0.32080576  0.53815281  1
  Al  Al4  1  0.17168882  0.46735967  0.68634543  1
  Al  Al5  1  0.30664956  0.41702473  0.74445269  1
  F  F6  1  0.41130936  0.69292029  0.06839257  1
  F  F7  1  0.41645952  0.66315405  0.15926061  1
  F  F8  1  0.44709115  0.83507744  0.40885232  1
  F  F9  1  0.60195560  0.89105019  0.39837343  1
  F  F10  1  0.71055450  0.92362021  0.56152126  1
  F  F11  1  0.60581554  0.03013441  0.83300896  1
  F  F12  1  0.71457245  0.12350809  0.93850132  1
  F  F13  1  0.83640077  0.34944940  0.09771230  1
  F  F14  1  0.93685288  0.40979403  0.20695026  1
  F  F15  1  0.98506401  0.54993705  0.44501611  1
