# generated using pymatgen
data_Li3AlO4
_symmetry_space_group_name_H-M   'P 1'
_cell_length_a   5.26856074
_cell_length_b   5.26856074
_cell_length_c   9.92207263
_cell_angle_alpha   90.00000000
_cell_angle_beta   90.00000000
_cell_angle_gamma   120.00000000
_symmetry_Int_Tables_number   1
_chemical_formula_structural   Li3AlO4
_chemical_formula_sum   'Li3 Al1 O4'
_cell_volume   238.51572443
_cell_formula_units_Z   1
loop_
 _symmetry_equiv_pos_site_id
 _symmetry_equiv_pos_as_xyz
  1  'x, y, z'
loop_
 _atom_site_type_symbol
 _atom_site_label
 _atom_site_symmetry_multiplicity
 _atom_site_fract_x
 _atom_site_fract_y
 _atom_site_fract_z
 _atom_site_occupancy
  Li  Li0  1  0.94937137  0.92042263  0.91481494  1
  Li  Li1  1  0.05790452  0.13707783  0.35942491  1
  Li  Li2  1  0.18431199  0.45239391  0.73915404  1
  Al  Al3  1  0.30086828  0.60515907  0.98135161  1
  O  O4  1  0.55673319  0.80206391  0.35540167  1
  O  O5  1  0.59724305  0.96378878  0.68754648  1
  O  O6  1  0.66728218  0.12786358  0.92370982  1
  O  O7  1  0.90036149  0.36664717  0.19204579  1
