# generated using pymatgen
data_Li2La4P8Cl5
_symmetry_space_group_name_H-M   'P 1'
_cell_length_a   4.22113680
_cell_length_b   10.25083770
_cell_length_c   7.71628975
_cell_angle_alpha   98.64202587
_cell_angle_beta   119.63733794
_cell_angle_gamma   66.43682750
_symmetry_Int_Tables_number   1
_chemical_formula_structural   Li2La4P8Cl5
_chemical_formula_sum   'Li2 La4 P8 Cl5'
_cell_volume   265.53510887
_cell_formula_units_Z   1
loop_
 _symmetry_equiv_pos_site_id
 _symmetry_equiv_pos_as_xyz
  1  'x, y, z'
loop_
 _atom_site_type_symbol
 _atom_site_label
 _atom_site_symmetry_multiplicity
 _atom_site_fract_x
 _atom_site_fract_y
 _atom_site_fract_z
 _atom_site_occupancy
  Li  Li0  1  0.95217339  0.90209156  0.92722097  1
  Li  Li1  1  0.03506940  0.13029755  0.15470670  1
  La  La2  1  0.15366449  0.14954098  0.28735825  1
  La  La3  1  0.12034300  0.17673503  0.47392162  1
  La  La4  1  0.24569552  0.24510812  0.59198867  1
  La  La5  1  0.23786952  0.38939897  0.66921885  1
  Cl  Cl6  1  0.29836589  0.53046607  0.79510791  1
  Cl  Cl7  1  0.41919885  0.51821837  0.91006652  1
  Cl  Cl8  1  0.41507756  0.67224847  0.12839137  1
  Cl  Cl9  1  0.56874975  0.68067241  0.33460917  1
  Cl  Cl10  1  0.51094588  0.90079852  0.37695799  1
  P  P11  1  0.55582537  0.03616645  0.60215496  1
  P  P12  1  0.57816402  0.00728739  0.66785854  1
  P  P13  1  0.77936600  0.18165174  0.72886839  1
  P  P14  1  0.82352042  0.24640391  0.93342224  1
  P  P15  1  0.87110981  0.20417097  0.00774078  1
  P  P16  1  0.82400762  0.44649090  0.14286788  1
  P  P17  1  0.88004738  0.51825922  0.25657779  1
  P  P18  1  0.89179584  0.43336325  0.40816974  1
