# generated using pymatgen
data_Li2LaN7O2
_symmetry_space_group_name_H-M   'P 1'
_cell_length_a   13.93697728
_cell_length_b   10.40996021
_cell_length_c   12.29546700
_cell_angle_alpha   87.17902973
_cell_angle_beta   77.21080633
_cell_angle_gamma   65.33260989
_symmetry_Int_Tables_number   1
_chemical_formula_structural   Li2LaN7O2
_chemical_formula_sum   'Li2 La1 N7 O2'
_cell_volume   1578.98840714
_cell_formula_units_Z   1
loop_
 _symmetry_equiv_pos_site_id
 _symmetry_equiv_pos_as_xyz
  1  'x, y, z'
loop_
 _atom_site_type_symbol
 _atom_site_label
 _atom_site_symmetry_multiplicity
 _atom_site_fract_x
 _atom_site_fract_y
 _atom_site_fract_z
 _atom_site_occupancy
  Li  Li0  1  0.01074678  0.03934784  0.08448376  1
  Li  Li1  1  0.98593807  0.11099605  0.13240479  1
  La  La2  1  0.25759855  0.28897646  0.40790312  1
  O  O3  1  0.18182857  0.49195881  0.67400002  1
  O  O4  1  0.26768148  0.57717524  0.80455945  1
  N  N5  1  0.46528596  0.73154918  0.03546822  1
  N  N6  1  0.48919607  0.85338434  0.22600260  1
  N  N7  1  0.65793694  0.03615350  0.61510836  1
  N  N8  1  0.68368254  0.12655928  0.65724929  1
  N  N9  1  0.78660384  0.13736363  0.91460202  1
  N  N10  1  0.78224093  0.38577023  0.25340914  1
  N  N11  1  0.96706656  0.48510473  0.33962184  1
