# generated using pymatgen
data_LiTa3S8
_symmetry_space_group_name_H-M   'P 1'
_cell_length_a   13.58827018
_cell_length_b   13.58827018
_cell_length_c   14.23825079
_cell_angle_alpha   90.00000000
_cell_angle_beta   90.00000000
_cell_angle_gamma   90.00000000
_symmetry_Int_Tables_number   1
_chemical_formula_structural   LiTa3S8
_chemical_formula_sum   'Li1 Ta3 S8'
_cell_volume   2628.96609706
_cell_formula_units_Z   1
loop_
 _symmetry_equiv_pos_site_id
 _symmetry_equiv_pos_as_xyz
  1  'x, y, z'
loop_
 _atom_site_type_symbol
 _atom_site_label
 _atom_site_symmetry_multiplicity
 _atom_site_fract_x
 _atom_site_fract_y
 _atom_site_fract_z
 _atom_site_occupancy
  Li  Li0  1  0.08668004  0.95541640  0.93991068  1
  Ta  Ta1  1  0.98413827  0.13931666  0.17931321  1
  Ta  Ta2  1  0.16194605  0.17120623  0.53119329  1
  Ta  Ta3  1  0.16003098  0.33861414  0.72439905  1
  S  S4  1  0.29131832  0.49665975  0.96956342  1
  S  S5  1  0.47750178  0.60919218  0.12532623  1
  S  S6  1  0.56808739  0.87867099  0.40433621  1
  S  S7  1  0.58037511  0.95029948  0.49378539  1
  S  S8  1  0.74407935  0.14393139  0.73527378  1
  S  S9  1  0.80174223  0.18263296  0.88133229  1
  S  S10  1  0.84574781  0.38886169  0.10303845  1
  S  S11  1  0.90226972  0.53783854  0.35631296  1
