# generated using pymatgen
data_SrLiTiO2
_symmetry_space_group_name_H-M   'P 1'
_cell_length_a   3.53813354
_cell_length_b   4.83904828
_cell_length_c   4.90619845
_cell_angle_alpha   90.00000000
_cell_angle_beta   90.00000000
_cell_angle_gamma   90.00000000
_symmetry_Int_Tables_number   1
_chemical_formula_structural   SrLiTiO2
_chemical_formula_sum   'Sr2 Li2 Ti2 O4'
_cell_volume   84.00000000
_cell_formula_units_Z   2
loop_
 _symmetry_equiv_pos_site_id
 _symmetry_equiv_pos_as_xyz
  1  'x, y, z'
loop_
 _atom_site_type_symbol
 _atom_site_label
 _atom_site_symmetry_multiplicity
 _atom_site_fract_x
 _atom_site_fract_y
 _atom_site_fract_z
 _atom_site_occupancy
  Li  Li0  1  0.97428241  0.97849159  0.00794682  1
  Li  Li1  1  0.09813485  0.06697792  0.24894797  1
  Ti  Ti2  1  0.22249025  0.30393352  0.47778886  1
  Ti  Ti3  1  0.34383880  0.50353537  0.70631572  1
  O  O4  1  0.38039210  0.64337026  0.14676351  1
  O  O5  1  0.51918596  0.78038988  0.24420257  1
  O  O6  1  0.63748580  0.98417457  0.56811093  1
  O  O7  1  0.73444944  0.22209784  0.83816297  1
  Sr  Sr8  1  0.78436823  0.35006028  0.07243794  1
  Sr  Sr9  1  0.81919431  0.38675985  0.29397942  1
