# generated using pymatgen
data_Li2TiO3
_symmetry_space_group_name_H-M   'P 1'
_cell_length_a   4.07961872
_cell_length_b   4.07961872
_cell_length_c   4.07961872
_cell_angle_alpha   90.00000000
_cell_angle_beta   90.00000000
_cell_angle_gamma   90.00000000
_symmetry_Int_Tables_number   1
_chemical_formula_structural   Li2TiO3
_chemical_formula_sum   'Li2 Ti1 O3'
_cell_volume   67.89827307
_cell_formula_units_Z   1
loop_
 _symmetry_equiv_pos_site_id
 _symmetry_equiv_pos_as_xyz
  1  'x, y, z'
loop_
 _atom_site_type_symbol
 _atom_site_label
 _atom_site_symmetry_multiplicity
 _atom_site_fract_x
 _atom_site_fract_y
 _atom_site_fract_z
 _atom_site_occupancy
  Li  Li0  1  0.95729061  0.97008832  0.07845574  1
  Li  Li1  1  0.09441004  0.33128954  0.35317725  1
  Ti  Ti2  1  0.39951512  0.54399715  0.77366564  1
  O  O3  1  0.43248189  0.76124763  0.22365951  1
  O  O4  1  0.68215670  0.13859929  0.73351888  1
  O  O5  1  0.87927649  0.39584805  0.08839247  1
