# generated using pymatgen
data_Li4InCl5
_symmetry_space_group_name_H-M   'P 1'
_cell_length_a   4.40368825
_cell_length_b   4.40368825
_cell_length_c   4.53784377
_cell_angle_alpha   90.00000000
_cell_angle_beta   90.00000000
_cell_angle_gamma   90.00000000
_symmetry_Int_Tables_number   1
_chemical_formula_structural   Li4InCl5
_chemical_formula_sum   'Li4 In1 Cl5'
_cell_volume   88.00000000
_cell_formula_units_Z   1
loop_
 _symmetry_equiv_pos_site_id
 _symmetry_equiv_pos_as_xyz
  1  'x, y, z'
loop_
 _atom_site_type_symbol
 _atom_site_label
 _atom_site_symmetry_multiplicity
 _atom_site_fract_x
 _atom_site_fract_y
 _atom_site_fract_z
 _atom_site_occupancy
  Li  Li0  1  0.07171326  0.99300392  0.94438232  1
  Li  Li1  1  0.15840153  0.21416380  0.22694075  1
  Li  Li2  1  0.24210251  0.38826523  0.45940223  1
  Li  Li3  1  0.26425983  0.57510268  0.72426677  1
  In  In4  1  0.36078673  0.69473869  0.05531420  1
  Cl  Cl5  1  0.52055841  0.83035534  0.32908334  1
  Cl  Cl6  1  0.67549214  0.93644936  0.66324865  1
  Cl  Cl7  1  0.60847961  0.13032775  0.73546361  1
  Cl  Cl8  1  0.71820014  0.21462368  0.16730848  1
  Cl  Cl9  1  0.86778279  0.45394176  0.37676918  1
