# generated using pymatgen
data_Li2Y2Zr2O5
_symmetry_space_group_name_H-M   'P 1'
_cell_length_a   14.63580546
_cell_length_b   14.63580546
_cell_length_c   14.39136607
_cell_angle_alpha   90.00000000
_cell_angle_beta   90.00000000
_cell_angle_gamma   90.00000000
_symmetry_Int_Tables_number   1
_chemical_formula_structural   Li2Y2Zr2O5
_chemical_formula_sum   'Li2 Y2 Zr2 O5'
_cell_volume   3082.72849507
_cell_formula_units_Z   1
loop_
 _symmetry_equiv_pos_site_id
 _symmetry_equiv_pos_as_xyz
  1  'x, y, z'
loop_
 _atom_site_type_symbol
 _atom_site_label
 _atom_site_symmetry_multiplicity
 _atom_site_fract_x
 _atom_site_fract_y
 _atom_site_fract_z
 _atom_site_occupancy
  Li  Li0  1  0.93875705  0.92119451  0.02493379  1
  Li  Li1  1  0.18779976  0.16846507  0.23998414  1
  Zr  Zr2  1  0.10779936  0.38425755  0.42368019  1
  Zr  Zr3  1  0.21909474  0.43507369  0.77301720  1
  O  O4  1  0.30941986  0.52108188  0.00340087  1
  O  O5  1  0.51980588  0.75157761  0.13105687  1
  O  O6  1  0.47707772  0.83299194  0.43346966  1
  O  O7  1  0.65825151  0.06043096  0.67500816  1
  O  O8  1  0.74369741  0.22689885  0.92422984  1
  Y  Y9  1  0.89366418  0.35296771  0.05443071  1
  Y  Y10  1  0.92138142  0.54026116  0.42898082  1
