# generated using pymatgen
data_LiTi4P5O7
_symmetry_space_group_name_H-M   'P 1'
_cell_length_a   4.63627235
_cell_length_b   4.77583826
_cell_length_c   6.23247487
_cell_angle_alpha   90.00000000
_cell_angle_beta   90.00000000
_cell_angle_gamma   90.00000000
_symmetry_Int_Tables_number   1
_chemical_formula_structural   LiTi4P5O7
_chemical_formula_sum   'Li1 Ti4 P5 O7'
_cell_volume   138.00000000
_cell_formula_units_Z   1
loop_
 _symmetry_equiv_pos_site_id
 _symmetry_equiv_pos_as_xyz
  1  'x, y, z'
loop_
 _atom_site_type_symbol
 _atom_site_label
 _atom_site_symmetry_multiplicity
 _atom_site_fract_x
 _atom_site_fract_y
 _atom_site_fract_z
 _atom_site_occupancy
  Li  Li0  1  0.94206586  0.90124672  0.08060068  1
  Ti  Ti1  1  0.08959373  0.02676989  0.07499509  1
  Ti  Ti2  1  0.10978804  0.18591341  0.25460581  1
  Ti  Ti3  1  0.14639794  0.36282534  0.39720934  1
  Ti  Ti4  1  0.22486715  0.34748616  0.70198841  1
  P  P5  1  0.36084558  0.52166765  0.86202800  1
  P  P6  1  0.27730664  0.51654630  0.98469474  1
  P  P7  1  0.48716831  0.75788295  0.01877734  1
  P  P8  1  0.44993132  0.81432733  0.26269518  1
  P  P9  1  0.62005642  0.95053225  0.48377648  1
  O  O10  1  0.56549133  0.96664285  0.62553234  1
  O  O11  1  0.74488186  0.10246804  0.60957074  1
  O  O12  1  0.67418087  0.14317018  0.87929396  1
  O  O13  1  0.68407883  0.19731576  0.00685363  1
  O  O14  1  0.83125589  0.27039172  0.19137203  1
  O  O15  1  0.92531717  0.34264310  0.38489709  1
  O  O16  1  0.87713309  0.45265558  0.41547210  1
