# generated using pymatgen
data_LiAlO4
_symmetry_space_group_name_H-M   'P 1'
_cell_length_a   10.84002927
_cell_length_b   10.84002927
_cell_length_c   18.39231100
_cell_angle_alpha   90.00000000
_cell_angle_beta   90.00000000
_cell_angle_gamma   120.00000000
_symmetry_Int_Tables_number   1
_chemical_formula_structural   LiAlO4
_chemical_formula_sum   'Li1 Al1 O4'
_cell_volume   1871.66381066
_cell_formula_units_Z   1
loop_
 _symmetry_equiv_pos_site_id
 _symmetry_equiv_pos_as_xyz
  1  'x, y, z'
loop_
 _atom_site_type_symbol
 _atom_site_label
 _atom_site_symmetry_multiplicity
 _atom_site_fract_x
 _atom_site_fract_y
 _atom_site_fract_z
 _atom_site_occupancy
  Li  Li0  1  0.96979552  0.96857755  0.06059376  1
  Al  Al1  1  0.26412949  0.24945693  0.39398178  1
  O  O2  1  0.25125773  0.55423468  0.93366549  1
  O  O3  1  0.53133754  0.90517684  0.31457052  1
  O  O4  1  0.75504941  0.03224032  0.77020870  1
  O  O5  1  0.77360448  0.38027348  0.11275750  1
