# generated using pymatgen
data_LiTiInS10
_symmetry_space_group_name_H-M   'P 1'
_cell_length_a   14.04118087
_cell_length_b   14.04118087
_cell_length_c   14.04525719
_cell_angle_alpha   90.00000000
_cell_angle_beta   90.00000000
_cell_angle_gamma   90.00000000
_symmetry_Int_Tables_number   1
_chemical_formula_structural   LiTiInS10
_chemical_formula_sum   'Li1 Ti1 In1 S10'
_cell_volume   2769.08931388
_cell_formula_units_Z   1
loop_
 _symmetry_equiv_pos_site_id
 _symmetry_equiv_pos_as_xyz
  1  'x, y, z'
loop_
 _atom_site_type_symbol
 _atom_site_label
 _atom_site_symmetry_multiplicity
 _atom_site_fract_x
 _atom_site_fract_y
 _atom_site_fract_z
 _atom_site_occupancy
  Li  Li0  1  0.95208947  0.00492016  0.01020792  1
  Ti  Ti1  1  0.98164400  0.05597908  0.23388878  1
  S  S2  1  0.23006935  0.20885447  0.45212336  1
  S  S3  1  0.32898593  0.31329836  0.68777956  1
  S  S4  1  0.34952532  0.51155764  0.74530064  1
  S  S5  1  0.38933650  0.54549478  0.01655672  1
  S  S6  1  0.46532280  0.71718702  0.24428092  1
  S  S7  1  0.55576959  0.89136638  0.49945086  1
  S  S8  1  0.71200509  0.94648333  0.69531810  1
  S  S9  1  0.67266633  0.07136785  0.78007889  1
  S  S10  1  0.69250754  0.16546616  0.99832168  1
  S  S11  1  0.82764632  0.29640517  0.20766208  1
  In  In12  1  0.92977944  0.55372421  0.35849680  1
