# generated using pymatgen
data_Li5La2NbO6
_symmetry_space_group_name_H-M   'P 1'
_cell_length_a   13.29527344
_cell_length_b   13.29527344
_cell_length_c   13.11457989
_cell_angle_alpha   90.00000000
_cell_angle_beta   90.00000000
_cell_angle_gamma   90.00000000
_symmetry_Int_Tables_number   1
_chemical_formula_structural   Li5La2NbO6
_chemical_formula_sum   'Li5 La2 Nb1 O6'
_cell_volume   2318.18947989
_cell_formula_units_Z   1
loop_
 _symmetry_equiv_pos_site_id
 _symmetry_equiv_pos_as_xyz
  1  'x, y, z'
loop_
 _atom_site_type_symbol
 _atom_site_label
 _atom_site_symmetry_multiplicity
 _atom_site_fract_x
 _atom_site_fract_y
 _atom_site_fract_z
 _atom_site_occupancy
  Li  Li0  1  0.01036915  0.06567924  0.92809462  1
  Li  Li1  1  0.00705257  0.16651934  0.16408995  1
  Li  Li2  1  0.13881988  0.29460265  0.38083824  1
  Li  Li3  1  0.30202478  0.39572148  0.49876901  1
  Li  Li4  1  0.27298693  0.39455416  0.82261358  1
  Nb  Nb5  1  0.28510182  0.60858685  0.86830598  1
  O  O6  1  0.34925851  0.70100166  0.14389056  1
  O  O7  1  0.46074538  0.84679116  0.34068992  1
  O  O8  1  0.62187038  0.83572389  0.50545386  1
  O  O9  1  0.72821536  0.10767814  0.76154029  1
  O  O10  1  0.64216759  0.12032164  0.92757248  1
  O  O11  1  0.81244221  0.27080025  0.01368905  1
  La  La12  1  0.77603931  0.42531571  0.24858691  1
  La  La13  1  0.84342063  0.47037959  0.51403489  1
