# generated using pymatgen
data_LiZrS9
_symmetry_space_group_name_H-M   'P 1'
_cell_length_a   11.68130183
_cell_length_b   11.68130183
_cell_length_c   11.81688135
_cell_angle_alpha   90.00000000
_cell_angle_beta   90.00000000
_cell_angle_gamma   90.00000000
_symmetry_Int_Tables_number   1
_chemical_formula_structural   LiZrS9
_chemical_formula_sum   'Li1 Zr1 S9'
_cell_volume   1612.44669504
_cell_formula_units_Z   1
loop_
 _symmetry_equiv_pos_site_id
 _symmetry_equiv_pos_as_xyz
  1  'x, y, z'
loop_
 _atom_site_type_symbol
 _atom_site_label
 _atom_site_symmetry_multiplicity
 _atom_site_fract_x
 _atom_site_fract_y
 _atom_site_fract_z
 _atom_site_occupancy
  Li  Li0  1  0.99089901  0.92873181  0.09239793  1
  Zr  Zr1  1  0.08895161  0.21418725  0.30774977  1
  S  S2  1  0.12870739  0.37832155  0.45263336  1
  S  S3  1  0.25131609  0.34210727  0.62834020  1
  S  S4  1  0.37619853  0.64293836  0.96689507  1
  S  S5  1  0.51510280  0.65176081  0.26413241  1
  S  S6  1  0.59353968  0.85211006  0.50682225  1
  S  S7  1  0.72996072  0.12816726  0.68456311  1
  S  S8  1  0.78661536  0.22817569  0.87624512  1
  S  S9  1  0.82529827  0.28062634  0.17061207  1
  S  S10  1  0.82455334  0.49583345  0.45355974  1
