# generated using pymatgen
data_Sr2Li4TiO4
_symmetry_space_group_name_H-M   'P 1'
_cell_length_a   3.81649516
_cell_length_b   4.71468881
_cell_length_c   4.89063130
_cell_angle_alpha   90.00000000
_cell_angle_beta   90.00000000
_cell_angle_gamma   90.00000000
_symmetry_Int_Tables_number   1
_chemical_formula_structural   Sr2Li4TiO4
_chemical_formula_sum   'Sr2 Li4 Ti1 O4'
_cell_volume   88.00000000
_cell_formula_units_Z   1
loop_
 _symmetry_equiv_pos_site_id
 _symmetry_equiv_pos_as_xyz
  1  'x, y, z'
loop_
 _atom_site_type_symbol
 _atom_site_label
 _atom_site_symmetry_multiplicity
 _atom_site_fract_x
 _atom_site_fract_y
 _atom_site_fract_z
 _atom_site_occupancy
  Li  Li0  1  0.05829947  0.02471372  0.03436522  1
  Li  Li1  1  0.01208120  0.14116326  0.26677435  1
  Li  Li2  1  0.27574373  0.36099158  0.40189821  1
  Li  Li3  1  0.22259630  0.52004596  0.74711870  1
  Ti  Ti4  1  0.41113528  0.57656093  0.87259976  1
  O  O5  1  0.49045375  0.68685989  0.26815515  1
  O  O6  1  0.57556452  0.94657954  0.51392689  1
  O  O7  1  0.66832952  0.00435807  0.73524990  1
  O  O8  1  0.75565013  0.11806612  0.85809979  1
  Sr  Sr9  1  0.82601546  0.30011821  0.18017203  1
  Sr  Sr10  1  0.89989294  0.46059276  0.37292394  1
