# generated using pymatgen
data_Li5Ta3In4F9
_symmetry_space_group_name_H-M   'P 1'
_cell_length_a   12.62692034
_cell_length_b   10.15924320
_cell_length_c   7.90371941
_cell_angle_alpha   82.97813909
_cell_angle_beta   91.34471327
_cell_angle_gamma   93.45129628
_symmetry_Int_Tables_number   1
_chemical_formula_structural   Li5Ta3In4F9
_chemical_formula_sum   'Li5 Ta3 In4 F9'
_cell_volume   1004.32632846
_cell_formula_units_Z   1
loop_
 _symmetry_equiv_pos_site_id
 _symmetry_equiv_pos_as_xyz
  1  'x, y, z'
loop_
 _atom_site_type_symbol
 _atom_site_label
 _atom_site_symmetry_multiplicity
 _atom_site_fract_x
 _atom_site_fract_y
 _atom_site_fract_z
 _atom_site_occupancy
  Li  Li0  1  0.02717402  0.01727507  0.98222527  1
  Li  Li1  1  0.95749064  0.08300466  0.05300698  1
  Li  Li2  1  0.99591510  0.17934493  0.27012392  1
  Li  Li3  1  0.11161386  0.21503439  0.45794535  1
  Li  Li4  1  0.24359909  0.23466532  0.45449627  1
  In  In5  1  0.27055919  0.40230044  0.65760012  1
  In  In6  1  0.19577543  0.37648321  0.76281876  1
  In  In7  1  0.38815347  0.52864083  0.84299186  1
  In  In8  1  0.43684640  0.69253884  0.06815137  1
  Ta  Ta9  1  0.33576776  0.73080334  0.03065233  1
  Ta  Ta10  1  0.42739281  0.69175986  0.21522683  1
  Ta  Ta11  1  0.53020420  0.80951472  0.27309692  1
  F  F12  1  0.62246919  0.88034571  0.51817482  1
  F  F13  1  0.61592449  0.94645604  0.55955988  1
  F  F14  1  0.58103362  0.13610894  0.66483484  1
  F  F15  1  0.67527344  0.13265625  0.79545586  1
  F  F16  1  0.85457186  0.16429844  0.02973091  1
  F  F17  1  0.78742997  0.38697429  0.01991698  1
  F  F18  1  0.94184373  0.38966529  0.26368391  1
  F  F19  1  0.90583492  0.44602353  0.38022132  1
  F  F20  1  0.90578658  0.44326461  0.42993350  1
