# generated using pymatgen
data_Li3AlO5
_symmetry_space_group_name_H-M   'P 1'
_cell_length_a   9.16641667
_cell_length_b   9.16641667
_cell_length_c   7.80188467
_cell_angle_alpha   90.00000000
_cell_angle_beta   90.00000000
_cell_angle_gamma   120.00000000
_symmetry_Int_Tables_number   1
_chemical_formula_structural   Li3AlO5
_chemical_formula_sum   'Li3 Al1 O5'
_cell_volume   567.71366445
_cell_formula_units_Z   1
loop_
 _symmetry_equiv_pos_site_id
 _symmetry_equiv_pos_as_xyz
  1  'x, y, z'
loop_
 _atom_site_type_symbol
 _atom_site_label
 _atom_site_symmetry_multiplicity
 _atom_site_fract_x
 _atom_site_fract_y
 _atom_site_fract_z
 _atom_site_occupancy
  Li  Li0  1  0.02467850  0.02901523  0.08802821  1
  Li  Li1  1  0.13685219  0.20046954  0.28707118  1
  Li  Li2  1  0.22432020  0.27001795  0.50166127  1
  Al  Al3  1  0.33902772  0.58282629  0.83398611  1
  O  O4  1  0.36905850  0.62775124  0.10650718  1
  O  O5  1  0.51582193  0.80862234  0.38008663  1
  O  O6  1  0.75642227  0.16322862  0.83999863  1
  O  O7  1  0.86669020  0.26701941  0.95971966  1
  O  O8  1  0.95260268  0.51864785  0.33831796  1
