# generated using pymatgen
data_BaLi3TiO4
_symmetry_space_group_name_H-M   'P 1'
_cell_length_a   3.74946589
_cell_length_b   3.74946589
_cell_length_c   4.97919603
_cell_angle_alpha   90.00000000
_cell_angle_beta   90.00000000
_cell_angle_gamma   90.00000000
_symmetry_Int_Tables_number   1
_chemical_formula_structural   BaLi3TiO4
_chemical_formula_sum   'Ba1 Li3 Ti1 O4'
_cell_volume   70.00000000
_cell_formula_units_Z   1
loop_
 _symmetry_equiv_pos_site_id
 _symmetry_equiv_pos_as_xyz
  1  'x, y, z'
loop_
 _atom_site_type_symbol
 _atom_site_label
 _atom_site_symmetry_multiplicity
 _atom_site_fract_x
 _atom_site_fract_y
 _atom_site_fract_z
 _atom_site_occupancy
  Li  Li0  1  0.05282514  0.05427919  0.00606270  1
  Li  Li1  1  0.07052669  0.16038501  0.25092897  1
  Li  Li2  1  0.21695575  0.34286001  0.50231309  1
  Ti  Ti3  1  0.34035801  0.51066720  0.78279740  1
  O  O4  1  0.36941161  0.66628076  0.10256901  1
  O  O5  1  0.49117739  0.98580429  0.40274738  1
  O  O6  1  0.66610751  0.09843804  0.79233998  1
  O  O7  1  0.72385547  0.26705279  0.07340947  1
  Ba  Ba8  1  0.96448364  0.49400885  0.30181688  1
