# generated using pymatgen
data_Li6La4ZrO13
_symmetry_space_group_name_H-M   'P 1'
_cell_length_a   5.74005804
_cell_length_b   5.74005804
_cell_length_c   7.40554898
_cell_angle_alpha   90.00000000
_cell_angle_beta   90.00000000
_cell_angle_gamma   90.00000000
_symmetry_Int_Tables_number   1
_chemical_formula_structural   Li6La4ZrO13
_chemical_formula_sum   'Li6 La4 Zr1 O13'
_cell_volume   244.00000000
_cell_formula_units_Z   1
loop_
 _symmetry_equiv_pos_site_id
 _symmetry_equiv_pos_as_xyz
  1  'x, y, z'
loop_
 _atom_site_type_symbol
 _atom_site_label
 _atom_site_symmetry_multiplicity
 _atom_site_fract_x
 _atom_site_fract_y
 _atom_site_fract_z
 _atom_site_occupancy
  Li  Li0  1  0.06888390  0.91200394  0.08438906  1
  Li  Li1  1  0.01545732  0.15778675  0.16160619  1
  Li  Li2  1  0.99534981  0.21338154  0.23676588  1
  Li  Li3  1  0.07611873  0.12952801  0.31886254  1
  Li  Li4  1  0.12942005  0.25106558  0.41874489  1
  Li  Li5  1  0.13371919  0.24759218  0.44827526  1
  La  La6  1  0.19420849  0.32436637  0.68761400  1
  La  La7  1  0.32383599  0.53259641  0.76208598  1
  La  La8  1  0.31948583  0.49279341  0.90152310  1
  La  La9  1  0.34161407  0.62163161  0.07270006  1
  Zr  Zr10  1  0.45817323  0.75184206  0.18751238  1
  O  O11  1  0.46925026  0.77280080  0.10483509  1
  O  O12  1  0.48719118  0.89887471  0.38581393  1
  O  O13  1  0.63448191  0.81881031  0.34990466  1
  O  O14  1  0.49715608  0.90768782  0.61598316  1
  O  O15  1  0.63221860  0.10345741  0.62407855  1
  O  O16  1  0.71023545  0.14114984  0.76731093  1
  O  O17  1  0.66664358  0.22146210  0.90012734  1
  O  O18  1  0.66977104  0.11570805  0.97496535  1
  O  O19  1  0.76155646  0.30020803  0.01631273  1
  O  O20  1  0.81833234  0.43488704  0.23098012  1
  O  O21  1  0.83626020  0.46025147  0.36260809  1
  O  O22  1  0.92304097  0.44098509  0.48056628  1
  O  O23  1  0.97764077  0.63502693  0.51447988  1
