# generated using pymatgen
data_Li7La2Zr2O10
_symmetry_space_group_name_H-M   'P 1'
_cell_length_a   4.49726927
_cell_length_b   6.36428975
_cell_length_c   7.05752677
_cell_angle_alpha   90.00000000
_cell_angle_beta   90.00000000
_cell_angle_gamma   90.00000000
_symmetry_Int_Tables_number   1
_chemical_formula_structural   Li7La2Zr2O10
_chemical_formula_sum   'Li7 La2 Zr2 O10'
_cell_volume   202.00000000
_cell_formula_units_Z   1
loop_
 _symmetry_equiv_pos_site_id
 _symmetry_equiv_pos_as_xyz
  1  'x, y, z'
loop_
 _atom_site_type_symbol
 _atom_site_label
 _atom_site_symmetry_multiplicity
 _atom_site_fract_x
 _atom_site_fract_y
 _atom_site_fract_z
 _atom_site_occupancy
  Li  Li0  1  0.00375760  0.08993854  0.93572664  1
  Li  Li1  1  0.10360808  0.12870696  0.21281284  1
  Li  Li2  1  0.16410143  0.18473729  0.33588898  1
  Li  Li3  1  0.20075917  0.30914830  0.29376095  1
  Li  Li4  1  0.24186917  0.28026361  0.46753748  1
  Li  Li5  1  0.29758291  0.41123680  0.68087679  1
  Li  Li6  1  0.22187871  0.42738893  0.67075097  1
  La  La7  1  0.25078452  0.51259266  0.82906484  1
  La  La8  1  0.37418696  0.57064026  0.93265175  1
  Zr  Zr9  1  0.51777115  0.70332856  0.04773789  1
  Zr  Zr10  1  0.54610259  0.78738422  0.15460468  1
  O  O11  1  0.48177278  0.90941719  0.29931490  1
  O  O12  1  0.48635820  0.96222394  0.49734574  1
  O  O13  1  0.62450629  0.05078568  0.70795639  1
  O  O14  1  0.62635251  0.00365431  0.75348147  1
  O  O15  1  0.76764296  0.16559500  0.93761432  1
  O  O16  1  0.67258431  0.24627950  0.98659601  1
  O  O17  1  0.78716583  0.36694682  0.18825782  1
  O  O18  1  0.90731493  0.45815048  0.22848659  1
  O  O19  1  0.83168208  0.52841936  0.40302599  1
  O  O20  1  0.99500993  0.61670705  0.44725607  1
