# generated using pymatgen
data_Li2Al2O3
_symmetry_space_group_name_H-M   'P 1'
_cell_length_a   13.64291017
_cell_length_b   13.64291017
_cell_length_c   13.33860086
_cell_angle_alpha   90.00000000
_cell_angle_beta   90.00000000
_cell_angle_gamma   90.00000000
_symmetry_Int_Tables_number   1
_chemical_formula_structural   Li2Al2O3
_chemical_formula_sum   'Li2 Al2 O3'
_cell_volume   2482.70040996
_cell_formula_units_Z   1
loop_
 _symmetry_equiv_pos_site_id
 _symmetry_equiv_pos_as_xyz
  1  'x, y, z'
loop_
 _atom_site_type_symbol
 _atom_site_label
 _atom_site_symmetry_multiplicity
 _atom_site_fract_x
 _atom_site_fract_y
 _atom_site_fract_z
 _atom_site_occupancy
  Li  Li0  1  0.00616881  0.04486952  0.04897888  1
  Li  Li1  1  0.13901834  0.24609867  0.28542308  1
  Al  Al2  1  0.32552762  0.45569371  0.72177481  1
  Al  Al3  1  0.52307538  0.69090543  0.02550952  1
  O  O4  1  0.65577173  0.02060464  0.41835076  1
  O  O5  1  0.80255977  0.23985097  0.90976639  1
  O  O6  1  0.76261653  0.38075350  0.19192694  1
