# generated using pymatgen
data_Li3Ti4(PO4)3
_symmetry_space_group_name_H-M   'P 1'
_cell_length_a   5.83004069
_cell_length_b   5.83004069
_cell_length_c   4.94272116
_cell_angle_alpha   90.00000000
_cell_angle_beta   90.00000000
_cell_angle_gamma   90.00000000
_symmetry_Int_Tables_number   1
_chemical_formula_structural   Li3Ti4(PO4)3
_chemical_formula_sum   'Li3 Ti4 P3 O12'
_cell_volume   168.00000000
_cell_formula_units_Z   1
loop_
 _symmetry_equiv_pos_site_id
 _symmetry_equiv_pos_as_xyz
  1  'x, y, z'
loop_
 _atom_site_type_symbol
 _atom_site_label
 _atom_site_symmetry_multiplicity
 _atom_site_fract_x
 _atom_site_fract_y
 _atom_site_fract_z
 _atom_site_occupancy
  Li  Li0  1  0.04127297  0.07944582  0.99863479  1
  Li  Li1  1  0.08843127  0.14344624  0.18223566  1
  Li  Li2  1  0.17372962  0.17217344  0.33717908  1
  Ti  Ti3  1  0.18558506  0.27454869  0.26396190  1
  Ti  Ti4  1  0.28123638  0.28979159  0.56560909  1
  Ti  Ti5  1  0.25334064  0.38395824  0.60209936  1
  Ti  Ti6  1  0.30058793  0.41179316  0.73173016  1
  P  P7  1  0.28766719  0.46349132  0.75411319  1
  P  P8  1  0.31621823  0.56871981  0.86641728  1
  P  P9  1  0.42455472  0.74771421  0.02207315  1
  O  O10  1  0.42112096  0.76274130  0.26805539  1
  O  O11  1  0.44510223  0.77846347  0.37030596  1
  O  O12  1  0.55402443  0.91317089  0.34511382  1
  O  O13  1  0.61472468  0.89583322  0.54249906  1
  O  O14  1  0.73178627  0.03010636  0.59725082  1
  O  O15  1  0.67094973  0.18463323  0.80782459  1
  O  O16  1  0.67220961  0.22404455  0.80441572  1
  O  O17  1  0.71806167  0.21064229  0.12236858  1
  O  O18  1  0.80558622  0.37107414  0.14235397  1
  O  O19  1  0.89713790  0.39339078  0.23686000  1
  O  O20  1  0.90548412  0.51518104  0.41730762  1
  O  O21  1  0.01623758  0.63391032  0.56204953  1
