# generated using pymatgen
data_Li3ScCl4
_symmetry_space_group_name_H-M   'P 1'
_cell_length_a   3.64505669
_cell_length_b   4.17064979
_cell_length_c   4.60458007
_cell_angle_alpha   90.00000000
_cell_angle_beta   90.00000000
_cell_angle_gamma   90.00000000
_symmetry_Int_Tables_number   1
_chemical_formula_structural   Li3ScCl4
_chemical_formula_sum   'Li3 Sc1 Cl4'
_cell_volume   70.00000000
_cell_formula_units_Z   1
loop_
 _symmetry_equiv_pos_site_id
 _symmetry_equiv_pos_as_xyz
  1  'x, y, z'
loop_
 _atom_site_type_symbol
 _atom_site_label
 _atom_site_symmetry_multiplicity
 _atom_site_fract_x
 _atom_site_fract_y
 _atom_site_fract_z
 _atom_site_occupancy
  Li  Li0  1  0.97051535  0.91765126  0.90149757  1
  Li  Li1  1  0.07796327  0.11988512  0.32467929  1
  Li  Li2  1  0.21240543  0.44864949  0.67531113  1
  Sc  Sc3  1  0.43441356  0.51259489  0.04367624  1
  Cl  Cl4  1  0.52420277  0.80568333  0.22359275  1
  Cl  Cl5  1  0.53038341  0.04514205  0.53788876  1
  Cl  Cl6  1  0.66362802  0.16670478  0.03256124  1
  Cl  Cl7  1  0.90197029  0.39234647  0.23504528  1
