# generated using pymatgen
data_Li2Y2Cl3
_symmetry_space_group_name_H-M   'P 1'
_cell_length_a   4.59858421
_cell_length_b   4.59858421
_cell_length_c   3.78304668
_cell_angle_alpha   90.00000000
_cell_angle_beta   90.00000000
_cell_angle_gamma   90.00000000
_symmetry_Int_Tables_number   1
_chemical_formula_structural   Li2Y2Cl3
_chemical_formula_sum   'Li2 Y2 Cl3'
_cell_volume   80.00000000
_cell_formula_units_Z   1
loop_
 _symmetry_equiv_pos_site_id
 _symmetry_equiv_pos_as_xyz
  1  'x, y, z'
loop_
 _atom_site_type_symbol
 _atom_site_label
 _atom_site_symmetry_multiplicity
 _atom_site_fract_x
 _atom_site_fract_y
 _atom_site_fract_z
 _atom_site_occupancy
  Li  Li0  1  0.01320893  0.05388062  0.07878374  1
  Li  Li1  1  0.14887451  0.16980652  0.31963867  1
  Y  Y2  1  0.27906300  0.51589770  0.70458186  1
  Y  Y3  1  0.41798700  0.78021553  0.10571236  1
  Cl  Cl4  1  0.62203412  0.83618419  0.51494012  1
  Cl  Cl5  1  0.77572446  0.24819094  0.89859180  1
  Cl  Cl6  1  0.94568566  0.35968490  0.15430640  1
