# generated using pymatgen
data_Li6LaZr2O12
_symmetry_space_group_name_H-M   'P 1'
_cell_length_a   5.30222854
_cell_length_b   5.30222854
_cell_length_c   6.43815886
_cell_angle_alpha   90.00000000
_cell_angle_beta   90.00000000
_cell_angle_gamma   90.00000000
_symmetry_Int_Tables_number   1
_chemical_formula_structural   Li6LaZr2O12
_chemical_formula_sum   'Li6 La1 Zr2 O12'
_cell_volume   181.00000000
_cell_formula_units_Z   1
loop_
 _symmetry_equiv_pos_site_id
 _symmetry_equiv_pos_as_xyz
  1  'x, y, z'
loop_
 _atom_site_type_symbol
 _atom_site_label
 _atom_site_symmetry_multiplicity
 _atom_site_fract_x
 _atom_site_fract_y
 _atom_site_fract_z
 _atom_site_occupancy
  Li  Li0  1  0.07775751  0.95696623  0.97289912  1
  Li  Li1  1  0.98748095  0.01265668  0.15054587  1
  Li  Li2  1  0.19189544  0.23530772  0.29301714  1
  Li  Li3  1  0.21893884  0.19771251  0.41604274  1
  Li  Li4  1  0.18928922  0.27103559  0.55655384  1
  Li  Li5  1  0.29895650  0.38564675  0.53936841  1
  La  La6  1  0.20065718  0.50810283  0.81380658  1
  Zr  Zr7  1  0.24329121  0.57405696  0.96460045  1
  Zr  Zr8  1  0.44383114  0.68184412  0.95571232  1
  O  O9  1  0.33242866  0.77368141  0.20274506  1
  O  O10  1  0.51451566  0.76141963  0.31402113  1
  O  O11  1  0.57858756  0.81114892  0.41265692  1
  O  O12  1  0.59783927  0.92513739  0.46987139  1
  O  O13  1  0.56714374  0.91921520  0.66218192  1
  O  O14  1  0.71225146  0.14019476  0.64858965  1
  O  O15  1  0.66166279  0.23457255  0.87869704  1
  O  O16  1  0.73577302  0.24890819  0.99479641  1
  O  O17  1  0.90780531  0.31410870  0.21240386  1
  O  O18  1  0.85090009  0.39504807  0.18333007  1
  O  O19  1  0.91527754  0.46497100  0.30728660  1
  O  O20  1  0.94455046  0.59679788  0.40173302  1
