# generated using pymatgen
data_Li5La2Zr2O11
_symmetry_space_group_name_H-M   'P 1'
_cell_length_a   5.76899828
_cell_length_b   5.76899828
_cell_length_c   5.76899828
_cell_angle_alpha   90.00000000
_cell_angle_beta   90.00000000
_cell_angle_gamma   90.00000000
_symmetry_Int_Tables_number   1
_chemical_formula_structural   Li5La2Zr2O11
_chemical_formula_sum   'Li5 La2 Zr2 O11'
_cell_volume   192.00000000
_cell_formula_units_Z   1
loop_
 _symmetry_equiv_pos_site_id
 _symmetry_equiv_pos_as_xyz
  1  'x, y, z'
loop_
 _atom_site_type_symbol
 _atom_site_label
 _atom_site_symmetry_multiplicity
 _atom_site_fract_x
 _atom_site_fract_y
 _atom_site_fract_z
 _atom_site_occupancy
  Li  Li0  1  0.01911297  0.06119000  0.94643306  1
  Li  Li1  1  0.03438255  0.06102540  0.14091437  1
  Li  Li2  1  0.17355805  0.25745944  0.17251165  1
  Li  Li3  1  0.10432093  0.15724205  0.47358323  1
  Li  Li4  1  0.16485634  0.23422164  0.48022941  1
  La  La5  1  0.31298231  0.49081832  0.72091938  1
  La  La6  1  0.21687194  0.52137574  0.81242998  1
  Zr  Zr7  1  0.31330062  0.66490035  0.84029798  1
  Zr  Zr8  1  0.47250321  0.72272453  0.94946320  1
  O  O9  1  0.39188957  0.82456741  0.10186449  1
  O  O10  1  0.53896744  0.75935643  0.33209695  1
  O  O11  1  0.59852053  0.97423343  0.47996185  1
  O  O12  1  0.53372457  0.95986288  0.59277481  1
  O  O13  1  0.61221979  0.99117211  0.62231001  1
  O  O14  1  0.76038206  0.22270127  0.73998761  1
  O  O15  1  0.72366240  0.22653738  0.91742800  1
  O  O16  1  0.70352727  0.39372023  0.10342302  1
  O  O17  1  0.93484743  0.45524099  0.21581635  1
  O  O18  1  0.91607337  0.38972667  0.42396762  1
  O  O19  1  0.96529844  0.54417939  0.56559572  1
