# generated using pymatgen
data_Li4ZrScO6
_symmetry_space_group_name_H-M   'P 1'
_cell_length_a   11.56980874
_cell_length_b   11.56980874
_cell_length_c   12.23822409
_cell_angle_alpha   90.00000000
_cell_angle_beta   90.00000000
_cell_angle_gamma   90.00000000
_symmetry_Int_Tables_number   1
_chemical_formula_structural   Li4ZrScO6
_chemical_formula_sum   'Li4 Zr1 Sc1 O6'
_cell_volume   1638.21448179
_cell_formula_units_Z   1
loop_
 _symmetry_equiv_pos_site_id
 _symmetry_equiv_pos_as_xyz
  1  'x, y, z'
loop_
 _atom_site_type_symbol
 _atom_site_label
 _atom_site_symmetry_multiplicity
 _atom_site_fract_x
 _atom_site_fract_y
 _atom_site_fract_z
 _atom_site_occupancy
  Li  Li0  1  0.02136283  0.91777527  0.02587081  1
  Li  Li1  1  0.12613344  0.04044203  0.20738215  1
  Li  Li2  1  0.25146557  0.33262972  0.48894707  1
  Li  Li3  1  0.28603406  0.32734981  0.70895581  1
  Zr  Zr4  1  0.25825878  0.53197574  0.82415479  1
  O  O5  1  0.45089585  0.77295110  0.18234880  1
  O  O6  1  0.57058064  0.77258224  0.30748253  1
  O  O7  1  0.58451486  0.00292458  0.43616310  1
  O  O8  1  0.72771631  0.06022440  0.82935676  1
  O  O9  1  0.77825642  0.20221169  0.01880677  1
  O  O10  1  0.91000920  0.40624277  0.21361844  1
  Sc  Sc11  1  0.92213999  0.52744780  0.34880730  1
