# generated using pymatgen
data_BaLi2TiO2
_symmetry_space_group_name_H-M   'P 1'
_cell_length_a   3.29840943
_cell_length_b   3.29840943
_cell_length_c   4.59579743
_cell_angle_alpha   90.00000000
_cell_angle_beta   90.00000000
_cell_angle_gamma   90.00000000
_symmetry_Int_Tables_number   1
_chemical_formula_structural   BaLi2TiO2
_chemical_formula_sum   'Ba1 Li2 Ti1 O2'
_cell_volume   50.00000000
_cell_formula_units_Z   1
loop_
 _symmetry_equiv_pos_site_id
 _symmetry_equiv_pos_as_xyz
  1  'x, y, z'
loop_
 _atom_site_type_symbol
 _atom_site_label
 _atom_site_symmetry_multiplicity
 _atom_site_fract_x
 _atom_site_fract_y
 _atom_site_fract_z
 _atom_site_occupancy
  Li  Li0  1  0.04202050  0.09618291  0.93546553  1
  Li  Li1  1  0.10982789  0.20867930  0.48104907  1
  Ti  Ti2  1  0.36058752  0.61894703  0.85037854  1
  O  O3  1  0.42007690  0.75433998  0.23931092  1
  O  O4  1  0.60513840  0.15770078  0.81124581  1
  Ba  Ba5  1  0.81543583  0.37173863  0.23672263  1
