# generated using pymatgen
data_Li6La2Zr3O12
_symmetry_space_group_name_H-M   'P 1'
_cell_length_a   6.07317794
_cell_length_b   6.07317794
_cell_length_c   6.07317794
_cell_angle_alpha   90.00000000
_cell_angle_beta   90.00000000
_cell_angle_gamma   90.00000000
_symmetry_Int_Tables_number   1
_chemical_formula_structural   Li6La2Zr3O12
_chemical_formula_sum   'Li6 La2 Zr3 O12'
_cell_volume   224.00000000
_cell_formula_units_Z   1
loop_
 _symmetry_equiv_pos_site_id
 _symmetry_equiv_pos_as_xyz
  1  'x, y, z'
loop_
 _atom_site_type_symbol
 _atom_site_label
 _atom_site_symmetry_multiplicity
 _atom_site_fract_x
 _atom_site_fract_y
 _atom_site_fract_z
 _atom_site_occupancy
  Li  Li0  1  0.97810197  0.98481839  0.94354626  1
  Li  Li1  1  0.09569720  0.97254385  0.05897511  1
  Li  Li2  1  0.14809042  0.08190646  0.22746260  1
  Li  Li3  1  0.03888228  0.20317879  0.24483104  1
  Li  Li4  1  0.08257758  0.34090426  0.47268590  1
  Li  Li5  1  0.13308805  0.44294700  0.61966044  1
  La  La6  1  0.35749903  0.32539049  0.77573939  1
  La  La7  1  0.39074059  0.45798034  0.70041009  1
  Zr  Zr8  1  0.28264087  0.58055195  0.81778070  1
  Zr  Zr9  1  0.37482475  0.64947423  0.98826022  1
  Zr  Zr10  1  0.38401552  0.65490976  0.22133120  1
  O  O11  1  0.51132990  0.67746227  0.23374151  1
  O  O12  1  0.43166221  0.91606794  0.34923809  1
  O  O13  1  0.51253307  0.87869090  0.49783962  1
  O  O14  1  0.63840475  0.06713474  0.63009760  1
  O  O15  1  0.64318057  0.07756329  0.80492171  1
  O  O16  1  0.74145284  0.19674455  0.87497737  1
  O  O17  1  0.77424101  0.22021270  0.86058210  1
  O  O18  1  0.85902334  0.18494065  0.07625517  1
  O  O19  1  0.85342825  0.31411828  0.08973144  1
  O  O20  1  0.92831641  0.43605719  0.34367895  1
  O  O21  1  0.92142635  0.43776489  0.40971668  1
  O  O22  1  0.93944811  0.58669688  0.50515156  1
