# generated using pymatgen
data_LiLa2Ti2O3
_symmetry_space_group_name_H-M   'P 1'
_cell_length_a   4.64158883
_cell_length_b   4.64158883
_cell_length_c   4.64158883
_cell_angle_alpha   90.00000000
_cell_angle_beta   90.00000000
_cell_angle_gamma   90.00000000
_symmetry_Int_Tables_number   1
_chemical_formula_structural   LiLa2Ti2O3
_chemical_formula_sum   'Li1 La2 Ti2 O3'
_cell_volume   100.00000000
_cell_formula_units_Z   1
loop_
 _symmetry_equiv_pos_site_id
 _symmetry_equiv_pos_as_xyz
  1  'x, y, z'
loop_
 _atom_site_type_symbol
 _atom_site_label
 _atom_site_symmetry_multiplicity
 _atom_site_fract_x
 _atom_site_fract_y
 _atom_site_fract_z
 _atom_site_occupancy
  Li  Li0  1  0.03061626  0.98309837  0.04981734  1
  Ti  Ti1  1  0.06700952  0.12043715  0.31358178  1
  Ti  Ti2  1  0.20307215  0.45401383  0.62253543  1
  O  O3  1  0.45458693  0.57394379  0.98977449  1
  O  O4  1  0.51422075  0.82519634  0.26293706  1
  O  O5  1  0.56996599  0.98564708  0.66674568  1
  La  La6  1  0.81256061  0.19527294  0.95735971  1
  La  La7  1  0.86103183  0.46219429  0.26000366  1
