# generated using pymatgen
data_Li7La3Zr2O15
_symmetry_space_group_name_H-M   'P 1'
_cell_length_a   6.01339061
_cell_length_b   6.01339061
_cell_length_c   7.10713056
_cell_angle_alpha   90.00000000
_cell_angle_beta   90.00000000
_cell_angle_gamma   90.00000000
_symmetry_Int_Tables_number   1
_chemical_formula_structural   Li7La3Zr2O15
_chemical_formula_sum   'Li7 La3 Zr2 O15'
_cell_volume   257.00000000
_cell_formula_units_Z   1
loop_
 _symmetry_equiv_pos_site_id
 _symmetry_equiv_pos_as_xyz
  1  'x, y, z'
loop_
 _atom_site_type_symbol
 _atom_site_label
 _atom_site_symmetry_multiplicity
 _atom_site_fract_x
 _atom_site_fract_y
 _atom_site_fract_z
 _atom_site_occupancy
  Li  Li0  1  0.07808045  0.99427078  0.99125879  1
  Li  Li1  1  0.02796498  0.05966601  0.13756509  1
  Li  Li2  1  0.05851662  0.18325486  0.15657663  1
  Li  Li3  1  0.02779521  0.16607264  0.38441218  1
  Li  Li4  1  0.09370412  0.14787533  0.38865119  1
  Li  Li5  1  0.22575121  0.25140468  0.45830581  1
  Li  Li6  1  0.26920173  0.30036579  0.67129247  1
  La  La7  1  0.29201339  0.44521119  0.65606656  1
  La  La8  1  0.22731207  0.47881994  0.70822909  1
  La  La9  1  0.32286593  0.60178585  0.82884110  1
  Zr  Zr10  1  0.41896964  0.51406347  0.06657898  1
  Zr  Zr11  1  0.40863696  0.70074042  0.05114053  1
  O  O12  1  0.40162838  0.73334898  0.19005330  1
  O  O13  1  0.48507660  0.83508923  0.27613021  1
  O  O14  1  0.56832127  0.81615862  0.28506398  1
  O  O15  1  0.47355940  0.98080275  0.38491385  1
  O  O16  1  0.58098001  0.87966622  0.45925275  1
  O  O17  1  0.60715278  0.98768610  0.57422913  1
  O  O18  1  0.64423367  0.08304230  0.67761339  1
  O  O19  1  0.79625604  0.09209981  0.92047835  1
  O  O20  1  0.71300697  0.24248021  0.85076411  1
  O  O21  1  0.79190964  0.33916138  0.11123117  1
  O  O22  1  0.81747592  0.31610283  0.04880269  1
  O  O23  1  0.82713017  0.45037176  0.18376441  1
  O  O24  1  0.84702374  0.53509201  0.37136272  1
  O  O25  1  0.00629863  0.41103386  0.32829466  1
  O  O26  1  0.98814307  0.57071737  0.52751278  1
