# generated using pymatgen
data_Li3TiCl7
_symmetry_space_group_name_H-M   'P 1'
_cell_length_a   11.94697542
_cell_length_b   11.94697542
_cell_length_c   10.94019679
_cell_angle_alpha   90.00000000
_cell_angle_beta   90.00000000
_cell_angle_gamma   90.00000000
_symmetry_Int_Tables_number   1
_chemical_formula_structural   Li3TiCl7
_chemical_formula_sum   'Li3 Ti1 Cl7'
_cell_volume   1561.49671143
_cell_formula_units_Z   1
loop_
 _symmetry_equiv_pos_site_id
 _symmetry_equiv_pos_as_xyz
  1  'x, y, z'
loop_
 _atom_site_type_symbol
 _atom_site_label
 _atom_site_symmetry_multiplicity
 _atom_site_fract_x
 _atom_site_fract_y
 _atom_site_fract_z
 _atom_site_occupancy
  Li  Li0  1  0.90370490  0.03576529  0.03814077  1
  Li  Li1  1  0.03227263  0.11674332  0.18651998  1
  Li  Li2  1  0.09017896  0.26682171  0.49440592  1
  Ti  Ti3  1  0.33890682  0.53140771  0.73888596  1
  Cl  Cl4  1  0.42930327  0.66631052  0.97435584  1
  Cl  Cl5  1  0.41711905  0.79566521  0.10301533  1
  Cl  Cl6  1  0.50379209  0.86699435  0.47355233  1
  Cl  Cl7  1  0.72452129  0.10207316  0.59652283  1
  Cl  Cl8  1  0.78844284  0.09262763  0.90266058  1
  Cl  Cl9  1  0.91658594  0.30852575  0.20424228  1
  Cl  Cl10  1  0.97736698  0.42853535  0.42215141  1
