# generated using pymatgen
data_LiTi(PO2)4
_symmetry_space_group_name_H-M   'P 1'
_cell_length_a   3.79812674
_cell_length_b   4.47155342
_cell_length_c   5.88805860
_cell_angle_alpha   90.00000000
_cell_angle_beta   90.00000000
_cell_angle_gamma   90.00000000
_symmetry_Int_Tables_number   1
_chemical_formula_structural   LiTi(PO2)4
_chemical_formula_sum   'Li1 Ti1 P4 O8'
_cell_volume   100.00000000
_cell_formula_units_Z   1
loop_
 _symmetry_equiv_pos_site_id
 _symmetry_equiv_pos_as_xyz
  1  'x, y, z'
loop_
 _atom_site_type_symbol
 _atom_site_label
 _atom_site_symmetry_multiplicity
 _atom_site_fract_x
 _atom_site_fract_y
 _atom_site_fract_z
 _atom_site_occupancy
  Li  Li0  1  0.03125506  0.08528525  0.07630847  1
  Ti  Ti1  1  0.04107980  0.10882672  0.10540982  1
  P  P2  1  0.08980166  0.19969159  0.32287149  1
  P  P3  1  0.16460916  0.34164890  0.53149568  1
  P  P4  1  0.35473945  0.38253286  0.78012672  1
  P  P5  1  0.27732220  0.50909299  0.87475458  1
  O  O6  1  0.40996925  0.72182875  0.03532792  1
  O  O7  1  0.43406553  0.84085188  0.34738470  1
  O  O8  1  0.54902850  0.99017112  0.51768789  1
  O  O9  1  0.62571412  0.99035931  0.66514000  1
  O  O10  1  0.72593965  0.20691007  0.84856347  1
  O  O11  1  0.79395224  0.31459907  0.99138366  1
  O  O12  1  0.87116722  0.30480687  0.30964035  1
  O  O13  1  0.91215718  0.51509515  0.51050055  1
