# generated using pymatgen
data_Li3LaTiO2
_symmetry_space_group_name_H-M   'P 1'
_cell_length_a   12.05451429
_cell_length_b   12.05451429
_cell_length_c   11.78395449
_cell_angle_alpha   90.00000000
_cell_angle_beta   90.00000000
_cell_angle_gamma   90.00000000
_symmetry_Int_Tables_number   1
_chemical_formula_structural   Li3LaTiO2
_chemical_formula_sum   'Li6 La2 Ti2 O4'
_cell_volume   1712.34191888
_cell_formula_units_Z   2
loop_
 _symmetry_equiv_pos_site_id
 _symmetry_equiv_pos_as_xyz
  1  'x, y, z'
loop_
 _atom_site_type_symbol
 _atom_site_label
 _atom_site_symmetry_multiplicity
 _atom_site_fract_x
 _atom_site_fract_y
 _atom_site_fract_z
 _atom_site_occupancy
  Li  Li0  1  0.03519416  0.06113835  0.07014998  1
  Li  Li1  1  0.08781541  0.08629093  0.24886808  1
  Li  Li2  1  0.23597890  0.22423504  0.45997121  1
  Li  Li3  1  0.22979392  0.33487014  0.52629287  1
  Li  Li4  1  0.20301475  0.47677527  0.66099449  1
  Li  Li5  1  0.30910989  0.51163449  0.01567432  1
  Ti  Ti6  1  0.52297807  0.75748363  0.02830167  1
  Ti  Ti7  1  0.56000393  0.81197506  0.29356032  1
  O  O8  1  0.56318248  0.94169108  0.44719520  1
  O  O9  1  0.58835650  0.99319193  0.66337767  1
  O  O10  1  0.80208200  0.06085907  0.93274814  1
  O  O11  1  0.73660706  0.34547256  0.97163650  1
  La  La12  1  0.88017517  0.46488055  0.26062015  1
  La  La13  1  0.01401013  0.54476073  0.43909658  1
