# generated using pymatgen
data_Li2TiO4
_symmetry_space_group_name_H-M   'P 1'
_cell_length_a   9.64326179
_cell_length_b   9.64326179
_cell_length_c   9.64326179
_cell_angle_alpha   90.00000000
_cell_angle_beta   90.00000000
_cell_angle_gamma   90.00000000
_symmetry_Int_Tables_number   1
_chemical_formula_structural   Li2TiO4
_chemical_formula_sum   'Li2 Ti1 O4'
_cell_volume   896.75100261
_cell_formula_units_Z   1
loop_
 _symmetry_equiv_pos_site_id
 _symmetry_equiv_pos_as_xyz
  1  'x, y, z'
loop_
 _atom_site_type_symbol
 _atom_site_label
 _atom_site_symmetry_multiplicity
 _atom_site_fract_x
 _atom_site_fract_y
 _atom_site_fract_z
 _atom_site_occupancy
  Li  Li0  1  0.06770863  0.03051204  0.93552385  1
  Li  Li1  1  0.15179952  0.25169956  0.42087780  1
  Ti  Ti2  1  0.28282730  0.41357358  0.78978704  1
  O  O3  1  0.51991097  0.77960042  0.21928942  1
  O  O4  1  0.53419248  0.89102779  0.55102637  1
  O  O5  1  0.64952734  0.06225874  0.77239575  1
  O  O6  1  0.76731238  0.31276032  0.21771980  1
