# generated using pymatgen
data_Li2Ti3F5
_symmetry_space_group_name_H-M   'P 1'
_cell_length_a   10.49775975
_cell_length_b   10.49775975
_cell_length_c   11.48512363
_cell_angle_alpha   90.00000000
_cell_angle_beta   90.00000000
_cell_angle_gamma   90.00000000
_symmetry_Int_Tables_number   1
_chemical_formula_structural   Li2Ti3F5
_chemical_formula_sum   'Li2 Ti3 F5'
_cell_volume   1265.69461785
_cell_formula_units_Z   1
loop_
 _symmetry_equiv_pos_site_id
 _symmetry_equiv_pos_as_xyz
  1  'x, y, z'
loop_
 _atom_site_type_symbol
 _atom_site_label
 _atom_site_symmetry_multiplicity
 _atom_site_fract_x
 _atom_site_fract_y
 _atom_site_fract_z
 _atom_site_occupancy
  Li  Li0  1  0.01432031  0.08968128  0.00351652  1
  Li  Li1  1  0.04636616  0.24011114  0.18781224  1
  Ti  Ti2  1  0.13784725  0.41702330  0.44071395  1
  Ti  Ti3  1  0.27751919  0.48504089  0.69207282  1
  Ti  Ti4  1  0.39301471  0.68415351  0.98463751  1
  F  F5  1  0.49740898  0.72912080  0.37575069  1
  F  F6  1  0.61941967  0.01566698  0.56105271  1
  F  F7  1  0.60921568  0.17605991  0.76581763  1
  F  F8  1  0.87800797  0.33242252  0.14108382  1
  F  F9  1  0.98297465  0.55496958  0.44958979  1
