# generated using pymatgen
data_Li8La2ZrO10
_symmetry_space_group_name_H-M   'P 1'
_cell_length_a   5.76899828
_cell_length_b   5.76899828
_cell_length_c   5.76899828
_cell_angle_alpha   90.00000000
_cell_angle_beta   90.00000000
_cell_angle_gamma   90.00000000
_symmetry_Int_Tables_number   1
_chemical_formula_structural   Li8La2ZrO10
_chemical_formula_sum   'Li8 La2 Zr1 O10'
_cell_volume   192.00000000
_cell_formula_units_Z   1
loop_
 _symmetry_equiv_pos_site_id
 _symmetry_equiv_pos_as_xyz
  1  'x, y, z'
loop_
 _atom_site_type_symbol
 _atom_site_label
 _atom_site_symmetry_multiplicity
 _atom_site_fract_x
 _atom_site_fract_y
 _atom_site_fract_z
 _atom_site_occupancy
  Li  Li0  1  0.95971475  0.95348725  0.98057977  1
  Li  Li1  1  0.00981170  0.14598805  0.03745253  1
  Li  Li2  1  0.13611665  0.11351602  0.29710312  1
  Li  Li3  1  0.07965735  0.24072818  0.28833169  1
  Li  Li4  1  0.16162060  0.33524991  0.57767372  1
  Li  Li5  1  0.18640356  0.38278901  0.53213185  1
  Li  Li6  1  0.26442937  0.51649408  0.84083826  1
  Li  Li7  1  0.30784313  0.50596045  0.81109017  1
  La  La8  1  0.33795873  0.57075162  0.00827994  1
  La  La9  1  0.37185818  0.67727180  0.02551602  1
  Zr  Zr10  1  0.43611551  0.68617719  0.21732249  1
  O  O11  1  0.46571144  0.85752698  0.32340442  1
  O  O12  1  0.64131183  0.99223422  0.39749329  1
  O  O13  1  0.60053255  0.05050823  0.59195557  1
  O  O14  1  0.65833838  0.08991218  0.77730745  1
  O  O15  1  0.65108054  0.23085934  0.93815312  1
  O  O16  1  0.77037178  0.21444986  0.02321270  1
  O  O17  1  0.71330088  0.24904192  0.11384019  1
  O  O18  1  0.77832107  0.41677536  0.15875944  1
  O  O19  1  0.81581914  0.38898175  0.39643830  1
  O  O20  1  0.96481719  0.61185080  0.47396159  1
