# generated using pymatgen
data_Li2AlO3
_symmetry_space_group_name_H-M   'P 1'
_cell_length_a   8.50086848
_cell_length_b   8.50086848
_cell_length_c   12.98499164
_cell_angle_alpha   90.00000000
_cell_angle_beta   90.00000000
_cell_angle_gamma   120.00000000
_symmetry_Int_Tables_number   1
_chemical_formula_structural   Li2AlO3
_chemical_formula_sum   'Li2 Al1 O3'
_cell_volume   812.64131799
_cell_formula_units_Z   1
loop_
 _symmetry_equiv_pos_site_id
 _symmetry_equiv_pos_as_xyz
  1  'x, y, z'
loop_
 _atom_site_type_symbol
 _atom_site_label
 _atom_site_symmetry_multiplicity
 _atom_site_fract_x
 _atom_site_fract_y
 _atom_site_fract_z
 _atom_site_occupancy
  Li  Li0  1  0.01745409  0.02113314  0.94448963  1
  Li  Li1  1  0.25113453  0.36096092  0.52509673  1
  Al  Al2  1  0.29667322  0.45099424  0.93885337  1
  O  O3  1  0.46615718  0.79595567  0.37981795  1
  O  O4  1  0.64681904  0.16650718  0.76958558  1
  O  O5  1  0.82836117  0.37416593  0.15863941  1
