# generated using pymatgen
data_Li6La5ZrO12
_symmetry_space_group_name_H-M   'P 1'
_cell_length_a   5.84532384
_cell_length_b   5.84532384
_cell_length_c   7.69730321
_cell_angle_alpha   90.00000000
_cell_angle_beta   90.00000000
_cell_angle_gamma   90.00000000
_symmetry_Int_Tables_number   1
_chemical_formula_structural   Li6La5ZrO12
_chemical_formula_sum   'Li6 La5 Zr1 O12'
_cell_volume   263.00000000
_cell_formula_units_Z   1
loop_
 _symmetry_equiv_pos_site_id
 _symmetry_equiv_pos_as_xyz
  1  'x, y, z'
loop_
 _atom_site_type_symbol
 _atom_site_label
 _atom_site_symmetry_multiplicity
 _atom_site_fract_x
 _atom_site_fract_y
 _atom_site_fract_z
 _atom_site_occupancy
  Li  Li0  1  0.94054410  0.91567800  0.06774620  1
  Li  Li1  1  0.12538155  0.03593032  0.10135631  1
  Li  Li2  1  0.09759504  0.07982282  0.23491275  1
  Li  Li3  1  0.10861328  0.27383656  0.39806953  1
  Li  Li4  1  0.12435211  0.22647193  0.41408232  1
  Li  Li5  1  0.15103501  0.37092003  0.51642148  1
  La  La6  1  0.19439331  0.46334106  0.57132922  1
  La  La7  1  0.26979460  0.44404824  0.74644774  1
  La  La8  1  0.27130292  0.57573707  0.93088329  1
  La  La9  1  0.37239703  0.55755821  0.94073207  1
  La  La10  1  0.47295861  0.59573972  0.10210406  1
  Zr  Zr11  1  0.39979911  0.81411853  0.10243990  1
  O  O12  1  0.49506090  0.74744036  0.33479226  1
  O  O13  1  0.51692117  0.88196287  0.44409304  1
  O  O14  1  0.57919463  0.92027138  0.59312422  1
  O  O15  1  0.67681509  0.04194329  0.58440213  1
  O  O16  1  0.58998448  0.98421238  0.80021420  1
  O  O17  1  0.68111311  0.09426437  0.92864763  1
  O  O18  1  0.65954543  0.22688806  0.02081485  1
  O  O19  1  0.80286345  0.24341653  0.00278813  1
  O  O20  1  0.90526708  0.39384931  0.20063902  1
  O  O21  1  0.93522147  0.41658555  0.24556648  1
  O  O22  1  0.89631192  0.46446506  0.42388301  1
  O  O23  1  0.89643253  0.48167568  0.57313881  1
