# generated using pymatgen
data_Li5(TiCl3)2
_symmetry_space_group_name_H-M   'P 1'
_cell_length_a   11.23156294
_cell_length_b   11.23156294
_cell_length_c   10.91054607
_cell_angle_alpha   90.00000000
_cell_angle_beta   90.00000000
_cell_angle_gamma   90.00000000
_symmetry_Int_Tables_number   1
_chemical_formula_structural   Li5(TiCl3)2
_chemical_formula_sum   'Li5 Ti2 Cl6'
_cell_volume   1376.34363058
_cell_formula_units_Z   1
loop_
 _symmetry_equiv_pos_site_id
 _symmetry_equiv_pos_as_xyz
  1  'x, y, z'
loop_
 _atom_site_type_symbol
 _atom_site_label
 _atom_site_symmetry_multiplicity
 _atom_site_fract_x
 _atom_site_fract_y
 _atom_site_fract_z
 _atom_site_occupancy
  Li  Li0  1  0.07625175  0.01310432  0.98664787  1
  Li  Li1  1  0.99362721  0.15232564  0.11007501  1
  Li  Li2  1  0.20477699  0.33626516  0.36579569  1
  Li  Li3  1  0.18786493  0.33358684  0.51933533  1
  Li  Li4  1  0.31265361  0.44890899  0.74950668  1
  Ti  Ti5  1  0.34167001  0.56112300  0.04192563  1
  Ti  Ti6  1  0.42812448  0.65223668  0.24958500  1
  Cl  Cl7  1  0.57877922  0.80925708  0.47551735  1
  Cl  Cl8  1  0.64935354  0.90739988  0.60228569  1
  Cl  Cl9  1  0.69895461  0.03129398  0.91036946  1
  Cl  Cl10  1  0.79526233  0.27937643  0.99760405  1
  Cl  Cl11  1  0.85270960  0.39265429  0.23629814  1
  Cl  Cl12  1  0.86183835  0.41560256  0.50432283  1
