# generated using pymatgen
data_Li2TiO3
_symmetry_space_group_name_H-M   'P 1'
_cell_length_a   6.19242726
_cell_length_b   6.19242726
_cell_length_c   6.19242726
_cell_angle_alpha   90.00000000
_cell_angle_beta   90.00000000
_cell_angle_gamma   90.00000000
_symmetry_Int_Tables_number   1
_chemical_formula_structural   Li2TiO3
_chemical_formula_sum   'Li2 Ti1 O3'
_cell_volume   237.45577753
_cell_formula_units_Z   1
loop_
 _symmetry_equiv_pos_site_id
 _symmetry_equiv_pos_as_xyz
  1  'x, y, z'
loop_
 _atom_site_type_symbol
 _atom_site_label
 _atom_site_symmetry_multiplicity
 _atom_site_fract_x
 _atom_site_fract_y
 _atom_site_fract_z
 _atom_site_occupancy
  Li  Li0  1  0.97788331  0.96339611  0.04943401  1
  Li  Li1  1  0.16465842  0.31606527  0.33793014  1
  Ti  Ti2  1  0.31982375  0.63767189  0.89404663  1
  O  O3  1  0.46407125  0.71685935  0.36613541  1
  O  O4  1  0.71885558  0.08245803  0.72600346  1
  O  O5  1  0.86941819  0.28623736  0.27025636  1
