# generated using pymatgen
data_Li3AlO4
_symmetry_space_group_name_H-M   'P 1'
_cell_length_a   7.90350354
_cell_length_b   7.90350354
_cell_length_c   11.20611346
_cell_angle_alpha   90.00000000
_cell_angle_beta   90.00000000
_cell_angle_gamma   120.00000000
_symmetry_Int_Tables_number   1
_chemical_formula_structural   Li3AlO4
_chemical_formula_sum   'Li3 Al1 O4'
_cell_volume   606.21258909
_cell_formula_units_Z   1
loop_
 _symmetry_equiv_pos_site_id
 _symmetry_equiv_pos_as_xyz
  1  'x, y, z'
loop_
 _atom_site_type_symbol
 _atom_site_label
 _atom_site_symmetry_multiplicity
 _atom_site_fract_x
 _atom_site_fract_y
 _atom_site_fract_z
 _atom_site_occupancy
  Li  Li0  1  0.94297091  0.04861995  0.00461944  1
  Li  Li1  1  0.03293420  0.12482215  0.41162087  1
  Li  Li2  1  0.24627448  0.47533313  0.61235547  1
  Al  Al3  1  0.31944904  0.58231267  0.94350787  1
  O  O4  1  0.50313895  0.83320883  0.34585851  1
  O  O5  1  0.68653397  0.10816283  0.60775223  1
  O  O6  1  0.68217655  0.25297739  0.00042203  1
  O  O7  1  0.78749781  0.37138099  0.21561123  1
