# generated using pymatgen
data_Li3GaS5
_symmetry_space_group_name_H-M   'P 1'
_cell_length_a   13.82995705
_cell_length_b   13.82995705
_cell_length_c   13.88508244
_cell_angle_alpha   90.00000000
_cell_angle_beta   90.00000000
_cell_angle_gamma   90.00000000
_symmetry_Int_Tables_number   1
_chemical_formula_structural   Li3GaS5
_chemical_formula_sum   'Li3 Ga1 S5'
_cell_volume   2655.76795028
_cell_formula_units_Z   1
loop_
 _symmetry_equiv_pos_site_id
 _symmetry_equiv_pos_as_xyz
  1  'x, y, z'
loop_
 _atom_site_type_symbol
 _atom_site_label
 _atom_site_symmetry_multiplicity
 _atom_site_fract_x
 _atom_site_fract_y
 _atom_site_fract_z
 _atom_site_occupancy
  Li  Li0  1  0.08102087  0.98885040  0.01194810  1
  Li  Li1  1  0.18592462  0.10007059  0.31784568  1
  Li  Li2  1  0.13298162  0.42863319  0.58688824  1
  Ga  Ga3  1  0.33490049  0.53497688  0.88254938  1
  S  S4  1  0.49664370  0.74437680  0.16005614  1
  S  S5  1  0.50864463  0.92877590  0.45123506  1
  S  S6  1  0.65418925  0.02152106  0.66134104  1
  S  S7  1  0.81964661  0.35839912  0.98866991  1
  S  S8  1  0.82977033  0.42083789  0.35782936  1
