# generated using pymatgen
data_Li6Zr4In(S3Br2)2
_symmetry_space_group_name_H-M   'P 1'
_cell_length_a   7.17381586
_cell_length_b   13.79493216
_cell_length_c   6.98858979
_cell_angle_alpha   61.95763446
_cell_angle_beta   74.10862709
_cell_angle_gamma   61.83476549
_symmetry_Int_Tables_number   1
_chemical_formula_structural   Li6Zr4In(S3Br2)2
_chemical_formula_sum   'Li6 Zr4 In1 S6 Br4'
_cell_volume   536.93468791
_cell_formula_units_Z   1
loop_
 _symmetry_equiv_pos_site_id
 _symmetry_equiv_pos_as_xyz
  1  'x, y, z'
loop_
 _atom_site_type_symbol
 _atom_site_label
 _atom_site_symmetry_multiplicity
 _atom_site_fract_x
 _atom_site_fract_y
 _atom_site_fract_z
 _atom_site_occupancy
  Li  Li0  1  0.94173065  0.06748517  0.08538782  1
  Li  Li1  1  0.96516576  0.01100957  0.09697285  1
  Li  Li2  1  0.02736136  0.08860087  0.23010222  1
  Li  Li3  1  0.22779819  0.28543503  0.34301721  1
  Li  Li4  1  0.11726349  0.28167598  0.54500722  1
  Li  Li5  1  0.24752578  0.30169683  0.56030219  1
  Zr  Zr6  1  0.23995688  0.45032459  0.70404303  1
  Zr  Zr7  1  0.31596817  0.59245668  0.97082346  1
  Zr  Zr8  1  0.28809042  0.55803108  0.08705908  1
  Zr  Zr9  1  0.51072418  0.67492975  0.13110028  1
  In  In10  1  0.45731807  0.77247268  0.24173728  1
  S  S11  1  0.61992768  0.80496520  0.41099691  1
  S  S12  1  0.47550907  0.02250847  0.59276638  1
  S  S13  1  0.60281945  0.97849764  0.65570117  1
  S  S14  1  0.68113909  0.05716626  0.79986331  1
  S  S15  1  0.67756052  0.08494794  0.77718475  1
  S  S16  1  0.72232725  0.24229201  0.02675476  1
  Br  Br17  1  0.73549527  0.30405311  0.07563919  1
  Br  Br18  1  0.79830042  0.30984982  0.25770080  1
  Br  Br19  1  0.88000222  0.56078941  0.44746423  1
  Br  Br20  1  0.01950907  0.52464743  0.48147201  1
