# generated using pymatgen
data_LiAl3InS5
_symmetry_space_group_name_H-M   'P 1'
_cell_length_a   9.17662351
_cell_length_b   9.17662351
_cell_length_c   9.73887709
_cell_angle_alpha   90.00000000
_cell_angle_beta   90.00000000
_cell_angle_gamma   90.00000000
_symmetry_Int_Tables_number   1
_chemical_formula_structural   LiAl3InS5
_chemical_formula_sum   'Li1 Al3 In1 S5'
_cell_volume   820.11492159
_cell_formula_units_Z   1
loop_
 _symmetry_equiv_pos_site_id
 _symmetry_equiv_pos_as_xyz
  1  'x, y, z'
loop_
 _atom_site_type_symbol
 _atom_site_label
 _atom_site_symmetry_multiplicity
 _atom_site_fract_x
 _atom_site_fract_y
 _atom_site_fract_z
 _atom_site_occupancy
  Li  Li0  1  0.90656785  0.95631997  0.03961925  1
  Al  Al1  1  0.09835764  0.22280826  0.22061473  1
  Al  Al2  1  0.29545460  0.36479498  0.47528277  1
  Al  Al3  1  0.33161372  0.51234842  0.84013724  1
  S  S4  1  0.35761899  0.56972824  0.05697793  1
  S  S5  1  0.51062513  0.77671470  0.37054431  1
  S  S6  1  0.54147809  0.00458858  0.60026718  1
  S  S7  1  0.68785208  0.21922148  0.76484332  1
  S  S8  1  0.88344611  0.28930771  0.06971097  1
  In  In9  1  0.93585593  0.42245617  0.25652868  1
