# generated using pymatgen
data_Li2TiO6
_symmetry_space_group_name_H-M   'P 1'
_cell_length_a   7.51973702
_cell_length_b   7.51973702
_cell_length_c   7.51973702
_cell_angle_alpha   90.00000000
_cell_angle_beta   90.00000000
_cell_angle_gamma   90.00000000
_symmetry_Int_Tables_number   1
_chemical_formula_structural   Li2TiO6
_chemical_formula_sum   'Li2 Ti1 O6'
_cell_volume   425.21439462
_cell_formula_units_Z   1
loop_
 _symmetry_equiv_pos_site_id
 _symmetry_equiv_pos_as_xyz
  1  'x, y, z'
loop_
 _atom_site_type_symbol
 _atom_site_label
 _atom_site_symmetry_multiplicity
 _atom_site_fract_x
 _atom_site_fract_y
 _atom_site_fract_z
 _atom_site_occupancy
  Li  Li0  1  0.08432712  0.07142889  0.92431454  1
  Li  Li1  1  0.11054704  0.27230271  0.38851752  1
  Ti  Ti2  1  0.21379956  0.36753218  0.55879329  1
  O  O3  1  0.29846106  0.51721790  0.81233063  1
  O  O4  1  0.50278220  0.66361368  0.18014245  1
  O  O5  1  0.61873058  0.88763188  0.44089849  1
  O  O6  1  0.63719285  0.11956931  0.81469949  1
  O  O7  1  0.87550229  0.31180294  0.06229862  1
  O  O8  1  0.92356941  0.38299419  0.25827343  1
