# generated using pymatgen
data_Li8La4ZrO13
_symmetry_space_group_name_H-M   'P 1'
_cell_length_a   5.67052440
_cell_length_b   6.40061412
_cell_length_c   7.16355300
_cell_angle_alpha   90.00000000
_cell_angle_beta   90.00000000
_cell_angle_gamma   90.00000000
_symmetry_Int_Tables_number   1
_chemical_formula_structural   Li8La4ZrO13
_chemical_formula_sum   'Li8 La4 Zr1 O13'
_cell_volume   260.00000000
_cell_formula_units_Z   1
loop_
 _symmetry_equiv_pos_site_id
 _symmetry_equiv_pos_as_xyz
  1  'x, y, z'
loop_
 _atom_site_type_symbol
 _atom_site_label
 _atom_site_symmetry_multiplicity
 _atom_site_fract_x
 _atom_site_fract_y
 _atom_site_fract_z
 _atom_site_occupancy
  Li  Li0  1  0.00215998  0.09808250  0.07553319  1
  Li  Li1  1  0.11478175  0.05942503  0.14227300  1
  Li  Li2  1  0.98209753  0.10415781  0.18266116  1
  Li  Li3  1  0.20200765  0.27100320  0.32198962  1
  Li  Li4  1  0.12984878  0.34870241  0.42851945  1
  Li  Li5  1  0.15655523  0.33333788  0.57495063  1
  Li  Li6  1  0.17783701  0.30854210  0.56771494  1
  Li  Li7  1  0.35929360  0.46923157  0.70009952  1
  La  La8  1  0.33844485  0.58463859  0.78078193  1
  La  La9  1  0.36285557  0.58551604  0.90554230  1
  La  La10  1  0.29815338  0.56197763  0.95554860  1
  La  La11  1  0.48526943  0.63991776  0.07710145  1
  Zr  Zr12  1  0.40058025  0.80424479  0.23436677  1
  O  O13  1  0.45617764  0.79772129  0.31693406  1
  O  O14  1  0.61161818  0.91621978  0.33490769  1
  O  O15  1  0.54533993  0.84027582  0.57964979  1
  O  O16  1  0.68930690  0.08719027  0.70613282  1
  O  O17  1  0.73271333  0.06090099  0.66171293  1
  O  O18  1  0.75112908  0.12974814  0.75502000  1
  O  O19  1  0.76350447  0.26370774  0.90923505  1
  O  O20  1  0.67078551  0.17585602  0.99992971  1
  O  O21  1  0.72547217  0.39756795  0.21215206  1
  O  O22  1  0.91234943  0.34055368  0.25343738  1
  O  O23  1  0.84240589  0.47106014  0.38500970  1
  O  O24  1  0.86429786  0.45795215  0.50645027  1
  O  O25  1  0.98712854  0.64106614  0.60960173  1
