# generated using pymatgen
data_SrLi2TiO3
_symmetry_space_group_name_H-M   'P 1'
_cell_length_a   4.03770654
_cell_length_b   4.03770654
_cell_length_c   3.43493501
_cell_angle_alpha   90.00000000
_cell_angle_beta   90.00000000
_cell_angle_gamma   90.00000000
_symmetry_Int_Tables_number   1
_chemical_formula_structural   SrLi2TiO3
_chemical_formula_sum   'Sr1 Li2 Ti1 O3'
_cell_volume   56.00000000
_cell_formula_units_Z   1
loop_
 _symmetry_equiv_pos_site_id
 _symmetry_equiv_pos_as_xyz
  1  'x, y, z'
loop_
 _atom_site_type_symbol
 _atom_site_label
 _atom_site_symmetry_multiplicity
 _atom_site_fract_x
 _atom_site_fract_y
 _atom_site_fract_z
 _atom_site_occupancy
  Li  Li0  1  0.96545321  0.95998455  0.99321623  1
  Li  Li1  1  0.23619676  0.25780917  0.34058073  1
  Ti  Ti2  1  0.35123022  0.47137427  0.77453929  1
  O  O3  1  0.50879466  0.72729925  0.20495003  1
  O  O4  1  0.47842953  0.93037345  0.59270884  1
  O  O5  1  0.74782828  0.10143786  0.77657048  1
  Sr  Sr6  1  0.78725110  0.30423783  0.20479167  1
