# generated using pymatgen
data_Li2Ti2F5
_symmetry_space_group_name_H-M   'P 1'
_cell_length_a   12.41185998
_cell_length_b   12.41185998
_cell_length_c   12.04312744
_cell_angle_alpha   90.00000000
_cell_angle_beta   90.00000000
_cell_angle_gamma   90.00000000
_symmetry_Int_Tables_number   1
_chemical_formula_structural   Li2Ti2F5
_chemical_formula_sum   'Li2 Ti2 F5'
_cell_volume   1855.29518311
_cell_formula_units_Z   1
loop_
 _symmetry_equiv_pos_site_id
 _symmetry_equiv_pos_as_xyz
  1  'x, y, z'
loop_
 _atom_site_type_symbol
 _atom_site_label
 _atom_site_symmetry_multiplicity
 _atom_site_fract_x
 _atom_site_fract_y
 _atom_site_fract_z
 _atom_site_occupancy
  Li  Li0  1  0.92347261  0.98408161  0.96352291  1
  Li  Li1  1  0.01560253  0.10434956  0.34816229  1
  Ti  Ti2  1  0.14766219  0.44444853  0.54384552  1
  Ti  Ti3  1  0.25117142  0.55765606  0.88039421  1
  F  F4  1  0.46079642  0.76263247  0.07329748  1
  F  F5  1  0.53595827  0.82168766  0.49493515  1
  F  F6  1  0.64634880  0.01439541  0.82701183  1
  F  F7  1  0.73123330  0.33297330  0.10597720  1
  F  F8  1  0.96506215  0.46703482  0.35639531  1
