# generated using pymatgen
data_LiZrP4
_symmetry_space_group_name_H-M   'P 1'
_cell_length_a   3.03159208
_cell_length_b   8.55750582
_cell_length_c   3.09494980
_cell_angle_alpha   77.86201845
_cell_angle_beta   99.84855496
_cell_angle_gamma   69.02567707
_symmetry_Int_Tables_number   1
_chemical_formula_structural   LiZrP4
_chemical_formula_sum   'Li1 Zr1 P4'
_cell_volume   70.57726413
_cell_formula_units_Z   1
loop_
 _symmetry_equiv_pos_site_id
 _symmetry_equiv_pos_as_xyz
  1  'x, y, z'
loop_
 _atom_site_type_symbol
 _atom_site_label
 _atom_site_symmetry_multiplicity
 _atom_site_fract_x
 _atom_site_fract_y
 _atom_site_fract_z
 _atom_site_occupancy
  Li  Li0  1  0.04991259  0.02185109  0.90293980  1
  Zr  Zr1  1  0.06813807  0.33116199  0.38594165  1
  P  P2  1  0.31662982  0.49068932  0.97187698  1
  P  P3  1  0.55616977  0.87755598  0.30657806  1
  P  P4  1  0.62174555  0.02687978  0.74835590  1
  P  P5  1  0.79205839  0.43796629  0.16262897  1
