# generated using pymatgen
data_Li2LaTiO2
_symmetry_space_group_name_H-M   'P 1'
_cell_length_a   3.37403877
_cell_length_b   3.75201170
_cell_length_c   5.13451118
_cell_angle_alpha   90.00000000
_cell_angle_beta   90.00000000
_cell_angle_gamma   90.00000000
_symmetry_Int_Tables_number   1
_chemical_formula_structural   Li2LaTiO2
_chemical_formula_sum   'Li2 La1 Ti1 O2'
_cell_volume   65.00000000
_cell_formula_units_Z   1
loop_
 _symmetry_equiv_pos_site_id
 _symmetry_equiv_pos_as_xyz
  1  'x, y, z'
loop_
 _atom_site_type_symbol
 _atom_site_label
 _atom_site_symmetry_multiplicity
 _atom_site_fract_x
 _atom_site_fract_y
 _atom_site_fract_z
 _atom_site_occupancy
  Li  Li0  1  0.92053720  0.06925919  0.03096078  1
  Li  Li1  1  0.22092822  0.32750298  0.39535330  1
  Ti  Ti2  1  0.33693696  0.47047945  0.89920112  1
  O  O3  1  0.41008266  0.84082187  0.32715489  1
  O  O4  1  0.74449814  0.04589881  0.78517740  1
  La  La5  1  0.77060164  0.34063644  0.14869414  1
