# generated using pymatgen
data_Li5ScAlF9
_symmetry_space_group_name_H-M   'P 1'
_cell_length_a   9.09856283
_cell_length_b   9.09856283
_cell_length_c   9.08023325
_cell_angle_alpha   90.00000000
_cell_angle_beta   90.00000000
_cell_angle_gamma   90.00000000
_symmetry_Int_Tables_number   1
_chemical_formula_structural   Li5ScAlF9
_chemical_formula_sum   'Li5 Sc1 Al1 F9'
_cell_volume   751.69662744
_cell_formula_units_Z   1
loop_
 _symmetry_equiv_pos_site_id
 _symmetry_equiv_pos_as_xyz
  1  'x, y, z'
loop_
 _atom_site_type_symbol
 _atom_site_label
 _atom_site_symmetry_multiplicity
 _atom_site_fract_x
 _atom_site_fract_y
 _atom_site_fract_z
 _atom_site_occupancy
  Li  Li0  1  0.94023771  0.98435371  0.02207628  1
  Li  Li1  1  0.07004346  0.14038732  0.10811272  1
  Li  Li2  1  0.20809142  0.24093382  0.25316470  1
  Li  Li3  1  0.09545522  0.24963416  0.43696351  1
  Li  Li4  1  0.31076512  0.33243683  0.71996568  1
  Al  Al5  1  0.38634532  0.45621128  0.76346412  1
  F  F6  1  0.38835030  0.64644191  0.89781830  1
  F  F7  1  0.48888350  0.64096159  0.08202485  1
  F  F8  1  0.40385928  0.76856614  0.21172210  1
  F  F9  1  0.46840630  0.92830893  0.48375268  1
  F  F10  1  0.68230622  0.96543954  0.67040055  1
  F  F11  1  0.59885395  0.13624107  0.77496929  1
  F  F12  1  0.67091372  0.13288284  0.99023716  1
  F  F13  1  0.86068060  0.39403967  0.19729822  1
  F  F14  1  0.94654821  0.33871139  0.26886301  1
  Sc  Sc15  1  0.91506989  0.43693913  0.48565517  1
