# generated using pymatgen
data_Li4ZrIn2(P5N2)2
_symmetry_space_group_name_H-M   'P 1'
_cell_length_a   8.43358719
_cell_length_b   10.24156536
_cell_length_c   13.53345479
_cell_angle_alpha   70.39226652
_cell_angle_beta   64.17907555
_cell_angle_gamma   111.99574515
_symmetry_Int_Tables_number   1
_chemical_formula_structural   Li4ZrIn2(P5N2)2
_chemical_formula_sum   'Li4 Zr1 In2 P10 N4'
_cell_volume   782.31490920
_cell_formula_units_Z   1
loop_
 _symmetry_equiv_pos_site_id
 _symmetry_equiv_pos_as_xyz
  1  'x, y, z'
loop_
 _atom_site_type_symbol
 _atom_site_label
 _atom_site_symmetry_multiplicity
 _atom_site_fract_x
 _atom_site_fract_y
 _atom_site_fract_z
 _atom_site_occupancy
  Li  Li0  1  0.04602506  0.95069199  0.05980958  1
  Li  Li1  1  0.10187675  0.08391773  0.11760483  1
  Li  Li2  1  0.18569317  0.09166360  0.15948095  1
  Li  Li3  1  0.08031951  0.20484019  0.43030431  1
  Zr  Zr4  1  0.24007142  0.29444070  0.47757128  1
  In  In5  1  0.22407848  0.33636442  0.54791984  1
  In  In6  1  0.31690797  0.39877204  0.82381091  1
  N  N7  1  0.34936360  0.48188875  0.77555370  1
  N  N8  1  0.36817049  0.58653993  0.00008259  1
  N  N9  1  0.42283815  0.59362193  0.08008104  1
  N  N10  1  0.55046777  0.76180272  0.32518647  1
  P  P11  1  0.44466839  0.76706189  0.43962932  1
  P  P12  1  0.63711160  0.02355266  0.45429096  1
  P  P13  1  0.53472070  0.03795339  0.60851952  1
  P  P14  1  0.68122105  0.14064981  0.75185191  1
  P  P15  1  0.77586531  0.23810424  0.88109197  1
  P  P16  1  0.67315395  0.14797173  0.90242086  1
  P  P17  1  0.74233501  0.39239091  0.05026793  1
  P  P18  1  0.86656891  0.35019611  0.28099122  1
  P  P19  1  0.81574571  0.51374674  0.42425537  1
  P  P20  1  0.87872821  0.46542831  0.49512999  1
