# generated using pymatgen
data_Li3Y2AlCl7
_symmetry_space_group_name_H-M   'P 1'
_cell_length_a   13.15611287
_cell_length_b   13.15611287
_cell_length_c   12.11330439
_cell_angle_alpha   90.00000000
_cell_angle_beta   90.00000000
_cell_angle_gamma   90.00000000
_symmetry_Int_Tables_number   1
_chemical_formula_structural   Li3Y2AlCl7
_chemical_formula_sum   'Li3 Y2 Al1 Cl7'
_cell_volume   2096.61076958
_cell_formula_units_Z   1
loop_
 _symmetry_equiv_pos_site_id
 _symmetry_equiv_pos_as_xyz
  1  'x, y, z'
loop_
 _atom_site_type_symbol
 _atom_site_label
 _atom_site_symmetry_multiplicity
 _atom_site_fract_x
 _atom_site_fract_y
 _atom_site_fract_z
 _atom_site_occupancy
  Li  Li0  1  0.01600352  0.04935267  0.93934519  1
  Li  Li1  1  0.00705581  0.15433358  0.26418086  1
  Li  Li2  1  0.20203865  0.16357135  0.32791486  1
  Al  Al3  1  0.14179014  0.30722688  0.51963429  1
  Cl  Cl4  1  0.28720609  0.55608543  0.71882610  1
  Cl  Cl5  1  0.41091391  0.70000222  0.06753381  1
  Cl  Cl6  1  0.45968556  0.79475499  0.13041343  1
  Cl  Cl7  1  0.62726969  0.85662718  0.36021743  1
  Cl  Cl8  1  0.67225887  0.07549133  0.69373084  1
  Cl  Cl9  1  0.70493750  0.08571259  0.90203058  1
  Cl  Cl10  1  0.70206377  0.27294943  0.94189695  1
  Y  Y11  1  0.83830836  0.43580538  0.13344590  1
  Y  Y12  1  0.00584304  0.49895631  0.45364111  1
