# generated using pymatgen
data_LiAlO3
_symmetry_space_group_name_H-M   'P 1'
_cell_length_a   11.66990871
_cell_length_b   11.66990871
_cell_length_c   11.36070774
_cell_angle_alpha   90.00000000
_cell_angle_beta   90.00000000
_cell_angle_gamma   90.00000000
_symmetry_Int_Tables_number   1
_chemical_formula_structural   LiAlO3
_chemical_formula_sum   'Li1 Al1 O3'
_cell_volume   1547.17808399
_cell_formula_units_Z   1
loop_
 _symmetry_equiv_pos_site_id
 _symmetry_equiv_pos_as_xyz
  1  'x, y, z'
loop_
 _atom_site_type_symbol
 _atom_site_label
 _atom_site_symmetry_multiplicity
 _atom_site_fract_x
 _atom_site_fract_y
 _atom_site_fract_z
 _atom_site_occupancy
  Li  Li0  1  0.92761105  0.91519287  0.96669172  1
  Al  Al1  1  0.16932063  0.28058819  0.51761672  1
  O  O2  1  0.34460930  0.73474221  0.00619405  1
  O  O3  1  0.50159281  0.96254182  0.56629225  1
  O  O4  1  0.74243208  0.38620691  0.07467086  1
