# generated using pymatgen
data_Li2TiO4
_symmetry_space_group_name_H-M   'P 1'
_cell_length_a   5.60046482
_cell_length_b   5.60046482
_cell_length_c   5.60046482
_cell_angle_alpha   90.00000000
_cell_angle_beta   90.00000000
_cell_angle_gamma   90.00000000
_symmetry_Int_Tables_number   1
_chemical_formula_structural   Li2TiO4
_chemical_formula_sum   'Li2 Ti1 O4'
_cell_volume   175.65973344
_cell_formula_units_Z   1
loop_
 _symmetry_equiv_pos_site_id
 _symmetry_equiv_pos_as_xyz
  1  'x, y, z'
loop_
 _atom_site_type_symbol
 _atom_site_label
 _atom_site_symmetry_multiplicity
 _atom_site_fract_x
 _atom_site_fract_y
 _atom_site_fract_z
 _atom_site_occupancy
  Li  Li0  1  0.95844939  0.93559831  0.90378041  1
  Li  Li1  1  0.21248230  0.19386078  0.37340828  1
  Ti  Ti2  1  0.38166334  0.46971630  0.79188349  1
  O  O3  1  0.49598936  0.75393116  0.17588625  1
  O  O4  1  0.63193015  0.91892875  0.46106297  1
  O  O5  1  0.62941818  0.09665444  0.90427266  1
  O  O6  1  0.76174099  0.34630641  0.33524647  1
