# generated using pymatgen
data_Li3LaTi2Cl9
_symmetry_space_group_name_H-M   'P 1'
_cell_length_a   14.91775521
_cell_length_b   14.91775521
_cell_length_c   14.51423470
_cell_angle_alpha   90.00000000
_cell_angle_beta   90.00000000
_cell_angle_gamma   90.00000000
_symmetry_Int_Tables_number   1
_chemical_formula_structural   Li3LaTi2Cl9
_chemical_formula_sum   'Li3 La1 Ti2 Cl9'
_cell_volume   3229.98937995
_cell_formula_units_Z   1
loop_
 _symmetry_equiv_pos_site_id
 _symmetry_equiv_pos_as_xyz
  1  'x, y, z'
loop_
 _atom_site_type_symbol
 _atom_site_label
 _atom_site_symmetry_multiplicity
 _atom_site_fract_x
 _atom_site_fract_y
 _atom_site_fract_z
 _atom_site_occupancy
  Li  Li0  1  0.09074090  0.90948233  0.03746571  1
  Li  Li1  1  0.97286984  0.02181584  0.10250265  1
  Li  Li2  1  0.21928735  0.29157031  0.31712616  1
  Ti  Ti3  1  0.12504463  0.31299573  0.59989413  1
  Ti  Ti4  1  0.22163841  0.41902070  0.65894106  1
  Cl  Cl5  1  0.29563521  0.55690818  0.78753242  1
  Cl  Cl6  1  0.30060380  0.69280838  0.05071151  1
  Cl  Cl7  1  0.50402043  0.78825447  0.14318791  1
  Cl  Cl8  1  0.63004744  0.80684644  0.31350445  1
  Cl  Cl9  1  0.58008513  0.91393352  0.55038804  1
  Cl  Cl10  1  0.59024748  0.04298935  0.73104424  1
  Cl  Cl11  1  0.67249292  0.21500056  0.86025080  1
  Cl  Cl12  1  0.87422462  0.22675043  0.11560862  1
  Cl  Cl13  1  0.96421081  0.30657254  0.34999388  1
  La  La14  1  0.97260730  0.58628449  0.50516921  1
