# generated using pymatgen
data_Ba2Li3TiO3
_symmetry_space_group_name_H-M   'P 1'
_cell_length_a   4.19833645
_cell_length_b   4.19833645
_cell_length_c   4.19833645
_cell_angle_alpha   90.00000000
_cell_angle_beta   90.00000000
_cell_angle_gamma   90.00000000
_symmetry_Int_Tables_number   1
_chemical_formula_structural   Ba2Li3TiO3
_chemical_formula_sum   'Ba2 Li3 Ti1 O3'
_cell_volume   74.00000000
_cell_formula_units_Z   1
loop_
 _symmetry_equiv_pos_site_id
 _symmetry_equiv_pos_as_xyz
  1  'x, y, z'
loop_
 _atom_site_type_symbol
 _atom_site_label
 _atom_site_symmetry_multiplicity
 _atom_site_fract_x
 _atom_site_fract_y
 _atom_site_fract_z
 _atom_site_occupancy
  Li  Li0  1  0.02618623  0.97499543  0.99939166  1
  Li  Li1  1  0.12665261  0.13527215  0.31372104  1
  Li  Li2  1  0.15101937  0.31041132  0.50383725  1
  Ti  Ti3  1  0.32991648  0.63450672  0.87876738  1
  O  O4  1  0.49142013  0.68184010  0.19265216  1
  O  O5  1  0.56819415  0.84447041  0.53419027  1
  O  O6  1  0.66154419  0.13144726  0.64807396  1
  Ba  Ba7  1  0.80692849  0.34896623  0.13052280  1
  Ba  Ba8  1  0.92499125  0.38175249  0.34341968  1
