# generated using pymatgen
data_Li2(AlS2)3
_symmetry_space_group_name_H-M   'P 1'
_cell_length_a   10.40721795
_cell_length_b   10.40721795
_cell_length_c   11.04408471
_cell_angle_alpha   90.00000000
_cell_angle_beta   90.00000000
_cell_angle_gamma   90.00000000
_symmetry_Int_Tables_number   1
_chemical_formula_structural   Li2(AlS2)3
_chemical_formula_sum   'Li2 Al3 S6'
_cell_volume   1196.18686354
_cell_formula_units_Z   1
loop_
 _symmetry_equiv_pos_site_id
 _symmetry_equiv_pos_as_xyz
  1  'x, y, z'
loop_
 _atom_site_type_symbol
 _atom_site_label
 _atom_site_symmetry_multiplicity
 _atom_site_fract_x
 _atom_site_fract_y
 _atom_site_fract_z
 _atom_site_occupancy
  Li  Li0  1  0.96406440  0.04225376  0.03051820  1
  Li  Li1  1  0.05826378  0.24357738  0.14883133  1
  Al  Al2  1  0.08638877  0.22083706  0.43017300  1
  Al  Al3  1  0.27103341  0.47521754  0.74466584  1
  Al  Al4  1  0.29547482  0.59450164  0.88661564  1
  S  S5  1  0.40984724  0.71571670  0.18488251  1
  S  S6  1  0.52178958  0.86642161  0.52273430  1
  S  S7  1  0.67516421  0.99464676  0.59302453  1
  S  S8  1  0.67371023  0.23052476  0.00392967  1
  S  S9  1  0.77861697  0.24227425  0.11528740  1
  S  S10  1  0.00198568  0.42646270  0.43313430  1
