# generated using pymatgen
data_Li3TiO5
_symmetry_space_group_name_H-M   'P 1'
_cell_length_a   11.89720343
_cell_length_b   11.89720343
_cell_length_c   11.89720343
_cell_angle_alpha   90.00000000
_cell_angle_beta   90.00000000
_cell_angle_gamma   90.00000000
_symmetry_Int_Tables_number   1
_chemical_formula_structural   Li3TiO5
_chemical_formula_sum   'Li3 Ti1 O5'
_cell_volume   1683.97121072
_cell_formula_units_Z   1
loop_
 _symmetry_equiv_pos_site_id
 _symmetry_equiv_pos_as_xyz
  1  'x, y, z'
loop_
 _atom_site_type_symbol
 _atom_site_label
 _atom_site_symmetry_multiplicity
 _atom_site_fract_x
 _atom_site_fract_y
 _atom_site_fract_z
 _atom_site_occupancy
  Li  Li0  1  0.00098575  0.98775328  0.91337771  1
  Li  Li1  1  0.16041799  0.25559295  0.27015074  1
  Li  Li2  1  0.13167839  0.34543151  0.56506545  1
  Ti  Ti3  1  0.25098334  0.50479608  0.86543517  1
  O  O4  1  0.36677490  0.76184967  0.13409226  1
  O  O5  1  0.51961870  0.84655186  0.49451891  1
  O  O6  1  0.70565562  0.16300816  0.74055428  1
  O  O7  1  0.83150650  0.27616366  0.00445282  1
  O  O8  1  0.83560135  0.37515307  0.35778547  1
