# generated using pymatgen
data_Li3TiO5
_symmetry_space_group_name_H-M   'P 1'
_cell_length_a   5.92431196
_cell_length_b   5.92431196
_cell_length_c   5.92431196
_cell_angle_alpha   90.00000000
_cell_angle_beta   90.00000000
_cell_angle_gamma   90.00000000
_symmetry_Int_Tables_number   1
_chemical_formula_structural   Li3TiO5
_chemical_formula_sum   'Li3 Ti1 O5'
_cell_volume   207.92837461
_cell_formula_units_Z   1
loop_
 _symmetry_equiv_pos_site_id
 _symmetry_equiv_pos_as_xyz
  1  'x, y, z'
loop_
 _atom_site_type_symbol
 _atom_site_label
 _atom_site_symmetry_multiplicity
 _atom_site_fract_x
 _atom_site_fract_y
 _atom_site_fract_z
 _atom_site_occupancy
  Li  Li0  1  0.95206377  0.97344803  0.92524021  1
  Li  Li1  1  0.09303492  0.08393610  0.22573671  1
  Li  Li2  1  0.29584427  0.26140609  0.63082825  1
  Ti  Ti3  1  0.32453429  0.54190673  0.95755643  1
  O  O4  1  0.37740709  0.74547018  0.14221219  1
  O  O5  1  0.63255534  0.87210445  0.47746800  1
  O  O6  1  0.73853584  0.08539809  0.71784368  1
  O  O7  1  0.74475082  0.30157053  0.99503751  1
  O  O8  1  0.89439687  0.40306381  0.29089907  1
