# generated using pymatgen
data_Li4LaTi2S3
_symmetry_space_group_name_H-M   'P 1'
_cell_length_a   14.01784950
_cell_length_b   14.01784950
_cell_length_c   14.77263250
_cell_angle_alpha   90.00000000
_cell_angle_beta   90.00000000
_cell_angle_gamma   90.00000000
_symmetry_Int_Tables_number   1
_chemical_formula_structural   Li4LaTi2S3
_chemical_formula_sum   'Li4 La1 Ti2 S3'
_cell_volume   2902.82382912
_cell_formula_units_Z   1
loop_
 _symmetry_equiv_pos_site_id
 _symmetry_equiv_pos_as_xyz
  1  'x, y, z'
loop_
 _atom_site_type_symbol
 _atom_site_label
 _atom_site_symmetry_multiplicity
 _atom_site_fract_x
 _atom_site_fract_y
 _atom_site_fract_z
 _atom_site_occupancy
  Li  Li0  1  0.94185401  0.05163130  0.06262192  1
  Li  Li1  1  0.17659479  0.18198077  0.24196033  1
  Li  Li2  1  0.25592159  0.40242962  0.52041477  1
  Li  Li3  1  0.39665856  0.41193460  0.78256306  1
  Ti  Ti4  1  0.49233977  0.56937838  0.13071725  1
  Ti  Ti5  1  0.47013414  0.74956445  0.27435941  1
  S  S6  1  0.52666842  0.89129058  0.48311473  1
  S  S7  1  0.75468581  0.19556831  0.88137228  1
  S  S8  1  0.79328551  0.24874817  0.06884383  1
  La  La9  1  0.94412198  0.51931603  0.44216499  1
