# generated using pymatgen
data_Li7La3Zr3O14
_symmetry_space_group_name_H-M   'P 1'
_cell_length_a   5.89275354
_cell_length_b   6.39810015
_cell_length_c   7.13481915
_cell_angle_alpha   90.00000000
_cell_angle_beta   90.00000000
_cell_angle_gamma   90.00000000
_symmetry_Int_Tables_number   1
_chemical_formula_structural   Li7La3Zr3O14
_chemical_formula_sum   'Li7 La3 Zr3 O14'
_cell_volume   269.00000000
_cell_formula_units_Z   1
loop_
 _symmetry_equiv_pos_site_id
 _symmetry_equiv_pos_as_xyz
  1  'x, y, z'
loop_
 _atom_site_type_symbol
 _atom_site_label
 _atom_site_symmetry_multiplicity
 _atom_site_fract_x
 _atom_site_fract_y
 _atom_site_fract_z
 _atom_site_occupancy
  Li  Li0  1  0.07454868  0.91879759  0.06900866  1
  Li  Li1  1  0.13263580  0.08099420  0.03946751  1
  Li  Li2  1  0.10106636  0.13994996  0.16254987  1
  Li  Li3  1  0.11190634  0.08356625  0.22723899  1
  Li  Li4  1  0.08815977  0.19815310  0.32345016  1
  Li  Li5  1  0.08896559  0.36925479  0.44753273  1
  Li  Li6  1  0.22163050  0.45550461  0.58920837  1
  La  La7  1  0.30314275  0.48689941  0.73924333  1
  La  La8  1  0.35018255  0.53990898  0.77006102  1
  La  La9  1  0.29839630  0.45446580  0.81360683  1
  Zr  Zr10  1  0.40464303  0.50385739  0.92907890  1
  Zr  Zr11  1  0.49865388  0.69126658  0.97369960  1
  Zr  Zr12  1  0.51463734  0.76032434  0.24465137  1
  O  O13  1  0.54507250  0.86793789  0.25609695  1
  O  O14  1  0.46287863  0.90991535  0.28156603  1
  O  O15  1  0.56588775  0.87420429  0.37519798  1
  O  O16  1  0.53063631  0.86762772  0.55646758  1
  O  O17  1  0.69549409  0.08965477  0.70349144  1
  O  O18  1  0.75163075  0.01892048  0.69690855  1
  O  O19  1  0.66093573  0.17037399  0.87749577  1
  O  O20  1  0.75765050  0.09954074  0.95112079  1
  O  O21  1  0.76479290  0.17481872  0.00147587  1
  O  O22  1  0.79321021  0.41258092  0.21088912  1
  O  O23  1  0.86678602  0.34784078  0.19223479  1
  O  O24  1  0.88240090  0.49137763  0.32599537  1
  O  O25  1  0.85643216  0.54623904  0.36028369  1
  O  O26  1  0.88147049  0.54448357  0.43851399  1
