# generated using pymatgen
data_Li2AlO5
_symmetry_space_group_name_H-M   'P 1'
_cell_length_a   7.57541373
_cell_length_b   7.57541373
_cell_length_c   13.40085024
_cell_angle_alpha   90.00000000
_cell_angle_beta   90.00000000
_cell_angle_gamma   120.00000000
_symmetry_Int_Tables_number   1
_chemical_formula_structural   Li2AlO5
_chemical_formula_sum   'Li2 Al1 O5'
_cell_volume   666.00225421
_cell_formula_units_Z   1
loop_
 _symmetry_equiv_pos_site_id
 _symmetry_equiv_pos_as_xyz
  1  'x, y, z'
loop_
 _atom_site_type_symbol
 _atom_site_label
 _atom_site_symmetry_multiplicity
 _atom_site_fract_x
 _atom_site_fract_y
 _atom_site_fract_z
 _atom_site_occupancy
  Li  Li0  1  0.95393478  0.04393543  0.95868676  1
  Li  Li1  1  0.15526074  0.27551977  0.42390561  1
  Al  Al2  1  0.33129396  0.42662433  0.61892043  1
  O  O3  1  0.38824590  0.62928864  0.90761340  1
  O  O4  1  0.55484681  0.74120253  0.29224849  1
  O  O5  1  0.62684668  0.04666593  0.59079212  1
  O  O6  1  0.69701270  0.17161387  0.04519722  1
  O  O7  1  0.82248885  0.45525454  0.35235032  1
