# generated using pymatgen
data_Li3Ti2P4O9
_symmetry_space_group_name_H-M   'P 1'
_cell_length_a   5.19394583
_cell_length_b   5.19394583
_cell_length_c   4.96718079
_cell_angle_alpha   90.00000000
_cell_angle_beta   90.00000000
_cell_angle_gamma   90.00000000
_symmetry_Int_Tables_number   1
_chemical_formula_structural   Li3Ti2P4O9
_chemical_formula_sum   'Li3 Ti2 P4 O9'
_cell_volume   134.00000000
_cell_formula_units_Z   1
loop_
 _symmetry_equiv_pos_site_id
 _symmetry_equiv_pos_as_xyz
  1  'x, y, z'
loop_
 _atom_site_type_symbol
 _atom_site_label
 _atom_site_symmetry_multiplicity
 _atom_site_fract_x
 _atom_site_fract_y
 _atom_site_fract_z
 _atom_site_occupancy
  Li  Li0  1  0.98241465  0.05550750  0.01740375  1
  Li  Li1  1  0.10146863  0.99355959  0.06457532  1
  Li  Li2  1  0.05380847  0.09602663  0.20135053  1
  Ti  Ti3  1  0.19190083  0.20286244  0.35523203  1
  Ti  Ti4  1  0.16567726  0.35804831  0.63855235  1
  P  P5  1  0.26149011  0.54835121  0.76933797  1
  P  P6  1  0.24296432  0.45452339  0.97024340  1
  P  P7  1  0.46068782  0.62879118  0.94990054  1
  P  P8  1  0.50083536  0.78692049  0.14055187  1
  O  O9  1  0.50904964  0.74725171  0.32002993  1
  O  O10  1  0.64418721  0.87975936  0.54178599  1
  O  O11  1  0.58007344  0.04128182  0.64806463  1
  O  O12  1  0.74108444  0.99847926  0.74584998  1
  O  O13  1  0.73206409  0.17752624  0.83848045  1
  O  O14  1  0.73724000  0.21997174  0.01551618  1
  O  O15  1  0.90718469  0.43292809  0.27345303  1
  O  O16  1  0.83117765  0.50537828  0.28712107  1
  O  O17  1  0.90939608  0.55859094  0.46937864  1
