# generated using pymatgen
data_Li3YTaS10
_symmetry_space_group_name_H-M   'P 1'
_cell_length_a   11.06640521
_cell_length_b   11.06640521
_cell_length_c   10.33832113
_cell_angle_alpha   90.00000000
_cell_angle_beta   90.00000000
_cell_angle_gamma   90.00000000
_symmetry_Int_Tables_number   1
_chemical_formula_structural   Li3YTaS10
_chemical_formula_sum   'Li3 Y1 Ta1 S10'
_cell_volume   1266.08585032
_cell_formula_units_Z   1
loop_
 _symmetry_equiv_pos_site_id
 _symmetry_equiv_pos_as_xyz
  1  'x, y, z'
loop_
 _atom_site_type_symbol
 _atom_site_label
 _atom_site_symmetry_multiplicity
 _atom_site_fract_x
 _atom_site_fract_y
 _atom_site_fract_z
 _atom_site_occupancy
  Li  Li0  1  0.96244265  0.05394564  0.05611144  1
  Li  Li1  1  0.11186640  0.05508209  0.26872827  1
  Li  Li2  1  0.12175681  0.11575686  0.25703731  1
  Ta  Ta3  1  0.15864472  0.41747214  0.59865424  1
  S  S4  1  0.25132650  0.50010183  0.73151833  1
  S  S5  1  0.41030227  0.45218259  0.92568860  1
  S  S6  1  0.46598448  0.55162522  0.05762385  1
  S  S7  1  0.39125238  0.69068130  0.27873781  1
  S  S8  1  0.60412323  0.94634847  0.46384271  1
  S  S9  1  0.50128692  0.04664646  0.51924126  1
  S  S10  1  0.75592685  0.11240814  0.83473638  1
  S  S11  1  0.78764055  0.19186508  0.89160407  1
  S  S12  1  0.83876735  0.36894868  0.01319759  1
  S  S13  1  0.93567533  0.49786543  0.29000161  1
  Y  Y14  1  0.87583788  0.53712562  0.46356477  1
