# generated using pymatgen
data_Li3TiO6
_symmetry_space_group_name_H-M   'P 1'
_cell_length_a   11.65666354
_cell_length_b   11.65666354
_cell_length_c   11.65666354
_cell_angle_alpha   90.00000000
_cell_angle_beta   90.00000000
_cell_angle_gamma   90.00000000
_symmetry_Int_Tables_number   1
_chemical_formula_structural   Li3TiO6
_chemical_formula_sum   'Li3 Ti1 O6'
_cell_volume   1583.88185343
_cell_formula_units_Z   1
loop_
 _symmetry_equiv_pos_site_id
 _symmetry_equiv_pos_as_xyz
  1  'x, y, z'
loop_
 _atom_site_type_symbol
 _atom_site_label
 _atom_site_symmetry_multiplicity
 _atom_site_fract_x
 _atom_site_fract_y
 _atom_site_fract_z
 _atom_site_occupancy
  Li  Li0  1  0.02309680  0.96218265  0.98637456  1
  Li  Li1  1  0.12020292  0.24468522  0.19054194  1
  Li  Li2  1  0.14576542  0.37240140  0.58172207  1
  Ti  Ti3  1  0.30115396  0.58327077  0.80290897  1
  O  O4  1  0.48874063  0.58666835  0.05308677  1
  O  O5  1  0.44647862  0.88823180  0.23274041  1
  O  O6  1  0.56052992  0.90624334  0.47406219  1
  O  O7  1  0.74380234  0.15800916  0.86629262  1
  O  O8  1  0.74626046  0.32194151  0.04074806  1
  O  O9  1  0.92408208  0.54012055  0.45522657  1
