# generated using pymatgen
data_Li9La5Zr2O13
_symmetry_space_group_name_H-M   'P 1'
_cell_length_a   6.77794368
_cell_length_b   6.77794368
_cell_length_c   6.76962291
_cell_angle_alpha   90.00000000
_cell_angle_beta   90.00000000
_cell_angle_gamma   90.00000000
_symmetry_Int_Tables_number   1
_chemical_formula_structural   Li9La5Zr2O13
_chemical_formula_sum   'Li9 La5 Zr2 O13'
_cell_volume   311.00000000
_cell_formula_units_Z   1
loop_
 _symmetry_equiv_pos_site_id
 _symmetry_equiv_pos_as_xyz
  1  'x, y, z'
loop_
 _atom_site_type_symbol
 _atom_site_label
 _atom_site_symmetry_multiplicity
 _atom_site_fract_x
 _atom_site_fract_y
 _atom_site_fract_z
 _atom_site_occupancy
  Li  Li0  1  0.00930941  0.95448262  0.93607651  1
  Li  Li1  1  0.97256618  0.11433602  0.17717332  1
  Li  Li2  1  0.06068850  0.09362973  0.08441859  1
  Li  Li3  1  0.18784506  0.15047093  0.27071041  1
  Li  Li4  1  0.23461257  0.18010665  0.40432465  1
  Li  Li5  1  0.11188466  0.20585009  0.47733075  1
  Li  Li6  1  0.24569042  0.30897127  0.61464159  1
  Li  Li7  1  0.33809446  0.46446123  0.72613450  1
  Li  Li8  1  0.18523011  0.47435296  0.74825049  1
  La  La9  1  0.32746285  0.58329801  0.77772136  1
  La  La10  1  0.28293173  0.59832003  0.98542946  1
  La  La11  1  0.42607228  0.56371776  0.95015203  1
  La  La12  1  0.42186336  0.74141734  0.15910666  1
  La  La13  1  0.39322607  0.80848043  0.21108119  1
  Zr  Zr14  1  0.53552745  0.75066323  0.31095407  1
  Zr  Zr15  1  0.55695637  0.88847309  0.35186457  1
  O  O16  1  0.46299627  0.91590713  0.36466889  1
  O  O17  1  0.56201440  0.87651118  0.60832803  1
  O  O18  1  0.71212931  0.08698766  0.53869599  1
  O  O19  1  0.61258521  0.98490993  0.80712311  1
  O  O20  1  0.66111371  0.20808384  0.83110369  1
  O  O21  1  0.76502876  0.19780170  0.92863461  1
  O  O22  1  0.70157374  0.14290110  0.90821573  1
  O  O23  1  0.87820734  0.31399554  0.98728197  1
  O  O24  1  0.81557032  0.37891299  0.16964934  1
  O  O25  1  0.94097236  0.30682950  0.19965013  1
  O  O26  1  0.82853658  0.35988106  0.38502753  1
  O  O27  1  0.02971361  0.51586487  0.36897056  1
  O  O28  1  0.88929144  0.52985215  0.53519242  1
