# generated using pymatgen
data_Li2TiO4
_symmetry_space_group_name_H-M   'P 1'
_cell_length_a   9.12154358
_cell_length_b   9.12154358
_cell_length_c   9.12154358
_cell_angle_alpha   90.00000000
_cell_angle_beta   90.00000000
_cell_angle_gamma   90.00000000
_symmetry_Int_Tables_number   1
_chemical_formula_structural   Li2TiO4
_chemical_formula_sum   'Li2 Ti1 O4'
_cell_volume   758.93575227
_cell_formula_units_Z   1
loop_
 _symmetry_equiv_pos_site_id
 _symmetry_equiv_pos_as_xyz
  1  'x, y, z'
loop_
 _atom_site_type_symbol
 _atom_site_label
 _atom_site_symmetry_multiplicity
 _atom_site_fract_x
 _atom_site_fract_y
 _atom_site_fract_z
 _atom_site_occupancy
  Li  Li0  1  0.04359331  0.02166538  0.04870249  1
  Li  Li1  1  0.15859728  0.13366334  0.45451732  1
  Ti  Ti2  1  0.35935621  0.48894990  0.81618695  1
  O  O3  1  0.41376801  0.66265273  0.05283714  1
  O  O4  1  0.48652624  0.88433054  0.50819419  1
  O  O5  1  0.74833827  0.25521640  0.92090260  1
  O  O6  1  0.83938130  0.44292139  0.22746946  1
