# generated using pymatgen
data_Li2Ta(InCl5)2
_symmetry_space_group_name_H-M   'P 1'
_cell_length_a   12.88049743
_cell_length_b   12.88049743
_cell_length_c   14.11779518
_cell_angle_alpha   90.00000000
_cell_angle_beta   90.00000000
_cell_angle_gamma   90.00000000
_symmetry_Int_Tables_number   1
_chemical_formula_structural   Li2Ta(InCl5)2
_chemical_formula_sum   'Li2 Ta1 In2 Cl10'
_cell_volume   2342.24406754
_cell_formula_units_Z   1
loop_
 _symmetry_equiv_pos_site_id
 _symmetry_equiv_pos_as_xyz
  1  'x, y, z'
loop_
 _atom_site_type_symbol
 _atom_site_label
 _atom_site_symmetry_multiplicity
 _atom_site_fract_x
 _atom_site_fract_y
 _atom_site_fract_z
 _atom_site_occupancy
  Li  Li0  1  0.99276850  0.92233046  0.04273856  1
  Li  Li1  1  0.03720337  0.07192981  0.12219631  1
  Ta  Ta2  1  0.17340780  0.25472229  0.43340816  1
  Cl  Cl3  1  0.19522094  0.37732872  0.54131922  1
  Cl  Cl4  1  0.23489726  0.37817913  0.63506418  1
  Cl  Cl5  1  0.36400769  0.47979992  0.90810083  1
  Cl  Cl6  1  0.39377920  0.67507138  0.95004924  1
  Cl  Cl7  1  0.55587862  0.84089427  0.17556693  1
  Cl  Cl8  1  0.62036685  0.87181185  0.43109500  1
  Cl  Cl9  1  0.56919861  0.02980725  0.49442018  1
  Cl  Cl10  1  0.59237424  0.08208560  0.76532241  1
  Cl  Cl11  1  0.73641575  0.16647131  0.91977810  1
  Cl  Cl12  1  0.85971389  0.23109018  0.04017702  1
  In  In13  1  0.90626316  0.44968866  0.19232625  1
  In  In14  1  0.84798234  0.51206696  0.41857983  1
