# generated using pymatgen
data_Sr2Li3TiO4
_symmetry_space_group_name_H-M   'P 1'
_cell_length_a   3.98724228
_cell_length_b   4.10991898
_cell_length_c   4.88184629
_cell_angle_alpha   90.00000000
_cell_angle_beta   90.00000000
_cell_angle_gamma   90.00000000
_symmetry_Int_Tables_number   1
_chemical_formula_structural   Sr2Li3TiO4
_chemical_formula_sum   'Sr2 Li3 Ti1 O4'
_cell_volume   80.00000000
_cell_formula_units_Z   1
loop_
 _symmetry_equiv_pos_site_id
 _symmetry_equiv_pos_as_xyz
  1  'x, y, z'
loop_
 _atom_site_type_symbol
 _atom_site_label
 _atom_site_symmetry_multiplicity
 _atom_site_fract_x
 _atom_site_fract_y
 _atom_site_fract_z
 _atom_site_occupancy
  Li  Li0  1  0.94598601  0.98435314  0.04560775  1
  Li  Li1  1  0.13914952  0.06429701  0.32289315  1
  Li  Li2  1  0.20761579  0.36750709  0.48903919  1
  Ti  Ti3  1  0.22785494  0.52998842  0.79431917  1
  O  O4  1  0.30995154  0.61288940  0.99625392  1
  O  O5  1  0.54072461  0.79149749  0.33518623  1
  O  O6  1  0.57499543  0.97019166  0.58634150  1
  O  O7  1  0.65549437  0.15543215  0.76139715  1
  Sr  Sr8  1  0.75085576  0.21645948  0.09098315  1
  Sr  Sr9  1  0.99517339  0.46230071  0.40317569  1
