# generated using pymatgen
data_Li4TiO3
_symmetry_space_group_name_H-M   'P 1'
_cell_length_a   5.44725526
_cell_length_b   5.44725526
_cell_length_c   5.44725526
_cell_angle_alpha   90.00000000
_cell_angle_beta   90.00000000
_cell_angle_gamma   90.00000000
_symmetry_Int_Tables_number   1
_chemical_formula_structural   Li4TiO3
_chemical_formula_sum   'Li4 Ti1 O3'
_cell_volume   161.63417152
_cell_formula_units_Z   1
loop_
 _symmetry_equiv_pos_site_id
 _symmetry_equiv_pos_as_xyz
  1  'x, y, z'
loop_
 _atom_site_type_symbol
 _atom_site_label
 _atom_site_symmetry_multiplicity
 _atom_site_fract_x
 _atom_site_fract_y
 _atom_site_fract_z
 _atom_site_occupancy
  Li  Li0  1  0.05433852  0.02453000  0.06030733  1
  Li  Li1  1  0.09015728  0.12236296  0.23550742  1
  Li  Li2  1  0.19310510  0.33945065  0.64686631  1
  Li  Li3  1  0.30940834  0.70296817  0.98658666  1
  Ti  Ti4  1  0.52120981  0.75640935  0.22940481  1
  O  O5  1  0.70318744  0.95875249  0.59762200  1
  O  O6  1  0.74011304  0.13906917  0.93725851  1
  O  O7  1  0.85496271  0.32025924  0.28824789  1
