# generated using pymatgen
data_Li2TiO3
_symmetry_space_group_name_H-M   'P 1'
_cell_length_a   6.99915213
_cell_length_b   6.99915213
_cell_length_c   6.99915213
_cell_angle_alpha   90.00000000
_cell_angle_beta   90.00000000
_cell_angle_gamma   90.00000000
_symmetry_Int_Tables_number   1
_chemical_formula_structural   Li2TiO3
_chemical_formula_sum   'Li2 Ti1 O3'
_cell_volume   342.87537777
_cell_formula_units_Z   1
loop_
 _symmetry_equiv_pos_site_id
 _symmetry_equiv_pos_as_xyz
  1  'x, y, z'
loop_
 _atom_site_type_symbol
 _atom_site_label
 _atom_site_symmetry_multiplicity
 _atom_site_fract_x
 _atom_site_fract_y
 _atom_site_fract_z
 _atom_site_occupancy
  Li  Li0  1  0.01718552  0.99816594  0.97449035  1
  Li  Li1  1  0.15094166  0.20510712  0.35727756  1
  Ti  Ti2  1  0.36479491  0.45390081  0.88743023  1
  O  O3  1  0.59506024  0.81029605  0.35156307  1
  O  O4  1  0.71937431  0.07628889  0.75046986  1
  O  O5  1  0.77967918  0.37376056  0.18670994  1
