# generated using pymatgen
data_LiInI2
_symmetry_space_group_name_H-M   'P 1'
_cell_length_a   4.75054265
_cell_length_b   4.75054265
_cell_length_c   3.89938601
_cell_angle_alpha   90.00000000
_cell_angle_beta   90.00000000
_cell_angle_gamma   90.00000000
_symmetry_Int_Tables_number   1
_chemical_formula_structural   LiInI2
_chemical_formula_sum   'Li2 In2 I4'
_cell_volume   88.00000000
_cell_formula_units_Z   2
loop_
 _symmetry_equiv_pos_site_id
 _symmetry_equiv_pos_as_xyz
  1  'x, y, z'
loop_
 _atom_site_type_symbol
 _atom_site_label
 _atom_site_symmetry_multiplicity
 _atom_site_fract_x
 _atom_site_fract_y
 _atom_site_fract_z
 _atom_site_occupancy
  Li  Li0  1  0.00808522  0.97149017  0.91705103  1
  Li  Li1  1  0.07694514  0.11670115  0.27072854  1
  In  In2  1  0.25652007  0.48462201  0.74420844  1
  In  In3  1  0.41254013  0.59868094  0.89068944  1
  I  I4  1  0.45679211  0.88575894  0.31830941  1
  I  I5  1  0.57948262  0.94732651  0.57433342  1
  I  I6  1  0.80854292  0.30039746  0.95522299  1
  I  I7  1  0.85704353  0.31961686  0.37514679  1
