# generated using pymatgen
data_Li4Y4Zr4S9F5
_symmetry_space_group_name_H-M   'P 1'
_cell_length_a   9.13280222
_cell_length_b   9.01809763
_cell_length_c   9.11784669
_cell_angle_alpha   90.00000000
_cell_angle_beta   90.00000000
_cell_angle_gamma   90.00000000
_symmetry_Int_Tables_number   1
_chemical_formula_structural   Li4Y4Zr4S9F5
_chemical_formula_sum   'Li4 Y4 Zr4 S9 F5'
_cell_volume   750.95043060
_cell_formula_units_Z   1
loop_
 _symmetry_equiv_pos_site_id
 _symmetry_equiv_pos_as_xyz
  1  'x, y, z'
loop_
 _atom_site_type_symbol
 _atom_site_label
 _atom_site_symmetry_multiplicity
 _atom_site_fract_x
 _atom_site_fract_y
 _atom_site_fract_z
 _atom_site_occupancy
  Li  Li0  1  0.07836586  0.99174593  0.02148070  1
  Li  Li1  1  0.99600063  0.12335023  0.11416634  1
  Li  Li2  1  0.04362866  0.03857276  0.21984557  1
  Li  Li3  1  0.02279120  0.09145413  0.34017073  1
  Y  Y4  1  0.11562914  0.18940651  0.47157416  1
  Y  Y5  1  0.12157153  0.39498653  0.41431825  1
  Y  Y6  1  0.28665159  0.42392638  0.65087217  1
  Y  Y7  1  0.29578513  0.42776119  0.77895291  1
  Zr  Zr8  1  0.37131343  0.58284852  0.79369230  1
  Zr  Zr9  1  0.28086702  0.47519376  0.98616685  1
  Zr  Zr10  1  0.29156443  0.58991097  0.94104714  1
  Zr  Zr11  1  0.32413629  0.75589193  0.03104543  1
  F  F12  1  0.42428365  0.70547073  0.30632316  1
  F  F13  1  0.41863240  0.75202948  0.32957477  1
  F  F14  1  0.59034233  0.85036701  0.43221953  1
  F  F15  1  0.67493701  0.87327949  0.42681207  1
  F  F16  1  0.53824926  0.94324285  0.55649289  1
  S  S17  1  0.56885999  0.08509729  0.62012648  1
  S  S18  1  0.66738689  0.17576972  0.87806717  1
  S  S19  1  0.80670019  0.16936204  0.88753212  1
  S  S20  1  0.78805665  0.26178695  0.06811820  1
  S  S21  1  0.74465413  0.35885484  0.09180129  1
  S  S22  1  0.80902308  0.33580689  0.19350144  1
  S  S23  1  0.85906558  0.50674510  0.27038616  1
  S  S24  1  0.87478211  0.55115867  0.41854473  1
  S  S25  1  0.89393704  0.47916988  0.49485698  1
