# generated using pymatgen
data_Na3TaTi2O5
_symmetry_space_group_name_H-M   'P 1'
_cell_length_a   6.90158099
_cell_length_b   6.36846791
_cell_length_c   6.14063943
_cell_angle_alpha   90.00000000
_cell_angle_beta   90.00000000
_cell_angle_gamma   90.00000000
_symmetry_Int_Tables_number   1
_chemical_formula_structural   Na3TaTi2O5
_chemical_formula_sum   'Na3 Ta1 Ti2 O5'
_cell_volume   269.89643660
_cell_formula_units_Z   1
loop_
 _symmetry_equiv_pos_site_id
 _symmetry_equiv_pos_as_xyz
  1  'x, y, z'
loop_
 _atom_site_type_symbol
 _atom_site_label
 _atom_site_symmetry_multiplicity
 _atom_site_fract_x
 _atom_site_fract_y
 _atom_site_fract_z
 _atom_site_occupancy
  Na  Na0  1  0.08896251  0.91952892  0.98848843  1
  Na  Na1  1  0.01316549  0.23450293  0.22633353  1
  Na  Na2  1  0.22112318  0.22702592  0.47723180  1
  Ta  Ta3  1  0.20363134  0.36116299  0.69046485  1
  Ti  Ti4  1  0.41861089  0.59978735  0.00535533  1
  Ti  Ti5  1  0.40133126  0.83253181  0.24455195  1
  O  O6  1  0.49725225  0.96966707  0.35111652  1
  O  O7  1  0.66288020  0.98802965  0.74900781  1
  O  O8  1  0.67166995  0.13803082  0.86384967  1
  O  O9  1  0.90141252  0.40312400  0.04303323  1
  O  O10  1  0.98818447  0.55579237  0.38274620  1
