# generated using pymatgen
data_Li2TiO4
_symmetry_space_group_name_H-M   'P 1'
_cell_length_a   11.77042703
_cell_length_b   11.77042703
_cell_length_c   11.77042703
_cell_angle_alpha   90.00000000
_cell_angle_beta   90.00000000
_cell_angle_gamma   90.00000000
_symmetry_Int_Tables_number   1
_chemical_formula_structural   Li2TiO4
_chemical_formula_sum   'Li2 Ti1 O4'
_cell_volume   1630.70971288
_cell_formula_units_Z   1
loop_
 _symmetry_equiv_pos_site_id
 _symmetry_equiv_pos_as_xyz
  1  'x, y, z'
loop_
 _atom_site_type_symbol
 _atom_site_label
 _atom_site_symmetry_multiplicity
 _atom_site_fract_x
 _atom_site_fract_y
 _atom_site_fract_z
 _atom_site_occupancy
  Li  Li0  1  0.05413276  0.00338091  0.02300817  1
  Li  Li1  1  0.11955615  0.28440633  0.43896004  1
  Ti  Ti2  1  0.19238312  0.47567596  0.71521437  1
  O  O3  1  0.52667713  0.75174136  0.10784782  1
  O  O4  1  0.66532528  0.92243068  0.39793380  1
  O  O5  1  0.75036396  0.13366913  0.89903949  1
  O  O6  1  0.80219565  0.43802635  0.23287513  1
