# generated using pymatgen
data_Li4Zr3O3
_symmetry_space_group_name_H-M   'P 1'
_cell_length_a   12.43289308
_cell_length_b   12.43289308
_cell_length_c   13.58961104
_cell_angle_alpha   90.00000000
_cell_angle_beta   90.00000000
_cell_angle_gamma   90.00000000
_symmetry_Int_Tables_number   1
_chemical_formula_structural   Li4Zr3O3
_chemical_formula_sum   'Li4 Zr3 O3'
_cell_volume   2100.63899817
_cell_formula_units_Z   1
loop_
 _symmetry_equiv_pos_site_id
 _symmetry_equiv_pos_as_xyz
  1  'x, y, z'
loop_
 _atom_site_type_symbol
 _atom_site_label
 _atom_site_symmetry_multiplicity
 _atom_site_fract_x
 _atom_site_fract_y
 _atom_site_fract_z
 _atom_site_occupancy
  Li  Li0  1  0.07971761  0.09118436  0.03362695  1
  Li  Li1  1  0.04937420  0.23437098  0.23006236  1
  Li  Li2  1  0.14075455  0.30192899  0.53607215  1
  Li  Li3  1  0.38184170  0.49291308  0.74759483  1
  Zr  Zr4  1  0.45490595  0.74296209  0.08580820  1
  Zr  Zr5  1  0.56793570  0.79368143  0.27445815  1
  Zr  Zr6  1  0.57155445  0.01564777  0.58741540  1
  O  O7  1  0.60748158  0.18437844  0.86043741  1
  O  O8  1  0.85546585  0.39101850  0.13747340  1
  O  O9  1  0.80368842  0.35988592  0.44307430  1
