# generated using pymatgen
data_LiInGa3F6
_symmetry_space_group_name_H-M   'P 1'
_cell_length_a   8.38280012
_cell_length_b   8.38280012
_cell_length_c   8.28207335
_cell_angle_alpha   90.00000000
_cell_angle_beta   90.00000000
_cell_angle_gamma   90.00000000
_symmetry_Int_Tables_number   1
_chemical_formula_structural   LiInGa3F6
_chemical_formula_sum   'Li1 In1 Ga3 F6'
_cell_volume   581.99237492
_cell_formula_units_Z   1
loop_
 _symmetry_equiv_pos_site_id
 _symmetry_equiv_pos_as_xyz
  1  'x, y, z'
loop_
 _atom_site_type_symbol
 _atom_site_label
 _atom_site_symmetry_multiplicity
 _atom_site_fract_x
 _atom_site_fract_y
 _atom_site_fract_z
 _atom_site_occupancy
  Li  Li0  1  0.00302865  0.07890339  0.91200191  1
  Ga  Ga1  1  0.03366266  0.07907576  0.14726038  1
  Ga  Ga2  1  0.21967330  0.39286095  0.48545107  1
  Ga  Ga3  1  0.20424956  0.36504693  0.68164525  1
  F  F4  1  0.37110465  0.65257671  0.89903511  1
  F  F5  1  0.51631204  0.70444799  0.15436463  1
  F  F6  1  0.47337722  0.96784969  0.49981213  1
  F  F7  1  0.56109698  0.98416725  0.73952590  1
  F  F8  1  0.78147109  0.27511930  0.81741199  1
  F  F9  1  0.82838786  0.34669713  0.11213631  1
  In  In10  1  0.94465310  0.52172113  0.36782103  1
