# generated using pymatgen
data_Li2LaNbO4
_symmetry_space_group_name_H-M   'P 1'
_cell_length_a   13.42664902
_cell_length_b   13.42664902
_cell_length_c   14.40726462
_cell_angle_alpha   90.00000000
_cell_angle_beta   90.00000000
_cell_angle_gamma   90.00000000
_symmetry_Int_Tables_number   1
_chemical_formula_structural   Li2LaNbO4
_chemical_formula_sum   'Li2 La1 Nb1 O4'
_cell_volume   2597.26824574
_cell_formula_units_Z   1
loop_
 _symmetry_equiv_pos_site_id
 _symmetry_equiv_pos_as_xyz
  1  'x, y, z'
loop_
 _atom_site_type_symbol
 _atom_site_label
 _atom_site_symmetry_multiplicity
 _atom_site_fract_x
 _atom_site_fract_y
 _atom_site_fract_z
 _atom_site_occupancy
  Li  Li0  1  0.90276926  0.91263373  0.91727838  1
  Li  Li1  1  0.06009850  0.23509915  0.37452803  1
  Nb  Nb2  1  0.31670921  0.38456581  0.67649347  1
  O  O3  1  0.46111149  0.57915561  0.94610838  1
  O  O4  1  0.50772342  0.86750308  0.37075463  1
  O  O5  1  0.65579726  0.93907823  0.70223075  1
  O  O6  1  0.82335457  0.27208367  0.03598096  1
  La  La7  1  0.94063990  0.34188961  0.35823885  1
