# generated using pymatgen
data_Li3AlO4
_symmetry_space_group_name_H-M   'P 1'
_cell_length_a   6.84881416
_cell_length_b   6.84881416
_cell_length_c   8.26434369
_cell_angle_alpha   90.00000000
_cell_angle_beta   90.00000000
_cell_angle_gamma   120.00000000
_symmetry_Int_Tables_number   1
_chemical_formula_structural   Li3AlO4
_chemical_formula_sum   'Li3 Al1 O4'
_cell_volume   335.71424247
_cell_formula_units_Z   1
loop_
 _symmetry_equiv_pos_site_id
 _symmetry_equiv_pos_as_xyz
  1  'x, y, z'
loop_
 _atom_site_type_symbol
 _atom_site_label
 _atom_site_symmetry_multiplicity
 _atom_site_fract_x
 _atom_site_fract_y
 _atom_site_fract_z
 _atom_site_occupancy
  Li  Li0  1  0.02487325  0.95349587  0.91377983  1
  Li  Li1  1  0.18125500  0.16153800  0.26742959  1
  Li  Li2  1  0.31032454  0.38871185  0.62242943  1
  Al  Al3  1  0.35039257  0.66192742  0.91589073  1
  O  O4  1  0.46797114  0.74699997  0.37607639  1
  O  O5  1  0.61494055  0.96221121  0.70871251  1
  O  O6  1  0.75864468  0.23930756  0.04662009  1
  O  O7  1  0.82588786  0.38911581  0.36731647  1
