# generated using pymatgen
data_BaLiTi2O4
_symmetry_space_group_name_H-M   'P 1'
_cell_length_a   4.28642139
_cell_length_b   4.28642139
_cell_length_c   3.59214790
_cell_angle_alpha   90.00000000
_cell_angle_beta   90.00000000
_cell_angle_gamma   90.00000000
_symmetry_Int_Tables_number   1
_chemical_formula_structural   BaLiTi2O4
_chemical_formula_sum   'Ba1 Li1 Ti2 O4'
_cell_volume   66.00000000
_cell_formula_units_Z   1
loop_
 _symmetry_equiv_pos_site_id
 _symmetry_equiv_pos_as_xyz
  1  'x, y, z'
loop_
 _atom_site_type_symbol
 _atom_site_label
 _atom_site_symmetry_multiplicity
 _atom_site_fract_x
 _atom_site_fract_y
 _atom_site_fract_z
 _atom_site_occupancy
  Li  Li0  1  0.91309479  0.93323969  0.07193856  1
  Ti  Ti1  1  0.17884442  0.28207018  0.26910401  1
  Ti  Ti2  1  0.30163130  0.46712192  0.73109479  1
  O  O3  1  0.39518077  0.58691033  0.03767159  1
  O  O4  1  0.57882962  0.80581477  0.40565856  1
  O  O5  1  0.55153460  0.00841306  0.72858977  1
  O  O6  1  0.67217838  0.29701725  0.93363414  1
  Ba  Ba7  1  0.81556445  0.38110941  0.21741842  1
