# generated using pymatgen
data_Li4TiO6
_symmetry_space_group_name_H-M   'P 1'
_cell_length_a   11.92706545
_cell_length_b   11.92706545
_cell_length_c   11.92706545
_cell_angle_alpha   90.00000000
_cell_angle_beta   90.00000000
_cell_angle_gamma   90.00000000
_symmetry_Int_Tables_number   1
_chemical_formula_structural   Li4TiO6
_chemical_formula_sum   'Li4 Ti1 O6'
_cell_volume   1696.68338785
_cell_formula_units_Z   1
loop_
 _symmetry_equiv_pos_site_id
 _symmetry_equiv_pos_as_xyz
  1  'x, y, z'
loop_
 _atom_site_type_symbol
 _atom_site_label
 _atom_site_symmetry_multiplicity
 _atom_site_fract_x
 _atom_site_fract_y
 _atom_site_fract_z
 _atom_site_occupancy
  Li  Li0  1  0.97454936  0.92488435  0.09490508  1
  Li  Li1  1  0.18290927  0.18752607  0.19147957  1
  Li  Li2  1  0.18722836  0.21488121  0.50478451  1
  Li  Li3  1  0.24207808  0.50804868  0.70348681  1
  Ti  Ti4  1  0.29375259  0.53641815  0.98172817  1
  O  O5  1  0.42101323  0.77967991  0.24116249  1
  O  O6  1  0.60865528  0.91759695  0.37677018  1
  O  O7  1  0.69753558  0.00401674  0.59819721  1
  O  O8  1  0.82594315  0.14997441  0.98000562  1
  O  O9  1  0.87175903  0.33073383  0.12856403  1
  O  O10  1  0.93955229  0.51227843  0.32619164  1
