# generated using pymatgen
data_Li4TiO5
_symmetry_space_group_name_H-M   'P 1'
_cell_length_a   11.98326760
_cell_length_b   11.98326760
_cell_length_c   11.98326760
_cell_angle_alpha   90.00000000
_cell_angle_beta   90.00000000
_cell_angle_gamma   90.00000000
_symmetry_Int_Tables_number   1
_chemical_formula_structural   Li4TiO5
_chemical_formula_sum   'Li4 Ti1 O5'
_cell_volume   1720.78167589
_cell_formula_units_Z   1
loop_
 _symmetry_equiv_pos_site_id
 _symmetry_equiv_pos_as_xyz
  1  'x, y, z'
loop_
 _atom_site_type_symbol
 _atom_site_label
 _atom_site_symmetry_multiplicity
 _atom_site_fract_x
 _atom_site_fract_y
 _atom_site_fract_z
 _atom_site_occupancy
  Li  Li0  1  0.09607380  0.95971172  0.05470117  1
  Li  Li1  1  0.02062914  0.18519385  0.33511944  1
  Li  Li2  1  0.25269454  0.27953594  0.49526162  1
  Li  Li3  1  0.29506215  0.58217361  0.79566865  1
  Ti  Ti4  1  0.49290494  0.57615717  0.02900554  1
  O  O5  1  0.41117671  0.71687278  0.38817078  1
  O  O6  1  0.58320371  0.88806618  0.59546127  1
  O  O7  1  0.79361545  0.06511922  0.75948937  1
  O  O8  1  0.74070050  0.24502473  0.01102148  1
  O  O9  1  0.87151375  0.35969323  0.25670243  1
