# generated using pymatgen
data_Li3AlF8
_symmetry_space_group_name_H-M   'P 1'
_cell_length_a   12.08460052
_cell_length_b   12.08460052
_cell_length_c   12.72730744
_cell_angle_alpha   90.00000000
_cell_angle_beta   90.00000000
_cell_angle_gamma   90.00000000
_symmetry_Int_Tables_number   1
_chemical_formula_structural   Li3AlF8
_chemical_formula_sum   'Li3 Al1 F8'
_cell_volume   1858.66504825
_cell_formula_units_Z   1
loop_
 _symmetry_equiv_pos_site_id
 _symmetry_equiv_pos_as_xyz
  1  'x, y, z'
loop_
 _atom_site_type_symbol
 _atom_site_label
 _atom_site_symmetry_multiplicity
 _atom_site_fract_x
 _atom_site_fract_y
 _atom_site_fract_z
 _atom_site_occupancy
  Li  Li0  1  0.08216985  0.99711295  0.00186796  1
  Li  Li1  1  0.05675914  0.12628564  0.22301259  1
  Li  Li2  1  0.19582532  0.19852154  0.42331175  1
  Al  Al3  1  0.15989636  0.37662325  0.69055946  1
  F  F4  1  0.36214648  0.48117143  0.77769615  1
  F  F5  1  0.44678262  0.60839794  0.11369420  1
  F  F6  1  0.45241942  0.79608194  0.39272440  1
  F  F7  1  0.58608586  0.91953860  0.46524221  1
  F  F8  1  0.56776245  0.12641766  0.77198742  1
  F  F9  1  0.84303691  0.23470889  0.90890166  1
  F  F10  1  0.91517256  0.28033920  0.09241197  1
  F  F11  1  0.91635101  0.45066226  0.43424456  1
