# generated using pymatgen
data_LiLa2Al3Cl10
_symmetry_space_group_name_H-M   'P 1'
_cell_length_a   11.97497606
_cell_length_b   11.97497606
_cell_length_c   12.22148961
_cell_angle_alpha   90.00000000
_cell_angle_beta   90.00000000
_cell_angle_gamma   90.00000000
_symmetry_Int_Tables_number   1
_chemical_formula_structural   LiLa2Al3Cl10
_chemical_formula_sum   'Li1 La2 Al3 Cl10'
_cell_volume   1752.56224185
_cell_formula_units_Z   1
loop_
 _symmetry_equiv_pos_site_id
 _symmetry_equiv_pos_as_xyz
  1  'x, y, z'
loop_
 _atom_site_type_symbol
 _atom_site_label
 _atom_site_symmetry_multiplicity
 _atom_site_fract_x
 _atom_site_fract_y
 _atom_site_fract_z
 _atom_site_occupancy
  Li  Li0  1  0.92075353  0.93804372  0.90881291  1
  Al  Al1  1  0.06756017  0.16698946  0.23453903  1
  Al  Al2  1  0.18012107  0.28721409  0.26750381  1
  Al  Al3  1  0.13907521  0.26060703  0.52265640  1
  Cl  Cl4  1  0.28519947  0.42140976  0.55552222  1
  Cl  Cl5  1  0.32436153  0.49264012  0.73449928  1
  Cl  Cl6  1  0.34025365  0.58514540  0.07596055  1
  Cl  Cl7  1  0.51520393  0.72280916  0.11491948  1
  Cl  Cl8  1  0.46208664  0.80251201  0.36215540  1
  Cl  Cl9  1  0.56138426  0.84063123  0.52071589  1
  Cl  Cl10  1  0.56120961  0.92975752  0.62265949  1
  Cl  Cl11  1  0.60497695  0.05376216  0.84665557  1
  Cl  Cl12  1  0.79055148  0.28039285  0.04489926  1
  Cl  Cl13  1  0.91075311  0.33600631  0.21253381  1
  La  La14  1  0.79517968  0.37775821  0.26395944  1
  La  La15  1  0.98770887  0.53108512  0.41604019  1
