# generated using pymatgen
data_Li5La3Zr2O10
_symmetry_space_group_name_H-M   'P 1'
_cell_length_a   5.33449360
_cell_length_b   5.33449360
_cell_length_c   7.41474224
_cell_angle_alpha   90.00000000
_cell_angle_beta   90.00000000
_cell_angle_gamma   90.00000000
_symmetry_Int_Tables_number   1
_chemical_formula_structural   Li5La3Zr2O10
_chemical_formula_sum   'Li5 La3 Zr2 O10'
_cell_volume   211.00000000
_cell_formula_units_Z   1
loop_
 _symmetry_equiv_pos_site_id
 _symmetry_equiv_pos_as_xyz
  1  'x, y, z'
loop_
 _atom_site_type_symbol
 _atom_site_label
 _atom_site_symmetry_multiplicity
 _atom_site_fract_x
 _atom_site_fract_y
 _atom_site_fract_z
 _atom_site_occupancy
  Li  Li0  1  0.99507839  0.97397239  0.05885198  1
  Li  Li1  1  0.99820044  0.12003055  0.16328286  1
  Li  Li2  1  0.15097748  0.22760217  0.23512694  1
  Li  Li3  1  0.17245052  0.15458639  0.29623966  1
  Li  Li4  1  0.27616515  0.40566133  0.53617482  1
  La  La5  1  0.33395717  0.40090481  0.56147670  1
  La  La6  1  0.29543643  0.50522073  0.79177988  1
  La  La7  1  0.38732765  0.61273171  0.87950901  1
  Zr  Zr8  1  0.34810780  0.59926377  0.02064803  1
  Zr  Zr9  1  0.37524021  0.71002381  0.08225832  1
  O  O10  1  0.43484782  0.88262205  0.21085053  1
  O  O11  1  0.59905047  0.88110095  0.44247339  1
  O  O12  1  0.68488976  0.90376265  0.59715907  1
  O  O13  1  0.62865664  0.12869979  0.67491556  1
  O  O14  1  0.72302355  0.20446918  0.83933143  1
  O  O15  1  0.72251035  0.18047304  0.00662609  1
  O  O16  1  0.75881529  0.29990799  0.05924159  1
  O  O17  1  0.81378796  0.33025329  0.27725267  1
  O  O18  1  0.87625675  0.39555964  0.36889699  1
  O  O19  1  0.96893170  0.44299767  0.58377155  1
