# generated using pymatgen
data_Li7La3Zr2O11
_symmetry_space_group_name_H-M   'P 1'
_cell_length_a   5.83715592
_cell_length_b   6.16369361
_cell_length_c   6.47610057
_cell_angle_alpha   90.00000000
_cell_angle_beta   90.00000000
_cell_angle_gamma   90.00000000
_symmetry_Int_Tables_number   1
_chemical_formula_structural   Li7La3Zr2O11
_chemical_formula_sum   'Li7 La3 Zr2 O11'
_cell_volume   233.00000000
_cell_formula_units_Z   1
loop_
 _symmetry_equiv_pos_site_id
 _symmetry_equiv_pos_as_xyz
  1  'x, y, z'
loop_
 _atom_site_type_symbol
 _atom_site_label
 _atom_site_symmetry_multiplicity
 _atom_site_fract_x
 _atom_site_fract_y
 _atom_site_fract_z
 _atom_site_occupancy
  Li  Li0  1  0.09992967  0.96043516  0.91845607  1
  Li  Li1  1  0.01676566  0.16324260  0.06937970  1
  Li  Li2  1  0.14009083  0.14938776  0.22392026  1
  Li  Li3  1  0.03849070  0.15887757  0.33433902  1
  Li  Li4  1  0.15951745  0.20197853  0.45416924  1
  Li  Li5  1  0.29929369  0.37597365  0.59349588  1
  Li  Li6  1  0.31791485  0.51744680  0.60920919  1
  La  La7  1  0.24295245  0.39640928  0.88867014  1
  La  La8  1  0.26230662  0.57035493  0.90666491  1
  La  La9  1  0.41661937  0.59134258  0.11093072  1
  Zr  Zr10  1  0.39964063  0.68193471  0.16381770  1
  Zr  Zr11  1  0.41802254  0.79826669  0.31739532  1
  O  O12  1  0.42872139  0.87970107  0.44225441  1
  O  O13  1  0.59048089  0.87438428  0.55190405  1
  O  O14  1  0.56608294  0.99264297  0.57178305  1
  O  O15  1  0.57745125  0.98574317  0.79735023  1
  O  O16  1  0.72242629  0.21697480  0.74248865  1
  O  O17  1  0.72673520  0.10714779  0.98531743  1
  O  O18  1  0.75659724  0.31783421  0.06178573  1
  O  O19  1  0.85571243  0.31475582  0.20783654  1
  O  O20  1  0.91943495  0.43810232  0.21077812  1
  O  O21  1  0.85222586  0.53097672  0.46223140  1
  O  O22  1  0.91714984  0.53004096  0.49273524  1
