# generated using pymatgen
data_Li2AlO5
_symmetry_space_group_name_H-M   'P 1'
_cell_length_a   11.32639171
_cell_length_b   11.32639171
_cell_length_c   12.40400354
_cell_angle_alpha   90.00000000
_cell_angle_beta   90.00000000
_cell_angle_gamma   120.00000000
_symmetry_Int_Tables_number   1
_chemical_formula_structural   Li2AlO5
_chemical_formula_sum   'Li2 Al1 O5'
_cell_volume   1378.08392634
_cell_formula_units_Z   1
loop_
 _symmetry_equiv_pos_site_id
 _symmetry_equiv_pos_as_xyz
  1  'x, y, z'
loop_
 _atom_site_type_symbol
 _atom_site_label
 _atom_site_symmetry_multiplicity
 _atom_site_fract_x
 _atom_site_fract_y
 _atom_site_fract_z
 _atom_site_occupancy
  Li  Li0  1  0.07182441  0.07429984  0.92771933  1
  Li  Li1  1  0.07469252  0.19794299  0.34541524  1
  Al  Al2  1  0.24650578  0.35711754  0.61019306  1
  O  O3  1  0.45529369  0.59649147  0.04889426  1
  O  O4  1  0.49462956  0.82592615  0.33726746  1
  O  O5  1  0.54589696  0.03465944  0.70150056  1
  O  O6  1  0.78245518  0.28548468  0.96870143  1
  O  O7  1  0.82202977  0.43171551  0.22682433  1
