# generated using pymatgen
data_LiTiP2O11
_symmetry_space_group_name_H-M   'P 1'
_cell_length_a   4.67232873
_cell_length_b   4.67232873
_cell_length_c   4.67232873
_cell_angle_alpha   90.00000000
_cell_angle_beta   90.00000000
_cell_angle_gamma   90.00000000
_symmetry_Int_Tables_number   1
_chemical_formula_structural   LiTiP2O11
_chemical_formula_sum   'Li1 Ti1 P2 O11'
_cell_volume   102.00000000
_cell_formula_units_Z   1
loop_
 _symmetry_equiv_pos_site_id
 _symmetry_equiv_pos_as_xyz
  1  'x, y, z'
loop_
 _atom_site_type_symbol
 _atom_site_label
 _atom_site_symmetry_multiplicity
 _atom_site_fract_x
 _atom_site_fract_y
 _atom_site_fract_z
 _atom_site_occupancy
  Li  Li0  1  0.99548003  0.98205450  0.97280531  1
  Ti  Ti1  1  0.04648635  0.11272180  0.13592975  1
  P  P2  1  0.15407492  0.29702418  0.39973874  1
  P  P3  1  0.13354895  0.33771571  0.53564671  1
  O  O4  1  0.33702560  0.33793302  0.76401193  1
  O  O5  1  0.29414310  0.51919012  0.83496237  1
  O  O6  1  0.30276738  0.59452979  0.11035404  1
  O  O7  1  0.46679392  0.80320171  0.21220448  1
  O  O8  1  0.59206547  0.87148310  0.41815133  1
  O  O9  1  0.68441859  0.92472554  0.59610208  1
  O  O10  1  0.74744640  0.98788467  0.77064486  1
  O  O11  1  0.77614908  0.27727423  0.82934900  1
  O  O12  1  0.83746571  0.20060317  0.00834918  1
  O  O13  1  0.79463598  0.48822068  0.34477031  1
  O  O14  1  0.90139283  0.43517796  0.43286240  1
