# generated using pymatgen
data_Li3Ti2P3O14
_symmetry_space_group_name_H-M   'P 1'
_cell_length_a   4.89424508
_cell_length_b   4.89424508
_cell_length_c   6.51258153
_cell_angle_alpha   90.00000000
_cell_angle_beta   90.00000000
_cell_angle_gamma   90.00000000
_symmetry_Int_Tables_number   1
_chemical_formula_structural   Li3Ti2P3O14
_chemical_formula_sum   'Li3 Ti2 P3 O14'
_cell_volume   156.00000000
_cell_formula_units_Z   1
loop_
 _symmetry_equiv_pos_site_id
 _symmetry_equiv_pos_as_xyz
  1  'x, y, z'
loop_
 _atom_site_type_symbol
 _atom_site_label
 _atom_site_symmetry_multiplicity
 _atom_site_fract_x
 _atom_site_fract_y
 _atom_site_fract_z
 _atom_site_occupancy
  Li  Li0  1  0.03377263  0.01005576  0.00980025  1
  Li  Li1  1  0.94934665  0.07908540  0.10685129  1
  Li  Li2  1  0.01638832  0.14318294  0.22373130  1
  Ti  Ti3  1  0.22974381  0.31760831  0.40154126  1
  Ti  Ti4  1  0.10609793  0.36949134  0.40401667  1
  P  P5  1  0.17684932  0.28755589  0.68755849  1
  P  P6  1  0.28954749  0.39758261  0.64137948  1
  P  P7  1  0.40369641  0.50222283  0.74879870  1
  O  O8  1  0.44666060  0.66317994  0.00195265  1
  O  O9  1  0.48649129  0.64057601  0.05606392  1
  O  O10  1  0.51826481  0.64243292  0.26264999  1
  O  O11  1  0.44467797  0.80134382  0.31728900  1
  O  O12  1  0.53685561  0.82453182  0.50245647  1
  O  O13  1  0.52460054  0.02903260  0.50711851  1
  O  O14  1  0.59907774  0.98629215  0.64674246  1
  O  O15  1  0.74623922  0.08678427  0.83094227  1
  O  O16  1  0.71704980  0.10848969  0.86199117  1
  O  O17  1  0.79617404  0.32199682  0.96738529  1
  O  O18  1  0.80534882  0.38658405  0.10444265  1
  O  O19  1  0.91758201  0.45347507  0.30619973  1
  O  O20  1  0.85630634  0.56510402  0.36842348  1
  O  O21  1  0.85456898  0.45242519  0.45764472  1
