# generated using pymatgen
data_Li5TiS6
_symmetry_space_group_name_H-M   'P 1'
_cell_length_a   10.99615431
_cell_length_b   10.99615431
_cell_length_c   10.12291917
_cell_angle_alpha   90.00000000
_cell_angle_beta   90.00000000
_cell_angle_gamma   90.00000000
_symmetry_Int_Tables_number   1
_chemical_formula_structural   Li5TiS6
_chemical_formula_sum   'Li5 Ti1 S6'
_cell_volume   1224.01691716
_cell_formula_units_Z   1
loop_
 _symmetry_equiv_pos_site_id
 _symmetry_equiv_pos_as_xyz
  1  'x, y, z'
loop_
 _atom_site_type_symbol
 _atom_site_label
 _atom_site_symmetry_multiplicity
 _atom_site_fract_x
 _atom_site_fract_y
 _atom_site_fract_z
 _atom_site_occupancy
  Li  Li0  1  0.90814489  0.07165818  0.06764862  1
  Li  Li1  1  0.16585728  0.10952602  0.28720237  1
  Li  Li2  1  0.25623077  0.21408955  0.47405493  1
  Li  Li3  1  0.16318612  0.40659983  0.65532678  1
  Li  Li4  1  0.34083897  0.53864262  0.90029146  1
  Ti  Ti5  1  0.35500984  0.73429492  0.15199396  1
  S  S6  1  0.52977259  0.81227598  0.25170634  1
  S  S7  1  0.52182717  0.97657036  0.53051280  1
  S  S8  1  0.60545827  0.15153873  0.70126128  1
  S  S9  1  0.74409094  0.14089296  0.02734267  1
  S  S10  1  0.79748289  0.29778608  0.09706473  1
  S  S11  1  0.89109012  0.42969129  0.37278711  1
