# generated using pymatgen
data_LiScCl3O5
_symmetry_space_group_name_H-M   'P 1'
_cell_length_a   3.90700992
_cell_length_b   13.79616502
_cell_length_c   3.41694284
_cell_angle_alpha   80.28098423
_cell_angle_beta   70.23721743
_cell_angle_gamma   60.31781149
_symmetry_Int_Tables_number   1
_chemical_formula_structural   LiScCl3O5
_chemical_formula_sum   'Li1 Sc1 Cl3 O5'
_cell_volume   150.58738902
_cell_formula_units_Z   1
loop_
 _symmetry_equiv_pos_site_id
 _symmetry_equiv_pos_as_xyz
  1  'x, y, z'
loop_
 _atom_site_type_symbol
 _atom_site_label
 _atom_site_symmetry_multiplicity
 _atom_site_fract_x
 _atom_site_fract_y
 _atom_site_fract_z
 _atom_site_occupancy
  Li  Li0  1  0.02057477  0.05188079  0.97913624  1
  Sc  Sc1  1  0.12252723  0.25981393  0.20161795  1
  Cl  Cl2  1  0.11642745  0.24646465  0.47115054  1
  Cl  Cl3  1  0.24541596  0.40041383  0.81257421  1
  Cl  Cl4  1  0.30835725  0.62227920  0.10281587  1
  O  O5  1  0.56560563  0.88493095  0.29597743  1
  O  O6  1  0.57437827  0.98962588  0.58797156  1
  O  O7  1  0.75427205  0.06956182  0.88460868  1
  O  O8  1  0.77726283  0.25726924  0.06112996  1
  O  O9  1  0.87827068  0.43065019  0.43163741  1
