# generated using pymatgen
data_Li3TiO4
_symmetry_space_group_name_H-M   'P 1'
_cell_length_a   4.81228360
_cell_length_b   4.81228360
_cell_length_c   4.81228360
_cell_angle_alpha   90.00000000
_cell_angle_beta   90.00000000
_cell_angle_gamma   90.00000000
_symmetry_Int_Tables_number   1
_chemical_formula_structural   Li3TiO4
_chemical_formula_sum   'Li3 Ti1 O4'
_cell_volume   111.44321690
_cell_formula_units_Z   1
loop_
 _symmetry_equiv_pos_site_id
 _symmetry_equiv_pos_as_xyz
  1  'x, y, z'
loop_
 _atom_site_type_symbol
 _atom_site_label
 _atom_site_symmetry_multiplicity
 _atom_site_fract_x
 _atom_site_fract_y
 _atom_site_fract_z
 _atom_site_occupancy
  Li  Li0  1  0.00047567  0.95314651  0.02029843  1
  Li  Li1  1  0.21975119  0.15902526  0.29082569  1
  Li  Li2  1  0.17670017  0.44426661  0.74283262  1
  Ti  Ti3  1  0.30390552  0.51802576  0.96209427  1
  O  O4  1  0.49793680  0.83778240  0.35822619  1
  O  O5  1  0.57440411  0.00548816  0.55097715  1
  O  O6  1  0.68806212  0.22711578  0.93295219  1
  O  O7  1  0.78911422  0.35621720  0.34289680  1
