# generated using pymatgen
data_Li6TaO3
_symmetry_space_group_name_H-M   'P 1'
_cell_length_a   13.04371379
_cell_length_b   13.04371379
_cell_length_c   13.15887910
_cell_angle_alpha   90.00000000
_cell_angle_beta   90.00000000
_cell_angle_gamma   90.00000000
_symmetry_Int_Tables_number   1
_chemical_formula_structural   Li6TaO3
_chemical_formula_sum   'Li6 Ta1 O3'
_cell_volume   2238.83154844
_cell_formula_units_Z   1
loop_
 _symmetry_equiv_pos_site_id
 _symmetry_equiv_pos_as_xyz
  1  'x, y, z'
loop_
 _atom_site_type_symbol
 _atom_site_label
 _atom_site_symmetry_multiplicity
 _atom_site_fract_x
 _atom_site_fract_y
 _atom_site_fract_z
 _atom_site_occupancy
  Li  Li0  1  0.09387069  0.07351714  0.08973556  1
  Li  Li1  1  0.00414036  0.07361812  0.20569733  1
  Li  Li2  1  0.29670685  0.23512809  0.61250757  1
  Li  Li3  1  0.25308605  0.43338857  0.71952468  1
  Li  Li4  1  0.44299959  0.69102922  0.97353782  1
  Li  Li5  1  0.54310179  0.83160264  0.29068072  1
  Ta  Ta6  1  0.52666556  0.93486650  0.60509052  1
  O  O7  1  0.68241465  0.18810750  0.85000375  1
  O  O8  1  0.84591308  0.19807070  0.01353088  1
  O  O9  1  0.84269736  0.37244885  0.26666165  1
