# generated using pymatgen
data_Li4TiO6
_symmetry_space_group_name_H-M   'P 1'
_cell_length_a   4.30973280
_cell_length_b   4.30973280
_cell_length_c   4.30973280
_cell_angle_alpha   90.00000000
_cell_angle_beta   90.00000000
_cell_angle_gamma   90.00000000
_symmetry_Int_Tables_number   1
_chemical_formula_structural   Li4TiO6
_chemical_formula_sum   'Li4 Ti1 O6'
_cell_volume   80.04810127
_cell_formula_units_Z   1
loop_
 _symmetry_equiv_pos_site_id
 _symmetry_equiv_pos_as_xyz
  1  'x, y, z'
loop_
 _atom_site_type_symbol
 _atom_site_label
 _atom_site_symmetry_multiplicity
 _atom_site_fract_x
 _atom_site_fract_y
 _atom_site_fract_z
 _atom_site_occupancy
  Li  Li0  1  0.05647344  0.91102913  0.92159133  1
  Li  Li1  1  0.17095474  0.12524093  0.24267161  1
  Li  Li2  1  0.22169689  0.33765170  0.37809791  1
  Li  Li3  1  0.28260955  0.47395884  0.80639673  1
  Ti  Ti4  1  0.40917346  0.51889536  0.04271358  1
  O  O5  1  0.52597786  0.74886496  0.21460910  1
  O  O6  1  0.56127724  0.92176539  0.49900481  1
  O  O7  1  0.54895740  0.11733577  0.65537680  1
  O  O8  1  0.80033597  0.13162389  0.90427654  1
  O  O9  1  0.77054899  0.35696341  0.20216963  1
  O  O10  1  0.90171773  0.39547350  0.37291776  1
