# generated using pymatgen
data_LiAlO5
_symmetry_space_group_name_H-M   'P 1'
_cell_length_a   4.68595316
_cell_length_b   4.68595316
_cell_length_c   8.50784459
_cell_angle_alpha   90.00000000
_cell_angle_beta   90.00000000
_cell_angle_gamma   120.00000000
_symmetry_Int_Tables_number   1
_chemical_formula_structural   LiAlO5
_chemical_formula_sum   'Li1 Al1 O5'
_cell_volume   161.78791030
_cell_formula_units_Z   1
loop_
 _symmetry_equiv_pos_site_id
 _symmetry_equiv_pos_as_xyz
  1  'x, y, z'
loop_
 _atom_site_type_symbol
 _atom_site_label
 _atom_site_symmetry_multiplicity
 _atom_site_fract_x
 _atom_site_fract_y
 _atom_site_fract_z
 _atom_site_occupancy
  Li  Li0  1  0.92806660  0.05566537  0.95438965  1
  Al  Al1  1  0.20823319  0.33051825  0.28373046  1
  O  O2  1  0.21023446  0.48636535  0.80964997  1
  O  O3  1  0.33915268  0.74764962  0.04771628  1
  O  O4  1  0.60169225  0.95443511  0.40898701  1
  O  O5  1  0.77602155  0.14129599  0.82797284  1
  O  O6  1  0.75947691  0.42369477  0.18281979  1
