# generated using pymatgen
data_Li2TiO5
_symmetry_space_group_name_H-M   'P 1'
_cell_length_a   7.32293260
_cell_length_b   7.32293260
_cell_length_c   7.32293260
_cell_angle_alpha   90.00000000
_cell_angle_beta   90.00000000
_cell_angle_gamma   90.00000000
_symmetry_Int_Tables_number   1
_chemical_formula_structural   Li2TiO5
_chemical_formula_sum   'Li2 Ti1 O5'
_cell_volume   392.69476464
_cell_formula_units_Z   1
loop_
 _symmetry_equiv_pos_site_id
 _symmetry_equiv_pos_as_xyz
  1  'x, y, z'
loop_
 _atom_site_type_symbol
 _atom_site_label
 _atom_site_symmetry_multiplicity
 _atom_site_fract_x
 _atom_site_fract_y
 _atom_site_fract_z
 _atom_site_occupancy
  Li  Li0  1  0.99307640  0.96209938  0.01147067  1
  Li  Li1  1  0.16125399  0.10643006  0.29396750  1
  Ti  Ti2  1  0.33345461  0.46940212  0.69436040  1
  O  O3  1  0.27894322  0.53021261  0.93810506  1
  O  O4  1  0.54278939  0.87830820  0.34371801  1
  O  O5  1  0.72423177  0.03513494  0.71431450  1
  O  O6  1  0.84817990  0.21265087  0.91747974  1
  O  O7  1  0.77821803  0.40744159  0.35464149  1
