# generated using pymatgen
data_Li3TiO6
_symmetry_space_group_name_H-M   'P 1'
_cell_length_a   11.83048355
_cell_length_b   11.83048355
_cell_length_c   11.83048355
_cell_angle_alpha   90.00000000
_cell_angle_beta   90.00000000
_cell_angle_gamma   90.00000000
_symmetry_Int_Tables_number   1
_chemical_formula_structural   Li3TiO6
_chemical_formula_sum   'Li3 Ti1 O6'
_cell_volume   1655.79851342
_cell_formula_units_Z   1
loop_
 _symmetry_equiv_pos_site_id
 _symmetry_equiv_pos_as_xyz
  1  'x, y, z'
loop_
 _atom_site_type_symbol
 _atom_site_label
 _atom_site_symmetry_multiplicity
 _atom_site_fract_x
 _atom_site_fract_y
 _atom_site_fract_z
 _atom_site_occupancy
  Li  Li0  1  0.03860820  0.06793570  0.98468143  1
  Li  Li1  1  0.06545815  0.13335445  0.30664777  1
  Li  Li2  1  0.21661540  0.23108158  0.57537844  1
  Ti  Ti3  1  0.32783741  0.54086585  0.88201850  1
  O  O4  1  0.44307340  0.55088842  0.95088592  1
  O  O5  1  0.58687430  0.72040423  0.22153694  1
  O  O6  1  0.64316169  0.88988203  0.53796227  1
  O  O7  1  0.63807780  0.08370203  0.77054586  1
  O  O8  1  0.74926024  0.19900293  0.00840239  1
  O  O9  1  0.84347317  0.42211627  0.28377963  1
