# generated using pymatgen
data_SrLi2TiO4
_symmetry_space_group_name_H-M   'P 1'
_cell_length_a   3.95789161
_cell_length_b   3.95789161
_cell_length_c   3.95789161
_cell_angle_alpha   90.00000000
_cell_angle_beta   90.00000000
_cell_angle_gamma   90.00000000
_symmetry_Int_Tables_number   1
_chemical_formula_structural   SrLi2TiO4
_chemical_formula_sum   'Sr1 Li2 Ti1 O4'
_cell_volume   62.00000000
_cell_formula_units_Z   1
loop_
 _symmetry_equiv_pos_site_id
 _symmetry_equiv_pos_as_xyz
  1  'x, y, z'
loop_
 _atom_site_type_symbol
 _atom_site_label
 _atom_site_symmetry_multiplicity
 _atom_site_fract_x
 _atom_site_fract_y
 _atom_site_fract_z
 _atom_site_occupancy
  Li  Li0  1  0.05003173  0.96181942  0.08438971  1
  Li  Li1  1  0.06336193  0.19171943  0.26343138  1
  Ti  Ti2  1  0.30433852  0.42903000  0.71480733  1
  O  O3  1  0.34015728  0.52686296  0.89000742  1
  O  O4  1  0.44310510  0.74395065  0.30136631  1
  O  O5  1  0.55940834  0.10746817  0.64108666  1
  O  O6  1  0.77120981  0.16090935  0.88390481  1
  Sr  Sr7  1  0.95318744  0.36325249  0.25212200  1
