# generated using pymatgen
data_Li2ScI4
_symmetry_space_group_name_H-M   'P 1'
_cell_length_a   4.12128530
_cell_length_b   4.12128530
_cell_length_c   4.12128530
_cell_angle_alpha   90.00000000
_cell_angle_beta   90.00000000
_cell_angle_gamma   90.00000000
_symmetry_Int_Tables_number   1
_chemical_formula_structural   Li2ScI4
_chemical_formula_sum   'Li2 Sc1 I4'
_cell_volume   70.00000000
_cell_formula_units_Z   1
loop_
 _symmetry_equiv_pos_site_id
 _symmetry_equiv_pos_as_xyz
  1  'x, y, z'
loop_
 _atom_site_type_symbol
 _atom_site_label
 _atom_site_symmetry_multiplicity
 _atom_site_fract_x
 _atom_site_fract_y
 _atom_site_fract_z
 _atom_site_occupancy
  Li  Li0  1  0.07415680  0.95315259  0.02480918  1
  Li  Li1  1  0.06185192  0.17814027  0.41027328  1
  Sc  Sc2  1  0.26024607  0.43484923  0.82371366  1
  I  I3  1  0.37638361  0.77682099  0.02482204  1
  I  I4  1  0.48412097  0.97225384  0.45192681  1
  I  I5  1  0.76870589  0.19405788  0.90030368  1
  I  I6  1  0.86042998  0.33590368  0.31420475  1
