# generated using pymatgen
data_LiLa2TiO3
_symmetry_space_group_name_H-M   'P 1'
_cell_length_a   4.44796018
_cell_length_b   4.44796018
_cell_length_c   4.44796018
_cell_angle_alpha   90.00000000
_cell_angle_beta   90.00000000
_cell_angle_gamma   90.00000000
_symmetry_Int_Tables_number   1
_chemical_formula_structural   LiLa2TiO3
_chemical_formula_sum   'Li1 La2 Ti1 O3'
_cell_volume   88.00000000
_cell_formula_units_Z   1
loop_
 _symmetry_equiv_pos_site_id
 _symmetry_equiv_pos_as_xyz
  1  'x, y, z'
loop_
 _atom_site_type_symbol
 _atom_site_label
 _atom_site_symmetry_multiplicity
 _atom_site_fract_x
 _atom_site_fract_y
 _atom_site_fract_z
 _atom_site_occupancy
  Li  Li0  1  0.00664491  0.01227351  0.96504585  1
  Ti  Ti1  1  0.14246133  0.25970182  0.46131198  1
  O  O2  1  0.37390197  0.39613324  0.80356945  1
  O  O3  1  0.48526767  0.68437814  0.03639003  1
  O  O4  1  0.56566748  0.99771062  0.48510045  1
  La  La5  1  0.66121279  0.13356885  0.83446862  1
  La  La6  1  0.90876031  0.39356271  0.33370916  1
