# generated using pymatgen
data_Li3TaNb3S8
_symmetry_space_group_name_H-M   'P 1'
_cell_length_a   10.68677554
_cell_length_b   12.04526011
_cell_length_c   12.90895744
_cell_angle_alpha   82.90553245
_cell_angle_beta   64.96445215
_cell_angle_gamma   91.14180085
_symmetry_Int_Tables_number   1
_chemical_formula_structural   Li3TaNb3S8
_chemical_formula_sum   'Li3 Ta1 Nb3 S8'
_cell_volume   1489.22982032
_cell_formula_units_Z   1
loop_
 _symmetry_equiv_pos_site_id
 _symmetry_equiv_pos_as_xyz
  1  'x, y, z'
loop_
 _atom_site_type_symbol
 _atom_site_label
 _atom_site_symmetry_multiplicity
 _atom_site_fract_x
 _atom_site_fract_y
 _atom_site_fract_z
 _atom_site_occupancy
  Li  Li0  1  0.04769319  0.97514855  0.99012669  1
  Li  Li1  1  0.02315419  0.16093563  0.14885072  1
  Li  Li2  1  0.19659934  0.21250775  0.29419799  1
  Ta  Ta3  1  0.19386101  0.35552633  0.43973061  1
  Nb  Nb4  1  0.22965161  0.37196937  0.61333148  1
  Nb  Nb5  1  0.27569932  0.54974259  0.88765377  1
  Nb  Nb6  1  0.47481764  0.68754398  0.12157621  1
  S  S7  1  0.51148902  0.75057644  0.15863050  1
  S  S8  1  0.61860577  0.77533566  0.38686425  1
  S  S9  1  0.56154796  0.95038126  0.49800679  1
  S  S10  1  0.60349951  0.03464567  0.83085716  1
  S  S11  1  0.76507357  0.10735532  0.99886559  1
  S  S12  1  0.88203213  0.20858533  0.18831526  1
  S  S13  1  0.83282199  0.48834643  0.29084880  1
  S  S14  1  0.90911747  0.60647033  0.40527660  1
