# generated using pymatgen
data_Li5Ti3(PO3)5
_symmetry_space_group_name_H-M   'P 1'
_cell_length_a   5.91248177
_cell_length_b   5.91248177
_cell_length_c   5.89287992
_cell_angle_alpha   90.00000000
_cell_angle_beta   90.00000000
_cell_angle_gamma   90.00000000
_symmetry_Int_Tables_number   1
_chemical_formula_structural   Li5Ti3(PO3)5
_chemical_formula_sum   'Li5 Ti3 P5 O15'
_cell_volume   206.00000000
_cell_formula_units_Z   1
loop_
 _symmetry_equiv_pos_site_id
 _symmetry_equiv_pos_as_xyz
  1  'x, y, z'
loop_
 _atom_site_type_symbol
 _atom_site_label
 _atom_site_symmetry_multiplicity
 _atom_site_fract_x
 _atom_site_fract_y
 _atom_site_fract_z
 _atom_site_occupancy
  Li  Li0  1  0.05612418  0.93643203  0.01828698  1
  Li  Li1  1  0.09668859  0.08527983  0.12584874  1
  Li  Li2  1  0.12929980  0.06744770  0.28344976  1
  Li  Li3  1  0.01146880  0.22067713  0.19936849  1
  Li  Li4  1  0.18427979  0.17213570  0.45049910  1
  Ti  Ti5  1  0.08407831  0.31541831  0.52328630  1
  Ti  Ti6  1  0.21929789  0.33294872  0.49823678  1
  Ti  Ti7  1  0.15915188  0.33140462  0.59877565  1
  P  P8  1  0.33016723  0.39388663  0.75089654  1
  P  P9  1  0.35144159  0.44607443  0.78668971  1
  P  P10  1  0.37400399  0.52486475  0.95918569  1
  P  P11  1  0.45520404  0.71136517  0.11667485  1
  P  P12  1  0.45843706  0.60354548  0.06520276  1
  O  O13  1  0.46016440  0.84802505  0.26170891  1
  O  O14  1  0.52132408  0.90738976  0.36038360  1
  O  O15  1  0.48881507  0.80047579  0.34746734  1
  O  O16  1  0.56111969  0.92073658  0.50473131  1
  O  O17  1  0.52658595  0.97876170  0.56356622  1
  O  O18  1  0.65857843  0.96181813  0.74263362  1
  O  O19  1  0.62908180  0.13882989  0.84740177  1
  O  O20  1  0.71735481  0.22761984  0.77149857  1
  O  O21  1  0.83030437  0.26413929  0.04088553  1
  O  O22  1  0.73461284  0.20251847  0.05766893  1
  O  O23  1  0.87986871  0.31110933  0.19233809  1
  O  O24  1  0.82657421  0.31089480  0.21129286  1
  O  O25  1  0.81249356  0.52358104  0.30145252  1
  O  O26  1  0.99001111  0.42861998  0.51981575  1
  O  O27  1  0.02315525  0.59424831  0.58019361  1
