# generated using pymatgen
data_Na3Ga4N7
_symmetry_space_group_name_H-M   'P 1'
_cell_length_a   9.55175485
_cell_length_b   9.05912596
_cell_length_c   10.94605167
_cell_angle_alpha   90.00000000
_cell_angle_beta   90.00000000
_cell_angle_gamma   90.00000000
_symmetry_Int_Tables_number   1
_chemical_formula_structural   Na3Ga4N7
_chemical_formula_sum   'Na3 Ga4 N7'
_cell_volume   947.16787547
_cell_formula_units_Z   1
loop_
 _symmetry_equiv_pos_site_id
 _symmetry_equiv_pos_as_xyz
  1  'x, y, z'
loop_
 _atom_site_type_symbol
 _atom_site_label
 _atom_site_symmetry_multiplicity
 _atom_site_fract_x
 _atom_site_fract_y
 _atom_site_fract_z
 _atom_site_occupancy
  Na  Na0  1  0.09671515  0.07390951  0.09420347  1
  Na  Na1  1  0.98079661  0.14357956  0.21304360  1
  Na  Na2  1  0.15997516  0.31230293  0.33923861  1
  Ga  Ga3  1  0.15238986  0.38710328  0.64367084  1
  Ga  Ga4  1  0.33247622  0.41227934  0.70511754  1
  Ga  Ga5  1  0.36521311  0.64975724  0.01079632  1
  Ga  Ga6  1  0.37352163  0.77659865  0.15949499  1
  N  N7  1  0.55276883  0.77855978  0.35609200  1
  N  N8  1  0.61114357  0.97614797  0.49372664  1
  N  N9  1  0.55412927  0.06336033  0.60325509  1
  N  N10  1  0.69009322  0.08374270  0.94363837  1
  N  N11  1  0.87715394  0.35399751  0.97073048  1
  N  N12  1  0.81455566  0.31169811  0.33588173  1
  N  N13  1  0.90002996  0.59465035  0.45658645  1
