# generated using pymatgen
data_LiAlO5
_symmetry_space_group_name_H-M   'P 1'
_cell_length_a   5.27126203
_cell_length_b   5.27126203
_cell_length_c   8.15574528
_cell_angle_alpha   90.00000000
_cell_angle_beta   90.00000000
_cell_angle_gamma   120.00000000
_symmetry_Int_Tables_number   1
_chemical_formula_structural   LiAlO5
_chemical_formula_sum   'Li1 Al1 O5'
_cell_volume   196.25624925
_cell_formula_units_Z   1
loop_
 _symmetry_equiv_pos_site_id
 _symmetry_equiv_pos_as_xyz
  1  'x, y, z'
loop_
 _atom_site_type_symbol
 _atom_site_label
 _atom_site_symmetry_multiplicity
 _atom_site_fract_x
 _atom_site_fract_y
 _atom_site_fract_z
 _atom_site_occupancy
  Li  Li0  1  0.04714853  0.93703630  0.03614847  1
  Al  Al1  1  0.10657366  0.15065670  0.39704819  1
  O  O2  1  0.28109614  0.41700199  0.81727581  1
  O  O3  1  0.34492052  0.65787776  0.13681296  1
  O  O4  1  0.52380979  0.01975540  0.42771111  1
  O  O5  1  0.72164336  0.22202820  0.77090615  1
  O  O6  1  0.80894352  0.29973400  0.29594533  1
