# generated using pymatgen
data_Li5Sc2Ta2(Br4O3)2
_symmetry_space_group_name_H-M   'P 1'
_cell_length_a   7.27758479
_cell_length_b   7.97155831
_cell_length_c   6.59004994
_cell_angle_alpha   90.00000000
_cell_angle_beta   90.00000000
_cell_angle_gamma   90.00000000
_symmetry_Int_Tables_number   1
_chemical_formula_structural   Li5Sc2Ta2(Br4O3)2
_chemical_formula_sum   'Li5 Sc2 Ta2 Br8 O6'
_cell_volume   382.31312421
_cell_formula_units_Z   1
loop_
 _symmetry_equiv_pos_site_id
 _symmetry_equiv_pos_as_xyz
  1  'x, y, z'
loop_
 _atom_site_type_symbol
 _atom_site_label
 _atom_site_symmetry_multiplicity
 _atom_site_fract_x
 _atom_site_fract_y
 _atom_site_fract_z
 _atom_site_occupancy
  Li  Li0  1  0.93530441  0.97449828  0.09354734  1
  Li  Li1  1  0.99829326  0.10953013  0.20946853  1
  Li  Li2  1  0.03215183  0.05782230  0.22425159  1
  Li  Li3  1  0.05010900  0.17117634  0.42316269  1
  Li  Li4  1  0.19063719  0.19717887  0.37481673  1
  Ta  Ta5  1  0.26122390  0.44101231  0.66526278  1
  Ta  Ta6  1  0.23592505  0.33662991  0.75290577  1
  Sc  Sc7  1  0.26291019  0.47304101  0.80641268  1
  Sc  Sc8  1  0.32409587  0.55489404  0.98726540  1
  O  O9  1  0.44081598  0.68081674  0.12140249  1
  O  O10  1  0.42011880  0.75811642  0.18215071  1
  O  O11  1  0.46545658  0.68868003  0.23074371  1
  O  O12  1  0.48000239  0.76928466  0.35392020  1
  O  O13  1  0.56578127  0.91837595  0.43956506  1
  O  O14  1  0.50988094  0.99108804  0.59635827  1
  Br  Br15  1  0.64977804  0.15396371  0.62936917  1
  Br  Br16  1  0.67111189  0.22457832  0.77342220  1
  Br  Br17  1  0.64931481  0.23095995  0.85715146  1
  Br  Br18  1  0.73145615  0.27273191  0.96891373  1
  Br  Br19  1  0.84774233  0.33741190  0.20466403  1
  Br  Br20  1  0.95207612  0.34761777  0.26910917  1
  Br  Br21  1  0.83025143  0.44139595  0.31234111  1
  Br  Br22  1  0.88015395  0.52164471  0.58578245  1
