# generated using pymatgen
data_Li4TiO3
_symmetry_space_group_name_H-M   'P 1'
_cell_length_a   10.96622098
_cell_length_b   10.96622098
_cell_length_c   10.96622098
_cell_angle_alpha   90.00000000
_cell_angle_beta   90.00000000
_cell_angle_gamma   90.00000000
_symmetry_Int_Tables_number   1
_chemical_formula_structural   Li4TiO3
_chemical_formula_sum   'Li4 Ti1 O3'
_cell_volume   1318.77582994
_cell_formula_units_Z   1
loop_
 _symmetry_equiv_pos_site_id
 _symmetry_equiv_pos_as_xyz
  1  'x, y, z'
loop_
 _atom_site_type_symbol
 _atom_site_label
 _atom_site_symmetry_multiplicity
 _atom_site_fract_x
 _atom_site_fract_y
 _atom_site_fract_z
 _atom_site_occupancy
  Li  Li0  1  0.04809128  0.02199136  0.03228921  1
  Li  Li1  1  0.13058654  0.29545271  0.28176378  1
  Li  Li2  1  0.28079213  0.41917182  0.75390261  1
  Li  Li3  1  0.36999562  0.64564771  0.03786461  1
  Ti  Ti4  1  0.57462846  0.80360285  0.27390582  1
  O  O5  1  0.65078023  0.02803908  0.65581520  1
  O  O6  1  0.77894300  0.29838698  0.92913177  1
  O  O7  1  0.90284889  0.37405988  0.33895532  1
