# generated using pymatgen
data_Li4Ti2P2O9
_symmetry_space_group_name_H-M   'P 1'
_cell_length_a   5.01329793
_cell_length_b   5.01329793
_cell_length_c   5.01329793
_cell_angle_alpha   90.00000000
_cell_angle_beta   90.00000000
_cell_angle_gamma   90.00000000
_symmetry_Int_Tables_number   1
_chemical_formula_structural   Li4Ti2P2O9
_chemical_formula_sum   'Li4 Ti2 P2 O9'
_cell_volume   126.00000000
_cell_formula_units_Z   1
loop_
 _symmetry_equiv_pos_site_id
 _symmetry_equiv_pos_as_xyz
  1  'x, y, z'
loop_
 _atom_site_type_symbol
 _atom_site_label
 _atom_site_symmetry_multiplicity
 _atom_site_fract_x
 _atom_site_fract_y
 _atom_site_fract_z
 _atom_site_occupancy
  Li  Li0  1  0.03673615  0.91316996  0.03758094  1
  Li  Li1  1  0.07492177  0.04533009  0.23728150  1
  Li  Li2  1  0.09510480  0.23086476  0.22166040  1
  Li  Li3  1  0.20909277  0.27222188  0.37826679  1
  Ti  Ti4  1  0.17212565  0.35700185  0.55270073  1
  Ti  Ti5  1  0.19963524  0.37999111  0.68035946  1
  P  P6  1  0.27686452  0.52457740  0.01127611  1
  P  P7  1  0.31558132  0.66102120  0.14213545  1
  O  O8  1  0.55678736  0.81910038  0.13505171  1
  O  O9  1  0.56143814  0.79560876  0.30406744  1
  O  O10  1  0.57326574  0.01891063  0.54187174  1
  O  O11  1  0.61194997  0.99435280  0.66089987  1
  O  O12  1  0.76370922  0.12071629  0.88806914  1
  O  O13  1  0.83515836  0.14622182  0.90523277  1
  O  O14  1  0.86923769  0.34599496  0.05873997  1
  O  O15  1  0.92127875  0.40745837  0.29213443  1
  O  O16  1  0.87417825  0.59983644  0.37529600  1
