# generated using pymatgen
data_Li4Ti2Cl3
_symmetry_space_group_name_H-M   'P 1'
_cell_length_a   12.81618217
_cell_length_b   12.81618217
_cell_length_c   13.60349729
_cell_angle_alpha   90.00000000
_cell_angle_beta   90.00000000
_cell_angle_gamma   90.00000000
_symmetry_Int_Tables_number   1
_chemical_formula_structural   Li4Ti2Cl3
_chemical_formula_sum   'Li4 Ti2 Cl3'
_cell_volume   2234.43598928
_cell_formula_units_Z   1
loop_
 _symmetry_equiv_pos_site_id
 _symmetry_equiv_pos_as_xyz
  1  'x, y, z'
loop_
 _atom_site_type_symbol
 _atom_site_label
 _atom_site_symmetry_multiplicity
 _atom_site_fract_x
 _atom_site_fract_y
 _atom_site_fract_z
 _atom_site_occupancy
  Li  Li0  1  0.99563529  0.98717411  0.92030763  1
  Li  Li1  1  0.04239257  0.13392664  0.19233324  1
  Li  Li2  1  0.26738060  0.42785140  0.67458235  1
  Li  Li3  1  0.27788191  0.53783764  0.88278622  1
  Ti  Ti4  1  0.46214228  0.80589907  0.23177671  1
  Ti  Ti5  1  0.59776178  0.97212026  0.51814581  1
  Cl  Cl6  1  0.62725578  0.13380731  0.74699893  1
  Cl  Cl7  1  0.68590520  0.27600769  0.01581649  1
  Cl  Cl8  1  0.84946066  0.43329920  0.38554583  1
