# generated using pymatgen
data_Li2ScI7
_symmetry_space_group_name_H-M   'P 1'
_cell_length_a   4.37920681
_cell_length_b   4.74359146
_cell_length_c   4.81390224
_cell_angle_alpha   90.00000000
_cell_angle_beta   90.00000000
_cell_angle_gamma   90.00000000
_symmetry_Int_Tables_number   1
_chemical_formula_structural   Li2ScI7
_chemical_formula_sum   'Li2 Sc1 I7'
_cell_volume   100.00000000
_cell_formula_units_Z   1
loop_
 _symmetry_equiv_pos_site_id
 _symmetry_equiv_pos_as_xyz
  1  'x, y, z'
loop_
 _atom_site_type_symbol
 _atom_site_label
 _atom_site_symmetry_multiplicity
 _atom_site_fract_x
 _atom_site_fract_y
 _atom_site_fract_z
 _atom_site_occupancy
  Li  Li0  1  0.97255982  0.09821367  0.00794715  1
  Li  Li1  1  0.18357628  0.11619520  0.28058479  1
  Sc  Sc2  1  0.28833775  0.32599764  0.42681626  1
  I  I3  1  0.20746596  0.39482485  0.70696610  1
  I  I4  1  0.39431628  0.62861515  0.01309143  1
  I  I5  1  0.52234418  0.85076725  0.30652090  1
  I  I6  1  0.67965213  0.88030427  0.55991598  1
  I  I7  1  0.77270011  0.07113203  0.84808226  1
  I  I8  1  0.88172635  0.36137240  0.99919391  1
  I  I9  1  0.85619196  0.50107561  0.34568708  1
