# generated using pymatgen
data_Li4ScBr3
_symmetry_space_group_name_H-M   'P 1'
_cell_length_a   3.55079014
_cell_length_b   4.53271037
_cell_length_c   5.09484384
_cell_angle_alpha   90.00000000
_cell_angle_beta   90.00000000
_cell_angle_gamma   90.00000000
_symmetry_Int_Tables_number   1
_chemical_formula_structural   Li4ScBr3
_chemical_formula_sum   'Li4 Sc1 Br3'
_cell_volume   82.00000000
_cell_formula_units_Z   1
loop_
 _symmetry_equiv_pos_site_id
 _symmetry_equiv_pos_as_xyz
  1  'x, y, z'
loop_
 _atom_site_type_symbol
 _atom_site_label
 _atom_site_symmetry_multiplicity
 _atom_site_fract_x
 _atom_site_fract_y
 _atom_site_fract_z
 _atom_site_occupancy
  Li  Li0  1  0.95135181  0.01710423  0.05049410  1
  Li  Li1  1  0.20678509  0.14231036  0.32179306  1
  Li  Li2  1  0.16448659  0.48569669  0.64688571  1
  Li  Li3  1  0.39501806  0.59645607  0.91288419  1
  Sc  Sc4  1  0.58659819  0.78531332  0.35351980  1
  Br  Br5  1  0.59880998  0.01931489  0.62007468  1
  Br  Br6  1  0.74298527  0.13414826  0.99228119  1
  Br  Br7  1  0.84181064  0.35185625  0.19948550  1
