# generated using pymatgen
data_Li2TiO6
_symmetry_space_group_name_H-M   'P 1'
_cell_length_a   9.96018454
_cell_length_b   9.96018454
_cell_length_c   9.96018454
_cell_angle_alpha   90.00000000
_cell_angle_beta   90.00000000
_cell_angle_gamma   90.00000000
_symmetry_Int_Tables_number   1
_chemical_formula_structural   Li2TiO6
_chemical_formula_sum   'Li2 Ti1 O6'
_cell_volume   988.10285697
_cell_formula_units_Z   1
loop_
 _symmetry_equiv_pos_site_id
 _symmetry_equiv_pos_as_xyz
  1  'x, y, z'
loop_
 _atom_site_type_symbol
 _atom_site_label
 _atom_site_symmetry_multiplicity
 _atom_site_fract_x
 _atom_site_fract_y
 _atom_site_fract_z
 _atom_site_occupancy
  Li  Li0  1  0.93373898  0.02787507  0.97499076  1
  Li  Li1  1  0.01591078  0.22913454  0.37828981  1
  Ti  Ti2  1  0.23814094  0.27594895  0.58948051  1
  O  O3  1  0.24055976  0.58540347  0.86271307  1
  O  O4  1  0.48154312  0.64558760  0.21656128  1
  O  O5  1  0.48250110  0.91770853  0.38389846  1
  O  O6  1  0.76473788  0.00838007  0.66884278  1
  O  O7  1  0.81405893  0.34827796  0.04389832  1
  O  O8  1  0.88101875  0.49847639  0.41957858  1
