# generated using pymatgen
data_LiYGa3Br2
_symmetry_space_group_name_H-M   'P 1'
_cell_length_a   11.44873191
_cell_length_b   5.05836626
_cell_length_c   3.86126316
_cell_angle_alpha   111.64459727
_cell_angle_beta   79.73234088
_cell_angle_gamma   92.24487706
_symmetry_Int_Tables_number   1
_chemical_formula_structural   LiYGa3Br2
_chemical_formula_sum   'Li1 Y1 Ga3 Br2'
_cell_volume   204.43113703
_cell_formula_units_Z   1
loop_
 _symmetry_equiv_pos_site_id
 _symmetry_equiv_pos_as_xyz
  1  'x, y, z'
loop_
 _atom_site_type_symbol
 _atom_site_label
 _atom_site_symmetry_multiplicity
 _atom_site_fract_x
 _atom_site_fract_y
 _atom_site_fract_z
 _atom_site_occupancy
  Li  Li0  1  0.95170144  0.94353037  0.92584061  1
  Ga  Ga1  1  0.24012451  0.15604066  0.27852450  1
  Ga  Ga2  1  0.23656625  0.40965877  0.84124924  1
  Ga  Ga3  1  0.44351474  0.74812494  0.09052387  1
  Y  Y4  1  0.58212949  0.82502301  0.39618529  1
  Br  Br5  1  0.72521730  0.13021087  0.92119968  1
  Br  Br6  1  0.93858567  0.42747209  0.27946598  1
