# generated using pymatgen
data_LiY3S9Br7
_symmetry_space_group_name_H-M   'P 1'
_cell_length_a   4.90419113
_cell_length_b   4.40200440
_cell_length_c   8.99039626
_cell_angle_alpha   61.25114378
_cell_angle_beta   117.13137859
_cell_angle_gamma   105.61615489
_symmetry_Int_Tables_number   1
_chemical_formula_structural   LiY3S9Br7
_chemical_formula_sum   'Li1 Y3 S9 Br7'
_cell_volume   151.12958553
_cell_formula_units_Z   1
loop_
 _symmetry_equiv_pos_site_id
 _symmetry_equiv_pos_as_xyz
  1  'x, y, z'
loop_
 _atom_site_type_symbol
 _atom_site_label
 _atom_site_symmetry_multiplicity
 _atom_site_fract_x
 _atom_site_fract_y
 _atom_site_fract_z
 _atom_site_occupancy
  Li  Li0  1  0.92888087  0.08033713  0.96353450  1
  Y  Y1  1  0.08693319  0.11598388  0.13208026  1
  Y  Y2  1  0.04495008  0.22314855  0.31494747  1
  Y  Y3  1  0.14253648  0.17079903  0.48606699  1
  S  S4  1  0.16661881  0.37032718  0.57416381  1
  S  S5  1  0.27552018  0.30925171  0.60454677  1
  S  S6  1  0.23691499  0.39859560  0.75646076  1
  S  S7  1  0.29201986  0.61330635  0.95143393  1
  S  S8  1  0.42665491  0.57312724  0.02163730  1
  S  S9  1  0.54833510  0.65906471  0.13891864  1
  S  S10  1  0.55525608  0.83502361  0.36028896  1
  S  S11  1  0.57469103  0.83857901  0.39992891  1
  S  S12  1  0.63239498  0.03103449  0.55075817  1
  Br  Br13  1  0.64680586  0.98048254  0.68993040  1
  Br  Br14  1  0.67860923  0.06672264  0.73892967  1
  Br  Br15  1  0.79083021  0.29281635  0.91848114  1
  Br  Br16  1  0.86381567  0.31474117  0.15990653  1
  Br  Br17  1  0.85769395  0.40130703  0.23326498  1
  Br  Br18  1  0.89298674  0.51134004  0.25769729  1
  Br  Br19  1  0.99289813  0.58622847  0.41503389  1
