# generated using pymatgen
data_Li3AlO5
_symmetry_space_group_name_H-M   'P 1'
_cell_length_a   11.94017343
_cell_length_b   11.94017343
_cell_length_c   13.57502089
_cell_angle_alpha   90.00000000
_cell_angle_beta   90.00000000
_cell_angle_gamma   120.00000000
_symmetry_Int_Tables_number   1
_chemical_formula_structural   Li3AlO5
_chemical_formula_sum   'Li3 Al1 O5'
_cell_volume   1676.07098575
_cell_formula_units_Z   1
loop_
 _symmetry_equiv_pos_site_id
 _symmetry_equiv_pos_as_xyz
  1  'x, y, z'
loop_
 _atom_site_type_symbol
 _atom_site_label
 _atom_site_symmetry_multiplicity
 _atom_site_fract_x
 _atom_site_fract_y
 _atom_site_fract_z
 _atom_site_occupancy
  Li  Li0  1  0.08821071  0.02626149  0.07269419  1
  Li  Li1  1  0.07163588  0.17649842  0.31692140  1
  Li  Li2  1  0.15858228  0.36255936  0.49076583  1
  Al  Al3  1  0.30356502  0.59968411  0.91658871  1
  O  O4  1  0.44929063  0.72203921  0.19362848  1
  O  O5  1  0.45968891  0.96266408  0.52638493  1
  O  O6  1  0.62546656  0.17562839  0.65571717  1
  O  O7  1  0.82882964  0.29260220  0.06106300  1
  O  O8  1  0.81307115  0.39252800  0.27123451  1
