# generated using pymatgen
data_Li3AlO5
_symmetry_space_group_name_H-M   'P 1'
_cell_length_a   8.63743553
_cell_length_b   8.63743553
_cell_length_c   13.32535546
_cell_angle_alpha   90.00000000
_cell_angle_beta   90.00000000
_cell_angle_gamma   120.00000000
_symmetry_Int_Tables_number   1
_chemical_formula_structural   Li3AlO5
_chemical_formula_sum   'Li3 Al1 O5'
_cell_volume   860.95226421
_cell_formula_units_Z   1
loop_
 _symmetry_equiv_pos_site_id
 _symmetry_equiv_pos_as_xyz
  1  'x, y, z'
loop_
 _atom_site_type_symbol
 _atom_site_label
 _atom_site_symmetry_multiplicity
 _atom_site_fract_x
 _atom_site_fract_y
 _atom_site_fract_z
 _atom_site_occupancy
  Li  Li0  1  0.98085323  0.93553403  0.04367605  1
  Li  Li1  1  0.04877310  0.18713547  0.19555664  1
  Li  Li2  1  0.27456198  0.27059690  0.68013548  1
  Al  Al3  1  0.42535567  0.60729634  0.96029606  1
  O  O4  1  0.51293788  0.75387047  0.06613855  1
  O  O5  1  0.48055888  0.84703583  0.44607190  1
  O  O6  1  0.62075063  0.13838257  0.82834877  1
  O  O7  1  0.84182432  0.23751761  0.97160875  1
  O  O8  1  0.93055306  0.34831108  0.26179325  1
