# generated using pymatgen
data_SrLi2Ti2O2
_symmetry_space_group_name_H-M   'P 1'
_cell_length_a   3.95789161
_cell_length_b   3.95789161
_cell_length_c   3.95789161
_cell_angle_alpha   90.00000000
_cell_angle_beta   90.00000000
_cell_angle_gamma   90.00000000
_symmetry_Int_Tables_number   1
_chemical_formula_structural   SrLi2Ti2O2
_chemical_formula_sum   'Sr1 Li2 Ti2 O2'
_cell_volume   62.00000000
_cell_formula_units_Z   1
loop_
 _symmetry_equiv_pos_site_id
 _symmetry_equiv_pos_as_xyz
  1  'x, y, z'
loop_
 _atom_site_type_symbol
 _atom_site_label
 _atom_site_symmetry_multiplicity
 _atom_site_fract_x
 _atom_site_fract_y
 _atom_site_fract_z
 _atom_site_occupancy
  Li  Li0  1  0.02349785  0.92504319  0.94737235  1
  Li  Li1  1  0.07378434  0.20791392  0.41658534  1
  Ti  Ti2  1  0.20202626  0.51991768  0.69979933  1
  Ti  Ti3  1  0.44113651  0.71048457  0.20433774  1
  O  O4  1  0.61093422  0.94439070  0.47939848  1
  O  O5  1  0.66797656  0.13734426  0.78527464  1
  Sr  Sr6  1  0.78789559  0.30418699  0.16552422  1
