# generated using pymatgen
data_Li2AlO3
_symmetry_space_group_name_H-M   'P 1'
_cell_length_a   8.05107974
_cell_length_b   8.05107974
_cell_length_c   11.25112561
_cell_angle_alpha   90.00000000
_cell_angle_beta   90.00000000
_cell_angle_gamma   120.00000000
_symmetry_Int_Tables_number   1
_chemical_formula_structural   Li2AlO3
_chemical_formula_sum   'Li2 Al1 O3'
_cell_volume   631.58944075
_cell_formula_units_Z   1
loop_
 _symmetry_equiv_pos_site_id
 _symmetry_equiv_pos_as_xyz
  1  'x, y, z'
loop_
 _atom_site_type_symbol
 _atom_site_label
 _atom_site_symmetry_multiplicity
 _atom_site_fract_x
 _atom_site_fract_y
 _atom_site_fract_z
 _atom_site_occupancy
  Li  Li0  1  0.99530075  0.01418416  0.97308093  1
  Li  Li1  1  0.12787791  0.18539907  0.44221628  1
  Al  Al2  1  0.23933522  0.56112665  0.82008378  1
  O  O3  1  0.44082683  0.88005950  0.24233582  1
  O  O4  1  0.74171563  0.13330941  0.81716284  1
  O  O5  1  0.88648312  0.41847041  0.15554979  1
