# generated using pymatgen
data_Li3(PS2)2
_symmetry_space_group_name_H-M   'P 1'
_cell_length_a   4.44796018
_cell_length_b   4.44796018
_cell_length_c   4.44796018
_cell_angle_alpha   90.00000000
_cell_angle_beta   90.00000000
_cell_angle_gamma   90.00000000
_symmetry_Int_Tables_number   1
_chemical_formula_structural   Li3(PS2)2
_chemical_formula_sum   'Li3 P2 S4'
_cell_volume   88.00000000
_cell_formula_units_Z   1
loop_
 _symmetry_equiv_pos_site_id
 _symmetry_equiv_pos_as_xyz
  1  'x, y, z'
loop_
 _atom_site_type_symbol
 _atom_site_label
 _atom_site_symmetry_multiplicity
 _atom_site_fract_x
 _atom_site_fract_y
 _atom_site_fract_z
 _atom_site_occupancy
  Li  Li0  1  0.91555845  0.03942670  0.00468316  1
  Li  Li1  1  0.18353509  0.25215971  0.32827131  1
  Li  Li2  1  0.12865364  0.36078677  0.56016213  1
  P  P3  1  0.24781374  0.48436734  0.96662697  1
  P  P4  1  0.43425032  0.68069989  0.10484233  1
  S  S5  1  0.59613229  0.86249419  0.55178835  1
  S  S6  1  0.72388914  0.06698376  0.68266206  1
  S  S7  1  0.75567301  0.32434881  0.02728641  1
  S  S8  1  0.85968324  0.45302426  0.40009800  1
