# generated using pymatgen
data_LiLaTi2O4
_symmetry_space_group_name_H-M   'P 1'
_cell_length_a   4.10590327
_cell_length_b   4.22542491
_cell_length_c   4.66880696
_cell_angle_alpha   90.00000000
_cell_angle_beta   90.00000000
_cell_angle_gamma   90.00000000
_symmetry_Int_Tables_number   1
_chemical_formula_structural   LiLaTi2O4
_chemical_formula_sum   'Li1 La1 Ti2 O4'
_cell_volume   81.00000000
_cell_formula_units_Z   1
loop_
 _symmetry_equiv_pos_site_id
 _symmetry_equiv_pos_as_xyz
  1  'x, y, z'
loop_
 _atom_site_type_symbol
 _atom_site_label
 _atom_site_symmetry_multiplicity
 _atom_site_fract_x
 _atom_site_fract_y
 _atom_site_fract_z
 _atom_site_occupancy
  Li  Li0  1  0.08419814  0.94264985  0.01913223  1
  Ti  Ti1  1  0.11486182  0.24328529  0.31186622  1
  Ti  Ti2  1  0.22352554  0.32429496  0.64787740  1
  O  O3  1  0.45010287  0.54786856  0.91099011  1
  O  O4  1  0.47664071  0.82034491  0.29645439  1
  O  O5  1  0.72417659  0.08371511  0.61223315  1
  O  O6  1  0.81586370  0.16216448  0.95487312  1
  La  La7  1  0.93539056  0.40058040  0.24039630  1
