# generated using pymatgen
data_Li3AlO4
_symmetry_space_group_name_H-M   'P 1'
_cell_length_a   5.55873546
_cell_length_b   5.55873546
_cell_length_c   10.48881065
_cell_angle_alpha   90.00000000
_cell_angle_beta   90.00000000
_cell_angle_gamma   120.00000000
_symmetry_Int_Tables_number   1
_chemical_formula_structural   Li3AlO4
_chemical_formula_sum   'Li3 Al1 O4'
_cell_volume   280.67833376
_cell_formula_units_Z   1
loop_
 _symmetry_equiv_pos_site_id
 _symmetry_equiv_pos_as_xyz
  1  'x, y, z'
loop_
 _atom_site_type_symbol
 _atom_site_label
 _atom_site_symmetry_multiplicity
 _atom_site_fract_x
 _atom_site_fract_y
 _atom_site_fract_z
 _atom_site_occupancy
  Li  Li0  1  0.90055281  0.90812607  0.04926337  1
  Li  Li1  1  0.13522939  0.12567743  0.23038168  1
  Li  Li2  1  0.31165028  0.41079375  0.58891739  1
  Al  Al3  1  0.32046952  0.56524441  0.00586092  1
  O  O4  1  0.46980981  0.82489930  0.21657293  1
  O  O5  1  0.65608526  0.96515943  0.72411933  1
  O  O6  1  0.81299828  0.19833280  0.96467951  1
  O  O7  1  0.91816814  0.37251174  0.34924970  1
