# generated using pymatgen
data_Li4ScBr5
_symmetry_space_group_name_H-M   'P 1'
_cell_length_a   12.35047481
_cell_length_b   13.09285992
_cell_length_c   11.00061542
_cell_angle_alpha   114.37859117
_cell_angle_beta   82.62936121
_cell_angle_gamma   94.74477115
_symmetry_Int_Tables_number   1
_chemical_formula_structural   Li4ScBr5
_chemical_formula_sum   'Li4 Sc1 Br5'
_cell_volume   1605.96809135
_cell_formula_units_Z   1
loop_
 _symmetry_equiv_pos_site_id
 _symmetry_equiv_pos_as_xyz
  1  'x, y, z'
loop_
 _atom_site_type_symbol
 _atom_site_label
 _atom_site_symmetry_multiplicity
 _atom_site_fract_x
 _atom_site_fract_y
 _atom_site_fract_z
 _atom_site_occupancy
  Li  Li0  1  0.92147673  0.91080915  0.99789709  1
  Li  Li1  1  0.05729519  0.20368660  0.21952376  1
  Li  Li2  1  0.16469037  0.37418843  0.56491168  1
  Li  Li3  1  0.29175758  0.46108200  0.73605065  1
  Sc  Sc4  1  0.49313481  0.67947169  0.99350884  1
  Br  Br5  1  0.54098735  0.82555538  0.28427063  1
  Br  Br6  1  0.56165154  0.98920569  0.47797326  1
  Br  Br7  1  0.61101504  0.09262161  0.85243608  1
  Br  Br8  1  0.79546266  0.38877160  0.08794310  1
  Br  Br9  1  0.92506150  0.52720861  0.35447308  1
