# generated using pymatgen
data_Li2AlO3
_symmetry_space_group_name_H-M   'P 1'
_cell_length_a   6.93715874
_cell_length_b   6.93715874
_cell_length_c   9.70519677
_cell_angle_alpha   90.00000000
_cell_angle_beta   90.00000000
_cell_angle_gamma   120.00000000
_symmetry_Int_Tables_number   1
_chemical_formula_structural   Li2AlO3
_chemical_formula_sum   'Li2 Al1 O3'
_cell_volume   404.48110689
_cell_formula_units_Z   1
loop_
 _symmetry_equiv_pos_site_id
 _symmetry_equiv_pos_as_xyz
  1  'x, y, z'
loop_
 _atom_site_type_symbol
 _atom_site_label
 _atom_site_symmetry_multiplicity
 _atom_site_fract_x
 _atom_site_fract_y
 _atom_site_fract_z
 _atom_site_occupancy
  Li  Li0  1  0.02662585  0.95765066  0.99302689  1
  Li  Li1  1  0.13039528  0.19491712  0.33926754  1
  Al  Al2  1  0.40964193  0.53304166  0.94414746  1
  O  O3  1  0.45702012  0.80117615  0.40621524  1
  O  O4  1  0.76603119  0.02519647  0.65877307  1
  O  O5  1  0.88372005  0.30187231  0.11644399  1
