# generated using pymatgen
data_LiTaF3
_symmetry_space_group_name_H-M   'P 1'
_cell_length_a   14.49605611
_cell_length_b   14.49605611
_cell_length_c   13.88399950
_cell_angle_alpha   90.00000000
_cell_angle_beta   90.00000000
_cell_angle_gamma   90.00000000
_symmetry_Int_Tables_number   1
_chemical_formula_structural   LiTaF3
_chemical_formula_sum   'Li3 Ta3 F9'
_cell_volume   2917.52315756
_cell_formula_units_Z   3
loop_
 _symmetry_equiv_pos_site_id
 _symmetry_equiv_pos_as_xyz
  1  'x, y, z'
loop_
 _atom_site_type_symbol
 _atom_site_label
 _atom_site_symmetry_multiplicity
 _atom_site_fract_x
 _atom_site_fract_y
 _atom_site_fract_z
 _atom_site_occupancy
  Li  Li0  1  0.99236809  0.08515670  0.92811810  1
  Li  Li1  1  0.06278689  0.05386951  0.20940551  1
  Li  Li2  1  0.22451980  0.16658024  0.41989448  1
  Ta  Ta3  1  0.28028430  0.40192189  0.44330449  1
  Ta  Ta4  1  0.23140947  0.41912342  0.73323896  1
  Ta  Ta5  1  0.34553735  0.51695200  0.96268692  1
  F  F6  1  0.38682941  0.70281747  0.06803691  1
  F  F7  1  0.40819113  0.84337831  0.27524816  1
  F  F8  1  0.58160177  0.89581090  0.36411774  1
  F  F9  1  0.59447084  0.02788173  0.53831782  1
  F  F10  1  0.59250336  0.15655523  0.66130883  1
  F  F11  1  0.67589687  0.09423657  0.97057467  1
  F  F12  1  0.81430028  0.23248894  0.12596414  1
  F  F13  1  0.82493567  0.31427760  0.30917794  1
  F  F14  1  0.83624623  0.55655163  0.37077749  1
