# generated using pymatgen
data_Li6Al4N7
_symmetry_space_group_name_H-M   'P 1'
_cell_length_a   14.70712796
_cell_length_b   8.01786382
_cell_length_c   8.70674113
_cell_angle_alpha   84.43724287
_cell_angle_beta   70.48854964
_cell_angle_gamma   116.12527588
_symmetry_Int_Tables_number   1
_chemical_formula_structural   Li6Al4N7
_chemical_formula_sum   'Li6 Al4 N7'
_cell_volume   831.96822873
_cell_formula_units_Z   1
loop_
 _symmetry_equiv_pos_site_id
 _symmetry_equiv_pos_as_xyz
  1  'x, y, z'
loop_
 _atom_site_type_symbol
 _atom_site_label
 _atom_site_symmetry_multiplicity
 _atom_site_fract_x
 _atom_site_fract_y
 _atom_site_fract_z
 _atom_site_occupancy
  Li  Li0  1  0.06873424  0.09086879  0.94588447  1
  Li  Li1  1  0.11398418  0.11541407  0.06284235  1
  Li  Li2  1  0.11930270  0.18258462  0.23687381  1
  Li  Li3  1  0.08978003  0.23487843  0.47414630  1
  Li  Li4  1  0.19509538  0.37241276  0.58830030  1
  Li  Li5  1  0.27248976  0.56091176  0.83176689  1
  Al  Al6  1  0.39038273  0.55811363  0.85589068  1
  Al  Al7  1  0.39894885  0.59035311  0.08076890  1
  Al  Al8  1  0.50622297  0.81003200  0.32679481  1
  Al  Al9  1  0.52042729  0.87105354  0.38932517  1
  N  N10  1  0.65506431  0.01492195  0.50379415  1
  N  N11  1  0.67369079  0.98442277  0.71127672  1
  N  N12  1  0.73510403  0.16071620  0.94449899  1
  N  N13  1  0.70794834  0.28017553  0.97798877  1
  N  N14  1  0.74747543  0.38322015  0.17650815  1
  N  N15  1  0.92954023  0.43547188  0.27444758  1
  N  N16  1  0.02463080  0.51888804  0.55904904  1
