# generated using pymatgen
data_Li2Sc2I7
_symmetry_space_group_name_H-M   'P 1'
_cell_length_a   4.37161614
_cell_length_b   4.72837086
_cell_length_c   5.51507342
_cell_angle_alpha   90.00000000
_cell_angle_beta   90.00000000
_cell_angle_gamma   90.00000000
_symmetry_Int_Tables_number   1
_chemical_formula_structural   Li2Sc2I7
_chemical_formula_sum   'Li2 Sc2 I7'
_cell_volume   114.00000000
_cell_formula_units_Z   1
loop_
 _symmetry_equiv_pos_site_id
 _symmetry_equiv_pos_as_xyz
  1  'x, y, z'
loop_
 _atom_site_type_symbol
 _atom_site_label
 _atom_site_symmetry_multiplicity
 _atom_site_fract_x
 _atom_site_fract_y
 _atom_site_fract_z
 _atom_site_occupancy
  Li  Li0  1  0.97544065  0.95235476  0.92358240  1
  Li  Li1  1  0.09197233  0.18691801  0.29843408  1
  Sc  Sc2  1  0.25323095  0.36271559  0.56071020  1
  Sc  Sc3  1  0.27395244  0.44482648  0.72788981  1
  I  I4  1  0.44911885  0.58512882  0.97868194  1
  I  I5  1  0.47185232  0.66866760  0.18141677  1
  I  I6  1  0.50616041  0.87753599  0.48804661  1
  I  I7  1  0.60927333  0.05891119  0.68540215  1
  I  I8  1  0.82221277  0.25616037  0.98806762  1
  I  I9  1  0.81967963  0.25216970  0.22233423  1
  I  I10  1  0.81084396  0.39388593  0.39285071  1
