# generated using pymatgen
data_Li2InGaS7
_symmetry_space_group_name_H-M   'P 1'
_cell_length_a   13.33189144
_cell_length_b   13.33189144
_cell_length_c   12.14590435
_cell_angle_alpha   90.00000000
_cell_angle_beta   90.00000000
_cell_angle_gamma   90.00000000
_symmetry_Int_Tables_number   1
_chemical_formula_structural   Li2InGaS7
_chemical_formula_sum   'Li2 In1 Ga1 S7'
_cell_volume   2158.80489441
_cell_formula_units_Z   1
loop_
 _symmetry_equiv_pos_site_id
 _symmetry_equiv_pos_as_xyz
  1  'x, y, z'
loop_
 _atom_site_type_symbol
 _atom_site_label
 _atom_site_symmetry_multiplicity
 _atom_site_fract_x
 _atom_site_fract_y
 _atom_site_fract_z
 _atom_site_occupancy
  Li  Li0  1  0.06849343  0.03475936  0.90258300  1
  Li  Li1  1  0.01591242  0.09523785  0.22962746  1
  Ga  Ga2  1  0.13590215  0.35389772  0.55901544  1
  S  S3  1  0.33677381  0.42034590  0.64938653  1
  S  S4  1  0.40530054  0.49845249  0.88668214  1
  S  S5  1  0.37449945  0.72554240  0.19520677  1
  S  S6  1  0.53028257  0.86419175  0.39593275  1
  S  S7  1  0.69974535  0.09956454  0.59512241  1
  S  S8  1  0.62921235  0.08821348  0.84001359  1
  S  S9  1  0.80195518  0.32506306  0.05761416  1
  In  In10  1  0.87137727  0.45684136  0.31243183  1
