# generated using pymatgen
data_Li2TaCl10
_symmetry_space_group_name_H-M   'P 1'
_cell_length_a   11.40889029
_cell_length_b   11.40889029
_cell_length_c   11.60480364
_cell_angle_alpha   90.00000000
_cell_angle_beta   90.00000000
_cell_angle_gamma   90.00000000
_symmetry_Int_Tables_number   1
_chemical_formula_structural   Li2TaCl10
_chemical_formula_sum   'Li2 Ta1 Cl10'
_cell_volume   1510.51347665
_cell_formula_units_Z   1
loop_
 _symmetry_equiv_pos_site_id
 _symmetry_equiv_pos_as_xyz
  1  'x, y, z'
loop_
 _atom_site_type_symbol
 _atom_site_label
 _atom_site_symmetry_multiplicity
 _atom_site_fract_x
 _atom_site_fract_y
 _atom_site_fract_z
 _atom_site_occupancy
  Li  Li0  1  0.05206069  0.06191792  0.95216437  1
  Li  Li1  1  0.17404367  0.04190085  0.16400525  1
  Ta  Ta2  1  0.24312645  0.24201412  0.46670074  1
  Cl  Cl3  1  0.27804239  0.33928512  0.52287275  1
  Cl  Cl4  1  0.21952302  0.41775828  0.76826729  1
  Cl  Cl5  1  0.46908074  0.52445883  0.99505934  1
  Cl  Cl6  1  0.44599765  0.72610871  0.27531211  1
  Cl  Cl7  1  0.62489258  0.89895081  0.34152005  1
  Cl  Cl8  1  0.54470325  0.06163086  0.57248224  1
  Cl  Cl9  1  0.74319001  0.05795136  0.83482342  1
  Cl  Cl10  1  0.76060812  0.29727642  0.94500195  1
  Cl  Cl11  1  0.82267859  0.34244148  0.19217056  1
  Cl  Cl12  1  0.91354311  0.41549934  0.35258805  1
