# generated using pymatgen
data_LiZrF3
_symmetry_space_group_name_H-M   'P 1'
_cell_length_a   10.84033686
_cell_length_b   10.84033686
_cell_length_c   10.17353075
_cell_angle_alpha   90.00000000
_cell_angle_beta   90.00000000
_cell_angle_gamma   90.00000000
_symmetry_Int_Tables_number   1
_chemical_formula_structural   LiZrF3
_chemical_formula_sum   'Li1 Zr1 F3'
_cell_volume   1195.52113443
_cell_formula_units_Z   1
loop_
 _symmetry_equiv_pos_site_id
 _symmetry_equiv_pos_as_xyz
  1  'x, y, z'
loop_
 _atom_site_type_symbol
 _atom_site_label
 _atom_site_symmetry_multiplicity
 _atom_site_fract_x
 _atom_site_fract_y
 _atom_site_fract_z
 _atom_site_occupancy
  Li  Li0  1  0.02071562  0.04923050  0.03343351  1
  Zr  Zr1  1  0.12608092  0.41259428  0.43763899  1
  F  F2  1  0.45561003  0.58217799  0.05958386  1
  F  F3  1  0.63079427  0.89929084  0.61773403  1
  F  F4  1  0.77146893  0.30525222  0.17078917  1
