# generated using pymatgen
data_LiTi2(PO3)4
_symmetry_space_group_name_H-M   'P 1'
_cell_length_a   4.98029483
_cell_length_b   5.14093319
_cell_length_c   5.31180220
_cell_angle_alpha   90.00000000
_cell_angle_beta   90.00000000
_cell_angle_gamma   90.00000000
_symmetry_Int_Tables_number   1
_chemical_formula_structural   LiTi2(PO3)4
_chemical_formula_sum   'Li1 Ti2 P4 O12'
_cell_volume   136.00000000
_cell_formula_units_Z   1
loop_
 _symmetry_equiv_pos_site_id
 _symmetry_equiv_pos_as_xyz
  1  'x, y, z'
loop_
 _atom_site_type_symbol
 _atom_site_label
 _atom_site_symmetry_multiplicity
 _atom_site_fract_x
 _atom_site_fract_y
 _atom_site_fract_z
 _atom_site_occupancy
  Li  Li0  1  0.03665172  0.05048190  0.01188605  1
  Ti  Ti1  1  0.01472891  0.08045305  0.07275427  1
  Ti  Ti2  1  0.14095590  0.07143295  0.19537433  1
  P  P3  1  0.13411337  0.26563299  0.48023813  1
  P  P4  1  0.15395598  0.28492278  0.61209989  1
  P  P5  1  0.28300638  0.43087301  0.73165200  1
  P  P6  1  0.30951921  0.44666540  0.83965104  1
  O  O7  1  0.35530500  0.66781765  0.97338219  1
  O  O8  1  0.49239076  0.72702216  0.11869622  1
  O  O9  1  0.49185257  0.81389389  0.32584083  1
  O  O10  1  0.51582178  0.75468508  0.44562309  1
  O  O11  1  0.53613031  0.84143296  0.57155565  1
  O  O12  1  0.66825611  0.04835965  0.74471655  1
  O  O13  1  0.72606592  0.19644431  0.79300538  1
  O  O14  1  0.72210129  0.14159916  0.87922267  1
  O  O15  1  0.85251192  0.18908991  0.01493466  1
  O  O16  1  0.90181461  0.31376165  0.19811818  1
  O  O17  1  0.95253914  0.42534264  0.28481748  1
  O  O18  1  0.91693218  0.48622627  0.50761071  1
