# generated using pymatgen
data_LiAlO3
_symmetry_space_group_name_H-M   'P 1'
_cell_length_a   9.79786457
_cell_length_b   9.79786457
_cell_length_c   18.54792098
_cell_angle_alpha   90.00000000
_cell_angle_beta   90.00000000
_cell_angle_gamma   120.00000000
_symmetry_Int_Tables_number   1
_chemical_formula_structural   LiAlO3
_chemical_formula_sum   'Li1 Al1 O3'
_cell_volume   1542.01547926
_cell_formula_units_Z   1
loop_
 _symmetry_equiv_pos_site_id
 _symmetry_equiv_pos_as_xyz
  1  'x, y, z'
loop_
 _atom_site_type_symbol
 _atom_site_label
 _atom_site_symmetry_multiplicity
 _atom_site_fract_x
 _atom_site_fract_y
 _atom_site_fract_z
 _atom_site_occupancy
  Li  Li0  1  0.04847531  0.93584905  0.90993872  1
  Al  Al1  1  0.26295283  0.29612467  0.60139807  1
  O  O2  1  0.40555081  0.63900701  0.14159882  1
  O  O3  1  0.63853293  0.02130121  0.48084774  1
  O  O4  1  0.79919004  0.20883137  0.13185747  1
