# generated using pymatgen
data_Li2YNb3F5
_symmetry_space_group_name_H-M   'P 1'
_cell_length_a   13.34971937
_cell_length_b   13.34971937
_cell_length_c   14.12372763
_cell_angle_alpha   90.00000000
_cell_angle_beta   90.00000000
_cell_angle_gamma   90.00000000
_symmetry_Int_Tables_number   1
_chemical_formula_structural   Li2YNb3F5
_chemical_formula_sum   'Li2 Y1 Nb3 F5'
_cell_volume   2517.06022153
_cell_formula_units_Z   1
loop_
 _symmetry_equiv_pos_site_id
 _symmetry_equiv_pos_as_xyz
  1  'x, y, z'
loop_
 _atom_site_type_symbol
 _atom_site_label
 _atom_site_symmetry_multiplicity
 _atom_site_fract_x
 _atom_site_fract_y
 _atom_site_fract_z
 _atom_site_occupancy
  Li  Li0  1  0.97272871  0.95684672  0.07235242  1
  Li  Li1  1  0.05927976  0.23395104  0.33779461  1
  Nb  Nb2  1  0.09581821  0.25121695  0.56098298  1
  Nb  Nb3  1  0.28437827  0.53807344  0.64919670  1
  Nb  Nb4  1  0.46149119  0.54278679  0.00448931  1
  F  F5  1  0.54421148  0.79669935  0.22969084  1
  F  F6  1  0.48878037  0.95823557  0.42236664  1
  F  F7  1  0.71552120  0.94118031  0.65482936  1
  F  F8  1  0.68988522  0.21110947  0.86693284  1
  F  F9  1  0.74171279  0.30224880  0.07951823  1
  Y  Y10  1  0.82785728  0.38528655  0.40903689  1
