# generated using pymatgen
data_Li3TaCl5
_symmetry_space_group_name_H-M   'P 1'
_cell_length_a   14.94286126
_cell_length_b   14.94286126
_cell_length_c   16.09083184
_cell_angle_alpha   90.00000000
_cell_angle_beta   90.00000000
_cell_angle_gamma   90.00000000
_symmetry_Int_Tables_number   1
_chemical_formula_structural   Li3TaCl5
_chemical_formula_sum   'Li3 Ta1 Cl5'
_cell_volume   3592.90740433
_cell_formula_units_Z   1
loop_
 _symmetry_equiv_pos_site_id
 _symmetry_equiv_pos_as_xyz
  1  'x, y, z'
loop_
 _atom_site_type_symbol
 _atom_site_label
 _atom_site_symmetry_multiplicity
 _atom_site_fract_x
 _atom_site_fract_y
 _atom_site_fract_z
 _atom_site_occupancy
  Li  Li0  1  0.90014689  0.98915854  0.05570576  1
  Li  Li1  1  0.20932533  0.26926999  0.21111328  1
  Li  Li2  1  0.18393642  0.32593731  0.65564281  1
  Ta  Ta3  1  0.40570965  0.53901065  0.90589893  1
  Cl  Cl4  1  0.50405720  0.81058626  0.19797306  1
  Cl  Cl5  1  0.55130296  0.94410387  0.53679489  1
  Cl  Cl6  1  0.70038496  0.14258618  0.79368622  1
  Cl  Cl7  1  0.68317204  0.26630664  0.98677006  1
  Cl  Cl8  1  0.96639592  0.52954563  0.23805578  1
