# generated using pymatgen
data_Li3GeS5
_symmetry_space_group_name_H-M   'P 1'
_cell_length_a   3.99870354
_cell_length_b   4.72315928
_cell_length_c   4.97709642
_cell_angle_alpha   90.00000000
_cell_angle_beta   90.00000000
_cell_angle_gamma   90.00000000
_symmetry_Int_Tables_number   1
_chemical_formula_structural   Li3GeS5
_chemical_formula_sum   'Li3 Ge1 S5'
_cell_volume   94.00000000
_cell_formula_units_Z   1
loop_
 _symmetry_equiv_pos_site_id
 _symmetry_equiv_pos_as_xyz
  1  'x, y, z'
loop_
 _atom_site_type_symbol
 _atom_site_label
 _atom_site_symmetry_multiplicity
 _atom_site_fract_x
 _atom_site_fract_y
 _atom_site_fract_z
 _atom_site_occupancy
  Li  Li0  1  0.06923020  0.96622866  0.98322932  1
  Li  Li1  1  0.13607587  0.13147165  0.34118873  1
  Li  Li2  1  0.25228346  0.31615642  0.51429048  1
  Ge  Ge3  1  0.23777048  0.60441111  0.78544489  1
  S  S4  1  0.38421696  0.62472999  0.11840543  1
  S  S5  1  0.59533182  0.85419135  0.37577531  1
  S  S6  1  0.74019410  0.06611975  0.69482035  1
  S  S7  1  0.82353298  0.18884984  0.04022311  1
  S  S8  1  0.84024837  0.46666266  0.24354221  1
