# generated using pymatgen
data_Li2Y2(NbCl2)3
_symmetry_space_group_name_H-M   'P 1'
_cell_length_a   13.74059354
_cell_length_b   13.74059354
_cell_length_c   14.58991633
_cell_angle_alpha   90.00000000
_cell_angle_beta   90.00000000
_cell_angle_gamma   90.00000000
_symmetry_Int_Tables_number   1
_chemical_formula_structural   Li2Y2(NbCl2)3
_chemical_formula_sum   'Li2 Y2 Nb3 Cl6'
_cell_volume   2754.63326092
_cell_formula_units_Z   1
loop_
 _symmetry_equiv_pos_site_id
 _symmetry_equiv_pos_as_xyz
  1  'x, y, z'
loop_
 _atom_site_type_symbol
 _atom_site_label
 _atom_site_symmetry_multiplicity
 _atom_site_fract_x
 _atom_site_fract_y
 _atom_site_fract_z
 _atom_site_occupancy
  Li  Li0  1  0.93805456  0.09260441  0.02762377  1
  Li  Li1  1  0.03341712  0.14220312  0.26562265  1
  Nb  Nb2  1  0.21896602  0.17706382  0.47535573  1
  Nb  Nb3  1  0.16153306  0.29170095  0.52360623  1
  Nb  Nb4  1  0.34708022  0.44498207  0.87925285  1
  Cl  Cl5  1  0.36024372  0.58199534  0.04060171  1
  Cl  Cl6  1  0.38652370  0.83353824  0.14067168  1
  Cl  Cl7  1  0.59036799  0.84568279  0.50517007  1
  Cl  Cl8  1  0.56647193  0.92205089  0.57460566  1
  Cl  Cl9  1  0.72801689  0.18877958  0.73515874  1
  Cl  Cl10  1  0.73368819  0.20619533  0.98769941  1
  Y  Y11  1  0.85656967  0.42258550  0.15003682  1
  Y  Y12  1  0.86217305  0.58233073  0.41066390  1
