# generated using pymatgen
data_Li2Ti3(PO3)4
_symmetry_space_group_name_H-M   'P 1'
_cell_length_a   5.38321261
_cell_length_b   5.38321261
_cell_length_c   5.38321261
_cell_angle_alpha   90.00000000
_cell_angle_beta   90.00000000
_cell_angle_gamma   90.00000000
_symmetry_Int_Tables_number   1
_chemical_formula_structural   Li2Ti3(PO3)4
_chemical_formula_sum   'Li2 Ti3 P4 O12'
_cell_volume   156.00000000
_cell_formula_units_Z   1
loop_
 _symmetry_equiv_pos_site_id
 _symmetry_equiv_pos_as_xyz
  1  'x, y, z'
loop_
 _atom_site_type_symbol
 _atom_site_label
 _atom_site_symmetry_multiplicity
 _atom_site_fract_x
 _atom_site_fract_y
 _atom_site_fract_z
 _atom_site_occupancy
  Li  Li0  1  0.94257596  0.01423852  0.96402788  1
  Li  Li1  1  0.10061820  0.14974115  0.07893337  1
  Ti  Ti2  1  0.14180920  0.23188090  0.25152135  1
  Ti  Ti3  1  0.07950614  0.20376333  0.38234749  1
  Ti  Ti4  1  0.25221760  0.39515143  0.49200334  1
  P  P5  1  0.28533282  0.37432031  0.68340922  1
  P  P6  1  0.21962188  0.44274314  0.80439330  1
  P  P7  1  0.26587497  0.57936280  0.86196185  1
  P  P8  1  0.41635657  0.62851994  0.96598868  1
  O  O9  1  0.48407293  0.75900835  0.10330437  1
  O  O10  1  0.50907683  0.76554112  0.29155280  1
  O  O11  1  0.58600839  0.77855311  0.35786406  1
  O  O12  1  0.67043178  0.97249103  0.53802067  1
  O  O13  1  0.70735019  0.96216323  0.67883210  1
  O  O14  1  0.65998568  0.11716412  0.70402797  1
  O  O15  1  0.65706865  0.08882201  0.85113360  1
  O  O16  1  0.79588224  0.21778088  0.04403030  1
  O  O17  1  0.88943821  0.33718193  0.03084405  1
  O  O18  1  0.80040139  0.45310063  0.32468946  1
  O  O19  1  0.85360140  0.54813790  0.28309185  1
  O  O20  1  0.92224108  0.60496934  0.55514455  1
