# generated using pymatgen
data_LiYNb2F3
_symmetry_space_group_name_H-M   'P 1'
_cell_length_a   9.06107119
_cell_length_b   9.06107119
_cell_length_c   9.94138544
_cell_angle_alpha   90.00000000
_cell_angle_beta   90.00000000
_cell_angle_gamma   90.00000000
_symmetry_Int_Tables_number   1
_chemical_formula_structural   LiYNb2F3
_chemical_formula_sum   'Li1 Y1 Nb2 F3'
_cell_volume   816.21767876
_cell_formula_units_Z   1
loop_
 _symmetry_equiv_pos_site_id
 _symmetry_equiv_pos_as_xyz
  1  'x, y, z'
loop_
 _atom_site_type_symbol
 _atom_site_label
 _atom_site_symmetry_multiplicity
 _atom_site_fract_x
 _atom_site_fract_y
 _atom_site_fract_z
 _atom_site_occupancy
  Li  Li0  1  0.09013349  0.90700403  0.07027235  1
  Nb  Nb1  1  0.05069548  0.13132039  0.38862804  1
  Nb  Nb2  1  0.20867410  0.43387266  0.65779019  1
  F  F3  1  0.51609943  0.62063236  0.17327095  1
  F  F4  1  0.52832187  0.96930209  0.52323022  1
  F  F5  1  0.69720865  0.15202473  0.81136759  1
  Y  Y6  1  0.85525016  0.42761562  0.31858236  1
