# generated using pymatgen
data_Li3GaO7
_symmetry_space_group_name_H-M   'P 1'
_cell_length_a   10.92708723
_cell_length_b   10.92708723
_cell_length_c   10.87367948
_cell_angle_alpha   90.00000000
_cell_angle_beta   90.00000000
_cell_angle_gamma   90.00000000
_symmetry_Int_Tables_number   1
_chemical_formula_structural   Li3GaO7
_chemical_formula_sum   'Li3 Ga1 O7'
_cell_volume   1298.33076211
_cell_formula_units_Z   1
loop_
 _symmetry_equiv_pos_site_id
 _symmetry_equiv_pos_as_xyz
  1  'x, y, z'
loop_
 _atom_site_type_symbol
 _atom_site_label
 _atom_site_symmetry_multiplicity
 _atom_site_fract_x
 _atom_site_fract_y
 _atom_site_fract_z
 _atom_site_occupancy
  Li  Li0  1  0.09052383  0.97777399  0.07470543  1
  Li  Li1  1  0.18555232  0.16740670  0.17464037  1
  Li  Li2  1  0.24535160  0.33407360  0.44725044  1
  Ga  Ga3  1  0.34146151  0.53214152  0.65988447  1
  O  O4  1  0.41879702  0.60860124  0.86084235  1
  O  O5  1  0.45620109  0.72768622  0.11887381  1
  O  O6  1  0.45876399  0.83189448  0.44014630  1
  O  O7  1  0.59616489  0.02134324  0.63830030  1
  O  O8  1  0.70564484  0.26175668  0.96576689  1
  O  O9  1  0.85562337  0.31087298  0.07389068  1
  O  O10  1  0.89627505  0.39502691  0.38276890  1
