# generated using pymatgen
data_Li6Y2NbCl4
_symmetry_space_group_name_H-M   'P 1'
_cell_length_a   11.82173202
_cell_length_b   11.82173202
_cell_length_c   12.79636853
_cell_angle_alpha   90.00000000
_cell_angle_beta   90.00000000
_cell_angle_gamma   90.00000000
_symmetry_Int_Tables_number   1
_chemical_formula_structural   Li6Y2NbCl4
_chemical_formula_sum   'Li6 Y2 Nb1 Cl4'
_cell_volume   1788.33534319
_cell_formula_units_Z   1
loop_
 _symmetry_equiv_pos_site_id
 _symmetry_equiv_pos_as_xyz
  1  'x, y, z'
loop_
 _atom_site_type_symbol
 _atom_site_label
 _atom_site_symmetry_multiplicity
 _atom_site_fract_x
 _atom_site_fract_y
 _atom_site_fract_z
 _atom_site_occupancy
  Li  Li0  1  0.01984848  0.00508354  0.04270463  1
  Li  Li1  1  0.07065281  0.06017957  0.21429881  1
  Li  Li2  1  0.14073010  0.32063546  0.41162510  1
  Li  Li3  1  0.30210736  0.41914362  0.62053428  1
  Li  Li4  1  0.32586067  0.54531899  0.89127403  1
  Li  Li5  1  0.37412138  0.52541382  0.07465143  1
  Nb  Nb6  1  0.41872140  0.65146535  0.26417914  1
  Cl  Cl7  1  0.57513870  0.89769568  0.50093518  1
  Cl  Cl8  1  0.65724001  0.08508398  0.61281914  1
  Cl  Cl9  1  0.67756687  0.06954248  0.76263158  1
  Cl  Cl10  1  0.83226901  0.15633687  0.96193871  1
  Y  Y11  1  0.90586320  0.32031226  0.20871737  1
  Y  Y12  1  0.98087922  0.47119690  0.35901181  1
