# generated using pymatgen
data_Li2TiO3
_symmetry_space_group_name_H-M   'P 1'
_cell_length_a   6.87601797
_cell_length_b   6.87601797
_cell_length_c   6.87601797
_cell_angle_alpha   90.00000000
_cell_angle_beta   90.00000000
_cell_angle_gamma   90.00000000
_symmetry_Int_Tables_number   1
_chemical_formula_structural   Li2TiO3
_chemical_formula_sum   'Li2 Ti1 O3'
_cell_volume   325.09553786
_cell_formula_units_Z   1
loop_
 _symmetry_equiv_pos_site_id
 _symmetry_equiv_pos_as_xyz
  1  'x, y, z'
loop_
 _atom_site_type_symbol
 _atom_site_label
 _atom_site_symmetry_multiplicity
 _atom_site_fract_x
 _atom_site_fract_y
 _atom_site_fract_z
 _atom_site_occupancy
  Li  Li0  1  0.95398958  0.93561929  0.09267028  1
  Li  Li1  1  0.07522569  0.25136402  0.35404961  1
  Ti  Ti2  1  0.38921799  0.55999971  0.93848919  1
  O  O3  1  0.45841666  0.75058989  0.22519292  1
  O  O4  1  0.58772001  0.17629607  0.72189861  1
  O  O5  1  0.86566254  0.41005331  0.26215796  1
