# generated using pymatgen
data_LiAlO3
_symmetry_space_group_name_H-M   'P 1'
_cell_length_a   11.36509359
_cell_length_b   11.36509359
_cell_length_c   20.56449494
_cell_angle_alpha   90.00000000
_cell_angle_beta   90.00000000
_cell_angle_gamma   120.00000000
_symmetry_Int_Tables_number   1
_chemical_formula_structural   LiAlO3
_chemical_formula_sum   'Li1 Al1 O3'
_cell_volume   2300.35419999
_cell_formula_units_Z   1
loop_
 _symmetry_equiv_pos_site_id
 _symmetry_equiv_pos_as_xyz
  1  'x, y, z'
loop_
 _atom_site_type_symbol
 _atom_site_label
 _atom_site_symmetry_multiplicity
 _atom_site_fract_x
 _atom_site_fract_y
 _atom_site_fract_z
 _atom_site_occupancy
  Li  Li0  1  0.05008638  0.99858394  0.98880246  1
  Al  Al1  1  0.22344048  0.22972481  0.56165492  1
  O  O2  1  0.34932752  0.61271049  0.04866555  1
  O  O3  1  0.61650586  0.87627120  0.60882668  1
  O  O4  1  0.88747513  0.29281229  0.05530888  1
