# generated using pymatgen
data_LiTiO6
_symmetry_space_group_name_H-M   'P 1'
_cell_length_a   11.48845771
_cell_length_b   11.48845771
_cell_length_c   11.48845771
_cell_angle_alpha   90.00000000
_cell_angle_beta   90.00000000
_cell_angle_gamma   90.00000000
_symmetry_Int_Tables_number   1
_chemical_formula_structural   LiTiO6
_chemical_formula_sum   'Li1 Ti1 O6'
_cell_volume   1516.30019075
_cell_formula_units_Z   1
loop_
 _symmetry_equiv_pos_site_id
 _symmetry_equiv_pos_as_xyz
  1  'x, y, z'
loop_
 _atom_site_type_symbol
 _atom_site_label
 _atom_site_symmetry_multiplicity
 _atom_site_fract_x
 _atom_site_fract_y
 _atom_site_fract_z
 _atom_site_occupancy
  Li  Li0  1  0.96614605  0.93780467  0.91517727  1
  Ti  Ti1  1  0.22277811  0.10489814  0.29489690  1
  O  O2  1  0.22447445  0.41447789  0.69377038  1
  O  O3  1  0.31901781  0.62924143  0.93220019  1
  O  O4  1  0.44223563  0.82622567  0.30178920  1
  O  O5  1  0.66060065  0.10150754  0.56543869  1
  O  O6  1  0.80846668  0.26076383  0.01068896  1
  O  O7  1  0.78919565  0.39279121  0.32210584  1
