# generated using pymatgen
data_Li3Ti3Cl10
_symmetry_space_group_name_H-M   'P 1'
_cell_length_a   11.61638088
_cell_length_b   11.61638088
_cell_length_c   12.39269221
_cell_angle_alpha   90.00000000
_cell_angle_beta   90.00000000
_cell_angle_gamma   90.00000000
_symmetry_Int_Tables_number   1
_chemical_formula_structural   Li3Ti3Cl10
_chemical_formula_sum   'Li3 Ti3 Cl10'
_cell_volume   1672.27366327
_cell_formula_units_Z   1
loop_
 _symmetry_equiv_pos_site_id
 _symmetry_equiv_pos_as_xyz
  1  'x, y, z'
loop_
 _atom_site_type_symbol
 _atom_site_label
 _atom_site_symmetry_multiplicity
 _atom_site_fract_x
 _atom_site_fract_y
 _atom_site_fract_z
 _atom_site_occupancy
  Li  Li0  1  0.03814020  0.98475045  0.00177730  1
  Li  Li1  1  0.01778076  0.19298885  0.19956977  1
  Li  Li2  1  0.09773094  0.27171937  0.25327521  1
  Ti  Ti3  1  0.17379781  0.28151957  0.55322549  1
  Ti  Ti4  1  0.28511330  0.34604406  0.75122677  1
  Ti  Ti5  1  0.30346591  0.56833412  0.86539230  1
  Cl  Cl6  1  0.28900670  0.67077027  0.92322313  1
  Cl  Cl7  1  0.37470884  0.80377855  0.13705391  1
  Cl  Cl8  1  0.48115248  0.74748843  0.34345541  1
  Cl  Cl9  1  0.58321562  0.95935550  0.50605851  1
  Cl  Cl10  1  0.55108092  0.10024428  0.55028899  1
  Cl  Cl11  1  0.74311003  0.04735299  0.81225886  1
  Cl  Cl12  1  0.78079427  0.14199084  0.01043403  1
  Cl  Cl13  1  0.78396893  0.32547722  0.20351417  1
  Cl  Cl14  1  0.95715659  0.43738974  0.38497144  1
  Cl  Cl15  1  0.91273725  0.58737848  0.43077246  1
