# generated using pymatgen
data_LiScBr5
_symmetry_space_group_name_H-M   'P 1'
_cell_length_a   4.00896973
_cell_length_b   4.46332267
_cell_length_c   4.58271439
_cell_angle_alpha   90.00000000
_cell_angle_beta   90.00000000
_cell_angle_gamma   90.00000000
_symmetry_Int_Tables_number   1
_chemical_formula_structural   LiScBr5
_chemical_formula_sum   'Li1 Sc1 Br5'
_cell_volume   82.00000000
_cell_formula_units_Z   1
loop_
 _symmetry_equiv_pos_site_id
 _symmetry_equiv_pos_as_xyz
  1  'x, y, z'
loop_
 _atom_site_type_symbol
 _atom_site_label
 _atom_site_symmetry_multiplicity
 _atom_site_fract_x
 _atom_site_fract_y
 _atom_site_fract_z
 _atom_site_occupancy
  Li  Li0  1  0.93115579  0.97652474  0.97336455  1
  Sc  Sc1  1  0.11979693  0.22160905  0.29596088  1
  Br  Br2  1  0.22168695  0.51868811  0.73555440  1
  Br  Br3  1  0.41100344  0.60131476  0.14860372  1
  Br  Br4  1  0.54735139  0.91848531  0.58844914  1
  Br  Br5  1  0.76019255  0.25237571  0.82169087  1
  Br  Br6  1  0.83535296  0.42918517  0.18818391  1
