# generated using pymatgen
data_Li3La2Ga3O5
_symmetry_space_group_name_H-M   'P 1'
_cell_length_a   13.66094948
_cell_length_b   13.66094948
_cell_length_c   14.84891874
_cell_angle_alpha   90.00000000
_cell_angle_beta   90.00000000
_cell_angle_gamma   90.00000000
_symmetry_Int_Tables_number   1
_chemical_formula_structural   Li3La2Ga3O5
_chemical_formula_sum   'Li3 La2 Ga3 O5'
_cell_volume   2771.12809435
_cell_formula_units_Z   1
loop_
 _symmetry_equiv_pos_site_id
 _symmetry_equiv_pos_as_xyz
  1  'x, y, z'
loop_
 _atom_site_type_symbol
 _atom_site_label
 _atom_site_symmetry_multiplicity
 _atom_site_fract_x
 _atom_site_fract_y
 _atom_site_fract_z
 _atom_site_occupancy
  Li  Li0  1  0.08612142  0.07298871  0.90154882  1
  Li  Li1  1  0.17271973  0.20178521  0.12049155  1
  Li  Li2  1  0.12822183  0.29029520  0.36172961  1
  Ga  Ga3  1  0.18620159  0.46991451  0.52770200  1
  Ga  Ga4  1  0.28579041  0.40257791  0.84137013  1
  Ga  Ga5  1  0.43005475  0.65299336  0.01601340  1
  O  O6  1  0.45488685  0.71322760  0.24913104  1
  O  O7  1  0.59130593  0.93398151  0.45646184  1
  O  O8  1  0.68239435  0.00912655  0.70991717  1
  O  O9  1  0.60842973  0.06348236  0.82177073  1
  O  O10  1  0.79206335  0.17130474  0.96934259  1
  La  La11  1  0.74671884  0.37075047  0.18183182  1
  La  La12  1  0.94131788  0.57428756  0.33428727  1
