# generated using pymatgen
data_Li2Ta3F5
_symmetry_space_group_name_H-M   'P 1'
_cell_length_a   13.69731007
_cell_length_b   13.69731007
_cell_length_c   12.39179814
_cell_angle_alpha   90.00000000
_cell_angle_beta   90.00000000
_cell_angle_gamma   90.00000000
_symmetry_Int_Tables_number   1
_chemical_formula_structural   Li2Ta3F5
_chemical_formula_sum   'Li2 Ta3 F5'
_cell_volume   2324.90335772
_cell_formula_units_Z   1
loop_
 _symmetry_equiv_pos_site_id
 _symmetry_equiv_pos_as_xyz
  1  'x, y, z'
loop_
 _atom_site_type_symbol
 _atom_site_label
 _atom_site_symmetry_multiplicity
 _atom_site_fract_x
 _atom_site_fract_y
 _atom_site_fract_z
 _atom_site_occupancy
  Li  Li0  1  0.97474878  0.93085519  0.03779620  1
  Li  Li1  1  0.15433971  0.21055255  0.21320371  1
  Ta  Ta2  1  0.29834275  0.40951369  0.45674789  1
  Ta  Ta3  1  0.23667130  0.57777112  0.75720845  1
  Ta  Ta4  1  0.41265084  0.71890329  0.09217705  1
  F  F5  1  0.57007626  0.88013011  0.30849230  1
  F  F6  1  0.51767959  0.92316460  0.66038701  1
  F  F7  1  0.66901195  0.17751301  0.73767574  1
  F  F8  1  0.71961880  0.33402298  0.99498454  1
  F  F9  1  0.87224669  0.51336909  0.41515734  1
