# generated using pymatgen
data_LiYGaF5
_symmetry_space_group_name_H-M   'P 1'
_cell_length_a   8.86594850
_cell_length_b   8.86594850
_cell_length_c   9.41726897
_cell_angle_alpha   90.00000000
_cell_angle_beta   90.00000000
_cell_angle_gamma   90.00000000
_symmetry_Int_Tables_number   1
_chemical_formula_structural   LiYGaF5
_chemical_formula_sum   'Li2 Y2 Ga2 F10'
_cell_volume   740.24483044
_cell_formula_units_Z   2
loop_
 _symmetry_equiv_pos_site_id
 _symmetry_equiv_pos_as_xyz
  1  'x, y, z'
loop_
 _atom_site_type_symbol
 _atom_site_label
 _atom_site_symmetry_multiplicity
 _atom_site_fract_x
 _atom_site_fract_y
 _atom_site_fract_z
 _atom_site_occupancy
  Li  Li0  1  0.08439378  0.08789379  0.92596666  1
  Li  Li1  1  0.96720817  0.12283960  0.07036059  1
  Ga  Ga2  1  0.07147314  0.25954814  0.33200164  1
  Ga  Ga3  1  0.10908804  0.21762221  0.40499251  1
  F  F4  1  0.25222123  0.39054394  0.61035797  1
  F  F5  1  0.34116735  0.59831377  0.78203242  1
  F  F6  1  0.39414341  0.64840378  0.88387355  1
  F  F7  1  0.48830272  0.78149722  0.20653273  1
  F  F8  1  0.42288172  0.90063427  0.33874193  1
  F  F9  1  0.65622398  0.00830752  0.48976418  1
  F  F10  1  0.71177460  0.09616112  0.63408753  1
  F  F11  1  0.67189088  0.03479100  0.82408329  1
  F  F12  1  0.68596475  0.11606837  0.02767263  1
  F  F13  1  0.81288205  0.32792092  0.21080809  1
  Y  Y14  1  0.93883336  0.33638163  0.20236107  1
  Y  Y15  1  0.87677124  0.43339350  0.39871677  1
