# generated using pymatgen
data_Li6SiS5
_symmetry_space_group_name_H-M   'P 1'
_cell_length_a   4.59021708
_cell_length_b   4.59021708
_cell_length_c   5.60035501
_cell_angle_alpha   90.00000000
_cell_angle_beta   90.00000000
_cell_angle_gamma   90.00000000
_symmetry_Int_Tables_number   1
_chemical_formula_structural   Li6SiS5
_chemical_formula_sum   'Li6 Si1 S5'
_cell_volume   118.00000000
_cell_formula_units_Z   1
loop_
 _symmetry_equiv_pos_site_id
 _symmetry_equiv_pos_as_xyz
  1  'x, y, z'
loop_
 _atom_site_type_symbol
 _atom_site_label
 _atom_site_symmetry_multiplicity
 _atom_site_fract_x
 _atom_site_fract_y
 _atom_site_fract_z
 _atom_site_occupancy
  Li  Li0  1  0.97075148  0.09006473  0.96442341  1
  Li  Li1  1  0.03844915  0.16882850  0.15260396  1
  Li  Li2  1  0.12764878  0.18406544  0.39487256  1
  Li  Li3  1  0.30636239  0.36094166  0.56932980  1
  Li  Li4  1  0.29516424  0.49607640  0.90200379  1
  Li  Li5  1  0.45241416  0.71072449  0.10869921  1
  Si  Si6  1  0.55476089  0.81289347  0.36702398  1
  S  S7  1  0.51421873  0.88903398  0.56516569  1
  S  S8  1  0.57937642  0.12366433  0.72105993  1
  S  S9  1  0.77441836  0.15532008  0.89699478  1
  S  S10  1  0.93198924  0.33363707  0.20077494  1
  S  S11  1  0.85109284  0.55854762  0.47890561  1
