# generated using pymatgen
data_Li2TiPO10
_symmetry_space_group_name_H-M   'P 1'
_cell_length_a   4.12586887
_cell_length_b   4.12586887
_cell_length_c   5.63949728
_cell_angle_alpha   90.00000000
_cell_angle_beta   90.00000000
_cell_angle_gamma   90.00000000
_symmetry_Int_Tables_number   1
_chemical_formula_structural   Li2TiPO10
_chemical_formula_sum   'Li2 Ti1 P1 O10'
_cell_volume   96.00000000
_cell_formula_units_Z   1
loop_
 _symmetry_equiv_pos_site_id
 _symmetry_equiv_pos_as_xyz
  1  'x, y, z'
loop_
 _atom_site_type_symbol
 _atom_site_label
 _atom_site_symmetry_multiplicity
 _atom_site_fract_x
 _atom_site_fract_y
 _atom_site_fract_z
 _atom_site_occupancy
  Li  Li0  1  0.03412965  0.93835845  0.01532770  1
  Li  Li1  1  0.08157816  0.21275805  0.09907226  1
  Ti  Ti2  1  0.14914323  0.28341247  0.30817609  1
  P  P3  1  0.31264641  0.42935687  0.49086948  1
  O  O4  1  0.30137083  0.45841011  0.70680991  1
  O  O5  1  0.41755711  0.53146666  0.92692472  1
  O  O6  1  0.33644819  0.78822979  0.02926874  1
  O  O7  1  0.50872410  0.74851076  0.40579171  1
  O  O8  1  0.64939343  0.96653663  0.46791434  1
  O  O9  1  0.67698725  0.97022751  0.58323245  1
  O  O10  1  0.75706201  0.11720359  0.84194968  1
  O  O11  1  0.83050828  0.19957708  0.96751020  1
  O  O12  1  0.94882558  0.34704617  0.23702751  1
  O  O13  1  0.88440524  0.60230351  0.35071141  1
