# generated using pymatgen
data_LiTiO6
_symmetry_space_group_name_H-M   'P 1'
_cell_length_a   8.04924838
_cell_length_b   8.04924838
_cell_length_c   8.04924838
_cell_angle_alpha   90.00000000
_cell_angle_beta   90.00000000
_cell_angle_gamma   90.00000000
_symmetry_Int_Tables_number   1
_chemical_formula_structural   LiTiO6
_chemical_formula_sum   'Li1 Ti1 O6'
_cell_volume   521.51401781
_cell_formula_units_Z   1
loop_
 _symmetry_equiv_pos_site_id
 _symmetry_equiv_pos_as_xyz
  1  'x, y, z'
loop_
 _atom_site_type_symbol
 _atom_site_label
 _atom_site_symmetry_multiplicity
 _atom_site_fract_x
 _atom_site_fract_y
 _atom_site_fract_z
 _atom_site_occupancy
  Li  Li0  1  0.97838435  0.91448041  0.94503401  1
  Ti  Ti1  1  0.21896030  0.19205588  0.28883878  1
  O  O2  1  0.19128677  0.44507673  0.61810530  1
  O  O3  1  0.47234390  0.66397248  0.97006709  1
  O  O4  1  0.43732872  0.78689523  0.37490437  1
  O  O5  1  0.61606419  0.98204435  0.65105204  1
  O  O6  1  0.82298689  0.15228919  0.05403920  1
  O  O7  1  0.88672044  0.46449291  0.24476874  1
