# generated using pymatgen
data_Li3(PS4)2
_symmetry_space_group_name_H-M   'P 1'
_cell_length_a   5.14256318
_cell_length_b   5.14256318
_cell_length_c   5.14256318
_cell_angle_alpha   90.00000000
_cell_angle_beta   90.00000000
_cell_angle_gamma   90.00000000
_symmetry_Int_Tables_number   1
_chemical_formula_structural   Li3(PS4)2
_chemical_formula_sum   'Li3 P2 S8'
_cell_volume   136.00000000
_cell_formula_units_Z   1
loop_
 _symmetry_equiv_pos_site_id
 _symmetry_equiv_pos_as_xyz
  1  'x, y, z'
loop_
 _atom_site_type_symbol
 _atom_site_label
 _atom_site_symmetry_multiplicity
 _atom_site_fract_x
 _atom_site_fract_y
 _atom_site_fract_z
 _atom_site_occupancy
  Li  Li0  1  0.07180067  0.04211884  0.95174959  1
  Li  Li1  1  0.14199797  0.05386266  0.10451988  1
  Li  Li2  1  0.12874369  0.16846509  0.49861463  1
  P  P3  1  0.13618398  0.34698851  0.64685152  1
  P  P4  1  0.32339875  0.50438424  0.77220567  1
  S  S5  1  0.43873295  0.67375767  0.07058449  1
  S  S6  1  0.52779324  0.83065709  0.25762002  1
  S  S7  1  0.50618639  0.90521966  0.31627617  1
  S  S8  1  0.65507962  0.93842262  0.61212682  1
  S  S9  1  0.64146038  0.21740163  0.73637162  1
  S  S10  1  0.68333175  0.22056848  0.05820987  1
  S  S11  1  0.83159495  0.32589258  0.27367125  1
  S  S12  1  0.89687474  0.58593630  0.51555411  1
