# generated using pymatgen
data_LiNb3(AlCl2)2
_symmetry_space_group_name_H-M   'P 1'
_cell_length_a   6.44126099
_cell_length_b   5.90179216
_cell_length_c   7.48578950
_cell_angle_alpha   90.00000000
_cell_angle_beta   90.00000000
_cell_angle_gamma   90.00000000
_symmetry_Int_Tables_number   1
_chemical_formula_structural   LiNb3(AlCl2)2
_chemical_formula_sum   'Li1 Nb3 Al2 Cl4'
_cell_volume   284.57216530
_cell_formula_units_Z   1
loop_
 _symmetry_equiv_pos_site_id
 _symmetry_equiv_pos_as_xyz
  1  'x, y, z'
loop_
 _atom_site_type_symbol
 _atom_site_label
 _atom_site_symmetry_multiplicity
 _atom_site_fract_x
 _atom_site_fract_y
 _atom_site_fract_z
 _atom_site_occupancy
  Li  Li0  1  0.94614135  0.94836376  0.07924005  1
  Al  Al1  1  0.01370411  0.15507728  0.22143192  1
  Al  Al2  1  0.13111997  0.37807612  0.61805196  1
  Nb  Nb3  1  0.33363312  0.52980317  0.77634885  1
  Nb  Nb4  1  0.32509571  0.68166012  0.98702237  1
  Nb  Nb5  1  0.49022081  0.83900201  0.25380261  1
  Cl  Cl6  1  0.56924633  0.89003932  0.50217237  1
  Cl  Cl7  1  0.74107152  0.15144814  0.85096852  1
  Cl  Cl8  1  0.76986955  0.23062956  0.15374308  1
  Cl  Cl9  1  0.91447533  0.42780437  0.30483315  1
