# generated using pymatgen
data_LiTi3(PO5)2
_symmetry_space_group_name_H-M   'P 1'
_cell_length_a   4.93242415
_cell_length_b   4.93242415
_cell_length_c   4.93242415
_cell_angle_alpha   90.00000000
_cell_angle_beta   90.00000000
_cell_angle_gamma   90.00000000
_symmetry_Int_Tables_number   1
_chemical_formula_structural   LiTi3(PO5)2
_chemical_formula_sum   'Li1 Ti3 P2 O10'
_cell_volume   120.00000000
_cell_formula_units_Z   1
loop_
 _symmetry_equiv_pos_site_id
 _symmetry_equiv_pos_as_xyz
  1  'x, y, z'
loop_
 _atom_site_type_symbol
 _atom_site_label
 _atom_site_symmetry_multiplicity
 _atom_site_fract_x
 _atom_site_fract_y
 _atom_site_fract_z
 _atom_site_occupancy
  Li  Li0  1  0.95384519  0.96580093  0.09150777  1
  Ti  Ti1  1  0.11762376  0.00866774  0.08226910  1
  Ti  Ti2  1  0.05512159  0.11384466  0.29544127  1
  Ti  Ti3  1  0.16632122  0.29387341  0.45386927  1
  P  P4  1  0.28171222  0.38780739  0.75209634  1
  P  P5  1  0.28185203  0.58996258  0.74747288  1
  O  O6  1  0.41514364  0.64113083  0.03724624  1
  O  O7  1  0.44563347  0.77165272  0.09775306  1
  O  O8  1  0.47857508  0.87630440  0.22416263  1
  O  O9  1  0.62863616  0.99351776  0.49991229  1
  O  O10  1  0.57171064  0.01102625  0.55391312  1
  O  O11  1  0.71439960  0.03932244  0.76809687  1
  O  O12  1  0.78866845  0.11860970  0.00229522  1
  O  O13  1  0.82436192  0.39491558  0.04101720  1
  O  O14  1  0.83207574  0.39549518  0.27050215  1
  O  O15  1  0.87331254  0.57727754  0.55277683  1
