# generated using pymatgen
data_Li4Sc2(AlCl2)3
_symmetry_space_group_name_H-M   'P 1'
_cell_length_a   12.45101667
_cell_length_b   12.45101667
_cell_length_c   12.39774078
_cell_angle_alpha   90.00000000
_cell_angle_beta   90.00000000
_cell_angle_gamma   90.00000000
_symmetry_Int_Tables_number   1
_chemical_formula_structural   Li4Sc2(AlCl2)3
_chemical_formula_sum   'Li4 Sc2 Al3 Cl6'
_cell_volume   1921.99467865
_cell_formula_units_Z   1
loop_
 _symmetry_equiv_pos_site_id
 _symmetry_equiv_pos_as_xyz
  1  'x, y, z'
loop_
 _atom_site_type_symbol
 _atom_site_label
 _atom_site_symmetry_multiplicity
 _atom_site_fract_x
 _atom_site_fract_y
 _atom_site_fract_z
 _atom_site_occupancy
  Li  Li0  1  0.09718593  0.04804642  0.90063156  1
  Li  Li1  1  0.02793754  0.20188924  0.21784064  1
  Li  Li2  1  0.17121736  0.17475215  0.26409901  1
  Li  Li3  1  0.28415936  0.25773275  0.54527035  1
  Al  Al4  1  0.20694824  0.34896951  0.75875193  1
  Al  Al5  1  0.41579994  0.55706781  0.83356840  1
  Al  Al6  1  0.30681702  0.66050337  0.08260503  1
  Cl  Cl7  1  0.55732505  0.84474660  0.22915118  1
  Cl  Cl8  1  0.59548713  0.84961487  0.33212302  1
  Cl  Cl9  1  0.65531680  0.95866615  0.55624362  1
  Cl  Cl10  1  0.61202342  0.17626054  0.74905697  1
  Cl  Cl11  1  0.70742030  0.16922141  0.87254345  1
  Cl  Cl12  1  0.83796298  0.34107566  0.17202747  1
  Sc  Sc13  1  0.89456703  0.31061870  0.27859656  1
  Sc  Sc14  1  0.87130358  0.41645984  0.44243631  1
