# generated using pymatgen
data_Li3AlO4
_symmetry_space_group_name_H-M   'P 1'
_cell_length_a   5.20338592
_cell_length_b   5.20338592
_cell_length_c   4.16996580
_cell_angle_alpha   90.00000000
_cell_angle_beta   90.00000000
_cell_angle_gamma   120.00000000
_symmetry_Int_Tables_number   1
_chemical_formula_structural   Li3AlO4
_chemical_formula_sum   'Li3 Al1 O4'
_cell_volume   97.77666039
_cell_formula_units_Z   1
loop_
 _symmetry_equiv_pos_site_id
 _symmetry_equiv_pos_as_xyz
  1  'x, y, z'
loop_
 _atom_site_type_symbol
 _atom_site_label
 _atom_site_symmetry_multiplicity
 _atom_site_fract_x
 _atom_site_fract_y
 _atom_site_fract_z
 _atom_site_occupancy
  Li  Li0  1  0.04277629  0.96148931  0.97194968  1
  Li  Li1  1  0.16979399  0.13054137  0.23776020  1
  Li  Li2  1  0.34168272  0.36468903  0.64752751  1
  Al  Al3  1  0.33083382  0.70662494  0.90146141  1
  O  O4  1  0.55956467  0.76524101  0.34391312  1
  O  O5  1  0.55262070  0.92405228  0.66839047  1
  O  O6  1  0.71851872  0.15050366  0.05439729  1
  O  O7  1  0.85288325  0.37901478  0.23323186  1
