# generated using pymatgen
data_Li3Sc(Ga2Br5)2
_symmetry_space_group_name_H-M   'P 1'
_cell_length_a   7.58339886
_cell_length_b   4.18124927
_cell_length_c   10.84068560
_cell_angle_alpha   63.83231020
_cell_angle_beta   85.07995395
_cell_angle_gamma   118.64202288
_symmetry_Int_Tables_number   1
_chemical_formula_structural   Li3Sc(Ga2Br5)2
_chemical_formula_sum   'Li3 Sc1 Ga4 Br10'
_cell_volume   250.74957733
_cell_formula_units_Z   1
loop_
 _symmetry_equiv_pos_site_id
 _symmetry_equiv_pos_as_xyz
  1  'x, y, z'
loop_
 _atom_site_type_symbol
 _atom_site_label
 _atom_site_symmetry_multiplicity
 _atom_site_fract_x
 _atom_site_fract_y
 _atom_site_fract_z
 _atom_site_occupancy
  Li  Li0  1  0.92342743  0.90313168  0.06165028  1
  Li  Li1  1  0.06184931  0.02430628  0.09091397  1
  Li  Li2  1  0.06960552  0.20388869  0.26069870  1
  Ga  Ga3  1  0.18256596  0.17723959  0.46741859  1
  Ga  Ga4  1  0.17613166  0.44742489  0.64477606  1
  Ga  Ga5  1  0.26261058  0.45062395  0.77039036  1
  Ga  Ga6  1  0.29009507  0.59783303  0.86150704  1
  Sc  Sc7  1  0.47032247  0.64098888  0.00889751  1
  Br  Br8  1  0.44255853  0.63111586  0.18274096  1
  Br  Br9  1  0.43804646  0.80727099  0.21601976  1
  Br  Br10  1  0.51857432  0.89085553  0.51462660  1
  Br  Br11  1  0.56671750  0.03315787  0.64588206  1
  Br  Br12  1  0.72020787  0.05466625  0.79695160  1
  Br  Br13  1  0.75793063  0.08673289  0.82937537  1
  Br  Br14  1  0.77943794  0.22634973  0.01400279  1
  Br  Br15  1  0.93238677  0.36753032  0.23195635  1
  Br  Br16  1  0.90467438  0.39166642  0.39193488  1
  Br  Br17  1  0.98939106  0.61028736  0.52103087  1
