# generated using pymatgen
data_Li5Ga2O3
_symmetry_space_group_name_H-M   'P 1'
_cell_length_a   12.56588056
_cell_length_b   12.56588056
_cell_length_c   13.34901724
_cell_angle_alpha   90.00000000
_cell_angle_beta   90.00000000
_cell_angle_gamma   90.00000000
_symmetry_Int_Tables_number   1
_chemical_formula_structural   Li5Ga2O3
_chemical_formula_sum   'Li5 Ga2 O3'
_cell_volume   2107.82789901
_cell_formula_units_Z   1
loop_
 _symmetry_equiv_pos_site_id
 _symmetry_equiv_pos_as_xyz
  1  'x, y, z'
loop_
 _atom_site_type_symbol
 _atom_site_label
 _atom_site_symmetry_multiplicity
 _atom_site_fract_x
 _atom_site_fract_y
 _atom_site_fract_z
 _atom_site_occupancy
  Li  Li0  1  0.91872531  0.05987755  0.92560899  1
  Li  Li1  1  0.00987711  0.18841388  0.21055597  1
  Li  Li2  1  0.17867771  0.27528073  0.43408451  1
  Li  Li3  1  0.22321778  0.43920543  0.79718187  1
  Li  Li4  1  0.45469905  0.70183329  0.14306836  1
  Ga  Ga5  1  0.42670296  0.84293628  0.21594151  1
  Ga  Ga6  1  0.50931483  0.97778660  0.66202679  1
  O  O7  1  0.78968323  0.16796053  0.83088782  1
  O  O8  1  0.89746898  0.39339086  0.05480150  1
  O  O9  1  0.99195860  0.35992241  0.28345442  1
