# generated using pymatgen
data_Li3TiO5
_symmetry_space_group_name_H-M   'P 1'
_cell_length_a   5.38328853
_cell_length_b   5.38328853
_cell_length_c   5.38328853
_cell_angle_alpha   90.00000000
_cell_angle_beta   90.00000000
_cell_angle_gamma   90.00000000
_symmetry_Int_Tables_number   1
_chemical_formula_structural   Li3TiO5
_chemical_formula_sum   'Li3 Ti1 O5'
_cell_volume   156.00659983
_cell_formula_units_Z   1
loop_
 _symmetry_equiv_pos_site_id
 _symmetry_equiv_pos_as_xyz
  1  'x, y, z'
loop_
 _atom_site_type_symbol
 _atom_site_label
 _atom_site_symmetry_multiplicity
 _atom_site_fract_x
 _atom_site_fract_y
 _atom_site_fract_z
 _atom_site_occupancy
  Li  Li0  1  0.04530378  0.05454547  0.94697935  1
  Li  Li1  1  0.02094020  0.17993331  0.24894521  1
  Li  Li2  1  0.13783426  0.31817987  0.53796094  1
  Ti  Ti3  1  0.30855770  0.50244203  0.90338466  1
  O  O4  1  0.53746451  0.62915975  0.22664567  1
  O  O5  1  0.47929461  0.99864952  0.37479154  1
  O  O6  1  0.66587382  0.08123636  0.81616947  1
  O  O7  1  0.71858922  0.25842824  0.02402160  1
  O  O8  1  0.93766523  0.33886781  0.40226146  1
