# generated using pymatgen
data_Li4TiO3
_symmetry_space_group_name_H-M   'P 1'
_cell_length_a   10.82013933
_cell_length_b   10.82013933
_cell_length_c   10.82013933
_cell_angle_alpha   90.00000000
_cell_angle_beta   90.00000000
_cell_angle_gamma   90.00000000
_symmetry_Int_Tables_number   1
_chemical_formula_structural   Li4TiO3
_chemical_formula_sum   'Li4 Ti1 O3'
_cell_volume   1266.77230362
_cell_formula_units_Z   1
loop_
 _symmetry_equiv_pos_site_id
 _symmetry_equiv_pos_as_xyz
  1  'x, y, z'
loop_
 _atom_site_type_symbol
 _atom_site_label
 _atom_site_symmetry_multiplicity
 _atom_site_fract_x
 _atom_site_fract_y
 _atom_site_fract_z
 _atom_site_occupancy
  Li  Li0  1  0.97639746  0.09490571  0.98375143  1
  Li  Li1  1  0.20327544  0.11826141  0.23055675  1
  Li  Li2  1  0.32080938  0.44210520  0.71593133  1
  Li  Li3  1  0.37256524  0.65608109  0.01975701  1
  Ti  Ti4  1  0.40213357  0.86060873  0.21255693  1
  O  O5  1  0.59350818  0.03415261  0.70610406  1
  O  O6  1  0.78267833  0.27952575  0.96486850  1
  O  O7  1  0.94106852  0.39519463  0.28848960  1
