# generated using pymatgen
data_Li4Ge3S7
_symmetry_space_group_name_H-M   'P 1'
_cell_length_a   5.35941617
_cell_length_b   5.35941617
_cell_length_c   5.08297403
_cell_angle_alpha   90.00000000
_cell_angle_beta   90.00000000
_cell_angle_gamma   90.00000000
_symmetry_Int_Tables_number   1
_chemical_formula_structural   Li4Ge3S7
_chemical_formula_sum   'Li4 Ge3 S7'
_cell_volume   146.00000000
_cell_formula_units_Z   1
loop_
 _symmetry_equiv_pos_site_id
 _symmetry_equiv_pos_as_xyz
  1  'x, y, z'
loop_
 _atom_site_type_symbol
 _atom_site_label
 _atom_site_symmetry_multiplicity
 _atom_site_fract_x
 _atom_site_fract_y
 _atom_site_fract_z
 _atom_site_occupancy
  Li  Li0  1  0.08515670  0.92811810  0.99612023  1
  Li  Li1  1  0.01743141  0.15044360  0.27818646  1
  Li  Li2  1  0.09370405  0.30197067  0.45428430  1
  Li  Li3  1  0.29260761  0.26641878  0.52574280  1
  Ge  Ge4  1  0.27337104  0.49739134  0.76020402  1
  Ge  Ge5  1  0.33476152  0.66787739  0.92182941  1
  Ge  Ge6  1  0.48418889  0.71426548  0.06352446  1
  S  S7  1  0.58831164  0.86251483  0.35726843  1
  S  S8  1  0.60430614  0.89242250  0.49047084  1
  S  S9  1  0.69993888  0.00766068  0.60883669  1
  S  S10  1  0.79217428  0.07168978  0.81256354  1
  S  S11  1  0.69341753  0.32199372  0.07130028  1
  S  S12  1  0.79523180  0.41842128  0.20226900  1
  S  S13  1  0.84058237  0.54267318  0.33391290  1
