# generated using pymatgen
data_Li2SiS3
_symmetry_space_group_name_H-M   'P 1'
_cell_length_a   4.35641634
_cell_length_b   5.19184025
_cell_length_c   5.48240337
_cell_angle_alpha   90.00000000
_cell_angle_beta   90.00000000
_cell_angle_gamma   90.00000000
_symmetry_Int_Tables_number   1
_chemical_formula_structural   Li2SiS3
_chemical_formula_sum   'Li4 Si2 S6'
_cell_volume   124.00000000
_cell_formula_units_Z   2
loop_
 _symmetry_equiv_pos_site_id
 _symmetry_equiv_pos_as_xyz
  1  'x, y, z'
loop_
 _atom_site_type_symbol
 _atom_site_label
 _atom_site_symmetry_multiplicity
 _atom_site_fract_x
 _atom_site_fract_y
 _atom_site_fract_z
 _atom_site_occupancy
  Li  Li0  1  0.06654277  0.92355004  0.90893823  1
  Li  Li1  1  0.16287925  0.11506106  0.18957081  1
  Li  Li2  1  0.22277728  0.33688414  0.38120735  1
  Li  Li3  1  0.25762718  0.33765100  0.68731607  1
  Si  Si4  1  0.40225275  0.58192470  0.81300603  1
  Si  Si5  1  0.38729847  0.72018034  0.02477024  1
  S  S6  1  0.49096677  0.75954729  0.35502801  1
  S  S7  1  0.57441122  0.92102254  0.51538707  1
  S  S8  1  0.73755922  0.13442725  0.70229978  1
  S  S9  1  0.84179245  0.26884713  0.93386688  1
  S  S10  1  0.87385166  0.43085625  0.10991313  1
  S  S11  1  0.93723824  0.49884438  0.36731761  1
