# generated using pymatgen
data_Li3InI4
_symmetry_space_group_name_H-M   'P 1'
_cell_length_a   4.30886938
_cell_length_b   4.30886938
_cell_length_c   4.30886938
_cell_angle_alpha   90.00000000
_cell_angle_beta   90.00000000
_cell_angle_gamma   90.00000000
_symmetry_Int_Tables_number   1
_chemical_formula_structural   Li3InI4
_chemical_formula_sum   'Li3 In1 I4'
_cell_volume   80.00000000
_cell_formula_units_Z   1
loop_
 _symmetry_equiv_pos_site_id
 _symmetry_equiv_pos_as_xyz
  1  'x, y, z'
loop_
 _atom_site_type_symbol
 _atom_site_label
 _atom_site_symmetry_multiplicity
 _atom_site_fract_x
 _atom_site_fract_y
 _atom_site_fract_z
 _atom_site_occupancy
  Li  Li0  1  0.07312170  0.06602141  0.01727685  1
  Li  Li1  1  0.17553047  0.23998999  0.28495484  1
  Li  Li2  1  0.25304417  0.34700842  0.57954150  1
  In  In3  1  0.46284031  0.65575544  0.99963711  1
  I  I4  1  0.41921300  0.87107632  0.39604749  1
  I  I5  1  0.65850195  0.08976815  0.70748690  1
  I  I6  1  0.81558046  0.30041571  0.86920024  1
  I  I7  1  0.77520929  0.47859541  0.32417486  1
