# generated using pymatgen
data_Li2TiO3
_symmetry_space_group_name_H-M   'P 1'
_cell_length_a   4.03231396
_cell_length_b   4.03231396
_cell_length_c   4.03231396
_cell_angle_alpha   90.00000000
_cell_angle_beta   90.00000000
_cell_angle_gamma   90.00000000
_symmetry_Int_Tables_number   1
_chemical_formula_structural   Li2TiO3
_chemical_formula_sum   'Li2 Ti1 O3'
_cell_volume   65.56363432
_cell_formula_units_Z   1
loop_
 _symmetry_equiv_pos_site_id
 _symmetry_equiv_pos_as_xyz
  1  'x, y, z'
loop_
 _atom_site_type_symbol
 _atom_site_label
 _atom_site_symmetry_multiplicity
 _atom_site_fract_x
 _atom_site_fract_y
 _atom_site_fract_z
 _atom_site_occupancy
  Li  Li0  1  0.04143759  0.95053690  0.99355144  1
  Li  Li1  1  0.10622175  0.20467380  0.50871720  1
  Ti  Ti2  1  0.23703454  0.63285518  0.82151651  1
  O  O3  1  0.41352762  0.74554268  0.33054509  1
  O  O4  1  0.68073521  0.01996389  0.64823705  1
  O  O5  1  0.75398941  0.37272140  0.09469376  1
