# generated using pymatgen
data_Li6ZrS7
_symmetry_space_group_name_H-M   'P 1'
_cell_length_a   11.82362956
_cell_length_b   11.82362956
_cell_length_c   11.16108409
_cell_angle_alpha   90.00000000
_cell_angle_beta   90.00000000
_cell_angle_gamma   90.00000000
_symmetry_Int_Tables_number   1
_chemical_formula_structural   Li6ZrS7
_chemical_formula_sum   'Li6 Zr1 S7'
_cell_volume   1560.29964377
_cell_formula_units_Z   1
loop_
 _symmetry_equiv_pos_site_id
 _symmetry_equiv_pos_as_xyz
  1  'x, y, z'
loop_
 _atom_site_type_symbol
 _atom_site_label
 _atom_site_symmetry_multiplicity
 _atom_site_fract_x
 _atom_site_fract_y
 _atom_site_fract_z
 _atom_site_occupancy
  Li  Li0  1  0.98344295  0.90966910  0.08669907  1
  Li  Li1  1  0.06874158  0.10283309  0.19141360  1
  Li  Li2  1  0.09554829  0.17210027  0.40420668  1
  Li  Li3  1  0.12878641  0.44316752  0.59970374  1
  Li  Li4  1  0.34725616  0.43784388  0.69850376  1
  Li  Li5  1  0.36018019  0.61429291  0.98399820  1
  Zr  Zr6  1  0.35394434  0.76714144  0.21274662  1
  S  S7  1  0.42992197  0.84945830  0.40385318  1
  S  S8  1  0.58030455  0.94632044  0.42920443  1
  S  S9  1  0.66689227  0.00256283  0.67101065  1
  S  S10  1  0.65937583  0.13406318  0.93954943  1
  S  S11  1  0.78836812  0.21853472  0.01948100  1
  S  S12  1  0.78854476  0.42833340  0.21882544  1
  S  S13  1  0.94407359  0.57695045  0.42893400  1
