# generated using pymatgen
data_Li3TiO4
_symmetry_space_group_name_H-M   'P 1'
_cell_length_a   10.62643474
_cell_length_b   10.62643474
_cell_length_c   10.62643474
_cell_angle_alpha   90.00000000
_cell_angle_beta   90.00000000
_cell_angle_gamma   90.00000000
_symmetry_Int_Tables_number   1
_chemical_formula_structural   Li3TiO4
_chemical_formula_sum   'Li3 Ti1 O4'
_cell_volume   1199.94886083
_cell_formula_units_Z   1
loop_
 _symmetry_equiv_pos_site_id
 _symmetry_equiv_pos_as_xyz
  1  'x, y, z'
loop_
 _atom_site_type_symbol
 _atom_site_label
 _atom_site_symmetry_multiplicity
 _atom_site_fract_x
 _atom_site_fract_y
 _atom_site_fract_z
 _atom_site_occupancy
  Li  Li0  1  0.07265488  0.09623282  0.08702198  1
  Li  Li1  1  0.09406383  0.30218524  0.41638510  1
  Li  Li2  1  0.26794584  0.44350310  0.73723271  1
  Ti  Ti3  1  0.33141997  0.63213322  0.01086793  1
  O  O4  1  0.45552163  0.88363875  0.40358038  1
  O  O5  1  0.70402129  0.08785744  0.72153920  1
  O  O6  1  0.74807045  0.25809149  0.98165980  1
  O  O7  1  0.79151322  0.34763262  0.33764445  1
