# generated using pymatgen
data_LiTi3O9
_symmetry_space_group_name_H-M   'P 1'
_cell_length_a   9.03669187
_cell_length_b   9.03669187
_cell_length_c   9.18146657
_cell_angle_alpha   90.00000000
_cell_angle_beta   90.00000000
_cell_angle_gamma   90.00000000
_symmetry_Int_Tables_number   1
_chemical_formula_structural   LiTi3O9
_chemical_formula_sum   'Li1 Ti3 O9'
_cell_volume   749.77508607
_cell_formula_units_Z   1
loop_
 _symmetry_equiv_pos_site_id
 _symmetry_equiv_pos_as_xyz
  1  'x, y, z'
loop_
 _atom_site_type_symbol
 _atom_site_label
 _atom_site_symmetry_multiplicity
 _atom_site_fract_x
 _atom_site_fract_y
 _atom_site_fract_z
 _atom_site_occupancy
  Li  Li0  1  0.08907630  0.05939297  0.90609135  1
  Ti  Ti1  1  0.02046098  0.12940898  0.11389221  1
  Ti  Ti2  1  0.07257831  0.31918887  0.42769671  1
  Ti  Ti3  1  0.23489188  0.40610781  0.66690442  1
  O  O4  1  0.27751860  0.49145235  0.77646879  1
  O  O5  1  0.47057644  0.66785503  0.93867544  1
  O  O6  1  0.46199253  0.72451785  0.13834917  1
  O  O7  1  0.56847432  0.83832240  0.33259937  1
  O  O8  1  0.53536850  0.94820803  0.51718413  1
  O  O9  1  0.65068743  0.11207785  0.73314069  1
  O  O10  1  0.76191153  0.27986660  0.05065826  1
  O  O11  1  0.84830938  0.42372834  0.28223453  1
  O  O12  1  0.87736340  0.58813849  0.51377305  1
