# generated using pymatgen
data_Li4La3Zr4O15
_symmetry_space_group_name_H-M   'P 1'
_cell_length_a   5.65068279
_cell_length_b   5.65068279
_cell_length_c   8.42462198
_cell_angle_alpha   90.00000000
_cell_angle_beta   90.00000000
_cell_angle_gamma   90.00000000
_symmetry_Int_Tables_number   1
_chemical_formula_structural   Li4La3Zr4O15
_chemical_formula_sum   'Li4 La3 Zr4 O15'
_cell_volume   269.00000000
_cell_formula_units_Z   1
loop_
 _symmetry_equiv_pos_site_id
 _symmetry_equiv_pos_as_xyz
  1  'x, y, z'
loop_
 _atom_site_type_symbol
 _atom_site_label
 _atom_site_symmetry_multiplicity
 _atom_site_fract_x
 _atom_site_fract_y
 _atom_site_fract_z
 _atom_site_occupancy
  Li  Li0  1  0.09866054  0.04696478  0.02672732  1
  Li  Li1  1  0.94582442  0.98241864  0.14153228  1
  Li  Li2  1  0.07628195  0.15359245  0.19308781  1
  Li  Li3  1  0.12609070  0.20082231  0.21387927  1
  La  La4  1  0.11623502  0.27840984  0.40782169  1
  La  La5  1  0.17406689  0.28624928  0.43288793  1
  La  La6  1  0.27297592  0.37283677  0.57334916  1
  Zr  Zr7  1  0.23807719  0.35582309  0.65362687  1
  Zr  Zr8  1  0.38769955  0.44190161  0.85285124  1
  Zr  Zr9  1  0.36239594  0.51731932  0.00394871  1
  Zr  Zr10  1  0.40321288  0.61310580  0.94860997  1
  O  O11  1  0.47619347  0.62501265  0.07857472  1
  O  O12  1  0.40197288  0.76575824  0.25708036  1
  O  O13  1  0.56975850  0.79278490  0.24310077  1
  O  O14  1  0.53989612  0.93269143  0.41543601  1
  O  O15  1  0.55436869  0.99685525  0.58722536  1
  O  O16  1  0.71143870  0.08875292  0.52651025  1
  O  O17  1  0.73464105  0.97093169  0.74218395  1
  O  O18  1  0.69834574  0.17669745  0.78096804  1
  O  O19  1  0.76546300  0.18472656  0.98262695  1
  O  O20  1  0.73952825  0.23391460  0.05042697  1
  O  O21  1  0.85825232  0.35968408  0.18606367  1
  O  O22  1  0.88880462  0.34946819  0.29594709  1
  O  O23  1  0.96076572  0.36492477  0.27382662  1
  O  O24  1  0.94507365  0.49651698  0.50169106  1
  O  O25  1  0.99740783  0.50988063  0.42970994  1
