# generated using pymatgen
data_Li3TiO4
_symmetry_space_group_name_H-M   'P 1'
_cell_length_a   4.77019019
_cell_length_b   4.77019019
_cell_length_c   4.77019019
_cell_angle_alpha   90.00000000
_cell_angle_beta   90.00000000
_cell_angle_gamma   90.00000000
_symmetry_Int_Tables_number   1
_chemical_formula_structural   Li3TiO4
_chemical_formula_sum   'Li3 Ti1 O4'
_cell_volume   108.54431535
_cell_formula_units_Z   1
loop_
 _symmetry_equiv_pos_site_id
 _symmetry_equiv_pos_as_xyz
  1  'x, y, z'
loop_
 _atom_site_type_symbol
 _atom_site_label
 _atom_site_symmetry_multiplicity
 _atom_site_fract_x
 _atom_site_fract_y
 _atom_site_fract_z
 _atom_site_occupancy
  Li  Li0  1  0.92765786  0.95284206  0.05126988  1
  Li  Li1  1  0.12376239  0.21506399  0.28483103  1
  Li  Li2  1  0.29215254  0.36496226  0.64214370  1
  Ti  Ti3  1  0.34279048  0.54839137  0.04702382  1
  O  O4  1  0.42169447  0.86249695  0.38027586  1
  O  O5  1  0.61054602  0.02125119  0.65725159  1
  O  O6  1  0.83070925  0.20632007  0.92884512  1
  O  O7  1  0.95689644  0.50796372  0.37842064  1
