# generated using pymatgen
data_Li2Ti(PO3)3
_symmetry_space_group_name_H-M   'P 1'
_cell_length_a   3.91691038
_cell_length_b   5.11524745
_cell_length_c   5.29048616
_cell_angle_alpha   90.00000000
_cell_angle_beta   90.00000000
_cell_angle_gamma   90.00000000
_symmetry_Int_Tables_number   1
_chemical_formula_structural   Li2Ti(PO3)3
_chemical_formula_sum   'Li2 Ti1 P3 O9'
_cell_volume   106.00000000
_cell_formula_units_Z   1
loop_
 _symmetry_equiv_pos_site_id
 _symmetry_equiv_pos_as_xyz
  1  'x, y, z'
loop_
 _atom_site_type_symbol
 _atom_site_label
 _atom_site_symmetry_multiplicity
 _atom_site_fract_x
 _atom_site_fract_y
 _atom_site_fract_z
 _atom_site_occupancy
  Li  Li0  1  0.91984273  0.05622751  0.06830674  1
  Li  Li1  1  0.08019422  0.04663610  0.12657318  1
  Ti  Ti2  1  0.14536695  0.14030201  0.30536785  1
  P  P3  1  0.16005236  0.35542659  0.48221240  1
  P  P4  1  0.20443878  0.51419463  0.70220463  1
  P  P5  1  0.42115423  0.54637351  0.95901501  1
  O  O6  1  0.45926318  0.69921775  0.96329630  1
  O  O7  1  0.52458421  0.84459996  0.28352053  1
  O  O8  1  0.49749852  0.82351699  0.43158246  1
  O  O9  1  0.66341244  0.06716798  0.59977558  1
  O  O10  1  0.73566000  0.98085332  0.68313330  1
  O  O11  1  0.78041270  0.25225254  0.98246108  1
  O  O12  1  0.85061090  0.29453546  0.12807910  1
  O  O13  1  0.89395082  0.30484810  0.17980600  1
  O  O14  1  0.97187674  0.56035118  0.37224615  1
