# generated using pymatgen
data_Li7La3Zr4O13
_symmetry_space_group_name_H-M   'P 1'
_cell_length_a   5.73124396
_cell_length_b   5.73124396
_cell_length_c   8.55477376
_cell_angle_alpha   90.00000000
_cell_angle_beta   90.00000000
_cell_angle_gamma   90.00000000
_symmetry_Int_Tables_number   1
_chemical_formula_structural   Li7La3Zr4O13
_chemical_formula_sum   'Li7 La3 Zr4 O13'
_cell_volume   281.00000000
_cell_formula_units_Z   1
loop_
 _symmetry_equiv_pos_site_id
 _symmetry_equiv_pos_as_xyz
  1  'x, y, z'
loop_
 _atom_site_type_symbol
 _atom_site_label
 _atom_site_symmetry_multiplicity
 _atom_site_fract_x
 _atom_site_fract_y
 _atom_site_fract_z
 _atom_site_occupancy
  Li  Li0  1  0.06215629  0.07306003  0.01516517  1
  Li  Li1  1  0.94094255  0.98477215  0.00251870  1
  Li  Li2  1  0.99234622  0.13844336  0.17218776  1
  Li  Li3  1  0.20018741  0.23917075  0.19698024  1
  Li  Li4  1  0.09168605  0.24465114  0.30035944  1
  Li  Li5  1  0.10391734  0.36989543  0.50974230  1
  Li  Li6  1  0.22634488  0.39227875  0.64452835  1
  La  La7  1  0.22908555  0.41308767  0.64967107  1
  La  La8  1  0.38225735  0.52495475  0.70745607  1
  La  La9  1  0.33378740  0.51708195  0.80270814  1
  Zr  Zr10  1  0.40038315  0.56635089  0.89253669  1
  Zr  Zr11  1  0.32739130  0.61170091  0.97269980  1
  Zr  Zr12  1  0.40282418  0.71103511  0.08423471  1
  Zr  Zr13  1  0.47416225  0.81428825  0.29733063  1
  O  O14  1  0.52067405  0.89361438  0.42448524  1
  O  O15  1  0.50984203  0.99348892  0.55160211  1
  O  O16  1  0.58241438  0.02741179  0.45427806  1
  O  O17  1  0.71698915  0.98285327  0.72290595  1
  O  O18  1  0.57271732  0.99499201  0.78343334  1
  O  O19  1  0.67507732  0.23322586  0.75723843  1
  O  O20  1  0.74483173  0.14360113  0.01594851  1
  O  O21  1  0.80712003  0.28500803  0.96322308  1
  O  O22  1  0.89848975  0.22870426  0.18950550  1
  O  O23  1  0.80573433  0.38446279  0.16131469  1
  O  O24  1  0.96359315  0.37986364  0.38906730  1
  O  O25  1  0.89534638  0.41036013  0.44742122  1
  O  O26  1  0.04901372  0.54164007  0.42992045  1
