# generated using pymatgen
data_Li2ZrIn2F8
_symmetry_space_group_name_H-M   'P 1'
_cell_length_a   8.46223214
_cell_length_b   8.46223214
_cell_length_c   8.12170517
_cell_angle_alpha   90.00000000
_cell_angle_beta   90.00000000
_cell_angle_gamma   90.00000000
_symmetry_Int_Tables_number   1
_chemical_formula_structural   Li2ZrIn2F8
_chemical_formula_sum   'Li2 Zr1 In2 F8'
_cell_volume   581.59021274
_cell_formula_units_Z   1
loop_
 _symmetry_equiv_pos_site_id
 _symmetry_equiv_pos_as_xyz
  1  'x, y, z'
loop_
 _atom_site_type_symbol
 _atom_site_label
 _atom_site_symmetry_multiplicity
 _atom_site_fract_x
 _atom_site_fract_y
 _atom_site_fract_z
 _atom_site_occupancy
  Li  Li0  1  0.00186932  0.04397208  0.91180746  1
  Li  Li1  1  0.08909128  0.11668655  0.11591972  1
  Zr  Zr2  1  0.24888235  0.20618153  0.44815435  1
  F  F3  1  0.14959157  0.28427261  0.64188516  1
  F  F4  1  0.30654418  0.54739002  0.72085514  1
  F  F5  1  0.35082211  0.71896952  0.95707127  1
  F  F6  1  0.46123343  0.84179276  0.11803253  1
  F  F7  1  0.55167423  0.95516379  0.33028228  1
  F  F8  1  0.54280586  0.07997246  0.58626000  1
  F  F9  1  0.72156459  0.12711846  0.71287320  1
  F  F10  1  0.75134712  0.30552883  0.96779013  1
  In  In11  1  0.79953474  0.39021359  0.22948712  1
  In  In12  1  0.89238811  0.46590376  0.51094612  1
