# generated using pymatgen
data_Li5(PS4)2
_symmetry_space_group_name_H-M   'P 1'
_cell_length_a   4.65309595
_cell_length_b   5.01202388
_cell_length_c   6.51761119
_cell_angle_alpha   90.00000000
_cell_angle_beta   90.00000000
_cell_angle_gamma   90.00000000
_symmetry_Int_Tables_number   1
_chemical_formula_structural   Li5(PS4)2
_chemical_formula_sum   'Li5 P2 S8'
_cell_volume   152.00000000
_cell_formula_units_Z   1
loop_
 _symmetry_equiv_pos_site_id
 _symmetry_equiv_pos_as_xyz
  1  'x, y, z'
loop_
 _atom_site_type_symbol
 _atom_site_label
 _atom_site_symmetry_multiplicity
 _atom_site_fract_x
 _atom_site_fract_y
 _atom_site_fract_z
 _atom_site_occupancy
  Li  Li0  1  0.07297118  0.03416811  0.98611030  1
  Li  Li1  1  0.13068496  0.02229539  0.20844767  1
  Li  Li2  1  0.16585932  0.17529291  0.34242738  1
  Li  Li3  1  0.22248796  0.31730951  0.54613531  1
  Li  Li4  1  0.33357729  0.52846858  0.66426737  1
  P  P5  1  0.42981162  0.53140894  0.90502241  1
  P  P6  1  0.30103252  0.59589287  0.95526691  1
  S  S7  1  0.47820722  0.68451798  0.28153546  1
  S  S8  1  0.57201649  0.80340913  0.43190991  1
  S  S9  1  0.59468889  0.04162174  0.66627034  1
  S  S10  1  0.71559079  0.03748392  0.77340426  1
  S  S11  1  0.78844189  0.12558703  0.00955117  1
  S  S12  1  0.70389563  0.33798668  0.19257495  1
  S  S13  1  0.94141985  0.39188916  0.32355431  1
  S  S14  1  0.90411372  0.58739586  0.48772519  1
