# generated using pymatgen
data_Li3AlO3
_symmetry_space_group_name_H-M   'P 1'
_cell_length_a   7.38354422
_cell_length_b   7.38354422
_cell_length_c   8.85603742
_cell_angle_alpha   90.00000000
_cell_angle_beta   90.00000000
_cell_angle_gamma   120.00000000
_symmetry_Int_Tables_number   1
_chemical_formula_structural   Li3AlO3
_chemical_formula_sum   'Li3 Al1 O3'
_cell_volume   418.11893466
_cell_formula_units_Z   1
loop_
 _symmetry_equiv_pos_site_id
 _symmetry_equiv_pos_as_xyz
  1  'x, y, z'
loop_
 _atom_site_type_symbol
 _atom_site_label
 _atom_site_symmetry_multiplicity
 _atom_site_fract_x
 _atom_site_fract_y
 _atom_site_fract_z
 _atom_site_occupancy
  Li  Li0  1  0.07581767  0.98858862  0.05779796  1
  Li  Li1  1  0.23180691  0.18121740  0.27754766  1
  Li  Li2  1  0.28794687  0.39474942  0.71642395  1
  Al  Al3  1  0.50478348  0.73395834  0.04931131  1
  O  O4  1  0.54772291  0.94572203  0.59153955  1
  O  O5  1  0.74666146  0.10176092  0.89898911  1
  O  O6  1  0.79752589  0.32791166  0.31474529  1
