# generated using pymatgen
data_Li5Ti(PO3)5
_symmetry_space_group_name_H-M   'P 1'
_cell_length_a   4.69641974
_cell_length_b   6.18757515
_cell_length_c   6.26302286
_cell_angle_alpha   90.00000000
_cell_angle_beta   90.00000000
_cell_angle_gamma   90.00000000
_symmetry_Int_Tables_number   1
_chemical_formula_structural   Li5Ti(PO3)5
_chemical_formula_sum   'Li5 Ti1 P5 O15'
_cell_volume   182.00000000
_cell_formula_units_Z   1
loop_
 _symmetry_equiv_pos_site_id
 _symmetry_equiv_pos_as_xyz
  1  'x, y, z'
loop_
 _atom_site_type_symbol
 _atom_site_label
 _atom_site_symmetry_multiplicity
 _atom_site_fract_x
 _atom_site_fract_y
 _atom_site_fract_z
 _atom_site_occupancy
  Li  Li0  1  0.07987220  0.08450835  0.93785155  1
  Li  Li1  1  0.94486549  0.10618152  0.06595402  1
  Li  Li2  1  0.07297412  0.09865567  0.18117294  1
  Li  Li3  1  0.05744635  0.24885874  0.22257011  1
  Li  Li4  1  0.11257928  0.34732167  0.33615318  1
  Ti  Ti5  1  0.16047689  0.27445944  0.56764887  1
  P  P6  1  0.22901469  0.39631801  0.59994068  1
  P  P7  1  0.17783670  0.42428532  0.78133466  1
  P  P8  1  0.34521490  0.56822515  0.83462100  1
  P  P9  1  0.27219757  0.62356341  0.93169012  1
  P  P10  1  0.30780471  0.61686146  0.03598455  1
  O  O11  1  0.35949537  0.69419138  0.14664788  1
  O  O12  1  0.46942705  0.66402616  0.29712348  1
  O  O13  1  0.42544389  0.90877841  0.28088308  1
  O  O14  1  0.53538453  0.78605534  0.49338536  1
  O  O15  1  0.61541905  0.95208220  0.45319619  1
  O  O16  1  0.68136280  0.05176558  0.52592946  1
  O  O17  1  0.58038933  0.12457001  0.61559987  1
  O  O18  1  0.59299056  0.02026950  0.79731742  1
  O  O19  1  0.80150395  0.23350431  0.92538890  1
  O  O20  1  0.74848430  0.25967125  0.93709018  1
  O  O21  1  0.71760431  0.28762971  0.20183841  1
  O  O22  1  0.81246566  0.28499953  0.25089712  1
  O  O23  1  0.95499281  0.39860437  0.26229417  1
  O  O24  1  0.00577187  0.48764003  0.44186536  1
  O  O25  1  0.99704407  0.53031740  0.45632260  1
