# generated using pymatgen
data_Li2AlO3
_symmetry_space_group_name_H-M   'P 1'
_cell_length_a   9.58838528
_cell_length_b   9.58838528
_cell_length_c   11.93664673
_cell_angle_alpha   90.00000000
_cell_angle_beta   90.00000000
_cell_angle_gamma   120.00000000
_symmetry_Int_Tables_number   1
_chemical_formula_structural   Li2AlO3
_chemical_formula_sum   'Li2 Al1 O3'
_cell_volume   950.39452480
_cell_formula_units_Z   1
loop_
 _symmetry_equiv_pos_site_id
 _symmetry_equiv_pos_as_xyz
  1  'x, y, z'
loop_
 _atom_site_type_symbol
 _atom_site_label
 _atom_site_symmetry_multiplicity
 _atom_site_fract_x
 _atom_site_fract_y
 _atom_site_fract_z
 _atom_site_occupancy
  Li  Li0  1  0.06506960  0.94694624  0.95548054  1
  Li  Li1  1  0.20928902  0.31972690  0.40673809  1
  Al  Al2  1  0.32499691  0.54815963  0.91183215  1
  O  O3  1  0.56301536  0.72471636  0.33545414  1
  O  O4  1  0.70848264  0.11555264  0.73651699  1
  O  O5  1  0.88172028  0.36578983  0.23299905  1
