# generated using pymatgen
data_Li6ZrF4
_symmetry_space_group_name_H-M   'P 1'
_cell_length_a   14.40966832
_cell_length_b   14.40966832
_cell_length_c   15.39668417
_cell_angle_alpha   90.00000000
_cell_angle_beta   90.00000000
_cell_angle_gamma   90.00000000
_symmetry_Int_Tables_number   1
_chemical_formula_structural   Li6ZrF4
_chemical_formula_sum   'Li6 Zr1 F4'
_cell_volume   3196.94503758
_cell_formula_units_Z   1
loop_
 _symmetry_equiv_pos_site_id
 _symmetry_equiv_pos_as_xyz
  1  'x, y, z'
loop_
 _atom_site_type_symbol
 _atom_site_label
 _atom_site_symmetry_multiplicity
 _atom_site_fract_x
 _atom_site_fract_y
 _atom_site_fract_z
 _atom_site_occupancy
  Li  Li0  1  0.90130837  0.09022683  0.09872162  1
  Li  Li1  1  0.18522550  0.16725773  0.16850759  1
  Li  Li2  1  0.18597597  0.36419341  0.49364806  1
  Li  Li3  1  0.23891638  0.41285163  0.63152099  1
  Li  Li4  1  0.28275534  0.66361513  0.02642986  1
  Li  Li5  1  0.48201943  0.76551479  0.10429558  1
  Zr  Zr6  1  0.56018695  0.96012405  0.41207845  1
  F  F7  1  0.68394737  0.06878694  0.61394008  1
  F  F8  1  0.63473990  0.25492010  0.81081231  1
  F  F9  1  0.90106616  0.32360957  0.21395131  1
  F  F10  1  0.90233303  0.48659229  0.47067032  1
