# generated using pymatgen
data_Li3ScI5
_symmetry_space_group_name_H-M   'P 1'
_cell_length_a   4.44796018
_cell_length_b   4.44796018
_cell_length_c   4.44796018
_cell_angle_alpha   90.00000000
_cell_angle_beta   90.00000000
_cell_angle_gamma   90.00000000
_symmetry_Int_Tables_number   1
_chemical_formula_structural   Li3ScI5
_chemical_formula_sum   'Li3 Sc1 I5'
_cell_volume   88.00000000
_cell_formula_units_Z   1
loop_
 _symmetry_equiv_pos_site_id
 _symmetry_equiv_pos_as_xyz
  1  'x, y, z'
loop_
 _atom_site_type_symbol
 _atom_site_label
 _atom_site_symmetry_multiplicity
 _atom_site_fract_x
 _atom_site_fract_y
 _atom_site_fract_z
 _atom_site_occupancy
  Li  Li0  1  0.04653443  0.04051052  0.00952845  1
  Li  Li1  1  0.19386280  0.22391905  0.36222707  1
  Li  Li2  1  0.31193105  0.39100641  0.51014650  1
  Sc  Sc3  1  0.32524511  0.51331274  0.96700265  1
  I  I4  1  0.49526173  0.79125662  0.19423494  1
  I  I5  1  0.62497028  0.85759546  0.52557905  1
  I  I6  1  0.60790083  0.09135260  0.83733603  1
  I  I7  1  0.79477438  0.27385523  0.13077717  1
  I  I8  1  0.95337934  0.33879359  0.38890705  1
