# generated using pymatgen
data_Li9La2ZrO12
_symmetry_space_group_name_H-M   'P 1'
_cell_length_a   4.60494356
_cell_length_b   6.41302228
_cell_length_c   7.17874951
_cell_angle_alpha   90.00000000
_cell_angle_beta   90.00000000
_cell_angle_gamma   90.00000000
_symmetry_Int_Tables_number   1
_chemical_formula_structural   Li9La2ZrO12
_chemical_formula_sum   'Li9 La2 Zr1 O12'
_cell_volume   212.00000000
_cell_formula_units_Z   1
loop_
 _symmetry_equiv_pos_site_id
 _symmetry_equiv_pos_as_xyz
  1  'x, y, z'
loop_
 _atom_site_type_symbol
 _atom_site_label
 _atom_site_symmetry_multiplicity
 _atom_site_fract_x
 _atom_site_fract_y
 _atom_site_fract_z
 _atom_site_occupancy
  Li  Li0  1  0.02890846  0.02319398  0.03151381  1
  Li  Li1  1  0.99306658  0.09731279  0.00933524  1
  Li  Li2  1  0.05175507  0.07859946  0.24611701  1
  Li  Li3  1  0.12528868  0.18754946  0.33147210  1
  Li  Li4  1  0.24027668  0.30139318  0.36964967  1
  Li  Li5  1  0.13103599  0.33045985  0.47649618  1
  Li  Li6  1  0.24276327  0.45654196  0.75356646  1
  Li  Li7  1  0.23784995  0.46381453  0.77644303  1
  Li  Li8  1  0.41922183  0.55461967  0.90421597  1
  La  La9  1  0.39180021  0.56095742  0.99698716  1
  La  La10  1  0.47176324  0.62372743  0.16576910  1
  Zr  Zr11  1  0.50486776  0.78209385  0.20944512  1
  O  O12  1  0.58275169  0.85314127  0.38033818  1
  O  O13  1  0.63137550  0.90786752  0.34645206  1
  O  O14  1  0.57524511  0.91781274  0.62150265  1
  O  O15  1  0.67581729  0.08339551  0.66692939  1
  O  O16  1  0.73608139  0.03737324  0.81646794  1
  O  O17  1  0.64956750  0.15876927  0.94641937  1
  O  O18  1  0.76699660  0.22891079  0.05805495  1
  O  O19  1  0.85615712  0.18148803  0.13437927  1
  O  O20  1  0.82138491  0.27322945  0.26851975  1
  O  O21  1  0.93881307  0.33560663  0.36110136  1
  O  O22  1  0.99643126  0.41293604  0.33375828  1
  O  O23  1  0.86321867  0.46560810  0.45553540  1
