# generated using pymatgen
data_LiTi4(BrF5)2
_symmetry_space_group_name_H-M   'P 1'
_cell_length_a   5.80748338
_cell_length_b   5.50441799
_cell_length_c   6.02070757
_cell_angle_alpha   90.00000000
_cell_angle_beta   90.00000000
_cell_angle_gamma   90.00000000
_symmetry_Int_Tables_number   1
_chemical_formula_structural   LiTi4(BrF5)2
_chemical_formula_sum   'Li1 Ti4 Br2 F10'
_cell_volume   192.46285149
_cell_formula_units_Z   1
loop_
 _symmetry_equiv_pos_site_id
 _symmetry_equiv_pos_as_xyz
  1  'x, y, z'
loop_
 _atom_site_type_symbol
 _atom_site_label
 _atom_site_symmetry_multiplicity
 _atom_site_fract_x
 _atom_site_fract_y
 _atom_site_fract_z
 _atom_site_occupancy
  Li  Li0  1  0.99355941  0.93179747  0.02788796  1
  Ti  Ti1  1  0.01880156  0.04727250  0.10789622  1
  Ti  Ti2  1  0.09661044  0.10516456  0.36679322  1
  Ti  Ti3  1  0.17484950  0.30652055  0.38333228  1
  Ti  Ti4  1  0.25348166  0.31872461  0.63240219  1
  Br  Br5  1  0.30055338  0.52987694  0.81021908  1
  Br  Br6  1  0.31406261  0.57303665  0.99214712  1
  F  F7  1  0.33873894  0.58503224  0.11817654  1
  F  F8  1  0.54292102  0.83347148  0.18514280  1
  F  F9  1  0.59145477  0.85421375  0.33448607  1
  F  F10  1  0.61982561  0.91364265  0.54307399  1
  F  F11  1  0.55993334  0.95034073  0.76977901  1
  F  F12  1  0.68937717  0.11281757  0.75229392  1
  F  F13  1  0.79984566  0.13801210  0.08864562  1
  F  F14  1  0.77443366  0.40422512  0.11203063  1
  F  F15  1  0.92647420  0.48080752  0.37275486  1
  F  F16  1  0.90533364  0.46866107  0.44734872  1
