# generated using pymatgen
data_Li3NbO6
_symmetry_space_group_name_H-M   'P 1'
_cell_length_a   8.19424493
_cell_length_b   8.19424493
_cell_length_c   8.91181538
_cell_angle_alpha   90.00000000
_cell_angle_beta   90.00000000
_cell_angle_gamma   90.00000000
_symmetry_Int_Tables_number   1
_chemical_formula_structural   Li3NbO6
_chemical_formula_sum   'Li3 Nb1 O6'
_cell_volume   598.38963583
_cell_formula_units_Z   1
loop_
 _symmetry_equiv_pos_site_id
 _symmetry_equiv_pos_as_xyz
  1  'x, y, z'
loop_
 _atom_site_type_symbol
 _atom_site_label
 _atom_site_symmetry_multiplicity
 _atom_site_fract_x
 _atom_site_fract_y
 _atom_site_fract_z
 _atom_site_occupancy
  Li  Li0  1  0.91319867  0.06220616  0.91589124  1
  Li  Li1  1  0.10707977  0.22687230  0.33761130  1
  Li  Li2  1  0.14133973  0.32456026  0.44967588  1
  Nb  Nb3  1  0.31384169  0.41487089  0.88381524  1
  O  O4  1  0.38917240  0.71218302  0.12960042  1
  O  O5  1  0.52881146  0.71127417  0.26838937  1
  O  O6  1  0.50579100  0.97945923  0.59077300  1
  O  O7  1  0.64845724  0.14584946  0.80602927  1
  O  O8  1  0.75861946  0.38357701  0.12378861  1
  O  O9  1  0.95924804  0.45907217  0.43736598  1
