# generated using pymatgen
data_BaLi3TiO2
_symmetry_space_group_name_H-M   'P 1'
_cell_length_a   3.87087664
_cell_length_b   3.87087664
_cell_length_c   3.87087664
_cell_angle_alpha   90.00000000
_cell_angle_beta   90.00000000
_cell_angle_gamma   90.00000000
_symmetry_Int_Tables_number   1
_chemical_formula_structural   BaLi3TiO2
_chemical_formula_sum   'Ba1 Li3 Ti1 O2'
_cell_volume   58.00000000
_cell_formula_units_Z   1
loop_
 _symmetry_equiv_pos_site_id
 _symmetry_equiv_pos_as_xyz
  1  'x, y, z'
loop_
 _atom_site_type_symbol
 _atom_site_label
 _atom_site_symmetry_multiplicity
 _atom_site_fract_x
 _atom_site_fract_y
 _atom_site_fract_z
 _atom_site_occupancy
  Li  Li0  1  0.08964710  0.09472725  0.06974301  1
  Li  Li1  1  0.05975372  0.26745417  0.38998968  1
  Li  Li2  1  0.23799768  0.53305130  0.83305804  1
  Ti  Ti3  1  0.46111100  0.76576229  0.09716551  1
  O  O4  1  0.50944246  0.96522530  0.44098338  1
  O  O5  1  0.70129358  0.14840386  0.89221357  1
  Ba  Ba6  1  0.87459258  0.44670293  0.29800968  1
