# generated using pymatgen
data_BaLi2TiO4
_symmetry_space_group_name_H-M   'P 1'
_cell_length_a   4.07745221
_cell_length_b   4.07745221
_cell_length_c   3.72918501
_cell_angle_alpha   90.00000000
_cell_angle_beta   90.00000000
_cell_angle_gamma   90.00000000
_symmetry_Int_Tables_number   1
_chemical_formula_structural   BaLi2TiO4
_chemical_formula_sum   'Ba1 Li2 Ti1 O4'
_cell_volume   62.00000000
_cell_formula_units_Z   1
loop_
 _symmetry_equiv_pos_site_id
 _symmetry_equiv_pos_as_xyz
  1  'x, y, z'
loop_
 _atom_site_type_symbol
 _atom_site_label
 _atom_site_symmetry_multiplicity
 _atom_site_fract_x
 _atom_site_fract_y
 _atom_site_fract_z
 _atom_site_occupancy
  Li  Li0  1  0.92326942  0.96103374  0.03855392  1
  Li  Li1  1  0.03572306  0.18962589  0.36400032  1
  Ti  Ti2  1  0.29515479  0.49631842  0.59279067  1
  O  O3  1  0.38366462  0.63642674  0.93247663  1
  O  O4  1  0.55881852  0.83954270  0.35007612  1
  O  O5  1  0.65434754  0.06100701  0.72822463  1
  O  O6  1  0.81157786  0.31050167  0.02668946  1
  Ba  Ba7  1  0.93959333  0.46564829  0.37800751  1
