# generated using pymatgen
data_Li5GaO3
_symmetry_space_group_name_H-M   'P 1'
_cell_length_a   10.14684339
_cell_length_b   10.14684339
_cell_length_c   9.40855213
_cell_angle_alpha   90.00000000
_cell_angle_beta   90.00000000
_cell_angle_gamma   90.00000000
_symmetry_Int_Tables_number   1
_chemical_formula_structural   Li5GaO3
_chemical_formula_sum   'Li5 Ga1 O3'
_cell_volume   968.68976340
_cell_formula_units_Z   1
loop_
 _symmetry_equiv_pos_site_id
 _symmetry_equiv_pos_as_xyz
  1  'x, y, z'
loop_
 _atom_site_type_symbol
 _atom_site_label
 _atom_site_symmetry_multiplicity
 _atom_site_fract_x
 _atom_site_fract_y
 _atom_site_fract_z
 _atom_site_occupancy
  Li  Li0  1  0.96178075  0.01368240  0.92073337  1
  Li  Li1  1  0.08889613  0.25144979  0.29626851  1
  Li  Li2  1  0.17794354  0.33188824  0.50818406  1
  Li  Li3  1  0.33249961  0.53131639  0.91034898  1
  Li  Li4  1  0.40414730  0.73351631  0.20583007  1
  Ga  Ga5  1  0.53938836  0.89898812  0.35985674  1
  O  O6  1  0.75916046  0.04665442  0.76281210  1
  O  O7  1  0.69624493  0.23234965  0.95938116  1
  O  O8  1  0.92223985  0.51204919  0.40153371  1
