# generated using pymatgen
data_Li2TiO4
_symmetry_space_group_name_H-M   'P 1'
_cell_length_a   10.94981461
_cell_length_b   10.94981461
_cell_length_c   10.94981461
_cell_angle_alpha   90.00000000
_cell_angle_beta   90.00000000
_cell_angle_gamma   90.00000000
_symmetry_Int_Tables_number   1
_chemical_formula_structural   Li2TiO4
_chemical_formula_sum   'Li2 Ti1 O4'
_cell_volume   1312.86568865
_cell_formula_units_Z   1
loop_
 _symmetry_equiv_pos_site_id
 _symmetry_equiv_pos_as_xyz
  1  'x, y, z'
loop_
 _atom_site_type_symbol
 _atom_site_label
 _atom_site_symmetry_multiplicity
 _atom_site_fract_x
 _atom_site_fract_y
 _atom_site_fract_z
 _atom_site_occupancy
  Li  Li0  1  0.09309085  0.07741346  0.07096840  1
  Li  Li1  1  0.23746641  0.27536561  0.44488872  1
  Ti  Ti2  1  0.25182413  0.55066732  0.76815059  1
  O  O3  1  0.46367494  0.66232104  0.06927237  1
  O  O4  1  0.56339639  0.98257895  0.39754331  1
  O  O5  1  0.70124001  0.24034380  0.82478226  1
  O  O6  1  0.81633081  0.47338293  0.21877308  1
