# generated using pymatgen
data_Li4LaNbF4
_symmetry_space_group_name_H-M   'P 1'
_cell_length_a   14.78768488
_cell_length_b   14.78768488
_cell_length_c   13.56382997
_cell_angle_alpha   90.00000000
_cell_angle_beta   90.00000000
_cell_angle_gamma   90.00000000
_symmetry_Int_Tables_number   1
_chemical_formula_structural   Li4LaNbF4
_chemical_formula_sum   'Li4 La1 Nb1 F4'
_cell_volume   2966.07898637
_cell_formula_units_Z   1
loop_
 _symmetry_equiv_pos_site_id
 _symmetry_equiv_pos_as_xyz
  1  'x, y, z'
loop_
 _atom_site_type_symbol
 _atom_site_label
 _atom_site_symmetry_multiplicity
 _atom_site_fract_x
 _atom_site_fract_y
 _atom_site_fract_z
 _atom_site_occupancy
  Li  Li0  1  0.95045474  0.92706390  0.99894246  1
  Li  Li1  1  0.01079924  0.22312054  0.24104704  1
  Li  Li2  1  0.18702848  0.37149127  0.45005996  1
  Li  Li3  1  0.20811261  0.57770104  0.71337405  1
  Nb  Nb4  1  0.44776407  0.69503403  0.97438435  1
  F  F5  1  0.43649593  0.78673849  0.27140040  1
  F  F6  1  0.52213342  0.04146550  0.61909519  1
  F  F7  1  0.74883744  0.09403994  0.85545020  1
  F  F8  1  0.73993610  0.36705120  0.05373934  1
  La  La9  1  0.98242677  0.39322043  0.42902648  1
