# generated using pymatgen
data_Li3TiO5
_symmetry_space_group_name_H-M   'P 1'
_cell_length_a   7.69693130
_cell_length_b   7.69693130
_cell_length_c   7.69693130
_cell_angle_alpha   90.00000000
_cell_angle_beta   90.00000000
_cell_angle_gamma   90.00000000
_symmetry_Int_Tables_number   1
_chemical_formula_structural   Li3TiO5
_chemical_formula_sum   'Li3 Ti1 O5'
_cell_volume   455.98738807
_cell_formula_units_Z   1
loop_
 _symmetry_equiv_pos_site_id
 _symmetry_equiv_pos_as_xyz
  1  'x, y, z'
loop_
 _atom_site_type_symbol
 _atom_site_label
 _atom_site_symmetry_multiplicity
 _atom_site_fract_x
 _atom_site_fract_y
 _atom_site_fract_z
 _atom_site_occupancy
  Li  Li0  1  0.09949093  0.02327547  0.96714775  1
  Li  Li1  1  0.12425840  0.18325213  0.23985186  1
  Li  Li2  1  0.16226052  0.40985002  0.57763732  1
  Ti  Ti3  1  0.27569788  0.45681024  0.94241544  1
  O  O4  1  0.42983885  0.80224449  0.23205233  1
  O  O5  1  0.45739251  0.81438258  0.42132954  1
  O  O6  1  0.73639489  0.07710638  0.83750181  1
  O  O7  1  0.70713810  0.33955651  0.08549034  1
  O  O8  1  0.93980514  0.49736412  0.36676939  1
