# generated using pymatgen
data_Li6Ti3F10
_symmetry_space_group_name_H-M   'P 1'
_cell_length_a   8.01335759
_cell_length_b   8.01335759
_cell_length_c   7.84984185
_cell_angle_alpha   90.00000000
_cell_angle_beta   90.00000000
_cell_angle_gamma   90.00000000
_symmetry_Int_Tables_number   1
_chemical_formula_structural   Li6Ti3F10
_chemical_formula_sum   'Li6 Ti3 F10'
_cell_volume   504.06895867
_cell_formula_units_Z   1
loop_
 _symmetry_equiv_pos_site_id
 _symmetry_equiv_pos_as_xyz
  1  'x, y, z'
loop_
 _atom_site_type_symbol
 _atom_site_label
 _atom_site_symmetry_multiplicity
 _atom_site_fract_x
 _atom_site_fract_y
 _atom_site_fract_z
 _atom_site_occupancy
  Li  Li0  1  0.97966252  0.96103774  0.93091749  1
  Li  Li1  1  0.95325175  0.98543050  0.09341493  1
  Li  Li2  1  0.01545131  0.20700986  0.32195552  1
  Li  Li3  1  0.14977026  0.30355994  0.37887909  1
  Li  Li4  1  0.20740572  0.37494106  0.62655767  1
  Li  Li5  1  0.32078128  0.38191460  0.68926077  1
  Ti  Ti6  1  0.28045053  0.57818519  0.89275563  1
  Ti  Ti7  1  0.31186294  0.50431969  0.95160755  1
  Ti  Ti8  1  0.43588623  0.64637500  0.10997602  1
  F  F9  1  0.52779344  0.78318022  0.24183967  1
  F  F10  1  0.52012380  0.91663309  0.43178649  1
  F  F11  1  0.53560553  0.89976571  0.59819258  1
  F  F12  1  0.63305916  0.09104427  0.65158455  1
  F  F13  1  0.77386903  0.04938645  0.79765224  1
  F  F14  1  0.75990946  0.12500337  0.86875843  1
  F  F15  1  0.88845678  0.37604432  0.11275277  1
  F  F16  1  0.88725688  0.34562339  0.21892025  1
  F  F17  1  0.91685702  0.38914312  0.30924437  1
  F  F18  1  0.88958843  0.62246843  0.48161610  1
