# generated using pymatgen
data_LiTiO4
_symmetry_space_group_name_H-M   'P 1'
_cell_length_a   6.41969657
_cell_length_b   6.41969657
_cell_length_c   6.41969657
_cell_angle_alpha   90.00000000
_cell_angle_beta   90.00000000
_cell_angle_gamma   90.00000000
_symmetry_Int_Tables_number   1
_chemical_formula_structural   LiTiO4
_chemical_formula_sum   'Li1 Ti1 O4'
_cell_volume   264.57177087
_cell_formula_units_Z   1
loop_
 _symmetry_equiv_pos_site_id
 _symmetry_equiv_pos_as_xyz
  1  'x, y, z'
loop_
 _atom_site_type_symbol
 _atom_site_label
 _atom_site_symmetry_multiplicity
 _atom_site_fract_x
 _atom_site_fract_y
 _atom_site_fract_z
 _atom_site_occupancy
  Li  Li0  1  0.06178040  0.08298607  0.02901507  1
  Ti  Ti1  1  0.09407847  0.30456105  0.37073783  1
  O  O2  1  0.42123344  0.58214543  0.85122007  1
  O  O3  1  0.55365772  0.71039538  0.36050938  1
  O  O4  1  0.64510050  0.10927663  0.70273270  1
  O  O5  1  0.87641470  0.29449512  0.10062599  1
