# generated using pymatgen
data_LiTa2InCl9
_symmetry_space_group_name_H-M   'P 1'
_cell_length_a   10.39576811
_cell_length_b   10.39576811
_cell_length_c   9.72435196
_cell_angle_alpha   90.00000000
_cell_angle_beta   90.00000000
_cell_angle_gamma   90.00000000
_symmetry_Int_Tables_number   1
_chemical_formula_structural   LiTa2InCl9
_chemical_formula_sum   'Li1 Ta2 In1 Cl9'
_cell_volume   1050.93011289
_cell_formula_units_Z   1
loop_
 _symmetry_equiv_pos_site_id
 _symmetry_equiv_pos_as_xyz
  1  'x, y, z'
loop_
 _atom_site_type_symbol
 _atom_site_label
 _atom_site_symmetry_multiplicity
 _atom_site_fract_x
 _atom_site_fract_y
 _atom_site_fract_z
 _atom_site_occupancy
  Li  Li0  1  0.94794008  0.90746718  0.07819282  1
  Ta  Ta1  1  0.98373538  0.20734588  0.20117601  1
  Ta  Ta2  1  0.22579746  0.24216520  0.41845243  1
  Cl  Cl3  1  0.32143955  0.36678819  0.55288633  1
  Cl  Cl4  1  0.23843717  0.41367481  0.72849385  1
  Cl  Cl5  1  0.43159107  0.56385080  0.03698032  1
  Cl  Cl6  1  0.55274453  0.78037684  0.25832841  1
  Cl  Cl7  1  0.44495728  0.80171525  0.37707829  1
  Cl  Cl8  1  0.52419877  0.93566503  0.60155210  1
  Cl  Cl9  1  0.75041857  0.17888727  0.86877847  1
  Cl  Cl10  1  0.69572277  0.19604205  0.08640045  1
  Cl  Cl11  1  0.80590559  0.32558031  0.27600491  1
  In  In12  1  0.91699594  0.51491490  0.49285825  1
