# generated using pymatgen
data_Li2AlO3
_symmetry_space_group_name_H-M   'P 1'
_cell_length_a   6.09664679
_cell_length_b   6.09664679
_cell_length_c   11.09651003
_cell_angle_alpha   90.00000000
_cell_angle_beta   90.00000000
_cell_angle_gamma   120.00000000
_symmetry_Int_Tables_number   1
_chemical_formula_structural   Li2AlO3
_chemical_formula_sum   'Li2 Al1 O3'
_cell_volume   357.18985157
_cell_formula_units_Z   1
loop_
 _symmetry_equiv_pos_site_id
 _symmetry_equiv_pos_as_xyz
  1  'x, y, z'
loop_
 _atom_site_type_symbol
 _atom_site_label
 _atom_site_symmetry_multiplicity
 _atom_site_fract_x
 _atom_site_fract_y
 _atom_site_fract_z
 _atom_site_occupancy
  Li  Li0  1  0.03869818  0.07505202  0.00665762  1
  Li  Li1  1  0.14402675  0.19361089  0.40046694  1
  Al  Al2  1  0.35150362  0.47318042  0.90404681  1
  O  O3  1  0.43697148  0.73870722  0.27516702  1
  O  O4  1  0.58145372  0.15314652  0.81249967  1
  O  O5  1  0.81446412  0.31012823  0.15561841  1
