# generated using pymatgen
data_Li6Sc4Ta(BrCl3)2
_symmetry_space_group_name_H-M   'P 1'
_cell_length_a   10.00098038
_cell_length_b   9.22492211
_cell_length_c   8.54649064
_cell_angle_alpha   90.00000000
_cell_angle_beta   90.00000000
_cell_angle_gamma   90.00000000
_symmetry_Int_Tables_number   1
_chemical_formula_structural   Li6Sc4Ta(BrCl3)2
_chemical_formula_sum   'Li6 Sc4 Ta1 Br2 Cl6'
_cell_volume   788.48439828
_cell_formula_units_Z   1
loop_
 _symmetry_equiv_pos_site_id
 _symmetry_equiv_pos_as_xyz
  1  'x, y, z'
loop_
 _atom_site_type_symbol
 _atom_site_label
 _atom_site_symmetry_multiplicity
 _atom_site_fract_x
 _atom_site_fract_y
 _atom_site_fract_z
 _atom_site_occupancy
  Li  Li0  1  0.94743116  0.07125166  0.99551987  1
  Li  Li1  1  0.04147498  0.07416929  0.04280819  1
  Li  Li2  1  0.09322530  0.19932421  0.20264363  1
  Li  Li3  1  0.12045694  0.27354285  0.36155850  1
  Li  Li4  1  0.27146167  0.27021865  0.54262348  1
  Li  Li5  1  0.20791754  0.41526897  0.65339148  1
  Ta  Ta6  1  0.40219059  0.52188608  0.86551852  1
  Sc  Sc7  1  0.46207646  0.57442697  0.03972633  1
  Sc  Sc8  1  0.40179241  0.66358685  0.09463510  1
  Sc  Sc9  1  0.44400962  0.85028046  0.16982600  1
  Sc  Sc10  1  0.43701846  0.85713688  0.39154908  1
  Br  Br11  1  0.59147204  0.85552282  0.56963922  1
  Br  Br12  1  0.59642753  0.97512948  0.65109590  1
  Cl  Cl13  1  0.69999020  0.04988927  0.75635252  1
  Cl  Cl14  1  0.77601519  0.23170278  0.94690489  1
  Cl  Cl15  1  0.80094691  0.31117476  0.03398641  1
  Cl  Cl16  1  0.91561579  0.29593665  0.29629635  1
  Cl  Cl17  1  0.96848221  0.54077506  0.41983451  1
  Cl  Cl18  1  0.01833682  0.62745137  0.52443328  1
