# generated using pymatgen
data_Li3Ta2Ga3P4S5
_symmetry_space_group_name_H-M   'P 1'
_cell_length_a   13.95561088
_cell_length_b   9.51875977
_cell_length_c   3.42709470
_cell_angle_alpha   118.29845754
_cell_angle_beta   109.39162256
_cell_angle_gamma   68.44142508
_symmetry_Int_Tables_number   1
_chemical_formula_structural   Li3Ta2Ga3P4S5
_chemical_formula_sum   'Li3 Ta2 Ga3 P4 S5'
_cell_volume   365.81611609
_cell_formula_units_Z   1
loop_
 _symmetry_equiv_pos_site_id
 _symmetry_equiv_pos_as_xyz
  1  'x, y, z'
loop_
 _atom_site_type_symbol
 _atom_site_label
 _atom_site_symmetry_multiplicity
 _atom_site_fract_x
 _atom_site_fract_y
 _atom_site_fract_z
 _atom_site_occupancy
  Li  Li0  1  0.90532070  0.94844165  0.07155484  1
  Li  Li1  1  0.98701646  0.14973932  0.17598118  1
  Li  Li2  1  0.03429229  0.27042358  0.40527216  1
  Ta  Ta3  1  0.26781008  0.30398276  0.51980046  1
  Ta  Ta4  1  0.15021125  0.43187536  0.56065489  1
  Ga  Ga5  1  0.36082117  0.41869595  0.77738103  1
  Ga  Ga6  1  0.26140854  0.49651050  0.85249913  1
  Ga  Ga7  1  0.39518943  0.72325430  0.16959843  1
  S  S8  1  0.41423321  0.78748390  0.31376551  1
  S  S9  1  0.51392586  0.78152001  0.29699695  1
  S  S10  1  0.61331933  0.96598202  0.62914267  1
  S  S11  1  0.69229764  0.98633707  0.76532633  1
  S  S12  1  0.72508700  0.14684633  0.93129685  1
  P  P13  1  0.81973277  0.28094146  0.05251917  1
  P  P14  1  0.91481333  0.41127066  0.24448124  1
  P  P15  1  0.96008854  0.47364162  0.25119533  1
  P  P16  1  0.00330220  0.56283484  0.53360327  1
