# generated using pymatgen
data_SrLi4TiO4
_symmetry_space_group_name_H-M   'P 1'
_cell_length_a   3.80266645
_cell_length_b   4.39396846
_cell_length_c   4.66819978
_cell_angle_alpha   90.00000000
_cell_angle_beta   90.00000000
_cell_angle_gamma   90.00000000
_symmetry_Int_Tables_number   1
_chemical_formula_structural   SrLi4TiO4
_chemical_formula_sum   'Sr1 Li4 Ti1 O4'
_cell_volume   78.00000000
_cell_formula_units_Z   1
loop_
 _symmetry_equiv_pos_site_id
 _symmetry_equiv_pos_as_xyz
  1  'x, y, z'
loop_
 _atom_site_type_symbol
 _atom_site_label
 _atom_site_symmetry_multiplicity
 _atom_site_fract_x
 _atom_site_fract_y
 _atom_site_fract_z
 _atom_site_occupancy
  Li  Li0  1  0.93361708  0.95790355  0.02199672  1
  Li  Li1  1  0.10297852  0.24687568  0.29766937  1
  Li  Li2  1  0.15411140  0.23600225  0.44957136  1
  Li  Li3  1  0.35309353  0.40450955  0.78855989  1
  Ti  Ti4  1  0.47508656  0.65287687  0.12374920  1
  O  O5  1  0.56415113  0.87512034  0.34869507  1
  O  O6  1  0.51071717  0.94942700  0.53225949  1
  O  O7  1  0.60303873  0.07867505  0.77081095  1
  O  O8  1  0.77328444  0.21727678  0.02320431  1
  Sr  Sr9  1  0.97117726  0.41622603  0.26086887  1
