# generated using pymatgen
data_Li3GaP8
_symmetry_space_group_name_H-M   'P 1'
_cell_length_a   11.46391927
_cell_length_b   4.33939342
_cell_length_c   6.00247855
_cell_angle_alpha   95.89109522
_cell_angle_beta   86.64451046
_cell_angle_gamma   111.14509672
_symmetry_Int_Tables_number   1
_chemical_formula_structural   Li3GaP8
_chemical_formula_sum   'Li3 Ga1 P8'
_cell_volume   276.95188147
_cell_formula_units_Z   1
loop_
 _symmetry_equiv_pos_site_id
 _symmetry_equiv_pos_as_xyz
  1  'x, y, z'
loop_
 _atom_site_type_symbol
 _atom_site_label
 _atom_site_symmetry_multiplicity
 _atom_site_fract_x
 _atom_site_fract_y
 _atom_site_fract_z
 _atom_site_occupancy
  Li  Li0  1  0.91789508  0.05924789  0.97670667  1
  Li  Li1  1  0.03285786  0.17213205  0.26261874  1
  Li  Li2  1  0.23286289  0.29847535  0.34032803  1
  Ga  Ga3  1  0.33308488  0.37164357  0.57114437  1
  P  P4  1  0.32118804  0.47458175  0.93990821  1
  P  P5  1  0.34402036  0.62962338  0.10899931  1
  P  P6  1  0.41819618  0.78272213  0.36655409  1
  P  P7  1  0.51685859  0.87315158  0.57469099  1
  P  P8  1  0.63946005  0.13954059  0.77519328  1
  P  P9  1  0.80737534  0.24445078  0.93869524  1
  P  P10  1  0.91431546  0.36751516  0.20619862  1
  P  P11  1  0.85434615  0.38621860  0.40596730  1
