# generated using pymatgen
data_Li7La2ZrO15
_symmetry_space_group_name_H-M   'P 1'
_cell_length_a   5.98142403
_cell_length_b   5.98142403
_cell_length_c   5.98142403
_cell_angle_alpha   90.00000000
_cell_angle_beta   90.00000000
_cell_angle_gamma   90.00000000
_symmetry_Int_Tables_number   1
_chemical_formula_structural   Li7La2ZrO15
_chemical_formula_sum   'Li7 La2 Zr1 O15'
_cell_volume   214.00000000
_cell_formula_units_Z   1
loop_
 _symmetry_equiv_pos_site_id
 _symmetry_equiv_pos_as_xyz
  1  'x, y, z'
loop_
 _atom_site_type_symbol
 _atom_site_label
 _atom_site_symmetry_multiplicity
 _atom_site_fract_x
 _atom_site_fract_y
 _atom_site_fract_z
 _atom_site_occupancy
  Li  Li0  1  0.07912801  0.94003870  0.05383505  1
  Li  Li1  1  0.09923651  0.13263837  0.05666338  1
  Li  Li2  1  0.04028767  0.08918576  0.23672283  1
  Li  Li3  1  0.19530224  0.11430622  0.34423044  1
  Li  Li4  1  0.07983487  0.34175607  0.51521884  1
  Li  Li5  1  0.12510175  0.26663613  0.50986703  1
  Li  Li6  1  0.17820544  0.29126649  0.55177332  1
  La  La7  1  0.27492140  0.40931267  0.74357963  1
  La  La8  1  0.41525332  0.44904428  0.79851758  1
  Zr  Zr9  1  0.31206776  0.63425860  0.03711701  1
  O  O10  1  0.38211756  0.58607031  0.01096458  1
  O  O11  1  0.45998346  0.73504218  0.10504875  1
  O  O12  1  0.52510939  0.79187438  0.17382621  1
  O  O13  1  0.43768475  0.81354885  0.35813518  1
  O  O14  1  0.65442021  0.88541195  0.51900979  1
  O  O15  1  0.63149530  0.00175377  0.52097327  1
  O  O16  1  0.60381385  0.01626597  0.62297103  1
  O  O17  1  0.58084848  0.04724792  0.82935729  1
  O  O18  1  0.71680670  0.22358213  0.87548755  1
  O  O19  1  0.79892505  0.29211451  0.91563038  1
  O  O20  1  0.86865791  0.19627684  0.12689589  1
  O  O21  1  0.80133838  0.28635932  0.27797060  1
  O  O22  1  0.84178075  0.43752240  0.22457337  1
  O  O23  1  0.89778502  0.56023202  0.41393963  1
  O  O24  1  0.91572131  0.52561269  0.43968629  1
