# generated using pymatgen
data_LiLaAlF3
_symmetry_space_group_name_H-M   'P 1'
_cell_length_a   13.47104968
_cell_length_b   13.47104968
_cell_length_c   14.11142440
_cell_angle_alpha   90.00000000
_cell_angle_beta   90.00000000
_cell_angle_gamma   90.00000000
_symmetry_Int_Tables_number   1
_chemical_formula_structural   LiLaAlF3
_chemical_formula_sum   'Li1 La1 Al1 F3'
_cell_volume   2560.78860804
_cell_formula_units_Z   1
loop_
 _symmetry_equiv_pos_site_id
 _symmetry_equiv_pos_as_xyz
  1  'x, y, z'
loop_
 _atom_site_type_symbol
 _atom_site_label
 _atom_site_symmetry_multiplicity
 _atom_site_fract_x
 _atom_site_fract_y
 _atom_site_fract_z
 _atom_site_occupancy
  Li  Li0  1  0.96024138  0.03493907  0.91722596  1
  Al  Al1  1  0.24999969  0.27454717  0.45100931  1
  F  F2  1  0.32026072  0.57814281  0.86775114  1
  F  F3  1  0.46631685  0.82130971  0.22429537  1
  F  F4  1  0.61888710  0.03663656  0.66047952  1
  La  La5  1  0.82147068  0.39624349  0.11241157  1
