# generated using pymatgen
data_Li5Ti2F4
_symmetry_space_group_name_H-M   'P 1'
_cell_length_a   8.11902497
_cell_length_b   8.11902497
_cell_length_c   8.58965438
_cell_angle_alpha   90.00000000
_cell_angle_beta   90.00000000
_cell_angle_gamma   90.00000000
_symmetry_Int_Tables_number   1
_chemical_formula_structural   Li5Ti2F4
_chemical_formula_sum   'Li5 Ti2 F4'
_cell_volume   566.21770298
_cell_formula_units_Z   1
loop_
 _symmetry_equiv_pos_site_id
 _symmetry_equiv_pos_as_xyz
  1  'x, y, z'
loop_
 _atom_site_type_symbol
 _atom_site_label
 _atom_site_symmetry_multiplicity
 _atom_site_fract_x
 _atom_site_fract_y
 _atom_site_fract_z
 _atom_site_occupancy
  Li  Li0  1  0.08919612  0.09921463  0.95195460  1
  Li  Li1  1  0.14683095  0.23439718  0.27632672  1
  Li  Li2  1  0.11908344  0.31962185  0.38105349  1
  Li  Li3  1  0.34635092  0.44581337  0.70598521  1
  Li  Li4  1  0.36465841  0.49507422  0.93163797  1
  Ti  Ti5  1  0.36955829  0.77833317  0.26173763  1
  Ti  Ti6  1  0.57764349  0.89533606  0.46639740  1
  F  F7  1  0.59629752  0.04311914  0.68602451  1
  F  F8  1  0.82658327  0.12919057  0.85506558  1
  F  F9  1  0.90170203  0.33597854  0.08612614  1
  F  F10  1  0.84183007  0.45147431  0.47489064  1
