# generated using pymatgen
data_Li8La3Zr4O12
_symmetry_space_group_name_H-M   'P 1'
_cell_length_a   5.43130952
_cell_length_b   7.01695719
_cell_length_c   7.42562572
_cell_angle_alpha   90.00000000
_cell_angle_beta   90.00000000
_cell_angle_gamma   90.00000000
_symmetry_Int_Tables_number   1
_chemical_formula_structural   Li8La3Zr4O12
_chemical_formula_sum   'Li8 La3 Zr4 O12'
_cell_volume   283.00000000
_cell_formula_units_Z   1
loop_
 _symmetry_equiv_pos_site_id
 _symmetry_equiv_pos_as_xyz
  1  'x, y, z'
loop_
 _atom_site_type_symbol
 _atom_site_label
 _atom_site_symmetry_multiplicity
 _atom_site_fract_x
 _atom_site_fract_y
 _atom_site_fract_z
 _atom_site_occupancy
  Li  Li0  1  0.90057847  0.05780012  0.93440582  1
  Li  Li1  1  0.96142550  0.01955532  0.17423872  1
  Li  Li2  1  0.10417301  0.06123979  0.23267549  1
  Li  Li3  1  0.08810164  0.25396328  0.32098491  1
  Li  Li4  1  0.16748516  0.27845097  0.47517405  1
  Li  Li5  1  0.11746620  0.33761774  0.56468702  1
  Li  Li6  1  0.30673057  0.29740711  0.48818173  1
  Li  Li7  1  0.30321001  0.38474319  0.67479179  1
  La  La8  1  0.27049043  0.45919573  0.71776544  1
  La  La9  1  0.39549977  0.45982652  0.83139979  1
  La  La10  1  0.46876896  0.53264321  0.93779883  1
  Zr  Zr11  1  0.37071301  0.72337252  0.06483805  1
  Zr  Zr12  1  0.46737784  0.71489795  0.07216149  1
  Zr  Zr13  1  0.47015141  0.85552554  0.29804111  1
  Zr  Zr14  1  0.58889751  0.86804551  0.28352521  1
  O  O15  1  0.61904205  0.92434824  0.37763377  1
  O  O16  1  0.58714636  0.98787629  0.48782585  1
  O  O17  1  0.63928255  0.05777323  0.65625896  1
  O  O18  1  0.58392360  0.16748245  0.67077722  1
  O  O19  1  0.80348211  0.11047567  0.83921928  1
  O  O20  1  0.65556531  0.28221157  0.97775523  1
  O  O21  1  0.79639844  0.20125602  0.10220041  1
  O  O22  1  0.87088809  0.23322290  0.05972836  1
  O  O23  1  0.91849879  0.28212693  0.13083102  1
  O  O24  1  0.78900454  0.42307810  0.39784583  1
  O  O25  1  0.97704562  0.51038320  0.40332760  1
  O  O26  1  0.97801883  0.48131810  0.43094904  1
