# generated using pymatgen
data_Na3Nb3Ga2P8N9
_symmetry_space_group_name_H-M   'P 1'
_cell_length_a   9.99028038
_cell_length_b   11.82798508
_cell_length_c   11.22064061
_cell_angle_alpha   90.00000000
_cell_angle_beta   90.00000000
_cell_angle_gamma   90.00000000
_symmetry_Int_Tables_number   1
_chemical_formula_structural   Na3Nb3Ga2P8N9
_chemical_formula_sum   'Na3 Nb3 Ga2 P8 N9'
_cell_volume   1325.88573253
_cell_formula_units_Z   1
loop_
 _symmetry_equiv_pos_site_id
 _symmetry_equiv_pos_as_xyz
  1  'x, y, z'
loop_
 _atom_site_type_symbol
 _atom_site_label
 _atom_site_symmetry_multiplicity
 _atom_site_fract_x
 _atom_site_fract_y
 _atom_site_fract_z
 _atom_site_occupancy
  Na  Na0  1  0.09700167  0.06318946  0.06459333  1
  Na  Na1  1  0.08989829  0.15197751  0.11396133  1
  Na  Na2  1  0.02802660  0.19410073  0.23908537  1
  Ga  Ga3  1  0.17994667  0.10839195  0.32715353  1
  Ga  Ga4  1  0.15817791  0.16554018  0.38118978  1
  Nb  Nb5  1  0.15888149  0.40576879  0.58051309  1
  Nb  Nb6  1  0.32783883  0.38524715  0.70555993  1
  Nb  Nb7  1  0.18840061  0.50003607  0.70824712  1
  P  P8  1  0.36435460  0.44275337  0.78604836  1
  P  P9  1  0.28017557  0.56555548  0.91661356  1
  P  P10  1  0.38364912  0.62919771  0.07002360  1
  P  P11  1  0.50167802  0.63238295  0.23721679  1
  P  P12  1  0.50395079  0.77647499  0.34168044  1
  P  P13  1  0.52999149  0.90133971  0.29124852  1
  P  P14  1  0.61308692  0.97720125  0.50870264  1
  P  P15  1  0.66697446  0.02994202  0.56949430  1
  N  N16  1  0.70782426  0.07495417  0.68380345  1
  N  N17  1  0.62673355  0.09049397  0.73917088  1
  N  N18  1  0.76474311  0.17567304  0.88690473  1
  N  N19  1  0.70927110  0.25731156  0.91711367  1
  N  N20  1  0.76724406  0.23999786  0.14691773  1
  N  N21  1  0.92051179  0.33378970  0.27275486  1
  N  N22  1  0.88559859  0.33994300  0.24385933  1
  N  N23  1  0.90234105  0.48058627  0.40016935  1
  N  N24  1  0.91307513  0.53708824  0.42447907  1
