# generated using pymatgen
data_Li2TiO6
_symmetry_space_group_name_H-M   'P 1'
_cell_length_a   4.67346844
_cell_length_b   4.67346844
_cell_length_c   4.67346844
_cell_angle_alpha   90.00000000
_cell_angle_beta   90.00000000
_cell_angle_gamma   90.00000000
_symmetry_Int_Tables_number   1
_chemical_formula_structural   Li2TiO6
_chemical_formula_sum   'Li2 Ti1 O6'
_cell_volume   102.07465998
_cell_formula_units_Z   1
loop_
 _symmetry_equiv_pos_site_id
 _symmetry_equiv_pos_as_xyz
  1  'x, y, z'
loop_
 _atom_site_type_symbol
 _atom_site_label
 _atom_site_symmetry_multiplicity
 _atom_site_fract_x
 _atom_site_fract_y
 _atom_site_fract_z
 _atom_site_occupancy
  Li  Li0  1  0.04326090  0.99492928  0.06817280  1
  Li  Li1  1  0.05912560  0.26989794  0.36829544  1
  Ti  Ti2  1  0.13508174  0.41326138  0.62973305  1
  O  O3  1  0.29557787  0.63924000  0.79505925  1
  O  O4  1  0.35288395  0.68671034  0.17806911  1
  O  O5  1  0.59143099  0.95629700  0.51677075  1
  O  O6  1  0.68661381  0.05975967  0.79643692  1
  O  O7  1  0.71433204  0.28154457  0.01438151  1
  O  O8  1  0.84554525  0.53410111  0.33976917  1
