# generated using pymatgen
data_Li4(NbS)3
_symmetry_space_group_name_H-M   'P 1'
_cell_length_a   9.09494993
_cell_length_b   9.09494993
_cell_length_c   8.73804209
_cell_angle_alpha   90.00000000
_cell_angle_beta   90.00000000
_cell_angle_gamma   90.00000000
_symmetry_Int_Tables_number   1
_chemical_formula_structural   Li4(NbS)3
_chemical_formula_sum   'Li4 Nb3 S3'
_cell_volume   722.79436370
_cell_formula_units_Z   1
loop_
 _symmetry_equiv_pos_site_id
 _symmetry_equiv_pos_as_xyz
  1  'x, y, z'
loop_
 _atom_site_type_symbol
 _atom_site_label
 _atom_site_symmetry_multiplicity
 _atom_site_fract_x
 _atom_site_fract_y
 _atom_site_fract_z
 _atom_site_occupancy
  Li  Li0  1  0.08163186  0.08168804  0.07624396  1
  Li  Li1  1  0.18396259  0.16093471  0.18491728  1
  Li  Li2  1  0.23547177  0.41050815  0.59609669  1
  Li  Li3  1  0.24319287  0.58438891  0.88274861  1
  Nb  Nb4  1  0.31992641  0.67199523  0.13374785  1
  Nb  Nb5  1  0.50516173  0.90014555  0.36798846  1
  Nb  Nb6  1  0.69980996  0.97100781  0.52085376  1
  S  S7  1  0.79803860  0.12010423  0.78338361  1
  S  S8  1  0.70558051  0.30533461  0.10138581  1
  S  S9  1  0.93070043  0.48456137  0.32076521  1
