# generated using pymatgen
data_LiTi2(P2O7)2
_symmetry_space_group_name_H-M   'P 1'
_cell_length_a   5.28957247
_cell_length_b   5.28957247
_cell_length_c   5.28957247
_cell_angle_alpha   90.00000000
_cell_angle_beta   90.00000000
_cell_angle_gamma   90.00000000
_symmetry_Int_Tables_number   1
_chemical_formula_structural   LiTi2(P2O7)2
_chemical_formula_sum   'Li1 Ti2 P4 O14'
_cell_volume   148.00000000
_cell_formula_units_Z   1
loop_
 _symmetry_equiv_pos_site_id
 _symmetry_equiv_pos_as_xyz
  1  'x, y, z'
loop_
 _atom_site_type_symbol
 _atom_site_label
 _atom_site_symmetry_multiplicity
 _atom_site_fract_x
 _atom_site_fract_y
 _atom_site_fract_z
 _atom_site_occupancy
  Li  Li0  1  0.90699025  0.94737500  0.94464619  1
  Ti  Ti1  1  0.05417930  0.06241697  0.07057449  1
  Ti  Ti2  1  0.16092891  0.12680381  0.29665409  1
  P  P3  1  0.23387207  0.24808899  0.38520316  1
  P  P4  1  0.15865373  0.22421349  0.46902069  1
  P  P5  1  0.14252693  0.29803124  0.61057754  1
  P  P6  1  0.31235774  0.47525628  0.70117417  1
  O  O7  1  0.36535413  0.56291802  0.96051213  1
  O  O8  1  0.31386637  0.57134669  0.90782457  1
  O  O9  1  0.48780474  0.72140298  0.15814014  1
  O  O10  1  0.41353895  0.70035287  0.17982729  1
  O  O11  1  0.46024513  0.79258452  0.46278291  1
  O  O12  1  0.51575904  0.92216616  0.55303651  1
  O  O13  1  0.53564227  0.05437037  0.56549365  1
  O  O14  1  0.58925677  0.08698987  0.74882591  1
  O  O15  1  0.69976502  0.13553836  0.83981276  1
  O  O16  1  0.69732461  0.31484638  0.05474453  1
  O  O17  1  0.90876953  0.34190529  0.08460518  1
  O  O18  1  0.95551096  0.42812560  0.34189248  1
  O  O19  1  0.95682186  0.43796252  0.32108284  1
  O  O20  1  0.02239771  0.57965056  0.56838536  1
