# generated using pymatgen
data_Li3Ta2O3
_symmetry_space_group_name_H-M   'P 1'
_cell_length_a   4.85726329
_cell_length_b   4.41662716
_cell_length_c   5.39959899
_cell_angle_alpha   90.00000000
_cell_angle_beta   90.00000000
_cell_angle_gamma   90.00000000
_symmetry_Int_Tables_number   1
_chemical_formula_structural   Li3Ta2O3
_chemical_formula_sum   'Li3 Ta2 O3'
_cell_volume   115.83609047
_cell_formula_units_Z   1
loop_
 _symmetry_equiv_pos_site_id
 _symmetry_equiv_pos_as_xyz
  1  'x, y, z'
loop_
 _atom_site_type_symbol
 _atom_site_label
 _atom_site_symmetry_multiplicity
 _atom_site_fract_x
 _atom_site_fract_y
 _atom_site_fract_z
 _atom_site_occupancy
  Li  Li0  1  0.03061510  0.99888143  0.04815023  1
  Li  Li1  1  0.12812661  0.28068143  0.31955038  1
  Li  Li2  1  0.25489035  0.46345372  0.74419001  1
  Ta  Ta3  1  0.38474411  0.68433983  0.97142769  1
  Ta  Ta4  1  0.54119594  0.86938357  0.32551801  1
  O  O5  1  0.65770158  0.91539990  0.56711902  1
  O  O6  1  0.77714824  0.19983445  0.04905988  1
  O  O7  1  0.94343464  0.39449173  0.38719921  1
