# generated using pymatgen
data_Li3AlO5
_symmetry_space_group_name_H-M   'P 1'
_cell_length_a   6.58644243
_cell_length_b   6.58644243
_cell_length_c   11.87816767
_cell_angle_alpha   90.00000000
_cell_angle_beta   90.00000000
_cell_angle_gamma   120.00000000
_symmetry_Int_Tables_number   1
_chemical_formula_structural   Li3AlO5
_chemical_formula_sum   'Li3 Al1 O5'
_cell_volume   446.25375444
_cell_formula_units_Z   1
loop_
 _symmetry_equiv_pos_site_id
 _symmetry_equiv_pos_as_xyz
  1  'x, y, z'
loop_
 _atom_site_type_symbol
 _atom_site_label
 _atom_site_symmetry_multiplicity
 _atom_site_fract_x
 _atom_site_fract_y
 _atom_site_fract_z
 _atom_site_occupancy
  Li  Li0  1  0.06601879  0.94344189  0.90821442  1
  Li  Li1  1  0.09819234  0.19461138  0.25600073  1
  Li  Li2  1  0.22988245  0.41366479  0.59853695  1
  Al  Al3  1  0.33506774  0.53314134  0.93772081  1
  O  O4  1  0.49833620  0.67576928  0.12658443  1
  O  O5  1  0.63806392  0.90036910  0.52359398  1
  O  O6  1  0.66477754  0.16832517  0.68766715  1
  O  O7  1  0.78416686  0.28151179  0.96901507  1
  O  O8  1  0.82859468  0.53720532  0.42578701  1
