# generated using pymatgen
data_Li2InI5
_symmetry_space_group_name_H-M   'P 1'
_cell_length_a   3.92020054
_cell_length_b   4.41488373
_cell_length_c   4.73790445
_cell_angle_alpha   90.00000000
_cell_angle_beta   90.00000000
_cell_angle_gamma   90.00000000
_symmetry_Int_Tables_number   1
_chemical_formula_structural   Li2InI5
_chemical_formula_sum   'Li2 In1 I5'
_cell_volume   82.00000000
_cell_formula_units_Z   1
loop_
 _symmetry_equiv_pos_site_id
 _symmetry_equiv_pos_as_xyz
  1  'x, y, z'
loop_
 _atom_site_type_symbol
 _atom_site_label
 _atom_site_symmetry_multiplicity
 _atom_site_fract_x
 _atom_site_fract_y
 _atom_site_fract_z
 _atom_site_occupancy
  Li  Li0  1  0.97687606  0.04990840  0.09948799  1
  Li  Li1  1  0.08873389  0.10273303  0.39441403  1
  In  In2  1  0.34048471  0.46842796  0.55794533  1
  I  I3  1  0.45983322  0.50930080  0.92961084  1
  I  I4  1  0.44698052  0.81265592  0.33635102  1
  I  I5  1  0.70129064  0.99566210  0.64245726  1
  I  I6  1  0.67369750  0.28497190  0.89411665  1
  I  I7  1  0.78445222  0.37904221  0.31649674  1
