# generated using pymatgen
data_Li2AlO5
_symmetry_space_group_name_H-M   'P 1'
_cell_length_a   10.60440809
_cell_length_b   10.60440809
_cell_length_c   14.38018162
_cell_angle_alpha   90.00000000
_cell_angle_beta   90.00000000
_cell_angle_gamma   120.00000000
_symmetry_Int_Tables_number   1
_chemical_formula_structural   Li2AlO5
_chemical_formula_sum   'Li2 Al1 O5'
_cell_volume   1400.45083870
_cell_formula_units_Z   1
loop_
 _symmetry_equiv_pos_site_id
 _symmetry_equiv_pos_as_xyz
  1  'x, y, z'
loop_
 _atom_site_type_symbol
 _atom_site_label
 _atom_site_symmetry_multiplicity
 _atom_site_fract_x
 _atom_site_fract_y
 _atom_site_fract_z
 _atom_site_occupancy
  Li  Li0  1  0.04656209  0.03924847  0.96183661  1
  Li  Li1  1  0.05466078  0.18281475  0.25504224  1
  Al  Al2  1  0.32872178  0.46071538  0.64276922  1
  O  O3  1  0.46326130  0.66965447  0.02800264  1
  O  O4  1  0.55621804  0.76607829  0.38345281  1
  O  O5  1  0.55438367  0.99222492  0.70936064  1
  O  O6  1  0.79722413  0.23408452  0.96388513  1
  O  O7  1  0.90795454  0.47790629  0.36381003  1
