# generated using pymatgen
data_Li2TiO5
_symmetry_space_group_name_H-M   'P 1'
_cell_length_a   7.13857959
_cell_length_b   7.13857959
_cell_length_c   7.13857959
_cell_angle_alpha   90.00000000
_cell_angle_beta   90.00000000
_cell_angle_gamma   90.00000000
_symmetry_Int_Tables_number   1
_chemical_formula_structural   Li2TiO5
_chemical_formula_sum   'Li2 Ti1 O5'
_cell_volume   363.77715211
_cell_formula_units_Z   1
loop_
 _symmetry_equiv_pos_site_id
 _symmetry_equiv_pos_as_xyz
  1  'x, y, z'
loop_
 _atom_site_type_symbol
 _atom_site_label
 _atom_site_symmetry_multiplicity
 _atom_site_fract_x
 _atom_site_fract_y
 _atom_site_fract_z
 _atom_site_occupancy
  Li  Li0  1  0.04969214  0.92886802  0.96742207  1
  Li  Li1  1  0.16696788  0.20328371  0.27984084  1
  Ti  Ti2  1  0.21715758  0.42028124  0.62799451  1
  O  O3  1  0.42445683  0.57942493  0.96015231  1
  O  O4  1  0.43206082  0.85462873  0.21321964  1
  O  O5  1  0.66300086  0.97902149  0.70615074  1
  O  O6  1  0.66311248  0.25004748  0.05897049  1
  O  O7  1  0.88327604  0.36402868  0.37949876  1
