# generated using pymatgen
data_Li3TiO6
_symmetry_space_group_name_H-M   'P 1'
_cell_length_a   7.71472022
_cell_length_b   7.71472022
_cell_length_c   7.71472022
_cell_angle_alpha   90.00000000
_cell_angle_beta   90.00000000
_cell_angle_gamma   90.00000000
_symmetry_Int_Tables_number   1
_chemical_formula_structural   Li3TiO6
_chemical_formula_sum   'Li3 Ti1 O6'
_cell_volume   459.15629366
_cell_formula_units_Z   1
loop_
 _symmetry_equiv_pos_site_id
 _symmetry_equiv_pos_as_xyz
  1  'x, y, z'
loop_
 _atom_site_type_symbol
 _atom_site_label
 _atom_site_symmetry_multiplicity
 _atom_site_fract_x
 _atom_site_fract_y
 _atom_site_fract_z
 _atom_site_occupancy
  Li  Li0  1  0.90931003  0.01579939  0.08627064  1
  Li  Li1  1  0.17263531  0.14492326  0.18589869  1
  Li  Li2  1  0.15257946  0.26490910  0.48261672  1
  Ti  Ti3  1  0.36302828  0.39387972  0.74243283  1
  O  O4  1  0.31741265  0.69249921  0.10980943  1
  O  O5  1  0.47080109  0.89473712  0.36555769  1
  O  O6  1  0.50058077  0.94164838  0.55403484  1
  O  O7  1  0.61365296  0.21161599  0.79563056  1
  O  O8  1  0.82750326  0.33817333  0.12257572  1
  O  O9  1  0.97147003  0.38346246  0.25853134  1
