# generated using pymatgen
data_Li4ZrF8
_symmetry_space_group_name_H-M   'P 1'
_cell_length_a   11.89211044
_cell_length_b   11.89211044
_cell_length_c   11.51367426
_cell_angle_alpha   90.00000000
_cell_angle_beta   90.00000000
_cell_angle_gamma   90.00000000
_symmetry_Int_Tables_number   1
_chemical_formula_structural   Li4ZrF8
_chemical_formula_sum   'Li4 Zr1 F8'
_cell_volume   1628.29018834
_cell_formula_units_Z   1
loop_
 _symmetry_equiv_pos_site_id
 _symmetry_equiv_pos_as_xyz
  1  'x, y, z'
loop_
 _atom_site_type_symbol
 _atom_site_label
 _atom_site_symmetry_multiplicity
 _atom_site_fract_x
 _atom_site_fract_y
 _atom_site_fract_z
 _atom_site_occupancy
  Li  Li0  1  0.00378586  0.95543037  0.06583174  1
  Li  Li1  1  0.05121214  0.14347019  0.22279546  1
  Li  Li2  1  0.17428288  0.23627019  0.35433111  1
  Li  Li3  1  0.20385227  0.32258906  0.51150207  1
  Zr  Zr4  1  0.33284857  0.57499296  0.81906215  1
  F  F5  1  0.28585988  0.72120203  0.90976580  1
  F  F6  1  0.45739887  0.69801907  0.12351046  1
  F  F7  1  0.49326921  0.94608742  0.33970129  1
  F  F8  1  0.67742157  0.91338129  0.70599452  1
  F  F9  1  0.65772177  0.10370859  0.90673517  1
  F  F10  1  0.81435855  0.19225615  0.04009990  1
  F  F11  1  0.79539887  0.29628524  0.27211874  1
  F  F12  1  0.00684516  0.47822386  0.41222795  1
