# generated using pymatgen
data_Li4Ga2S7
_symmetry_space_group_name_H-M   'P 1'
_cell_length_a   10.93414809
_cell_length_b   10.93414809
_cell_length_c   10.93523315
_cell_angle_alpha   90.00000000
_cell_angle_beta   90.00000000
_cell_angle_gamma   90.00000000
_symmetry_Int_Tables_number   1
_chemical_formula_structural   Li4Ga2S7
_chemical_formula_sum   'Li4 Ga2 S7'
_cell_volume   1307.36829982
_cell_formula_units_Z   1
loop_
 _symmetry_equiv_pos_site_id
 _symmetry_equiv_pos_as_xyz
  1  'x, y, z'
loop_
 _atom_site_type_symbol
 _atom_site_label
 _atom_site_symmetry_multiplicity
 _atom_site_fract_x
 _atom_site_fract_y
 _atom_site_fract_z
 _atom_site_occupancy
  Li  Li0  1  0.90107558  0.99505870  0.03818494  1
  Li  Li1  1  0.09418566  0.18690525  0.21405378  1
  Li  Li2  1  0.15645392  0.21207528  0.43710110  1
  Li  Li3  1  0.28107450  0.40275007  0.61912834  1
  Ga  Ga4  1  0.24643600  0.56866478  0.71609337  1
  Ga  Ga5  1  0.35545609  0.57891696  0.09344819  1
  S  S6  1  0.39389597  0.73777132  0.23511555  1
  S  S7  1  0.46537540  0.95087293  0.31006529  1
  S  S8  1  0.70037482  0.93799220  0.65468544  1
  S  S9  1  0.63134617  0.07345779  0.71296878  1
  S  S10  1  0.74241274  0.24018358  0.98274292  1
  S  S11  1  0.93942171  0.40860821  0.22364995  1
  S  S12  1  0.93475630  0.54850958  0.43585017  1
