# generated using pymatgen
data_Li4Al2Cl3
_symmetry_space_group_name_H-M   'P 1'
_cell_length_a   10.68399456
_cell_length_b   10.68399456
_cell_length_c   11.24653220
_cell_angle_alpha   90.00000000
_cell_angle_beta   90.00000000
_cell_angle_gamma   90.00000000
_symmetry_Int_Tables_number   1
_chemical_formula_structural   Li4Al2Cl3
_chemical_formula_sum   'Li4 Al2 Cl3'
_cell_volume   1283.76623038
_cell_formula_units_Z   1
loop_
 _symmetry_equiv_pos_site_id
 _symmetry_equiv_pos_as_xyz
  1  'x, y, z'
loop_
 _atom_site_type_symbol
 _atom_site_label
 _atom_site_symmetry_multiplicity
 _atom_site_fract_x
 _atom_site_fract_y
 _atom_site_fract_z
 _atom_site_occupancy
  Li  Li0  1  0.91158338  0.08486014  0.97277283  1
  Li  Li1  1  0.01851416  0.21942943  0.31656360  1
  Li  Li2  1  0.31931221  0.31388528  0.53099191  1
  Li  Li3  1  0.23431854  0.63115677  0.77877852  1
  Al  Al4  1  0.41677411  0.74958161  0.25269066  1
  Al  Al5  1  0.49792121  0.99141919  0.46084170  1
  Cl  Cl6  1  0.64157268  0.07108995  0.84482427  1
  Cl  Cl7  1  0.80105325  0.22559220  0.04936951  1
  Cl  Cl8  1  0.89236324  0.38718519  0.26714941  1
