# generated using pymatgen
data_LiYI4
_symmetry_space_group_name_H-M   'P 1'
_cell_length_a   4.50693541
_cell_length_b   4.50693541
_cell_length_c   6.69539557
_cell_angle_alpha   90.00000000
_cell_angle_beta   90.00000000
_cell_angle_gamma   90.00000000
_symmetry_Int_Tables_number   1
_chemical_formula_structural   LiYI4
_chemical_formula_sum   'Li2 Y2 I8'
_cell_volume   136.00000000
_cell_formula_units_Z   2
loop_
 _symmetry_equiv_pos_site_id
 _symmetry_equiv_pos_as_xyz
  1  'x, y, z'
loop_
 _atom_site_type_symbol
 _atom_site_label
 _atom_site_symmetry_multiplicity
 _atom_site_fract_x
 _atom_site_fract_y
 _atom_site_fract_z
 _atom_site_occupancy
  Li  Li0  1  0.01513947  0.93513106  0.94974263  1
  Li  Li1  1  0.06466805  0.12072144  0.12861432  1
  Y  Y2  1  0.26266098  0.21652142  0.52710487  1
  Y  Y3  1  0.33820668  0.38613768  0.74848626  1
  I  I4  1  0.35004290  0.54722881  0.91823359  1
  I  I5  1  0.51062409  0.58973400  0.13880283  1
  I  I6  1  0.46023539  0.84793692  0.32214469  1
  I  I7  1  0.51506819  0.91912126  0.43604067  1
  I  I8  1  0.69357376  0.10133716  0.80675523  1
  I  I9  1  0.83288337  0.18078045  0.99799679  1
  I  I10  1  0.85272939  0.31540006  0.22347288  1
  I  I11  1  0.95468138  0.55236780  0.47571407  1
