# generated using pymatgen
data_Li4TiO3
_symmetry_space_group_name_H-M   'P 1'
_cell_length_a   11.48987408
_cell_length_b   11.48987408
_cell_length_c   11.48987408
_cell_angle_alpha   90.00000000
_cell_angle_beta   90.00000000
_cell_angle_gamma   90.00000000
_symmetry_Int_Tables_number   1
_chemical_formula_structural   Li4TiO3
_chemical_formula_sum   'Li4 Ti1 O3'
_cell_volume   1516.86107907
_cell_formula_units_Z   1
loop_
 _symmetry_equiv_pos_site_id
 _symmetry_equiv_pos_as_xyz
  1  'x, y, z'
loop_
 _atom_site_type_symbol
 _atom_site_label
 _atom_site_symmetry_multiplicity
 _atom_site_fract_x
 _atom_site_fract_y
 _atom_site_fract_z
 _atom_site_occupancy
  Li  Li0  1  0.09537970  0.02722589  0.01069173  1
  Li  Li1  1  0.03377013  0.19302142  0.33249152  1
  Li  Li2  1  0.20850657  0.34888477  0.59535299  1
  Li  Li3  1  0.33456640  0.64575858  0.00004380  1
  Ti  Ti4  1  0.57531070  0.72364570  0.26194235  1
  O  O5  1  0.57320866  0.00296673  0.71371925  1
  O  O6  1  0.71465549  0.26197265  0.01290499  1
  O  O7  1  0.87137677  0.36967970  0.28939597  1
