# generated using pymatgen
data_Li2AlO5
_symmetry_space_group_name_H-M   'P 1'
_cell_length_a   4.73548609
_cell_length_b   4.73548609
_cell_length_c   6.99590416
_cell_angle_alpha   90.00000000
_cell_angle_beta   90.00000000
_cell_angle_gamma   120.00000000
_symmetry_Int_Tables_number   1
_chemical_formula_structural   Li2AlO5
_chemical_formula_sum   'Li2 Al1 O5'
_cell_volume   135.86375490
_cell_formula_units_Z   1
loop_
 _symmetry_equiv_pos_site_id
 _symmetry_equiv_pos_as_xyz
  1  'x, y, z'
loop_
 _atom_site_type_symbol
 _atom_site_label
 _atom_site_symmetry_multiplicity
 _atom_site_fract_x
 _atom_site_fract_y
 _atom_site_fract_z
 _atom_site_occupancy
  Li  Li0  1  0.99011343  0.97756306  0.90623366  1
  Li  Li1  1  0.11245762  0.17098260  0.23072212  1
  Al  Al2  1  0.32668699  0.42428122  0.73813422  1
  O  O3  1  0.40689479  0.64315944  0.97502802  1
  O  O4  1  0.50350564  0.76324583  0.29910676  1
  O  O5  1  0.63564359  0.07617865  0.57418801  1
  O  O6  1  0.83074156  0.13553436  0.03213105  1
  O  O7  1  0.95822983  0.46775745  0.26992563  1
