# generated using pymatgen
data_Li9La2Zr3O14
_symmetry_space_group_name_H-M   'P 1'
_cell_length_a   6.20401381
_cell_length_b   6.20401381
_cell_length_c   6.75503861
_cell_angle_alpha   90.00000000
_cell_angle_beta   90.00000000
_cell_angle_gamma   90.00000000
_symmetry_Int_Tables_number   1
_chemical_formula_structural   Li9La2Zr3O14
_chemical_formula_sum   'Li9 La2 Zr3 O14'
_cell_volume   260.00000000
_cell_formula_units_Z   1
loop_
 _symmetry_equiv_pos_site_id
 _symmetry_equiv_pos_as_xyz
  1  'x, y, z'
loop_
 _atom_site_type_symbol
 _atom_site_label
 _atom_site_symmetry_multiplicity
 _atom_site_fract_x
 _atom_site_fract_y
 _atom_site_fract_z
 _atom_site_occupancy
  Li  Li0  1  0.01104421  0.04731485  0.91394886  1
  Li  Li1  1  0.02189482  0.98234344  0.99634368  1
  Li  Li2  1  0.10916770  0.18107995  0.24117975  1
  Li  Li3  1  0.03389561  0.11010910  0.19346922  1
  Li  Li4  1  0.11538444  0.30601690  0.44761870  1
  Li  Li5  1  0.27124313  0.37700634  0.50124888  1
  Li  Li6  1  0.27559213  0.31627378  0.52127751  1
  Li  Li7  1  0.18990161  0.31352842  0.73566118  1
  Li  Li8  1  0.36651157  0.40945989  0.81141440  1
  La  La9  1  0.35191875  0.42478014  0.81048007  1
  La  La10  1  0.32390854  0.60870838  0.94126008  1
  Zr  Zr11  1  0.41635832  0.56987900  0.12746929  1
  Zr  Zr12  1  0.45984967  0.64561484  0.21623225  1
  Zr  Zr13  1  0.53096313  0.79886925  0.28547292  1
  O  O14  1  0.57252393  0.87805140  0.37499481  1
  O  O15  1  0.45407412  0.95549701  0.47078589  1
  O  O16  1  0.59232907  0.02059507  0.44007700  1
  O  O17  1  0.58795162  0.06905577  0.60910556  1
  O  O18  1  0.60431597  0.02768550  0.63584712  1
  O  O19  1  0.75440755  0.18206213  0.73038816  1
  O  O20  1  0.63245564  0.18502851  0.93452457  1
  O  O21  1  0.81273215  0.28754935  0.98674383  1
  O  O22  1  0.75113562  0.34784304  0.01003263  1
  O  O23  1  0.90596637  0.30745292  0.20417303  1
  O  O24  1  0.85187739  0.30989721  0.28160117  1
  O  O25  1  0.97245227  0.35539162  0.42486335  1
  O  O26  1  0.88567767  0.58022434  0.45465063  1
  O  O27  1  0.86748430  0.63939497  0.60523766  1
