# generated using pymatgen
data_LiZr2F4
_symmetry_space_group_name_H-M   'P 1'
_cell_length_a   8.46301790
_cell_length_b   8.46301790
_cell_length_c   7.95103038
_cell_angle_alpha   90.00000000
_cell_angle_beta   90.00000000
_cell_angle_gamma   90.00000000
_symmetry_Int_Tables_number   1
_chemical_formula_structural   LiZr2F4
_chemical_formula_sum   'Li1 Zr2 F4'
_cell_volume   569.47404092
_cell_formula_units_Z   1
loop_
 _symmetry_equiv_pos_site_id
 _symmetry_equiv_pos_as_xyz
  1  'x, y, z'
loop_
 _atom_site_type_symbol
 _atom_site_label
 _atom_site_symmetry_multiplicity
 _atom_site_fract_x
 _atom_site_fract_y
 _atom_site_fract_z
 _atom_site_occupancy
  Li  Li0  1  0.01883100  0.90808948  0.04074184  1
  Zr  Zr1  1  0.06014475  0.27255750  0.36440413  1
  Zr  Zr2  1  0.30806381  0.46291419  0.77366662  1
  F  F3  1  0.42288416  0.68337108  0.12791910  1
  F  F4  1  0.60331151  0.95934311  0.47588463  1
  F  F5  1  0.63079519  0.08208505  0.87224810  1
  F  F6  1  0.79856710  0.37537857  0.30244295  1
