# generated using pymatgen
data_Li4Nb2Cl7
_symmetry_space_group_name_H-M   'P 1'
_cell_length_a   11.14652154
_cell_length_b   11.14652154
_cell_length_c   11.37967233
_cell_angle_alpha   90.00000000
_cell_angle_beta   90.00000000
_cell_angle_gamma   90.00000000
_symmetry_Int_Tables_number   1
_chemical_formula_structural   Li4Nb2Cl7
_chemical_formula_sum   'Li4 Nb2 Cl7'
_cell_volume   1413.86673428
_cell_formula_units_Z   1
loop_
 _symmetry_equiv_pos_site_id
 _symmetry_equiv_pos_as_xyz
  1  'x, y, z'
loop_
 _atom_site_type_symbol
 _atom_site_label
 _atom_site_symmetry_multiplicity
 _atom_site_fract_x
 _atom_site_fract_y
 _atom_site_fract_z
 _atom_site_occupancy
  Li  Li0  1  0.00650058  0.04193426  0.00564941  1
  Li  Li1  1  0.09127128  0.20974682  0.11018622  1
  Li  Li2  1  0.14157693  0.30546829  0.43925885  1
  Li  Li3  1  0.20275046  0.34469249  0.54225189  1
  Nb  Nb4  1  0.32115566  0.54141571  0.71050220  1
  Nb  Nb5  1  0.32675485  0.64530078  0.92695867  1
  Cl  Cl6  1  0.43829397  0.75737083  0.14972289  1
  Cl  Cl7  1  0.61379135  0.91251215  0.39861366  1
  Cl  Cl8  1  0.66140897  0.06957198  0.52813549  1
  Cl  Cl9  1  0.61537091  0.21548980  0.83935916  1
  Cl  Cl10  1  0.67812805  0.25166260  0.07810663  1
  Cl  Cl11  1  0.80241675  0.44439849  0.27893289  1
  Cl  Cl12  1  0.93985858  0.54634119  0.46261016  1
