# generated using pymatgen
data_LiGaF2
_symmetry_space_group_name_H-M   'P 1'
_cell_length_a   9.72272703
_cell_length_b   9.72272703
_cell_length_c   9.32228296
_cell_angle_alpha   90.00000000
_cell_angle_beta   90.00000000
_cell_angle_gamma   90.00000000
_symmetry_Int_Tables_number   1
_chemical_formula_structural   LiGaF2
_chemical_formula_sum   'Li3 Ga3 F6'
_cell_volume   881.24865439
_cell_formula_units_Z   3
loop_
 _symmetry_equiv_pos_site_id
 _symmetry_equiv_pos_as_xyz
  1  'x, y, z'
loop_
 _atom_site_type_symbol
 _atom_site_label
 _atom_site_symmetry_multiplicity
 _atom_site_fract_x
 _atom_site_fract_y
 _atom_site_fract_z
 _atom_site_occupancy
  Li  Li0  1  0.09021060  0.05686116  0.05667609  1
  Li  Li1  1  0.02992561  0.22380101  0.13436697  1
  Li  Li2  1  0.07569246  0.34531726  0.51229288  1
  Ga  Ga3  1  0.30855322  0.35587939  0.69976360  1
  Ga  Ga4  1  0.37831717  0.50798148  0.79891688  1
  Ga  Ga5  1  0.40685911  0.73870083  0.07080320  1
  F  F6  1  0.56334479  0.76268432  0.23048041  1
  F  F7  1  0.53096911  0.90643231  0.46350665  1
  F  F8  1  0.63922597  0.14067842  0.65100186  1
  F  F9  1  0.73781254  0.28676439  0.04050092  1
  F  F10  1  0.89375251  0.35442019  0.14194748  1
  F  F11  1  0.97972444  0.45346286  0.35188364  1
