# generated using pymatgen
data_Li2AlO5
_symmetry_space_group_name_H-M   'P 1'
_cell_length_a   4.32889175
_cell_length_b   4.32889175
_cell_length_c   3.76497717
_cell_angle_alpha   90.00000000
_cell_angle_beta   90.00000000
_cell_angle_gamma   120.00000000
_symmetry_Int_Tables_number   1
_chemical_formula_structural   Li2AlO5
_chemical_formula_sum   'Li2 Al1 O5'
_cell_volume   61.10073424
_cell_formula_units_Z   1
loop_
 _symmetry_equiv_pos_site_id
 _symmetry_equiv_pos_as_xyz
  1  'x, y, z'
loop_
 _atom_site_type_symbol
 _atom_site_label
 _atom_site_symmetry_multiplicity
 _atom_site_fract_x
 _atom_site_fract_y
 _atom_site_fract_z
 _atom_site_occupancy
  Li  Li0  1  0.96245740  0.07344335  0.09388159  1
  Li  Li1  1  0.21443584  0.24231282  0.30019116  1
  Al  Al2  1  0.17906623  0.48149108  0.59120913  1
  O  O3  1  0.35550489  0.52359338  0.93680847  1
  O  O4  1  0.48037580  0.90896875  0.40886578  1
  O  O5  1  0.68644781  0.11071436  0.61564066  1
  O  O6  1  0.66561298  0.15337506  0.97661063  1
  O  O7  1  0.90548311  0.37776434  0.34442447  1
