# generated using pymatgen
data_Li3TiO4
_symmetry_space_group_name_H-M   'P 1'
_cell_length_a   8.11642311
_cell_length_b   8.11642311
_cell_length_c   8.11642311
_cell_angle_alpha   90.00000000
_cell_angle_beta   90.00000000
_cell_angle_gamma   90.00000000
_symmetry_Int_Tables_number   1
_chemical_formula_structural   Li3TiO4
_chemical_formula_sum   'Li3 Ti1 O4'
_cell_volume   534.68011926
_cell_formula_units_Z   1
loop_
 _symmetry_equiv_pos_site_id
 _symmetry_equiv_pos_as_xyz
  1  'x, y, z'
loop_
 _atom_site_type_symbol
 _atom_site_label
 _atom_site_symmetry_multiplicity
 _atom_site_fract_x
 _atom_site_fract_y
 _atom_site_fract_z
 _atom_site_occupancy
  Li  Li0  1  0.01032333  0.99481650  0.00724581  1
  Li  Li1  1  0.18764088  0.21226441  0.25542947  1
  Li  Li2  1  0.31988083  0.48527761  0.55895922  1
  Ti  Ti3  1  0.39526783  0.61702394  0.08034116  1
  O  O4  1  0.40760662  0.72302132  0.27863942  1
  O  O5  1  0.61860878  0.97576526  0.70100731  1
  O  O6  1  0.76811612  0.25438120  0.01159131  1
  O  O7  1  0.81815640  0.49080668  0.30616104  1
