# generated using pymatgen
data_LiAlO5
_symmetry_space_group_name_H-M   'P 1'
_cell_length_a   6.24488172
_cell_length_b   6.24488172
_cell_length_c   5.51328981
_cell_angle_alpha   90.00000000
_cell_angle_beta   90.00000000
_cell_angle_gamma   120.00000000
_symmetry_Int_Tables_number   1
_chemical_formula_structural   LiAlO5
_chemical_formula_sum   'Li1 Al1 O5'
_cell_volume   186.20437811
_cell_formula_units_Z   1
loop_
 _symmetry_equiv_pos_site_id
 _symmetry_equiv_pos_as_xyz
  1  'x, y, z'
loop_
 _atom_site_type_symbol
 _atom_site_label
 _atom_site_symmetry_multiplicity
 _atom_site_fract_x
 _atom_site_fract_y
 _atom_site_fract_z
 _atom_site_occupancy
  Li  Li0  1  0.99288738  0.00564012  0.95325330  1
  Al  Al1  1  0.21038906  0.29574036  0.32688278  1
  O  O2  1  0.36013344  0.54426189  0.71962581  1
  O  O3  1  0.37659674  0.68078098  0.21053975  1
  O  O4  1  0.49066208  0.89991061  0.48057678  1
  O  O5  1  0.77200340  0.19105756  0.91962144  1
  O  O6  1  0.87040519  0.40401859  0.23892052  1
