# generated using pymatgen
data_Li5PS7
_symmetry_space_group_name_H-M   'P 1'
_cell_length_a   5.09164337
_cell_length_b   5.09164337
_cell_length_c   5.09164337
_cell_angle_alpha   90.00000000
_cell_angle_beta   90.00000000
_cell_angle_gamma   90.00000000
_symmetry_Int_Tables_number   1
_chemical_formula_structural   Li5PS7
_chemical_formula_sum   'Li5 P1 S7'
_cell_volume   132.00000000
_cell_formula_units_Z   1
loop_
 _symmetry_equiv_pos_site_id
 _symmetry_equiv_pos_as_xyz
  1  'x, y, z'
loop_
 _atom_site_type_symbol
 _atom_site_label
 _atom_site_symmetry_multiplicity
 _atom_site_fract_x
 _atom_site_fract_y
 _atom_site_fract_z
 _atom_site_occupancy
  Li  Li0  1  0.94623869  0.05546694  0.91015027  1
  Li  Li1  1  0.13434481  0.03858845  0.13967475  1
  Li  Li2  1  0.11743191  0.28092560  0.34074753  1
  Li  Li3  1  0.29532796  0.33255276  0.57007687  1
  Li  Li4  1  0.38587250  0.58002446  0.86872392  1
  P  P5  1  0.37308345  0.69776280  0.02197621  1
  S  S6  1  0.48980563  0.66957774  0.16864077  1
  S  S7  1  0.62612465  0.80202663  0.36407506  1
  S  S8  1  0.62029764  0.06800927  0.67007270  1
  S  S9  1  0.75934988  0.16954472  0.85621107  1
  S  S10  1  0.86474640  0.15965854  0.93347247  1
  S  S11  1  0.80771516  0.39351025  0.25263043  1
  S  S12  1  0.99208459  0.42594292  0.45224370  1
