# generated using pymatgen
data_Li2TiO4
_symmetry_space_group_name_H-M   'P 1'
_cell_length_a   9.61153584
_cell_length_b   9.61153584
_cell_length_c   9.61153584
_cell_angle_alpha   90.00000000
_cell_angle_beta   90.00000000
_cell_angle_gamma   90.00000000
_symmetry_Int_Tables_number   1
_chemical_formula_structural   Li2TiO4
_chemical_formula_sum   'Li2 Ti1 O4'
_cell_volume   887.92926204
_cell_formula_units_Z   1
loop_
 _symmetry_equiv_pos_site_id
 _symmetry_equiv_pos_as_xyz
  1  'x, y, z'
loop_
 _atom_site_type_symbol
 _atom_site_label
 _atom_site_symmetry_multiplicity
 _atom_site_fract_x
 _atom_site_fract_y
 _atom_site_fract_z
 _atom_site_occupancy
  Li  Li0  1  0.97979223  0.01609755  0.93291179  1
  Li  Li1  1  0.20528782  0.16074205  0.42448907  1
  Ti  Ti2  1  0.30513195  0.54001067  0.64907005  1
  O  O3  1  0.38408262  0.73745534  0.18420961  1
  O  O4  1  0.58662159  0.85908489  0.49488315  1
  O  O5  1  0.71225483  0.24232337  0.77378325  1
  O  O6  1  0.86116188  0.38803655  0.23152998  1
