# generated using pymatgen
data_LiTiS3
_symmetry_space_group_name_H-M   'P 1'
_cell_length_a   8.66089882
_cell_length_b   8.66089882
_cell_length_c   8.90060667
_cell_angle_alpha   90.00000000
_cell_angle_beta   90.00000000
_cell_angle_gamma   90.00000000
_symmetry_Int_Tables_number   1
_chemical_formula_structural   LiTiS3
_chemical_formula_sum   'Li2 Ti2 S6'
_cell_volume   667.64490589
_cell_formula_units_Z   2
loop_
 _symmetry_equiv_pos_site_id
 _symmetry_equiv_pos_as_xyz
  1  'x, y, z'
loop_
 _atom_site_type_symbol
 _atom_site_label
 _atom_site_symmetry_multiplicity
 _atom_site_fract_x
 _atom_site_fract_y
 _atom_site_fract_z
 _atom_site_occupancy
  Li  Li0  1  0.95048243  0.08349285  0.02790199  1
  Li  Li1  1  0.09981061  0.17735486  0.29218479  1
  Ti  Ti2  1  0.29007569  0.37174801  0.58738930  1
  Ti  Ti3  1  0.26185394  0.47491897  0.71428142  1
  S  S4  1  0.41873073  0.73741060  0.10406116  1
  S  S5  1  0.55667609  0.75559228  0.39796768  1
  S  S6  1  0.51620031  0.87982579  0.64645059  1
  S  S7  1  0.77595955  0.19115322  0.78397939  1
  S  S8  1  0.84526360  0.33938383  0.06304814  1
  S  S9  1  0.82625022  0.44639244  0.42073417  1
