# generated using pymatgen
data_Li2AlO3
_symmetry_space_group_name_H-M   'P 1'
_cell_length_a   6.60330963
_cell_length_b   6.60330963
_cell_length_c   9.38290424
_cell_angle_alpha   90.00000000
_cell_angle_beta   90.00000000
_cell_angle_gamma   120.00000000
_symmetry_Int_Tables_number   1
_chemical_formula_structural   Li2AlO3
_chemical_formula_sum   'Li2 Al1 O3'
_cell_volume   354.31638697
_cell_formula_units_Z   1
loop_
 _symmetry_equiv_pos_site_id
 _symmetry_equiv_pos_as_xyz
  1  'x, y, z'
loop_
 _atom_site_type_symbol
 _atom_site_label
 _atom_site_symmetry_multiplicity
 _atom_site_fract_x
 _atom_site_fract_y
 _atom_site_fract_z
 _atom_site_occupancy
  Li  Li0  1  0.91267540  0.06142353  0.07012197  1
  Li  Li1  1  0.16241074  0.28494575  0.52674034  1
  Al  Al2  1  0.32150957  0.48404060  0.83384736  1
  O  O3  1  0.55110705  0.77321588  0.30666532  1
  O  O4  1  0.74031145  0.04777413  0.81715582  1
  O  O5  1  0.88775837  0.28988719  0.20646159  1
