# generated using pymatgen
data_Li5PS4
_symmetry_space_group_name_H-M   'P 1'
_cell_length_a   4.57885697
_cell_length_b   4.57885697
_cell_length_c   4.57885697
_cell_angle_alpha   90.00000000
_cell_angle_beta   90.00000000
_cell_angle_gamma   90.00000000
_symmetry_Int_Tables_number   1
_chemical_formula_structural   Li5PS4
_chemical_formula_sum   'Li5 P1 S4'
_cell_volume   96.00000000
_cell_formula_units_Z   1
loop_
 _symmetry_equiv_pos_site_id
 _symmetry_equiv_pos_as_xyz
  1  'x, y, z'
loop_
 _atom_site_type_symbol
 _atom_site_label
 _atom_site_symmetry_multiplicity
 _atom_site_fract_x
 _atom_site_fract_y
 _atom_site_fract_z
 _atom_site_occupancy
  Li  Li0  1  0.05289460  0.91978220  0.91531469  1
  Li  Li1  1  0.11339144  0.18339455  0.29014003  1
  Li  Li2  1  0.16926211  0.26019753  0.43214185  1
  Li  Li3  1  0.23713597  0.44112436  0.75631911  1
  Li  Li4  1  0.36732732  0.65816850  0.96839170  1
  P  P5  1  0.45612204  0.72280823  0.30188738  1
  S  S6  1  0.60564012  0.92405330  0.63833191  1
  S  S7  1  0.76459751  0.08548278  0.90701916  1
  S  S8  1  0.88197618  0.26602581  0.04242531  1
  S  S9  1  0.88735241  0.54473975  0.27543351  1
