# generated using pymatgen
data_Na5Zr3O9
_symmetry_space_group_name_H-M   'P 1'
_cell_length_a   12.05551765
_cell_length_b   12.02884291
_cell_length_c   10.24437666
_cell_angle_alpha   113.91729141
_cell_angle_beta   110.77825883
_cell_angle_gamma   94.02927218
_symmetry_Int_Tables_number   1
_chemical_formula_structural   Na5Zr3O9
_chemical_formula_sum   'Na5 Zr3 O9'
_cell_volume   1229.20949107
_cell_formula_units_Z   1
loop_
 _symmetry_equiv_pos_site_id
 _symmetry_equiv_pos_as_xyz
  1  'x, y, z'
loop_
 _atom_site_type_symbol
 _atom_site_label
 _atom_site_symmetry_multiplicity
 _atom_site_fract_x
 _atom_site_fract_y
 _atom_site_fract_z
 _atom_site_occupancy
  Na  Na0  1  0.07746925  0.96465549  0.04847265  1
  Na  Na1  1  0.10822852  0.09155324  0.10792970  1
  Na  Na2  1  0.11629303  0.15721179  0.33548607  1
  Na  Na3  1  0.22733906  0.34361160  0.46665675  1
  Na  Na4  1  0.28497546  0.35225047  0.59791200  1
  Zr  Zr5  1  0.27582904  0.52244301  0.82291907  1
  Zr  Zr6  1  0.28958549  0.55382337  0.87411479  1
  Zr  Zr7  1  0.47525690  0.69377630  0.03564379  1
  O  O8  1  0.55893033  0.66912134  0.30470727  1
  O  O9  1  0.49075774  0.76181803  0.42786908  1
  O  O10  1  0.52295526  0.93963426  0.62884366  1
  O  O11  1  0.64061783  0.09925182  0.79374398  1
  O  O12  1  0.65290385  0.04502803  0.90584185  1
  O  O13  1  0.83309456  0.31019680  0.96125319  1
  O  O14  1  0.74562454  0.40190412  0.09550785  1
  O  O15  1  0.81127924  0.50809093  0.26148548  1
  O  O16  1  0.93998529  0.46002619  0.43495325  1
