# generated using pymatgen
data_LiAlO5
_symmetry_space_group_name_H-M   'P 1'
_cell_length_a   10.74491434
_cell_length_b   10.74491434
_cell_length_c   16.23024929
_cell_angle_alpha   90.00000000
_cell_angle_beta   90.00000000
_cell_angle_gamma   120.00000000
_symmetry_Int_Tables_number   1
_chemical_formula_structural   LiAlO5
_chemical_formula_sum   'Li1 Al1 O5'
_cell_volume   1622.78781114
_cell_formula_units_Z   1
loop_
 _symmetry_equiv_pos_site_id
 _symmetry_equiv_pos_as_xyz
  1  'x, y, z'
loop_
 _atom_site_type_symbol
 _atom_site_label
 _atom_site_symmetry_multiplicity
 _atom_site_fract_x
 _atom_site_fract_y
 _atom_site_fract_z
 _atom_site_occupancy
  Li  Li0  1  0.06399460  0.09800793  0.97187841  1
  Al  Al1  1  0.12829471  0.20882453  0.29704448  1
  O  O2  1  0.21892053  0.44559226  0.68702694  1
  O  O3  1  0.35155828  0.76394005  0.20641675  1
  O  O4  1  0.55996912  0.86138415  0.45243365  1
  O  O5  1  0.70396372  0.12532276  0.79205452  1
  O  O6  1  0.91651194  0.46024974  0.27033573  1
