# generated using pymatgen
data_Li5Al3Cl5
_symmetry_space_group_name_H-M   'P 1'
_cell_length_a   14.48498501
_cell_length_b   14.48498501
_cell_length_c   13.16397758
_cell_angle_alpha   90.00000000
_cell_angle_beta   90.00000000
_cell_angle_gamma   90.00000000
_symmetry_Int_Tables_number   1
_chemical_formula_structural   Li5Al3Cl5
_chemical_formula_sum   'Li5 Al3 Cl5'
_cell_volume   2761.99720170
_cell_formula_units_Z   1
loop_
 _symmetry_equiv_pos_site_id
 _symmetry_equiv_pos_as_xyz
  1  'x, y, z'
loop_
 _atom_site_type_symbol
 _atom_site_label
 _atom_site_symmetry_multiplicity
 _atom_site_fract_x
 _atom_site_fract_y
 _atom_site_fract_z
 _atom_site_occupancy
  Li  Li0  1  0.98355126  0.90789353  0.01496319  1
  Li  Li1  1  0.13779782  0.09356623  0.17808961  1
  Li  Li2  1  0.10241648  0.15788192  0.46424566  1
  Li  Li3  1  0.13489180  0.42712713  0.66905136  1
  Li  Li4  1  0.37632469  0.53437608  0.88837493  1
  Al  Al5  1  0.47702706  0.55721486  0.00039535  1
  Al  Al6  1  0.37389246  0.84394910  0.11110871  1
  Al  Al7  1  0.61782812  0.83949463  0.32143032  1
  Cl  Cl8  1  0.69007563  0.95175987  0.71044744  1
  Cl  Cl9  1  0.68407571  0.14604596  0.73002423  1
  Cl  Cl10  1  0.69923876  0.19888146  0.06558901  1
  Cl  Cl11  1  0.92686073  0.34643946  0.20883350  1
  Cl  Cl12  1  0.01032378  0.58891816  0.44384127  1
