# generated using pymatgen
data_Li4NbF7
_symmetry_space_group_name_H-M   'P 1'
_cell_length_a   12.21054484
_cell_length_b   12.21054484
_cell_length_c   12.37041792
_cell_angle_alpha   90.00000000
_cell_angle_beta   90.00000000
_cell_angle_gamma   90.00000000
_symmetry_Int_Tables_number   1
_chemical_formula_structural   Li4NbF7
_chemical_formula_sum   'Li4 Nb1 F7'
_cell_volume   1844.39721433
_cell_formula_units_Z   1
loop_
 _symmetry_equiv_pos_site_id
 _symmetry_equiv_pos_as_xyz
  1  'x, y, z'
loop_
 _atom_site_type_symbol
 _atom_site_label
 _atom_site_symmetry_multiplicity
 _atom_site_fract_x
 _atom_site_fract_y
 _atom_site_fract_z
 _atom_site_occupancy
  Li  Li0  1  0.91454266  0.02808310  0.96109129  1
  Li  Li1  1  0.99109700  0.18627985  0.31006999  1
  Li  Li2  1  0.16123689  0.27546694  0.33687244  1
  Li  Li3  1  0.23251928  0.39955235  0.69853893  1
  Nb  Nb4  1  0.37796499  0.59651394  0.79066972  1
  F  F5  1  0.32349613  0.68281109  0.99988457  1
  F  F6  1  0.46355797  0.88322168  0.25495621  1
  F  F7  1  0.58800357  0.94170627  0.49555215  1
  F  F8  1  0.73939196  0.08456357  0.80063425  1
  F  F9  1  0.67395943  0.25980702  0.01925524  1
  F  F10  1  0.84208209  0.27967536  0.26442653  1
  F  F11  1  0.00126939  0.50843716  0.47920159  1
