# generated using pymatgen
data_Li2AlO5
_symmetry_space_group_name_H-M   'P 1'
_cell_length_a   6.43809234
_cell_length_b   6.43809234
_cell_length_c   5.67712864
_cell_angle_alpha   90.00000000
_cell_angle_beta   90.00000000
_cell_angle_gamma   120.00000000
_symmetry_Int_Tables_number   1
_chemical_formula_structural   Li2AlO5
_chemical_formula_sum   'Li2 Al1 O5'
_cell_volume   203.78572961
_cell_formula_units_Z   1
loop_
 _symmetry_equiv_pos_site_id
 _symmetry_equiv_pos_as_xyz
  1  'x, y, z'
loop_
 _atom_site_type_symbol
 _atom_site_label
 _atom_site_symmetry_multiplicity
 _atom_site_fract_x
 _atom_site_fract_y
 _atom_site_fract_z
 _atom_site_occupancy
  Li  Li0  1  0.98677871  0.05259347  0.91808023  1
  Li  Li1  1  0.16504913  0.19524041  0.36312518  1
  Al  Al2  1  0.33173132  0.44091128  0.68067015  1
  O  O3  1  0.46240949  0.65086232  0.07502029  1
  O  O4  1  0.50283877  0.73551947  0.23216429  1
  O  O5  1  0.65788440  0.91315383  0.54314404  1
  O  O6  1  0.65159927  0.20261865  0.99425589  1
  O  O7  1  0.97249701  0.40053532  0.33714967  1
