# generated using pymatgen
data_LiAlO3
_symmetry_space_group_name_H-M   'P 1'
_cell_length_a   10.71410719
_cell_length_b   10.71410719
_cell_length_c   17.58010768
_cell_angle_alpha   90.00000000
_cell_angle_beta   90.00000000
_cell_angle_gamma   120.00000000
_symmetry_Int_Tables_number   1
_chemical_formula_structural   LiAlO3
_chemical_formula_sum   'Li1 Al1 O3'
_cell_volume   1747.68893572
_cell_formula_units_Z   1
loop_
 _symmetry_equiv_pos_site_id
 _symmetry_equiv_pos_as_xyz
  1  'x, y, z'
loop_
 _atom_site_type_symbol
 _atom_site_label
 _atom_site_symmetry_multiplicity
 _atom_site_fract_x
 _atom_site_fract_y
 _atom_site_fract_z
 _atom_site_occupancy
  Li  Li0  1  0.05363552  0.03714803  0.01661254  1
  Al  Al1  1  0.14718097  0.32547481  0.56127371  1
  O  O2  1  0.49325057  0.67696984  0.95362992  1
  O  O3  1  0.55798744  0.97055293  0.64826207  1
  O  O4  1  0.87815844  0.26944455  0.15624926  1
