# generated using pymatgen
data_LiLaTi2O3
_symmetry_space_group_name_H-M   'P 1'
_cell_length_a   3.77382968
_cell_length_b   3.77382968
_cell_length_c   5.26619179
_cell_angle_alpha   90.00000000
_cell_angle_beta   90.00000000
_cell_angle_gamma   90.00000000
_symmetry_Int_Tables_number   1
_chemical_formula_structural   LiLaTi2O3
_chemical_formula_sum   'Li1 La1 Ti2 O3'
_cell_volume   75.00000000
_cell_formula_units_Z   1
loop_
 _symmetry_equiv_pos_site_id
 _symmetry_equiv_pos_as_xyz
  1  'x, y, z'
loop_
 _atom_site_type_symbol
 _atom_site_label
 _atom_site_symmetry_multiplicity
 _atom_site_fract_x
 _atom_site_fract_y
 _atom_site_fract_z
 _atom_site_occupancy
  Li  Li0  1  0.03563248  0.95670810  0.94265031  1
  Ti  Ti1  1  0.21776825  0.13448900  0.37232170  1
  Ti  Ti2  1  0.37191893  0.39148634  0.82751882  1
  O  O3  1  0.34531992  0.77141484  0.05401944  1
  O  O4  1  0.65732524  0.87431666  0.48912411  1
  O  O5  1  0.75521692  0.12401465  0.84881045  1
  La  La6  1  0.91606023  0.39649924  0.21732974  1
