# generated using pymatgen
data_Li4TiO6
_symmetry_space_group_name_H-M   'P 1'
_cell_length_a   6.99432915
_cell_length_b   6.99432915
_cell_length_c   6.99432915
_cell_angle_alpha   90.00000000
_cell_angle_beta   90.00000000
_cell_angle_gamma   90.00000000
_symmetry_Int_Tables_number   1
_chemical_formula_structural   Li4TiO6
_chemical_formula_sum   'Li4 Ti1 O6'
_cell_volume   342.16705995
_cell_formula_units_Z   1
loop_
 _symmetry_equiv_pos_site_id
 _symmetry_equiv_pos_as_xyz
  1  'x, y, z'
loop_
 _atom_site_type_symbol
 _atom_site_label
 _atom_site_symmetry_multiplicity
 _atom_site_fract_x
 _atom_site_fract_y
 _atom_site_fract_z
 _atom_site_occupancy
  Li  Li0  1  0.98760391  0.90392180  0.08608954  1
  Li  Li1  1  0.03646592  0.06488313  0.18423690  1
  Li  Li2  1  0.16863715  0.37660646  0.50237961  1
  Li  Li3  1  0.19233453  0.52401328  0.64834414  1
  Ti  Ti4  1  0.33803943  0.60957558  0.95190572  1
  O  O5  1  0.45241507  0.73933989  0.27157050  1
  O  O6  1  0.54767135  0.80681607  0.37706819  1
  O  O7  1  0.59085053  0.96006681  0.73372682  1
  O  O8  1  0.74457347  0.16152907  0.84561603  1
  O  O9  1  0.79396609  0.40550261  0.16789670  1
  O  O10  1  0.96494036  0.51694382  0.31490193  1
