# generated using pymatgen
data_LiTi2(PO6)2
_symmetry_space_group_name_H-M   'P 1'
_cell_length_a   4.45433307
_cell_length_b   4.45433307
_cell_length_c   6.04805693
_cell_angle_alpha   90.00000000
_cell_angle_beta   90.00000000
_cell_angle_gamma   90.00000000
_symmetry_Int_Tables_number   1
_chemical_formula_structural   LiTi2(PO6)2
_chemical_formula_sum   'Li1 Ti2 P2 O12'
_cell_volume   120.00000000
_cell_formula_units_Z   1
loop_
 _symmetry_equiv_pos_site_id
 _symmetry_equiv_pos_as_xyz
  1  'x, y, z'
loop_
 _atom_site_type_symbol
 _atom_site_label
 _atom_site_symmetry_multiplicity
 _atom_site_fract_x
 _atom_site_fract_y
 _atom_site_fract_z
 _atom_site_occupancy
  Li  Li0  1  0.02633573  0.90935768  0.92086030  1
  Ti  Ti1  1  0.06426043  0.17340132  0.18988469  1
  Ti  Ti2  1  0.15095462  0.21657394  0.29904550  1
  P  P3  1  0.12488410  0.27975310  0.41729512  1
  P  P4  1  0.28159611  0.35719670  0.71169917  1
  O  O5  1  0.38312259  0.38751401  0.77313854  1
  O  O6  1  0.31699596  0.60137039  0.93913484  1
  O  O7  1  0.38288234  0.61816039  0.03610390  1
  O  O8  1  0.39948323  0.84226272  0.27577841  1
  O  O9  1  0.53182652  0.85427459  0.35805978  1
  O  O10  1  0.54425288  0.87919257  0.47508901  1
  O  O11  1  0.62352763  0.09160934  0.65263887  1
  O  O12  1  0.74820299  0.17832787  0.88047125  1
  O  O13  1  0.74682124  0.32595333  0.07402414  1
  O  O14  1  0.88422011  0.42482274  0.06233526  1
  O  O15  1  0.97902937  0.38161090  0.38144625  1
  O  O16  1  0.90520624  0.61598117  0.42824997  1
