# generated using pymatgen
data_Li5ScI3
_symmetry_space_group_name_H-M   'P 1'
_cell_length_a   3.74243614
_cell_length_b   4.67869481
_cell_length_c   4.79733637
_cell_angle_alpha   90.00000000
_cell_angle_beta   90.00000000
_cell_angle_gamma   90.00000000
_symmetry_Int_Tables_number   1
_chemical_formula_structural   Li5ScI3
_chemical_formula_sum   'Li5 Sc1 I3'
_cell_volume   84.00000000
_cell_formula_units_Z   1
loop_
 _symmetry_equiv_pos_site_id
 _symmetry_equiv_pos_as_xyz
  1  'x, y, z'
loop_
 _atom_site_type_symbol
 _atom_site_label
 _atom_site_symmetry_multiplicity
 _atom_site_fract_x
 _atom_site_fract_y
 _atom_site_fract_z
 _atom_site_occupancy
  Li  Li0  1  0.00134952  0.94381116  0.96937121  1
  Li  Li1  1  0.03634959  0.13812630  0.20981798  1
  Li  Li2  1  0.23207756  0.36976733  0.67534171  1
  Li  Li3  1  0.39474759  0.46388713  0.92089430  1
  Li  Li4  1  0.46217787  0.78230879  0.11439403  1
  Sc  Sc5  1  0.61927861  0.84764176  0.49143024  1
  I  I6  1  0.64276570  0.09941722  0.76884340  1
  I  I7  1  0.72388235  0.27028959  0.12478842  1
  I  I8  1  0.83892999  0.50208445  0.38716609  1
