# generated using pymatgen
data_Li3Y2Al2F4
_symmetry_space_group_name_H-M   'P 1'
_cell_length_a   11.08268427
_cell_length_b   11.08268427
_cell_length_c   10.24281735
_cell_angle_alpha   90.00000000
_cell_angle_beta   90.00000000
_cell_angle_gamma   90.00000000
_symmetry_Int_Tables_number   1
_chemical_formula_structural   Li3Y2Al2F4
_chemical_formula_sum   'Li3 Y2 Al2 F4'
_cell_volume   1258.08316270
_cell_formula_units_Z   1
loop_
 _symmetry_equiv_pos_site_id
 _symmetry_equiv_pos_as_xyz
  1  'x, y, z'
loop_
 _atom_site_type_symbol
 _atom_site_label
 _atom_site_symmetry_multiplicity
 _atom_site_fract_x
 _atom_site_fract_y
 _atom_site_fract_z
 _atom_site_occupancy
  Li  Li0  1  0.90566853  0.98781254  0.07326439  1
  Li  Li1  1  0.16791002  0.20751009  0.24408685  1
  Li  Li2  1  0.14209900  0.35723959  0.44629619  1
  Al  Al3  1  0.22477758  0.49883340  0.63399336  1
  Al  Al4  1  0.28800990  0.61105471  0.85298835  1
  F  F5  1  0.43098935  0.79507783  0.16792243  1
  F  F6  1  0.48323220  0.86240360  0.47730985  1
  F  F7  1  0.56838465  0.11336229  0.63326168  1
  F  F8  1  0.67033781  0.12283156  0.95032961  1
  Y  Y9  1  0.79909434  0.31719828  0.08509679  1
  Y  Y10  1  0.91208498  0.53887314  0.28980336  1
