# generated using pymatgen
data_Li5ScTa3F7
_symmetry_space_group_name_H-M   'P 1'
_cell_length_a   11.03865083
_cell_length_b   11.03865083
_cell_length_c   11.63641989
_cell_angle_alpha   90.00000000
_cell_angle_beta   90.00000000
_cell_angle_gamma   90.00000000
_symmetry_Int_Tables_number   1
_chemical_formula_structural   Li5ScTa3F7
_chemical_formula_sum   'Li5 Sc1 Ta3 F7'
_cell_volume   1417.91884933
_cell_formula_units_Z   1
loop_
 _symmetry_equiv_pos_site_id
 _symmetry_equiv_pos_as_xyz
  1  'x, y, z'
loop_
 _atom_site_type_symbol
 _atom_site_label
 _atom_site_symmetry_multiplicity
 _atom_site_fract_x
 _atom_site_fract_y
 _atom_site_fract_z
 _atom_site_occupancy
  Li  Li0  1  0.97883260  0.90332409  0.04089486  1
  Li  Li1  1  0.96563256  0.18475072  0.17335800  1
  Li  Li2  1  0.08833152  0.27711715  0.28038162  1
  Li  Li3  1  0.27876463  0.30533947  0.52105886  1
  Li  Li4  1  0.22584144  0.33327509  0.64780804  1
  Ta  Ta5  1  0.30474990  0.57863699  0.89920995  1
  Ta  Ta6  1  0.40178141  0.65080902  0.90282932  1
  Ta  Ta7  1  0.43192283  0.66440691  0.06952695  1
  F  F8  1  0.52913481  0.78677167  0.35814891  1
  F  F9  1  0.61014491  0.00660963  0.53215281  1
  F  F10  1  0.68384871  0.03244082  0.62688799  1
  F  F11  1  0.67663880  0.10013290  0.72015486  1
  F  F12  1  0.84091891  0.28675715  0.89096364  1
  F  F13  1  0.85154399  0.32056470  0.22161880  1
  F  F14  1  0.94348474  0.49287295  0.36693577  1
  Sc  Sc15  1  0.97084021  0.59341331  0.38149341  1
