# generated using pymatgen
data_Li3TiO3
_symmetry_space_group_name_H-M   'P 1'
_cell_length_a   6.59196607
_cell_length_b   6.59196607
_cell_length_c   6.59196607
_cell_angle_alpha   90.00000000
_cell_angle_beta   90.00000000
_cell_angle_gamma   90.00000000
_symmetry_Int_Tables_number   1
_chemical_formula_structural   Li3TiO3
_chemical_formula_sum   'Li3 Ti1 O3'
_cell_volume   286.44740289
_cell_formula_units_Z   1
loop_
 _symmetry_equiv_pos_site_id
 _symmetry_equiv_pos_as_xyz
  1  'x, y, z'
loop_
 _atom_site_type_symbol
 _atom_site_label
 _atom_site_symmetry_multiplicity
 _atom_site_fract_x
 _atom_site_fract_y
 _atom_site_fract_z
 _atom_site_occupancy
  Li  Li0  1  0.00343261  0.94446535  0.07841984  1
  Li  Li1  1  0.15177683  0.18895605  0.47197561  1
  Li  Li2  1  0.36657179  0.45412644  0.81271494  1
  Ti  Ti3  1  0.41295807  0.72717954  0.10322131  1
  O  O4  1  0.57086309  0.82963142  0.52265616  1
  O  O5  1  0.74978291  0.11549344  0.91553432  1
  O  O6  1  0.85401204  0.46724357  0.30681565  1
