# generated using pymatgen
data_Li3AlO5
_symmetry_space_group_name_H-M   'P 1'
_cell_length_a   5.85550948
_cell_length_b   5.85550948
_cell_length_c   8.86346171
_cell_angle_alpha   90.00000000
_cell_angle_beta   90.00000000
_cell_angle_gamma   120.00000000
_symmetry_Int_Tables_number   1
_chemical_formula_structural   Li3AlO5
_chemical_formula_sum   'Li3 Al1 O5'
_cell_volume   263.18636259
_cell_formula_units_Z   1
loop_
 _symmetry_equiv_pos_site_id
 _symmetry_equiv_pos_as_xyz
  1  'x, y, z'
loop_
 _atom_site_type_symbol
 _atom_site_label
 _atom_site_symmetry_multiplicity
 _atom_site_fract_x
 _atom_site_fract_y
 _atom_site_fract_z
 _atom_site_occupancy
  Li  Li0  1  0.00484060  0.94815008  0.94692694  1
  Li  Li1  1  0.16261394  0.17800471  0.37386376  1
  Li  Li2  1  0.16934714  0.27887932  0.57488234  1
  Al  Al3  1  0.24595858  0.48070254  0.79294151  1
  O  O4  1  0.38721903  0.71381365  0.25560981  1
  O  O5  1  0.58357070  0.87596949  0.51590105  1
  O  O6  1  0.67319977  0.12719355  0.83487605  1
  O  O7  1  0.87454282  0.19456509  0.99393453  1
  O  O8  1  0.95287464  0.42519789  0.24640880  1
