# generated using pymatgen
data_Li3TiO4
_symmetry_space_group_name_H-M   'P 1'
_cell_length_a   7.27648009
_cell_length_b   7.27648009
_cell_length_c   7.27648009
_cell_angle_alpha   90.00000000
_cell_angle_beta   90.00000000
_cell_angle_gamma   90.00000000
_symmetry_Int_Tables_number   1
_chemical_formula_structural   Li3TiO4
_chemical_formula_sum   'Li3 Ti1 O4'
_cell_volume   385.26897334
_cell_formula_units_Z   1
loop_
 _symmetry_equiv_pos_site_id
 _symmetry_equiv_pos_as_xyz
  1  'x, y, z'
loop_
 _atom_site_type_symbol
 _atom_site_label
 _atom_site_symmetry_multiplicity
 _atom_site_fract_x
 _atom_site_fract_y
 _atom_site_fract_z
 _atom_site_occupancy
  Li  Li0  1  0.98171139  0.04656066  0.05291907  1
  Li  Li1  1  0.06164431  0.18501455  0.27736479  1
  Li  Li2  1  0.31349219  0.43204101  0.61214379  1
  Ti  Ti3  1  0.46334209  0.51445957  0.05445727  1
  O  O4  1  0.46134598  0.71422979  0.35086908  1
  O  O5  1  0.55971996  0.99911955  0.72509366  1
  O  O6  1  0.74355901  0.26581064  0.06324398  1
  O  O7  1  0.82202149  0.31866038  0.34859185  1
