# generated using pymatgen
data_Li6Zr2O7
_symmetry_space_group_name_H-M   'P 1'
_cell_length_a   12.04445308
_cell_length_b   12.04445308
_cell_length_c   12.13764312
_cell_angle_alpha   90.00000000
_cell_angle_beta   90.00000000
_cell_angle_gamma   90.00000000
_symmetry_Int_Tables_number   1
_chemical_formula_structural   Li6Zr2O7
_chemical_formula_sum   'Li6 Zr2 O7'
_cell_volume   1760.79392961
_cell_formula_units_Z   1
loop_
 _symmetry_equiv_pos_site_id
 _symmetry_equiv_pos_as_xyz
  1  'x, y, z'
loop_
 _atom_site_type_symbol
 _atom_site_label
 _atom_site_symmetry_multiplicity
 _atom_site_fract_x
 _atom_site_fract_y
 _atom_site_fract_z
 _atom_site_occupancy
  Li  Li0  1  0.95116266  0.07540633  0.08040413  1
  Li  Li1  1  0.01164713  0.01214672  0.23618640  1
  Li  Li2  1  0.16083704  0.19639645  0.25082459  1
  Li  Li3  1  0.18194014  0.29924839  0.50856697  1
  Li  Li4  1  0.33679533  0.49689391  0.73376581  1
  Li  Li5  1  0.29004144  0.48198364  0.94757777  1
  Zr  Zr6  1  0.30334614  0.64552170  0.13340464  1
  Zr  Zr7  1  0.39586729  0.83458548  0.13848182  1
  O  O8  1  0.61131960  0.79495277  0.48216333  1
  O  O9  1  0.54974523  0.96392411  0.61173121  1
  O  O10  1  0.63496703  0.05747712  0.80425070  1
  O  O11  1  0.74297543  0.15986307  0.84256965  1
  O  O12  1  0.72135934  0.37910012  0.01080657  1
  O  O13  1  0.88991763  0.39129641  0.27277089  1
  O  O14  1  0.83455327  0.47487151  0.52141617  1
