# generated using pymatgen
data_LiAlO3
_symmetry_space_group_name_H-M   'P 1'
_cell_length_a   7.29750587
_cell_length_b   7.29750587
_cell_length_c   11.27859376
_cell_angle_alpha   90.00000000
_cell_angle_beta   90.00000000
_cell_angle_gamma   120.00000000
_symmetry_Int_Tables_number   1
_chemical_formula_structural   LiAlO3
_chemical_formula_sum   'Li1 Al1 O3'
_cell_volume   520.15705342
_cell_formula_units_Z   1
loop_
 _symmetry_equiv_pos_site_id
 _symmetry_equiv_pos_as_xyz
  1  'x, y, z'
loop_
 _atom_site_type_symbol
 _atom_site_label
 _atom_site_symmetry_multiplicity
 _atom_site_fract_x
 _atom_site_fract_y
 _atom_site_fract_z
 _atom_site_occupancy
  Li  Li0  1  0.96972006  0.94524247  0.08656541  1
  Al  Al1  1  0.24686350  0.42325947  0.46940122  1
  O  O2  1  0.48909996  0.55703582  0.02753125  1
  O  O3  1  0.67578238  0.04877325  0.55381009  1
  O  O4  1  0.86081273  0.30993233  0.02252777  1
