# generated using pymatgen
data_Li4ScCl7
_symmetry_space_group_name_H-M   'P 1'
_cell_length_a   4.47825175
_cell_length_b   4.47825175
_cell_length_c   5.08607972
_cell_angle_alpha   90.00000000
_cell_angle_beta   90.00000000
_cell_angle_gamma   90.00000000
_symmetry_Int_Tables_number   1
_chemical_formula_structural   Li4ScCl7
_chemical_formula_sum   'Li4 Sc1 Cl7'
_cell_volume   102.00000000
_cell_formula_units_Z   1
loop_
 _symmetry_equiv_pos_site_id
 _symmetry_equiv_pos_as_xyz
  1  'x, y, z'
loop_
 _atom_site_type_symbol
 _atom_site_label
 _atom_site_symmetry_multiplicity
 _atom_site_fract_x
 _atom_site_fract_y
 _atom_site_fract_z
 _atom_site_occupancy
  Li  Li0  1  0.96043824  0.97234240  0.00279384  1
  Li  Li1  1  0.17692240  0.06300191  0.24667103  1
  Li  Li2  1  0.19992773  0.24889238  0.40467750  1
  Li  Li3  1  0.17233007  0.39360908  0.69404052  1
  Sc  Sc4  1  0.24928983  0.60109634  0.91538964  1
  Cl  Cl5  1  0.32767065  0.67982943  0.01762812  1
  Cl  Cl6  1  0.42780119  0.77628808  0.32439029  1
  Cl  Cl7  1  0.58390850  0.90354177  0.47824776  1
  Cl  Cl8  1  0.61070736  0.14640429  0.71203202  1
  Cl  Cl9  1  0.69254970  0.13266518  0.90534531  1
  Cl  Cl10  1  0.84069076  0.30645596  0.17618078  1
  Cl  Cl11  1  0.83008504  0.45560044  0.31926244  1
