# generated using pymatgen
data_LiTaO9
_symmetry_space_group_name_H-M   'P 1'
_cell_length_a   12.40638439
_cell_length_b   12.40638439
_cell_length_c   13.09927410
_cell_angle_alpha   90.00000000
_cell_angle_beta   90.00000000
_cell_angle_gamma   90.00000000
_symmetry_Int_Tables_number   1
_chemical_formula_structural   LiTaO9
_chemical_formula_sum   'Li1 Ta1 O9'
_cell_volume   2016.21896660
_cell_formula_units_Z   1
loop_
 _symmetry_equiv_pos_site_id
 _symmetry_equiv_pos_as_xyz
  1  'x, y, z'
loop_
 _atom_site_type_symbol
 _atom_site_label
 _atom_site_symmetry_multiplicity
 _atom_site_fract_x
 _atom_site_fract_y
 _atom_site_fract_z
 _atom_site_occupancy
  Li  Li0  1  0.93490193  0.99585022  0.99691228  1
  Ta  Ta1  1  0.00929624  0.15998025  0.22811343  1
  O  O2  1  0.15938125  0.20041548  0.46345762  1
  O  O3  1  0.24145988  0.34474485  0.79068699  1
  O  O4  1  0.38341758  0.67199786  0.98389479  1
  O  O5  1  0.49095489  0.72873256  0.19350564  1
  O  O6  1  0.49970038  0.87265222  0.43864359  1
  O  O7  1  0.70129228  0.96757438  0.74674156  1
  O  O8  1  0.64930709  0.24535832  0.98722983  1
  O  O9  1  0.87018927  0.30299381  0.07337703  1
  O  O10  1  0.92904110  0.52666003  0.42156916  1
