# generated using pymatgen
data_Li2AlO4
_symmetry_space_group_name_H-M   'P 1'
_cell_length_a   8.62849636
_cell_length_b   8.62849636
_cell_length_c   8.54257631
_cell_angle_alpha   90.00000000
_cell_angle_beta   90.00000000
_cell_angle_gamma   120.00000000
_symmetry_Int_Tables_number   1
_chemical_formula_structural   Li2AlO4
_chemical_formula_sum   'Li2 Al1 O4'
_cell_volume   550.79468279
_cell_formula_units_Z   1
loop_
 _symmetry_equiv_pos_site_id
 _symmetry_equiv_pos_as_xyz
  1  'x, y, z'
loop_
 _atom_site_type_symbol
 _atom_site_label
 _atom_site_symmetry_multiplicity
 _atom_site_fract_x
 _atom_site_fract_y
 _atom_site_fract_z
 _atom_site_occupancy
  Li  Li0  1  0.90835037  0.96270548  0.92221222  1
  Li  Li1  1  0.13710534  0.25423028  0.39797458  1
  Al  Al2  1  0.25285068  0.39707809  0.75968774  1
  O  O3  1  0.45036921  0.76847267  0.13007281  1
  O  O4  1  0.47290824  0.86945441  0.44670328  1
  O  O5  1  0.76957488  0.19690714  0.88742480  1
  O  O6  1  0.90014306  0.46915943  0.21571844  1
