# generated using pymatgen
data_Li3TiO4
_symmetry_space_group_name_H-M   'P 1'
_cell_length_a   4.15408547
_cell_length_b   4.15408547
_cell_length_c   4.15408547
_cell_angle_alpha   90.00000000
_cell_angle_beta   90.00000000
_cell_angle_gamma   90.00000000
_symmetry_Int_Tables_number   1
_chemical_formula_structural   Li3TiO4
_chemical_formula_sum   'Li3 Ti1 O4'
_cell_volume   71.68466873
_cell_formula_units_Z   1
loop_
 _symmetry_equiv_pos_site_id
 _symmetry_equiv_pos_as_xyz
  1  'x, y, z'
loop_
 _atom_site_type_symbol
 _atom_site_label
 _atom_site_symmetry_multiplicity
 _atom_site_fract_x
 _atom_site_fract_y
 _atom_site_fract_z
 _atom_site_occupancy
  Li  Li0  1  0.04267284  0.96000195  0.04895352  1
  Li  Li1  1  0.13902687  0.28970678  0.40593895  1
  Li  Li2  1  0.28647794  0.34108500  0.68730404  1
  Ti  Ti3  1  0.43523648  0.55255217  0.88645901  1
  O  O4  1  0.47033352  0.80634398  0.36492010  1
  O  O5  1  0.71044158  0.02382300  0.55200124  1
  O  O6  1  0.72325107  0.13101969  0.86901541  1
  O  O7  1  0.82521671  0.44138245  0.32696205  1
