# generated using pymatgen
data_Li4La(BrF)3
_symmetry_space_group_name_H-M   'P 1'
_cell_length_a   14.37575181
_cell_length_b   4.81662345
_cell_length_c   14.91102841
_cell_angle_alpha   65.23605385
_cell_angle_beta   105.84090597
_cell_angle_gamma   79.24604921
_symmetry_Int_Tables_number   1
_chemical_formula_structural   Li4La(BrF)3
_chemical_formula_sum   'Li4 La1 Br3 F3'
_cell_volume   846.72100115
_cell_formula_units_Z   1
loop_
 _symmetry_equiv_pos_site_id
 _symmetry_equiv_pos_as_xyz
  1  'x, y, z'
loop_
 _atom_site_type_symbol
 _atom_site_label
 _atom_site_symmetry_multiplicity
 _atom_site_fract_x
 _atom_site_fract_y
 _atom_site_fract_z
 _atom_site_occupancy
  Li  Li0  1  0.93079586  0.95438275  0.00491302  1
  Li  Li1  1  0.16322605  0.20608669  0.30504218  1
  Li  Li2  1  0.23120906  0.33793135  0.57151563  1
  Li  Li3  1  0.18777043  0.36089905  0.67556132  1
  La  La4  1  0.38806969  0.62576330  0.02100766  1
  Br  Br5  1  0.38694991  0.77108286  0.24750340  1
  Br  Br6  1  0.50772298  0.82222127  0.50712092  1
  Br  Br7  1  0.59868049  0.97338542  0.58649988  1
  F  F8  1  0.80931853  0.08419305  0.96951908  1
  F  F9  1  0.77662556  0.30768430  0.14325088  1
  F  F10  1  0.90320947  0.46025965  0.45215574  1
