# generated using pymatgen
data_Li2AlO4
_symmetry_space_group_name_H-M   'P 1'
_cell_length_a   4.89243329
_cell_length_b   4.89243329
_cell_length_c   5.62099137
_cell_angle_alpha   90.00000000
_cell_angle_beta   90.00000000
_cell_angle_gamma   120.00000000
_symmetry_Int_Tables_number   1
_chemical_formula_structural   Li2AlO4
_chemical_formula_sum   'Li2 Al1 O4'
_cell_volume   116.51809482
_cell_formula_units_Z   1
loop_
 _symmetry_equiv_pos_site_id
 _symmetry_equiv_pos_as_xyz
  1  'x, y, z'
loop_
 _atom_site_type_symbol
 _atom_site_label
 _atom_site_symmetry_multiplicity
 _atom_site_fract_x
 _atom_site_fract_y
 _atom_site_fract_z
 _atom_site_occupancy
  Li  Li0  1  0.97069710  0.08386084  0.08937186  1
  Li  Li1  1  0.20939183  0.32231673  0.45587519  1
  Al  Al2  1  0.22514002  0.45846224  0.66518692  1
  O  O3  1  0.41274497  0.67031576  0.03356281  1
  O  O4  1  0.63918523  0.98627412  0.57273496  1
  O  O5  1  0.64126095  0.21862047  0.89312901  1
  O  O6  1  0.80022819  0.35699986  0.20985126  1
