# generated using pymatgen
data_BaLi2TiO2
_symmetry_space_group_name_H-M   'P 1'
_cell_length_a   3.68403150
_cell_length_b   3.68403150
_cell_length_c   3.68403150
_cell_angle_alpha   90.00000000
_cell_angle_beta   90.00000000
_cell_angle_gamma   90.00000000
_symmetry_Int_Tables_number   1
_chemical_formula_structural   BaLi2TiO2
_chemical_formula_sum   'Ba1 Li2 Ti1 O2'
_cell_volume   50.00000000
_cell_formula_units_Z   1
loop_
 _symmetry_equiv_pos_site_id
 _symmetry_equiv_pos_as_xyz
  1  'x, y, z'
loop_
 _atom_site_type_symbol
 _atom_site_label
 _atom_site_symmetry_multiplicity
 _atom_site_fract_x
 _atom_site_fract_y
 _atom_site_fract_z
 _atom_site_occupancy
  Li  Li0  1  0.08771063  0.91763062  0.98067673  1
  Li  Li1  1  0.25570757  0.17443879  0.51964987  1
  Ti  Ti2  1  0.43226830  0.54340998  0.78598644  1
  O  O3  1  0.49824546  0.75119458  0.32968415  1
  O  O4  1  0.74508084  0.12045947  0.76663901  1
  Ba  Ba5  1  0.75791612  0.39577237  0.25665995  1
