# generated using pymatgen
data_Li8La3Zr2O9
_symmetry_space_group_name_H-M   'P 1'
_cell_length_a   5.49834078
_cell_length_b   6.34479409
_cell_length_c   6.56426789
_cell_angle_alpha   90.00000000
_cell_angle_beta   90.00000000
_cell_angle_gamma   90.00000000
_symmetry_Int_Tables_number   1
_chemical_formula_structural   Li8La3Zr2O9
_chemical_formula_sum   'Li8 La3 Zr2 O9'
_cell_volume   229.00000000
_cell_formula_units_Z   1
loop_
 _symmetry_equiv_pos_site_id
 _symmetry_equiv_pos_as_xyz
  1  'x, y, z'
loop_
 _atom_site_type_symbol
 _atom_site_label
 _atom_site_symmetry_multiplicity
 _atom_site_fract_x
 _atom_site_fract_y
 _atom_site_fract_z
 _atom_site_occupancy
  Li  Li0  1  0.04740137  0.01981076  0.02938102  1
  Li  Li1  1  0.11528169  0.08640340  0.11855366  1
  Li  Li2  1  0.03786879  0.12445043  0.14116148  1
  Li  Li3  1  0.14579688  0.13292670  0.42708295  1
  Li  Li4  1  0.24364951  0.28386041  0.54388137  1
  Li  Li5  1  0.13594148  0.33825362  0.69028990  1
  Li  Li6  1  0.36341334  0.35072725  0.75952270  1
  Li  Li7  1  0.27580999  0.52158227  0.89789915  1
  La  La8  1  0.44883464  0.52916603  0.94043533  1
  La  La9  1  0.36913553  0.75910392  0.15809369  1
  La  La10  1  0.54843625  0.69543076  0.10727018  1
  Zr  Zr11  1  0.52652851  0.75506181  0.34575341  1
  Zr  Zr12  1  0.54042174  0.93962752  0.52719195  1
  O  O13  1  0.69086916  0.01100087  0.48328442  1
  O  O14  1  0.59979287  0.00541641  0.57629341  1
  O  O15  1  0.58996548  0.13090880  0.69080476  1
  O  O16  1  0.66800137  0.12585255  0.91712842  1
  O  O17  1  0.80886542  0.25280480  0.04760163  1
  O  O18  1  0.88262213  0.40870081  0.10759437  1
  O  O19  1  0.77725060  0.38154654  0.25876530  1
  O  O20  1  0.85298235  0.43596695  0.36317742  1
  O  O21  1  0.93330577  0.64119100  0.55203922  1
