# generated using pymatgen
data_Li8La3Zr2O12
_symmetry_space_group_name_H-M   'P 1'
_cell_length_a   6.48229771
_cell_length_b   6.48229771
_cell_length_c   5.87812758
_cell_angle_alpha   90.00000000
_cell_angle_beta   90.00000000
_cell_angle_gamma   90.00000000
_symmetry_Int_Tables_number   1
_chemical_formula_structural   Li8La3Zr2O12
_chemical_formula_sum   'Li8 La3 Zr2 O12'
_cell_volume   247.00000000
_cell_formula_units_Z   1
loop_
 _symmetry_equiv_pos_site_id
 _symmetry_equiv_pos_as_xyz
  1  'x, y, z'
loop_
 _atom_site_type_symbol
 _atom_site_label
 _atom_site_symmetry_multiplicity
 _atom_site_fract_x
 _atom_site_fract_y
 _atom_site_fract_z
 _atom_site_occupancy
  Li  Li0  1  0.04383546  0.04020239  0.93518341  1
  Li  Li1  1  0.09267805  0.05177727  0.19612595  1
  Li  Li2  1  0.98538026  0.13630076  0.27277834  1
  Li  Li3  1  0.20929050  0.14764835  0.36182787  1
  Li  Li4  1  0.13777929  0.23586831  0.36678876  1
  Li  Li5  1  0.14956501  0.40633135  0.42516073  1
  Li  Li6  1  0.27410705  0.33545445  0.72396656  1
  Li  Li7  1  0.19036494  0.40719169  0.64796203  1
  La  La8  1  0.29258532  0.53309788  0.74788572  1
  La  La9  1  0.27034852  0.61202068  0.84634926  1
  La  La10  1  0.32155291  0.63983759  0.10893985  1
  Zr  Zr11  1  0.37278850  0.76975569  0.23259571  1
  Zr  Zr12  1  0.55941418  0.79717755  0.29346311  1
  O  O13  1  0.51801809  0.74240187  0.27675790  1
  O  O14  1  0.64374494  0.86601802  0.39582369  1
  O  O15  1  0.68847205  0.93613545  0.63104583  1
  O  O16  1  0.69131045  0.03023864  0.68590705  1
  O  O17  1  0.70225455  0.17125108  0.70013110  1
  O  O18  1  0.68747812  0.16555199  0.98119532  1
  O  O19  1  0.81331499  0.25363844  0.96097532  1
  O  O20  1  0.76796854  0.24428183  0.04275433  1
  O  O21  1  0.80444268  0.28981859  0.22600320  1
  O  O22  1  0.88151478  0.43608146  0.21145047  1
  O  O23  1  0.85533462  0.54828731  0.39108136  1
  O  O24  1  0.04427861  0.46722920  0.54611308  1
