# generated using pymatgen
data_BaLi2Ti2O3
_symmetry_space_group_name_H-M   'P 1'
_cell_length_a   3.99178469
_cell_length_b   4.05810031
_cell_length_c   4.19777374
_cell_angle_alpha   90.00000000
_cell_angle_beta   90.00000000
_cell_angle_gamma   90.00000000
_symmetry_Int_Tables_number   1
_chemical_formula_structural   BaLi2Ti2O3
_chemical_formula_sum   'Ba1 Li2 Ti2 O3'
_cell_volume   68.00000000
_cell_formula_units_Z   1
loop_
 _symmetry_equiv_pos_site_id
 _symmetry_equiv_pos_as_xyz
  1  'x, y, z'
loop_
 _atom_site_type_symbol
 _atom_site_label
 _atom_site_symmetry_multiplicity
 _atom_site_fract_x
 _atom_site_fract_y
 _atom_site_fract_z
 _atom_site_occupancy
  Li  Li0  1  0.92592432  0.08586711  0.08173742  1
  Li  Li1  1  0.20962096  0.16543255  0.32444623  1
  Ti  Ti2  1  0.16624533  0.49542499  0.56281394  1
  Ti  Ti3  1  0.35957144  0.53149694  0.93537441  1
  O  O4  1  0.41317551  0.85214766  0.38704986  1
  O  O5  1  0.69269033  0.93873855  0.73278759  1
  O  O6  1  0.79839328  0.20762007  0.86813797  1
  Ba  Ba7  1  0.96811800  0.33971607  0.34283116  1
