# generated using pymatgen
data_Li3Sc2I3
_symmetry_space_group_name_H-M   'P 1'
_cell_length_a   3.72469545
_cell_length_b   4.06511986
_cell_length_c   5.41563927
_cell_angle_alpha   90.00000000
_cell_angle_beta   90.00000000
_cell_angle_gamma   90.00000000
_symmetry_Int_Tables_number   1
_chemical_formula_structural   Li3Sc2I3
_chemical_formula_sum   'Li3 Sc2 I3'
_cell_volume   82.00000000
_cell_formula_units_Z   1
loop_
 _symmetry_equiv_pos_site_id
 _symmetry_equiv_pos_as_xyz
  1  'x, y, z'
loop_
 _atom_site_type_symbol
 _atom_site_label
 _atom_site_symmetry_multiplicity
 _atom_site_fract_x
 _atom_site_fract_y
 _atom_site_fract_z
 _atom_site_occupancy
  Li  Li0  1  0.08230229  0.97171844  0.08975502  1
  Li  Li1  1  0.10106116  0.21278553  0.30321660  1
  Li  Li2  1  0.25618982  0.35502560  0.64659862  1
  Sc  Sc3  1  0.28848678  0.58405394  0.89137651  1
  Sc  Sc4  1  0.59180351  0.75982548  0.23562753  1
  I  I5  1  0.55818534  0.99912916  0.63668351  1
  I  I6  1  0.72728555  0.22543322  0.01165722  1
  I  I7  1  0.90085160  0.49744386  0.34119829  1
