# generated using pymatgen
data_Li3AlO4
_symmetry_space_group_name_H-M   'P 1'
_cell_length_a   11.03941606
_cell_length_b   11.03941606
_cell_length_c   10.14877436
_cell_angle_alpha   90.00000000
_cell_angle_beta   90.00000000
_cell_angle_gamma   120.00000000
_symmetry_Int_Tables_number   1
_chemical_formula_structural   Li3AlO4
_chemical_formula_sum   'Li3 Al1 O4'
_cell_volume   1071.11581383
_cell_formula_units_Z   1
loop_
 _symmetry_equiv_pos_site_id
 _symmetry_equiv_pos_as_xyz
  1  'x, y, z'
loop_
 _atom_site_type_symbol
 _atom_site_label
 _atom_site_symmetry_multiplicity
 _atom_site_fract_x
 _atom_site_fract_y
 _atom_site_fract_z
 _atom_site_occupancy
  Li  Li0  1  0.00501485  0.90131868  0.02313783  1
  Li  Li1  1  0.11639612  0.22013200  0.35353542  1
  Li  Li2  1  0.25158365  0.40906564  0.73924796  1
  Al  Al3  1  0.46727408  0.58777450  0.91334886  1
  O  O4  1  0.41532776  0.83867800  0.40208642  1
  O  O5  1  0.69360317  0.95399295  0.59581036  1
  O  O6  1  0.71111294  0.19648851  0.91398243  1
  O  O7  1  0.95849285  0.44365199  0.29056061  1
