# generated using pymatgen
data_Li4Al2O7
_symmetry_space_group_name_H-M   'P 1'
_cell_length_a   14.96158905
_cell_length_b   14.96158905
_cell_length_c   14.98852264
_cell_angle_alpha   90.00000000
_cell_angle_beta   90.00000000
_cell_angle_gamma   90.00000000
_symmetry_Int_Tables_number   1
_chemical_formula_structural   Li4Al2O7
_chemical_formula_sum   'Li4 Al2 O7'
_cell_volume   3355.16800484
_cell_formula_units_Z   1
loop_
 _symmetry_equiv_pos_site_id
 _symmetry_equiv_pos_as_xyz
  1  'x, y, z'
loop_
 _atom_site_type_symbol
 _atom_site_label
 _atom_site_symmetry_multiplicity
 _atom_site_fract_x
 _atom_site_fract_y
 _atom_site_fract_z
 _atom_site_occupancy
  Li  Li0  1  0.06853999  0.91768961  0.03563832  1
  Li  Li1  1  0.99429436  0.15057657  0.20821669  1
  Li  Li2  1  0.06960174  0.22446931  0.32670760  1
  Li  Li3  1  0.28933699  0.37130547  0.65833029  1
  Al  Al4  1  0.34701094  0.56047035  0.79692300  1
  Al  Al5  1  0.42885875  0.71270037  0.92128624  1
  O  O6  1  0.50758442  0.66461658  0.27407522  1
  O  O7  1  0.61386458  0.90889873  0.48300969  1
  O  O8  1  0.51813640  0.93657295  0.52935143  1
  O  O9  1  0.70230781  0.10470816  0.71416729  1
  O  O10  1  0.82385928  0.23546560  0.97670197  1
  O  O11  1  0.85579600  0.32925620  0.26980318  1
  O  O12  1  0.91953809  0.50033641  0.50875193  1
