# generated using pymatgen
data_Li2Y4ScP5
_symmetry_space_group_name_H-M   'P 1'
_cell_length_a   4.31147999
_cell_length_b   13.67367475
_cell_length_c   11.13792341
_cell_angle_alpha   81.44785228
_cell_angle_beta   103.88952151
_cell_angle_gamma   116.96406192
_symmetry_Int_Tables_number   1
_chemical_formula_structural   Li2Y4ScP5
_chemical_formula_sum   'Li2 Y4 Sc1 P5'
_cell_volume   567.52638421
_cell_formula_units_Z   1
loop_
 _symmetry_equiv_pos_site_id
 _symmetry_equiv_pos_as_xyz
  1  'x, y, z'
loop_
 _atom_site_type_symbol
 _atom_site_label
 _atom_site_symmetry_multiplicity
 _atom_site_fract_x
 _atom_site_fract_y
 _atom_site_fract_z
 _atom_site_occupancy
  Li  Li0  1  0.01783395  0.94950084  0.04827869  1
  Li  Li1  1  0.09597161  0.16808972  0.26399267  1
  Y  Y2  1  0.18026157  0.24099316  0.49037447  1
  Y  Y3  1  0.29558778  0.43196284  0.73274734  1
  Y  Y4  1  0.24110355  0.44909478  0.92374540  1
  Y  Y5  1  0.47232817  0.57544430  0.17313517  1
  Sc  Sc6  1  0.56138061  0.83165709  0.34238045  1
  P  P7  1  0.52927208  0.00198065  0.58281368  1
  P  P8  1  0.73608353  0.99544980  0.67844166  1
  P  P9  1  0.72715545  0.22878115  0.94134638  1
  P  P10  1  0.88240017  0.33280769  0.23164054  1
  P  P11  1  0.96624247  0.44971252  0.37337036  1
