# generated using pymatgen
data_LiTiO4
_symmetry_space_group_name_H-M   'P 1'
_cell_length_a   8.90764305
_cell_length_b   8.90764305
_cell_length_c   8.90764305
_cell_angle_alpha   90.00000000
_cell_angle_beta   90.00000000
_cell_angle_gamma   90.00000000
_symmetry_Int_Tables_number   1
_chemical_formula_structural   LiTiO4
_chemical_formula_sum   'Li1 Ti1 O4'
_cell_volume   706.78677697
_cell_formula_units_Z   1
loop_
 _symmetry_equiv_pos_site_id
 _symmetry_equiv_pos_as_xyz
  1  'x, y, z'
loop_
 _atom_site_type_symbol
 _atom_site_label
 _atom_site_symmetry_multiplicity
 _atom_site_fract_x
 _atom_site_fract_y
 _atom_site_fract_z
 _atom_site_occupancy
  Li  Li0  1  0.90098835  0.97644389  0.05962329  1
  Ti  Ti1  1  0.14458910  0.20744433  0.41619148  1
  O  O2  1  0.38264318  0.47135434  0.95639259  1
  O  O3  1  0.46726168  0.75206508  0.25510428  1
  O  O4  1  0.71299627  0.05957919  0.73871343  1
  O  O5  1  0.77643012  0.35132740  0.24963071  1
