# generated using pymatgen
data_SrLi4TiO2
_symmetry_space_group_name_H-M   'P 1'
_cell_length_a   4.04124002
_cell_length_b   4.04124002
_cell_length_c   4.04124002
_cell_angle_alpha   90.00000000
_cell_angle_beta   90.00000000
_cell_angle_gamma   90.00000000
_symmetry_Int_Tables_number   1
_chemical_formula_structural   SrLi4TiO2
_chemical_formula_sum   'Sr1 Li4 Ti1 O2'
_cell_volume   66.00000000
_cell_formula_units_Z   1
loop_
 _symmetry_equiv_pos_site_id
 _symmetry_equiv_pos_as_xyz
  1  'x, y, z'
loop_
 _atom_site_type_symbol
 _atom_site_label
 _atom_site_symmetry_multiplicity
 _atom_site_fract_x
 _atom_site_fract_y
 _atom_site_fract_z
 _atom_site_occupancy
  Li  Li0  1  0.08771063  0.91763062  0.98067673  1
  Li  Li1  1  0.21404090  0.10702213  0.41056654  1
  Li  Li2  1  0.34893497  0.40857665  0.56781977  1
  Li  Li3  1  0.37324546  0.54894458  0.00243415  1
  Ti  Ti4  1  0.57841418  0.85079281  0.33030567  1
  O  O5  1  0.54958279  0.05868903  0.71124328  1
  O  O6  1  0.78591545  0.22283206  0.95219202  1
  Sr  Sr7  1  0.93735898  0.32827670  0.32249081  1
