# generated using pymatgen
data_Li2La2Ti2O3
_symmetry_space_group_name_H-M   'P 1'
_cell_length_a   4.55059529
_cell_length_b   4.55059529
_cell_length_c   5.21539647
_cell_angle_alpha   90.00000000
_cell_angle_beta   90.00000000
_cell_angle_gamma   90.00000000
_symmetry_Int_Tables_number   1
_chemical_formula_structural   Li2La2Ti2O3
_chemical_formula_sum   'Li2 La2 Ti2 O3'
_cell_volume   108.00000000
_cell_formula_units_Z   1
loop_
 _symmetry_equiv_pos_site_id
 _symmetry_equiv_pos_as_xyz
  1  'x, y, z'
loop_
 _atom_site_type_symbol
 _atom_site_label
 _atom_site_symmetry_multiplicity
 _atom_site_fract_x
 _atom_site_fract_y
 _atom_site_fract_z
 _atom_site_occupancy
  Li  Li0  1  0.04369924  0.00367984  0.97851229  1
  Li  Li1  1  0.01436586  0.10424318  0.36574965  1
  Ti  Ti2  1  0.24610839  0.30698900  0.51455351  1
  Ti  Ti3  1  0.37521748  0.54827096  0.90383079  1
  O  O4  1  0.45681513  0.80254820  0.25446881  1
  O  O5  1  0.61596524  0.88123263  0.46320011  1
  O  O6  1  0.61706871  0.17593135  0.64893944  1
  La  La7  1  0.87405256  0.25191714  0.94338317  1
  La  La8  1  0.80174265  0.37471067  0.39919126  1
