# generated using pymatgen
data_Li3PS4
_symmetry_space_group_name_H-M   'P 1'
_cell_length_a   4.43901501
_cell_length_b   4.43901501
_cell_length_c   4.05991331
_cell_angle_alpha   90.00000000
_cell_angle_beta   90.00000000
_cell_angle_gamma   90.00000000
_symmetry_Int_Tables_number   1
_chemical_formula_structural   Li3PS4
_chemical_formula_sum   'Li3 P1 S4'
_cell_volume   80.00000000
_cell_formula_units_Z   1
loop_
 _symmetry_equiv_pos_site_id
 _symmetry_equiv_pos_as_xyz
  1  'x, y, z'
loop_
 _atom_site_type_symbol
 _atom_site_label
 _atom_site_symmetry_multiplicity
 _atom_site_fract_x
 _atom_site_fract_y
 _atom_site_fract_z
 _atom_site_occupancy
  Li  Li0  1  0.00062848  0.02566662  0.99431273  1
  Li  Li1  1  0.11494251  0.20816910  0.35913294  1
  Li  Li2  1  0.28477168  0.38438463  0.57100947  1
  P  P3  1  0.30137076  0.60899810  0.92317424  1
  S  S4  1  0.48852143  0.86744295  0.40606588  1
  S  S5  1  0.69882895  0.10779315  0.62748532  1
  S  S6  1  0.66149836  0.26366104  0.05562289  1
  S  S7  1  0.79359764  0.45881063  0.19511173  1
