# generated using pymatgen
data_BaLi3Ti2O2
_symmetry_space_group_name_H-M   'P 1'
_cell_length_a   3.87611409
_cell_length_b   3.87611409
_cell_length_c   4.65913116
_cell_angle_alpha   90.00000000
_cell_angle_beta   90.00000000
_cell_angle_gamma   90.00000000
_symmetry_Int_Tables_number   1
_chemical_formula_structural   BaLi3Ti2O2
_chemical_formula_sum   'Ba1 Li3 Ti2 O2'
_cell_volume   70.00000000
_cell_formula_units_Z   1
loop_
 _symmetry_equiv_pos_site_id
 _symmetry_equiv_pos_as_xyz
  1  'x, y, z'
loop_
 _atom_site_type_symbol
 _atom_site_label
 _atom_site_symmetry_multiplicity
 _atom_site_fract_x
 _atom_site_fract_y
 _atom_site_fract_z
 _atom_site_occupancy
  Li  Li0  1  0.04629841  0.08988021  0.05578399  1
  Li  Li1  1  0.06758679  0.17947793  0.30304948  1
  Li  Li2  1  0.27956800  0.47216385  0.75225788  1
  Ti  Ti3  1  0.31629813  0.62458395  0.93125084  1
  Ti  Ti4  1  0.54827869  0.82163828  0.34225638  1
  O  O5  1  0.67082601  0.02484490  0.60757650  1
  O  O6  1  0.80404114  0.25908778  0.99096284  1
  Ba  Ba7  1  0.95324734  0.32352021  0.20051145  1
