# generated using pymatgen
data_Li2TiO3
_symmetry_space_group_name_H-M   'P 1'
_cell_length_a   8.09447988
_cell_length_b   8.09447988
_cell_length_c   8.09447988
_cell_angle_alpha   90.00000000
_cell_angle_beta   90.00000000
_cell_angle_gamma   90.00000000
_symmetry_Int_Tables_number   1
_chemical_formula_structural   Li2TiO3
_chemical_formula_sum   'Li2 Ti1 O3'
_cell_volume   530.35521595
_cell_formula_units_Z   1
loop_
 _symmetry_equiv_pos_site_id
 _symmetry_equiv_pos_as_xyz
  1  'x, y, z'
loop_
 _atom_site_type_symbol
 _atom_site_label
 _atom_site_symmetry_multiplicity
 _atom_site_fract_x
 _atom_site_fract_y
 _atom_site_fract_z
 _atom_site_occupancy
  Li  Li0  1  0.94188024  0.00438107  0.93240768  1
  Li  Li1  1  0.16821445  0.26975891  0.52845463  1
  Ti  Ti2  1  0.36823448  0.52049057  0.77664743  1
  O  O3  1  0.54674178  0.87648111  0.27433204  1
  O  O4  1  0.69449737  0.13763687  0.84244398  1
  O  O5  1  0.88242725  0.29058408  0.13773135  1
