# generated using pymatgen
data_Li9La3ZrO9
_symmetry_space_group_name_H-M   'P 1'
_cell_length_a   6.02765016
_cell_length_b   6.02765016
_cell_length_c   6.02765016
_cell_angle_alpha   90.00000000
_cell_angle_beta   90.00000000
_cell_angle_gamma   90.00000000
_symmetry_Int_Tables_number   1
_chemical_formula_structural   Li9La3ZrO9
_chemical_formula_sum   'Li9 La3 Zr1 O9'
_cell_volume   219.00000000
_cell_formula_units_Z   1
loop_
 _symmetry_equiv_pos_site_id
 _symmetry_equiv_pos_as_xyz
  1  'x, y, z'
loop_
 _atom_site_type_symbol
 _atom_site_label
 _atom_site_symmetry_multiplicity
 _atom_site_fract_x
 _atom_site_fract_y
 _atom_site_fract_z
 _atom_site_occupancy
  Li  Li0  1  0.03158482  0.05069992  0.00232680  1
  Li  Li1  1  0.09362919  0.00576394  0.15975191  1
  Li  Li2  1  0.08340788  0.07358101  0.14756528  1
  Li  Li3  1  0.20359089  0.24450223  0.32495185  1
  Li  Li4  1  0.15313272  0.32871585  0.44311642  1
  Li  Li5  1  0.26521853  0.40159676  0.68043300  1
  Li  Li6  1  0.27266973  0.41162161  0.66818549  1
  Li  Li7  1  0.37267068  0.61372073  0.83480018  1
  Li  Li8  1  0.40302008  0.65690362  0.86968961  1
  La  La9  1  0.44472923  0.57928038  0.09711503  1
  La  La10  1  0.46137753  0.65121013  0.16554623  1
  La  La11  1  0.42393837  0.86756776  0.30692085  1
  Zr  Zr12  1  0.59963099  0.92186409  0.49062420  1
  O  O13  1  0.58229363  0.00033428  0.63739268  1
  O  O14  1  0.55072680  0.07568233  0.58384735  1
  O  O15  1  0.74758571  0.17858486  0.82266796  1
  O  O16  1  0.80059011  0.07947906  0.84488065  1
  O  O17  1  0.69100178  0.26027285  0.00755432  1
  O  O18  1  0.71988757  0.37844670  0.13285022  1
  O  O19  1  0.82649218  0.40700579  0.22117927  1
  O  O20  1  0.96366332  0.46737026  0.38679795  1
  O  O21  1  0.04668200  0.52600105  0.47493721  1
