# generated using pymatgen
data_Sr2Li3TiO3
_symmetry_space_group_name_H-M   'P 1'
_cell_length_a   3.86280217
_cell_length_b   4.29981730
_cell_length_c   4.45532357
_cell_angle_alpha   90.00000000
_cell_angle_beta   90.00000000
_cell_angle_gamma   90.00000000
_symmetry_Int_Tables_number   1
_chemical_formula_structural   Sr2Li3TiO3
_chemical_formula_sum   'Sr2 Li3 Ti1 O3'
_cell_volume   74.00000000
_cell_formula_units_Z   1
loop_
 _symmetry_equiv_pos_site_id
 _symmetry_equiv_pos_as_xyz
  1  'x, y, z'
loop_
 _atom_site_type_symbol
 _atom_site_label
 _atom_site_symmetry_multiplicity
 _atom_site_fract_x
 _atom_site_fract_y
 _atom_site_fract_z
 _atom_site_occupancy
  Li  Li0  1  0.94960150  0.98955326  0.98405204  1
  Li  Li1  1  0.20940362  0.10255817  0.28151573  1
  Li  Li2  1  0.21267862  0.39970949  0.53814356  1
  Ti  Ti3  1  0.33958325  0.61327359  0.90677263  1
  O  O4  1  0.50236122  0.64754944  0.21761887  1
  O  O5  1  0.57936599  0.87226421  0.42592061  1
  O  O6  1  0.58327813  0.99290493  0.73774730  1
  Sr  Sr7  1  0.85115643  0.20942675  0.95381311  1
  Sr  Sr8  1  0.92364118  0.40999962  0.33887550  1
