# generated using pymatgen
data_Li5La3Zr3O14
_symmetry_space_group_name_H-M   'P 1'
_cell_length_a   6.46290516
_cell_length_b   6.46290516
_cell_length_c   6.05710295
_cell_angle_alpha   90.00000000
_cell_angle_beta   90.00000000
_cell_angle_gamma   90.00000000
_symmetry_Int_Tables_number   1
_chemical_formula_structural   Li5La3Zr3O14
_chemical_formula_sum   'Li5 La3 Zr3 O14'
_cell_volume   253.00000000
_cell_formula_units_Z   1
loop_
 _symmetry_equiv_pos_site_id
 _symmetry_equiv_pos_as_xyz
  1  'x, y, z'
loop_
 _atom_site_type_symbol
 _atom_site_label
 _atom_site_symmetry_multiplicity
 _atom_site_fract_x
 _atom_site_fract_y
 _atom_site_fract_z
 _atom_site_occupancy
  Li  Li0  1  0.09824859  0.91711201  0.09566167  1
  Li  Li1  1  0.05332296  0.98683523  0.01772298  1
  Li  Li2  1  0.13097879  0.03572220  0.21315698  1
  Li  Li3  1  0.20630384  0.28661562  0.24005913  1
  Li  Li4  1  0.13636927  0.30169928  0.38784426  1
  La  La5  1  0.20282215  0.27948049  0.47432440  1
  La  La6  1  0.30988185  0.32428967  0.54998485  1
  La  La7  1  0.19227265  0.44474614  0.63628540  1
  Zr  Zr8  1  0.39464839  0.43037361  0.79535259  1
  Zr  Zr9  1  0.28229369  0.64536339  0.92889843  1
  Zr  Zr10  1  0.33992894  0.69424832  0.10984800  1
  O  O11  1  0.46300133  0.67608236  0.20357088  1
  O  O12  1  0.40992144  0.70303687  0.32541234  1
  O  O13  1  0.56653194  0.92993834  0.39930821  1
  O  O14  1  0.57873653  0.97576030  0.50494474  1
  O  O15  1  0.55499628  0.89672375  0.61928057  1
  O  O16  1  0.70816848  0.96557195  0.60769933  1
  O  O17  1  0.73560849  0.10010149  0.85623206  1
  O  O18  1  0.77298272  0.06719706  0.95734909  1
  O  O19  1  0.81860557  0.19098709  0.08660276  1
  O  O20  1  0.85979655  0.21623037  0.04085720  1
  O  O21  1  0.81830261  0.33176760  0.21354356  1
  O  O22  1  0.97445524  0.44138962  0.27048975  1
  O  O23  1  0.99895256  0.50957019  0.39095112  1
  O  O24  1  0.99160463  0.46164542  0.60929838  1
