# generated using pymatgen
data_Li2AlO3
_symmetry_space_group_name_H-M   'P 1'
_cell_length_a   10.98016915
_cell_length_b   10.98016915
_cell_length_c   20.47956614
_cell_angle_alpha   90.00000000
_cell_angle_beta   90.00000000
_cell_angle_gamma   120.00000000
_symmetry_Int_Tables_number   1
_chemical_formula_structural   Li2AlO3
_chemical_formula_sum   'Li2 Al1 O3'
_cell_volume   2138.30398013
_cell_formula_units_Z   1
loop_
 _symmetry_equiv_pos_site_id
 _symmetry_equiv_pos_as_xyz
  1  'x, y, z'
loop_
 _atom_site_type_symbol
 _atom_site_label
 _atom_site_symmetry_multiplicity
 _atom_site_fract_x
 _atom_site_fract_y
 _atom_site_fract_z
 _atom_site_occupancy
  Li  Li0  1  0.95475630  0.93626097  0.90249810  1
  Li  Li1  1  0.07339117  0.20252483  0.47511113  1
  Al  Al2  1  0.32354300  0.58122512  0.87024811  1
  O  O3  1  0.49455667  0.74424388  0.31682315  1
  O  O4  1  0.71829395  0.11301200  0.74496247  1
  O  O5  1  0.82060867  0.25893766  0.25301158  1
