# generated using pymatgen
data_Li3NbS10
_symmetry_space_group_name_H-M   'P 1'
_cell_length_a   11.26529326
_cell_length_b   11.26529326
_cell_length_c   12.00410804
_cell_angle_alpha   90.00000000
_cell_angle_beta   90.00000000
_cell_angle_gamma   90.00000000
_symmetry_Int_Tables_number   1
_chemical_formula_structural   Li3NbS10
_chemical_formula_sum   'Li3 Nb1 S10'
_cell_volume   1523.40332441
_cell_formula_units_Z   1
loop_
 _symmetry_equiv_pos_site_id
 _symmetry_equiv_pos_as_xyz
  1  'x, y, z'
loop_
 _atom_site_type_symbol
 _atom_site_label
 _atom_site_symmetry_multiplicity
 _atom_site_fract_x
 _atom_site_fract_y
 _atom_site_fract_z
 _atom_site_occupancy
  Li  Li0  1  0.91929461  0.00923702  0.01848402  1
  Li  Li1  1  0.06969042  0.15147015  0.13157384  1
  Li  Li2  1  0.07827431  0.22284712  0.34026599  1
  Nb  Nb3  1  0.13671903  0.36190198  0.54066970  1
  S  S4  1  0.26446538  0.42543714  0.76247167  1
  S  S5  1  0.26606510  0.64192303  0.93069038  1
  S  S6  1  0.39987327  0.64051190  0.17016516  1
  S  S7  1  0.41689631  0.82650385  0.30888636  1
  S  S8  1  0.59779249  0.94092022  0.44847424  1
  S  S9  1  0.57272944  0.00934786  0.58596308  1
  S  S10  1  0.72756590  0.20523175  0.92727336  1
  S  S11  1  0.73240633  0.26636126  0.10448978  1
  S  S12  1  0.83986017  0.38716022  0.18479378  1
  S  S13  1  0.86529296  0.46327304  0.43178694  1
