# generated using pymatgen
data_LiTi4(PO5)2
_symmetry_space_group_name_H-M   'P 1'
_cell_length_a   5.09164337
_cell_length_b   5.09164337
_cell_length_c   5.09164337
_cell_angle_alpha   90.00000000
_cell_angle_beta   90.00000000
_cell_angle_gamma   90.00000000
_symmetry_Int_Tables_number   1
_chemical_formula_structural   LiTi4(PO5)2
_chemical_formula_sum   'Li1 Ti4 P2 O10'
_cell_volume   132.00000000
_cell_formula_units_Z   1
loop_
 _symmetry_equiv_pos_site_id
 _symmetry_equiv_pos_as_xyz
  1  'x, y, z'
loop_
 _atom_site_type_symbol
 _atom_site_label
 _atom_site_symmetry_multiplicity
 _atom_site_fract_x
 _atom_site_fract_y
 _atom_site_fract_z
 _atom_site_occupancy
  Li  Li0  1  0.93310507  0.08201101  0.04158893  1
  Ti  Ti1  1  0.10327101  0.17995093  0.24171531  1
  Ti  Ti2  1  0.19491402  0.19145403  0.31755352  1
  Ti  Ti3  1  0.24591812  0.32835022  0.42450302  1
  Ti  Ti4  1  0.24762560  0.39192050  0.58794273  1
  P  P5  1  0.35554085  0.37597787  0.69742290  1
  P  P6  1  0.26187312  0.63068466  0.82571025  1
  O  O7  1  0.41661866  0.62701451  0.15167694  1
  O  O8  1  0.53146985  0.68503031  0.23972853  1
  O  O9  1  0.61384488  0.89123322  0.45720281  1
  O  O10  1  0.60636198  0.97001496  0.53727466  1
  O  O11  1  0.55196698  0.00517035  0.71978232  1
  O  O12  1  0.79357281  0.04907524  0.79574651  1
  O  O13  1  0.84966578  0.15136539  0.07766606  1
  O  O14  1  0.87222982  0.35532439  0.12362119  1
  O  O15  1  0.83133545  0.47293171  0.36320415  1
  O  O16  1  0.93620821  0.60119444  0.48413182  1
