# generated using pymatgen
data_Li3TiO6
_symmetry_space_group_name_H-M   'P 1'
_cell_length_a   5.06570999
_cell_length_b   5.06570999
_cell_length_c   5.06570999
_cell_angle_alpha   90.00000000
_cell_angle_beta   90.00000000
_cell_angle_gamma   90.00000000
_symmetry_Int_Tables_number   1
_chemical_formula_structural   Li3TiO6
_chemical_formula_sum   'Li3 Ti1 O6'
_cell_volume   129.99329967
_cell_formula_units_Z   1
loop_
 _symmetry_equiv_pos_site_id
 _symmetry_equiv_pos_as_xyz
  1  'x, y, z'
loop_
 _atom_site_type_symbol
 _atom_site_label
 _atom_site_symmetry_multiplicity
 _atom_site_fract_x
 _atom_site_fract_y
 _atom_site_fract_z
 _atom_site_occupancy
  Li  Li0  1  0.92846422  0.97402621  0.99849174  1
  Li  Li1  1  0.07140465  0.10567467  0.25908027  1
  Li  Li2  1  0.21544155  0.40369215  0.59674288  1
  Ti  Ti3  1  0.38036914  0.44739662  0.82176442  1
  O  O4  1  0.38809088  0.58781100  0.01819727  1
  O  O5  1  0.41873411  0.75566937  0.24394117  1
  O  O6  1  0.54146239  0.93800536  0.54648859  1
  O  O7  1  0.78982568  0.10764643  0.80518430  1
  O  O8  1  0.71326098  0.33509897  0.14440677  1
  O  O9  1  0.95340260  0.37849579  0.43718456  1
