# generated using pymatgen
data_SrLi2Ti2O2
_symmetry_space_group_name_H-M   'P 1'
_cell_length_a   3.66294613
_cell_length_b   4.05635646
_cell_length_c   4.17277575
_cell_angle_alpha   90.00000000
_cell_angle_beta   90.00000000
_cell_angle_gamma   90.00000000
_symmetry_Int_Tables_number   1
_chemical_formula_structural   SrLi2Ti2O2
_chemical_formula_sum   'Sr1 Li2 Ti2 O2'
_cell_volume   62.00000000
_cell_formula_units_Z   1
loop_
 _symmetry_equiv_pos_site_id
 _symmetry_equiv_pos_as_xyz
  1  'x, y, z'
loop_
 _atom_site_type_symbol
 _atom_site_label
 _atom_site_symmetry_multiplicity
 _atom_site_fract_x
 _atom_site_fract_y
 _atom_site_fract_z
 _atom_site_occupancy
  Li  Li0  1  0.93462679  0.94919889  0.94011424  1
  Li  Li1  1  0.07529602  0.16237649  0.40868514  1
  Ti  Ti2  1  0.19225726  0.52752456  0.69071157  1
  Ti  Ti3  1  0.35658339  0.73120622  0.02216603  1
  O  O4  1  0.62889831  0.91807707  0.52466564  1
  O  O5  1  0.68825783  0.07336600  0.77868035  1
  Sr  Sr6  1  0.89741395  0.32819014  0.18120691  1
