# generated using pymatgen
data_Li6Ta2Br5
_symmetry_space_group_name_H-M   'P 1'
_cell_length_a   11.75467695
_cell_length_b   11.37786279
_cell_length_c   11.20963809
_cell_angle_alpha   90.00000000
_cell_angle_beta   90.00000000
_cell_angle_gamma   90.00000000
_symmetry_Int_Tables_number   1
_chemical_formula_structural   Li6Ta2Br5
_chemical_formula_sum   'Li6 Ta2 Br5'
_cell_volume   1499.21176531
_cell_formula_units_Z   1
loop_
 _symmetry_equiv_pos_site_id
 _symmetry_equiv_pos_as_xyz
  1  'x, y, z'
loop_
 _atom_site_type_symbol
 _atom_site_label
 _atom_site_symmetry_multiplicity
 _atom_site_fract_x
 _atom_site_fract_y
 _atom_site_fract_z
 _atom_site_occupancy
  Li  Li0  1  0.01619737  0.05982335  0.92852436  1
  Li  Li1  1  0.00019486  0.03124146  0.26364116  1
  Li  Li2  1  0.08900241  0.31817629  0.40088920  1
  Li  Li3  1  0.30429060  0.42503639  0.63089826  1
  Li  Li4  1  0.28492433  0.57273956  0.72097878  1
  Li  Li5  1  0.47174570  0.71157768  0.09821820  1
  Ta  Ta6  1  0.42516084  0.71412097  0.24589156  1
  Ta  Ta7  1  0.52292042  0.81843707  0.48763510  1
  Br  Br8  1  0.67525317  0.89609102  0.65875343  1
  Br  Br9  1  0.62541276  0.20216485  0.85405047  1
  Br  Br10  1  0.81367825  0.32938984  0.10156147  1
  Br  Br11  1  0.92342080  0.37017801  0.22478429  1
  Br  Br12  1  0.99252445  0.53635927  0.37911840  1
