# generated using pymatgen
data_Li2TiO5
_symmetry_space_group_name_H-M   'P 1'
_cell_length_a   11.35560052
_cell_length_b   11.35560052
_cell_length_c   11.35560052
_cell_angle_alpha   90.00000000
_cell_angle_beta   90.00000000
_cell_angle_gamma   90.00000000
_symmetry_Int_Tables_number   1
_chemical_formula_structural   Li2TiO5
_chemical_formula_sum   'Li2 Ti1 O5'
_cell_volume   1464.30086404
_cell_formula_units_Z   1
loop_
 _symmetry_equiv_pos_site_id
 _symmetry_equiv_pos_as_xyz
  1  'x, y, z'
loop_
 _atom_site_type_symbol
 _atom_site_label
 _atom_site_symmetry_multiplicity
 _atom_site_fract_x
 _atom_site_fract_y
 _atom_site_fract_z
 _atom_site_occupancy
  Li  Li0  1  0.03005404  0.99728309  0.03687619  1
  Li  Li1  1  0.09634947  0.25106458  0.39337345  1
  Ti  Ti2  1  0.25477862  0.37342821  0.67904109  1
  O  O3  1  0.28267240  0.63043470  0.06222056  1
  O  O4  1  0.51555983  0.81022947  0.33409793  1
  O  O5  1  0.71246383  0.98113660  0.69334355  1
  O  O6  1  0.75611147  0.30286908  0.99728875  1
  O  O7  1  0.78719088  0.42627822  0.26933060  1
