# generated using pymatgen
data_Li7La3Zr3O11
_symmetry_space_group_name_H-M   'P 1'
_cell_length_a   5.65166439
_cell_length_b   6.65096275
_cell_length_c   6.67748377
_cell_angle_alpha   90.00000000
_cell_angle_beta   90.00000000
_cell_angle_gamma   90.00000000
_symmetry_Int_Tables_number   1
_chemical_formula_structural   Li7La3Zr3O11
_chemical_formula_sum   'Li7 La3 Zr3 O11'
_cell_volume   251.00000000
_cell_formula_units_Z   1
loop_
 _symmetry_equiv_pos_site_id
 _symmetry_equiv_pos_as_xyz
  1  'x, y, z'
loop_
 _atom_site_type_symbol
 _atom_site_label
 _atom_site_symmetry_multiplicity
 _atom_site_fract_x
 _atom_site_fract_y
 _atom_site_fract_z
 _atom_site_occupancy
  Li  Li0  1  0.09089631  0.00243900  0.95447659  1
  Li  Li1  1  0.97447193  0.04339574  0.18272904  1
  Li  Li2  1  0.09053043  0.08304920  0.17187979  1
  Li  Li3  1  0.08447680  0.13586502  0.37651750  1
  Li  Li4  1  0.14843194  0.27499236  0.40763450  1
  Li  Li5  1  0.16818066  0.36141077  0.48401727  1
  Li  Li6  1  0.21511066  0.39479182  0.75219951  1
  La  La7  1  0.24339977  0.45288583  0.80008234  1
  La  La8  1  0.42662032  0.47479029  0.82047906  1
  La  La9  1  0.36889401  0.68796165  0.00937608  1
  Zr  Zr10  1  0.45480069  0.73575966  0.15285719  1
  Zr  Zr11  1  0.40385053  0.65220151  0.11209393  1
  Zr  Zr12  1  0.45379558  0.78824743  0.26965266  1
  O  O13  1  0.48120662  0.82905886  0.41101269  1
  O  O14  1  0.48522581  0.92406084  0.56509635  1
  O  O15  1  0.58533959  0.06397458  0.63216660  1
  O  O16  1  0.69139863  0.08506993  0.70900319  1
  O  O17  1  0.79210106  0.04769126  0.94638218  1
  O  O18  1  0.70831283  0.19881666  0.92667408  1
  O  O19  1  0.79977454  0.35540983  0.06247731  1
  O  O20  1  0.91227353  0.40732296  0.24432612  1
  O  O21  1  0.92730287  0.39240481  0.34438185  1
  O  O22  1  0.86282820  0.38325945  0.35217945  1
  O  O23  1  0.87979084  0.52871953  0.60528497  1
