# generated using pymatgen
data_Li3TiO6
_symmetry_space_group_name_H-M   'P 1'
_cell_length_a   4.18543142
_cell_length_b   4.18543142
_cell_length_c   4.18543142
_cell_angle_alpha   90.00000000
_cell_angle_beta   90.00000000
_cell_angle_gamma   90.00000000
_symmetry_Int_Tables_number   1
_chemical_formula_structural   Li3TiO6
_chemical_formula_sum   'Li3 Ti1 O6'
_cell_volume   73.31970209
_cell_formula_units_Z   1
loop_
 _symmetry_equiv_pos_site_id
 _symmetry_equiv_pos_as_xyz
  1  'x, y, z'
loop_
 _atom_site_type_symbol
 _atom_site_label
 _atom_site_symmetry_multiplicity
 _atom_site_fract_x
 _atom_site_fract_y
 _atom_site_fract_z
 _atom_site_occupancy
  Li  Li0  1  0.91507285  0.09308932  0.95793398  1
  Li  Li1  1  0.03088894  0.10033924  0.27316886  1
  Li  Li2  1  0.17855734  0.28657025  0.61079321  1
  Ti  Ti3  1  0.29567779  0.41611760  0.73415549  1
  O  O4  1  0.41601809  0.71737180  0.14238436  1
  O  O5  1  0.57491244  0.72423836  0.36365570  1
  O  O6  1  0.55286314  0.87837393  0.51945572  1
  O  O7  1  0.71884379  0.18204421  0.81579637  1
  O  O8  1  0.81315808  0.27213050  0.00558686  1
  O  O9  1  0.81447548  0.36989112  0.42198385  1
