# generated using pymatgen
data_Li5Y2Ga2Cl9
_symmetry_space_group_name_H-M   'P 1'
_cell_length_a   10.24240786
_cell_length_b   10.24240786
_cell_length_c   10.94477362
_cell_angle_alpha   90.00000000
_cell_angle_beta   90.00000000
_cell_angle_gamma   90.00000000
_symmetry_Int_Tables_number   1
_chemical_formula_structural   Li5Y2Ga2Cl9
_chemical_formula_sum   'Li5 Y2 Ga2 Cl9'
_cell_volume   1148.18247611
_cell_formula_units_Z   1
loop_
 _symmetry_equiv_pos_site_id
 _symmetry_equiv_pos_as_xyz
  1  'x, y, z'
loop_
 _atom_site_type_symbol
 _atom_site_label
 _atom_site_symmetry_multiplicity
 _atom_site_fract_x
 _atom_site_fract_y
 _atom_site_fract_z
 _atom_site_occupancy
  Li  Li0  1  0.05292556  0.01024909  0.95251769  1
  Li  Li1  1  0.12172154  0.17883642  0.20495127  1
  Li  Li2  1  0.05139881  0.18649062  0.30313700  1
  Li  Li3  1  0.11754773  0.26633616  0.42997339  1
  Li  Li4  1  0.28725260  0.27005272  0.64240275  1
  Ga  Ga5  1  0.33463179  0.45276746  0.74986987  1
  Ga  Ga6  1  0.42678148  0.51336737  0.82793220  1
  Cl  Cl7  1  0.37390949  0.66814986  0.06550638  1
  Cl  Cl8  1  0.48715835  0.74567469  0.14473232  1
  Cl  Cl9  1  0.53435362  0.75860150  0.29855326  1
  Cl  Cl10  1  0.53960759  0.99718139  0.37722483  1
  Cl  Cl11  1  0.60173795  0.97923418  0.64004282  1
  Cl  Cl12  1  0.62303244  0.08491658  0.81927359  1
  Cl  Cl13  1  0.75632819  0.22647233  0.81921611  1
  Cl  Cl14  1  0.83184109  0.28225488  0.00959755  1
  Cl  Cl15  1  0.80480950  0.26494479  0.09590493  1
  Y  Y16  1  0.88130286  0.51160087  0.27809342  1
  Y  Y17  1  0.86203533  0.56286340  0.44433295  1
