# generated using pymatgen
data_Li4La3Br6
_symmetry_space_group_name_H-M   'P 1'
_cell_length_a   5.64504566
_cell_length_b   6.37528340
_cell_length_c   13.17048022
_cell_angle_alpha   79.87201601
_cell_angle_beta   117.84143340
_cell_angle_gamma   70.51334861
_symmetry_Int_Tables_number   1
_chemical_formula_structural   Li4La3Br6
_chemical_formula_sum   'Li4 La3 Br6'
_cell_volume   362.49857961
_cell_formula_units_Z   1
loop_
 _symmetry_equiv_pos_site_id
 _symmetry_equiv_pos_as_xyz
  1  'x, y, z'
loop_
 _atom_site_type_symbol
 _atom_site_label
 _atom_site_symmetry_multiplicity
 _atom_site_fract_x
 _atom_site_fract_y
 _atom_site_fract_z
 _atom_site_occupancy
  Li  Li0  1  0.90463579  0.91507285  0.09308932  1
  Li  Li1  1  0.03485706  0.05535048  0.13992386  1
  Li  Li2  1  0.16521501  0.22748042  0.36573948  1
  Li  Li3  1  0.31796244  0.36906241  0.53487145  1
  La  La4  1  0.25644779  0.51386425  0.87571027  1
  La  La5  1  0.47979975  0.69722013  0.92216144  1
  La  La6  1  0.51619416  0.69963237  0.11588162  1
  Br  Br7  1  0.48711726  0.89007456  0.45913651  1
  Br  Br8  1  0.59858098  0.00885039  0.58880742  1
  Br  Br9  1  0.60349455  0.03462933  0.72615266  1
  Br  Br10  1  0.83501461  0.19839728  0.95413383  1
  Br  Br11  1  0.74645835  0.37286453  0.11936586  1
  Br  Br12  1  0.01708674  0.50639462  0.51647731  1
