# generated using pymatgen
data_Li4TaF4
_symmetry_space_group_name_H-M   'P 1'
_cell_length_a   8.75424982
_cell_length_b   8.75424982
_cell_length_c   8.16335935
_cell_angle_alpha   90.00000000
_cell_angle_beta   90.00000000
_cell_angle_gamma   90.00000000
_symmetry_Int_Tables_number   1
_chemical_formula_structural   Li4TaF4
_chemical_formula_sum   'Li4 Ta1 F4'
_cell_volume   625.61447118
_cell_formula_units_Z   1
loop_
 _symmetry_equiv_pos_site_id
 _symmetry_equiv_pos_as_xyz
  1  'x, y, z'
loop_
 _atom_site_type_symbol
 _atom_site_label
 _atom_site_symmetry_multiplicity
 _atom_site_fract_x
 _atom_site_fract_y
 _atom_site_fract_z
 _atom_site_occupancy
  Li  Li0  1  0.98017335  0.03913463  0.04211392  1
  Li  Li1  1  0.06146484  0.22787485  0.27769776  1
  Li  Li2  1  0.23924362  0.38431149  0.55367091  1
  Li  Li3  1  0.26618261  0.48595840  0.83891040  1
  Ta  Ta4  1  0.41713091  0.72867052  0.16764470  1
  F  F5  1  0.50091654  0.83397994  0.53942666  1
  F  F6  1  0.62960587  0.00902637  0.81128763  1
  F  F7  1  0.68862049  0.34194285  0.01690662  1
  F  F8  1  0.85918456  0.48121294  0.29600308  1
