# generated using pymatgen
data_Li2LaTiO3
_symmetry_space_group_name_H-M   'P 1'
_cell_length_a   3.87689368
_cell_length_b   3.87689368
_cell_length_c   4.72378984
_cell_angle_alpha   90.00000000
_cell_angle_beta   90.00000000
_cell_angle_gamma   90.00000000
_symmetry_Int_Tables_number   1
_chemical_formula_structural   Li2LaTiO3
_chemical_formula_sum   'Li2 La1 Ti1 O3'
_cell_volume   71.00000000
_cell_formula_units_Z   1
loop_
 _symmetry_equiv_pos_site_id
 _symmetry_equiv_pos_as_xyz
  1  'x, y, z'
loop_
 _atom_site_type_symbol
 _atom_site_label
 _atom_site_symmetry_multiplicity
 _atom_site_fract_x
 _atom_site_fract_y
 _atom_site_fract_z
 _atom_site_occupancy
  Li  Li0  1  0.08453733  0.93728924  0.09403767  1
  Li  Li1  1  0.08060879  0.29820407  0.27450481  1
  Ti  Ti2  1  0.18740498  0.55689768  0.65523311  1
  O  O3  1  0.46868319  0.68719444  0.08875095  1
  O  O4  1  0.51063159  0.90103927  0.47298340  1
  O  O5  1  0.75288099  0.07551066  0.81603561  1
  La  La6  1  0.83749088  0.37728950  0.24256827  1
