# generated using pymatgen
data_LiTiPO7
_symmetry_space_group_name_H-M   'P 1'
_cell_length_a   4.56871695
_cell_length_b   4.56871695
_cell_length_c   6.70717333
_cell_angle_alpha   90.00000000
_cell_angle_beta   90.00000000
_cell_angle_gamma   90.00000000
_symmetry_Int_Tables_number   1
_chemical_formula_structural   LiTiPO7
_chemical_formula_sum   'Li2 Ti2 P2 O14'
_cell_volume   140.00000000
_cell_formula_units_Z   2
loop_
 _symmetry_equiv_pos_site_id
 _symmetry_equiv_pos_as_xyz
  1  'x, y, z'
loop_
 _atom_site_type_symbol
 _atom_site_label
 _atom_site_symmetry_multiplicity
 _atom_site_fract_x
 _atom_site_fract_y
 _atom_site_fract_z
 _atom_site_occupancy
  Li  Li0  1  0.01334696  0.94097737  0.92168353  1
  Li  Li1  1  0.13300740  0.04150552  0.13460067  1
  Ti  Ti2  1  0.10920175  0.08722053  0.33010108  1
  Ti  Ti3  1  0.19481284  0.19541588  0.41484697  1
  P  P4  1  0.19219365  0.28481301  0.58546859  1
  P  P5  1  0.21663100  0.42475600  0.56439647  1
  O  O6  1  0.35715637  0.54251853  0.86677721  1
  O  O7  1  0.43942576  0.55717202  0.97674951  1
  O  O8  1  0.38569141  0.71161241  0.14064724  1
  O  O9  1  0.35357731  0.64147081  0.26880722  1
  O  O10  1  0.45057170  0.90886610  0.38407681  1
  O  O11  1  0.61982410  0.95679806  0.37506095  1
  O  O12  1  0.58051225  0.93847740  0.65940522  1
  O  O13  1  0.61374792  0.09362347  0.72985007  1
  O  O14  1  0.63251858  0.08870983  0.90864036  1
  O  O15  1  0.83404931  0.12937696  0.98686034  1
  O  O16  1  0.87585795  0.32187406  0.10255892  1
  O  O17  1  0.86941831  0.41379598  0.31858124  1
  O  O18  1  0.87851591  0.45466074  0.42227614  1
  O  O19  1  0.03292133  0.58623500  0.45116880  1
