# generated using pymatgen
data_Li2La2Al3F5
_symmetry_space_group_name_H-M   'P 1'
_cell_length_a   11.59877526
_cell_length_b   11.59877526
_cell_length_c   11.08704301
_cell_angle_alpha   90.00000000
_cell_angle_beta   90.00000000
_cell_angle_gamma   90.00000000
_symmetry_Int_Tables_number   1
_chemical_formula_structural   Li2La2Al3F5
_chemical_formula_sum   'Li2 La2 Al3 F5'
_cell_volume   1491.55749649
_cell_formula_units_Z   1
loop_
 _symmetry_equiv_pos_site_id
 _symmetry_equiv_pos_as_xyz
  1  'x, y, z'
loop_
 _atom_site_type_symbol
 _atom_site_label
 _atom_site_symmetry_multiplicity
 _atom_site_fract_x
 _atom_site_fract_y
 _atom_site_fract_z
 _atom_site_occupancy
  Li  Li0  1  0.97520186  0.08903553  0.08242194  1
  Li  Li1  1  0.16817281  0.03817241  0.22206994  1
  Al  Al2  1  0.18453876  0.36059426  0.49329237  1
  Al  Al3  1  0.17701765  0.31064000  0.64382536  1
  Al  Al4  1  0.30628241  0.56317024  0.90083855  1
  F  F5  1  0.46063398  0.64173568  0.08915563  1
  F  F6  1  0.49509839  0.78330634  0.40442637  1
  F  F7  1  0.51240078  0.98525167  0.57215993  1
  F  F8  1  0.64161510  0.10270683  0.82803861  1
  F  F9  1  0.80499161  0.28352453  0.94724658  1
  La  La10  1  0.86405227  0.41091807  0.18729356  1
  La  La11  1  0.92493155  0.49053930  0.48543573  1
