# generated using pymatgen
data_Li5Y4Nb2Br10N7
_symmetry_space_group_name_H-M   'P 1'
_cell_length_a   9.83224871
_cell_length_b   8.03200612
_cell_length_c   8.30154214
_cell_angle_alpha   90.00000000
_cell_angle_beta   90.00000000
_cell_angle_gamma   90.00000000
_symmetry_Int_Tables_number   1
_chemical_formula_structural   Li5Y4Nb2Br10N7
_chemical_formula_sum   'Li5 Y4 Nb2 Br10 N7'
_cell_volume   655.59504570
_cell_formula_units_Z   1
loop_
 _symmetry_equiv_pos_site_id
 _symmetry_equiv_pos_as_xyz
  1  'x, y, z'
loop_
 _atom_site_type_symbol
 _atom_site_label
 _atom_site_symmetry_multiplicity
 _atom_site_fract_x
 _atom_site_fract_y
 _atom_site_fract_z
 _atom_site_occupancy
  Li  Li0  1  0.91915514  0.98873329  0.97097290  1
  Li  Li1  1  0.05805907  0.15075958  0.02292211  1
  Li  Li2  1  0.03522789  0.11286615  0.24278858  1
  Li  Li3  1  0.09542309  0.25870404  0.30565792  1
  Li  Li4  1  0.20055292  0.24230178  0.42781353  1
  Y  Y5  1  0.25405493  0.20759165  0.50300988  1
  Y  Y6  1  0.18069665  0.31379476  0.60266118  1
  Y  Y7  1  0.28933884  0.33686224  0.61717269  1
  Y  Y8  1  0.22649002  0.55547283  0.74261317  1
  Nb  Nb9  1  0.40372676  0.42366282  0.82946649  1
  Nb  Nb10  1  0.30862427  0.58271098  0.91281743  1
  Br  Br11  1  0.30192585  0.65023995  0.99991074  1
  Br  Br12  1  0.32895809  0.68779583  0.08038487  1
  Br  Br13  1  0.48907982  0.82541676  0.25482345  1
  Br  Br14  1  0.54330172  0.89604991  0.34600870  1
  Br  Br15  1  0.59626669  0.86142836  0.48499630  1
  Br  Br16  1  0.55577487  0.83285219  0.45931083  1
  Br  Br17  1  0.66279739  0.00250821  0.57278515  1
  Br  Br18  1  0.65469286  0.95136453  0.73744269  1
  Br  Br19  1  0.65865422  0.17289500  0.76160044  1
  Br  Br20  1  0.61591064  0.10072463  0.88531189  1
  N  N21  1  0.72534301  0.15903791  0.89217507  1
  N  N22  1  0.84864908  0.35711484  0.04181391  1
  N  N23  1  0.78990881  0.24029716  0.22691445  1
  N  N24  1  0.81328276  0.29802557  0.23565932  1
  N  N25  1  0.79495433  0.47707231  0.30886811  1
  N  N26  1  0.94014219  0.59960636  0.36599160  1
  N  N27  1  0.98967857  0.48288331  0.58990000  1
