# generated using pymatgen
data_LiTiO4
_symmetry_space_group_name_H-M   'P 1'
_cell_length_a   5.13603740
_cell_length_b   5.13603740
_cell_length_c   5.13603740
_cell_angle_alpha   90.00000000
_cell_angle_beta   90.00000000
_cell_angle_gamma   90.00000000
_symmetry_Int_Tables_number   1
_chemical_formula_structural   LiTiO4
_chemical_formula_sum   'Li1 Ti1 O4'
_cell_volume   135.48291515
_cell_formula_units_Z   1
loop_
 _symmetry_equiv_pos_site_id
 _symmetry_equiv_pos_as_xyz
  1  'x, y, z'
loop_
 _atom_site_type_symbol
 _atom_site_label
 _atom_site_symmetry_multiplicity
 _atom_site_fract_x
 _atom_site_fract_y
 _atom_site_fract_z
 _atom_site_occupancy
  Li  Li0  1  0.06882812  0.91632692  0.06317914  1
  Ti  Ti1  1  0.25043553  0.19113977  0.45455489  1
  O  O2  1  0.26304631  0.59171333  0.91582618  1
  O  O3  1  0.46559464  0.82480778  0.30124867  1
  O  O4  1  0.70391324  0.02453669  0.77379962  1
  O  O5  1  0.90916899  0.32764121  0.11652206  1
