# generated using pymatgen
data_Li2PS4
_symmetry_space_group_name_H-M   'P 1'
_cell_length_a   4.16016765
_cell_length_b   4.16016765
_cell_length_c   4.16016765
_cell_angle_alpha   90.00000000
_cell_angle_beta   90.00000000
_cell_angle_gamma   90.00000000
_symmetry_Int_Tables_number   1
_chemical_formula_structural   Li2PS4
_chemical_formula_sum   'Li2 P1 S4'
_cell_volume   72.00000000
_cell_formula_units_Z   1
loop_
 _symmetry_equiv_pos_site_id
 _symmetry_equiv_pos_as_xyz
  1  'x, y, z'
loop_
 _atom_site_type_symbol
 _atom_site_label
 _atom_site_symmetry_multiplicity
 _atom_site_fract_x
 _atom_site_fract_y
 _atom_site_fract_z
 _atom_site_occupancy
  Li  Li0  1  0.90016603  0.05746974  0.99350564  1
  Li  Li1  1  0.17152279  0.20511497  0.29165172  1
  P  P2  1  0.19439463  0.50255681  0.68933300  1
  S  S3  1  0.36577834  0.62684663  0.11560078  1
  S  S4  1  0.56249272  0.86172882  0.53770769  1
  S  S5  1  0.78496242  0.15418020  0.88961657  1
  S  S6  1  0.77459177  0.30198443  0.24952127  1
