# generated using pymatgen
data_Li2AlO3
_symmetry_space_group_name_H-M   'P 1'
_cell_length_a   10.00688285
_cell_length_b   10.00688285
_cell_length_c   8.49369105
_cell_angle_alpha   90.00000000
_cell_angle_beta   90.00000000
_cell_angle_gamma   120.00000000
_symmetry_Int_Tables_number   1
_chemical_formula_structural   Li2AlO3
_chemical_formula_sum   'Li2 Al1 O3'
_cell_volume   736.58814164
_cell_formula_units_Z   1
loop_
 _symmetry_equiv_pos_site_id
 _symmetry_equiv_pos_as_xyz
  1  'x, y, z'
loop_
 _atom_site_type_symbol
 _atom_site_label
 _atom_site_symmetry_multiplicity
 _atom_site_fract_x
 _atom_site_fract_y
 _atom_site_fract_z
 _atom_site_occupancy
  Li  Li0  1  0.90336519  0.08226461  0.95598693  1
  Li  Li1  1  0.13928321  0.22302037  0.38643913  1
  Al  Al2  1  0.40975557  0.59814453  0.95624102  1
  O  O3  1  0.57748854  0.89399320  0.27666493  1
  O  O4  1  0.73713326  0.01720674  0.84368906  1
  O  O5  1  0.86829680  0.38673593  0.20506568  1
