# generated using pymatgen
data_LiTiO4
_symmetry_space_group_name_H-M   'P 1'
_cell_length_a   9.55312091
_cell_length_b   9.55312091
_cell_length_c   9.55312091
_cell_angle_alpha   90.00000000
_cell_angle_beta   90.00000000
_cell_angle_gamma   90.00000000
_symmetry_Int_Tables_number   1
_chemical_formula_structural   LiTiO4
_chemical_formula_sum   'Li1 Ti1 O4'
_cell_volume   871.83805890
_cell_formula_units_Z   1
loop_
 _symmetry_equiv_pos_site_id
 _symmetry_equiv_pos_as_xyz
  1  'x, y, z'
loop_
 _atom_site_type_symbol
 _atom_site_label
 _atom_site_symmetry_multiplicity
 _atom_site_fract_x
 _atom_site_fract_y
 _atom_site_fract_z
 _atom_site_occupancy
  Li  Li0  1  0.92684375  0.06268901  0.95992664  1
  Ti  Ti1  1  0.21156603  0.30847824  0.36291454  1
  O  O2  1  0.24241731  0.57594392  0.88203778  1
  O  O3  1  0.53415848  0.90696617  0.34511200  1
  O  O4  1  0.61554562  0.12913473  0.67108355  1
  O  O5  1  0.86719328  0.36463187  0.27801020  1
