# generated using pymatgen
data_Li8La3Zr3O13
_symmetry_space_group_name_H-M   'P 1'
_cell_length_a   5.62032849
_cell_length_b   6.32968234
_cell_length_c   7.61773177
_cell_angle_alpha   90.00000000
_cell_angle_beta   90.00000000
_cell_angle_gamma   90.00000000
_symmetry_Int_Tables_number   1
_chemical_formula_structural   Li8La3Zr3O13
_chemical_formula_sum   'Li8 La3 Zr3 O13'
_cell_volume   271.00000000
_cell_formula_units_Z   1
loop_
 _symmetry_equiv_pos_site_id
 _symmetry_equiv_pos_as_xyz
  1  'x, y, z'
loop_
 _atom_site_type_symbol
 _atom_site_label
 _atom_site_symmetry_multiplicity
 _atom_site_fract_x
 _atom_site_fract_y
 _atom_site_fract_z
 _atom_site_occupancy
  Li  Li0  1  0.08263532  0.09496382  0.08964043  1
  Li  Li1  1  0.01207141  0.99357096  0.08840575  1
  Li  Li2  1  0.09053817  0.05905891  0.20837517  1
  Li  Li3  1  0.08406391  0.09887237  0.32000251  1
  Li  Li4  1  0.18123384  0.17355664  0.40761480  1
  Li  Li5  1  0.10482121  0.22965606  0.55906301  1
  Li  Li6  1  0.25208599  0.27608659  0.67652519  1
  Li  Li7  1  0.20374081  0.46493200  0.64847952  1
  La  La8  1  0.31399402  0.57625842  0.75645484  1
  La  La9  1  0.23561611  0.61685126  0.81959710  1
  La  La10  1  0.31492906  0.52016648  0.96008290  1
  Zr  Zr11  1  0.37301404  0.60450023  0.11171463  1
  Zr  Zr12  1  0.35729958  0.69857701  0.17144616  1
  Zr  Zr13  1  0.47138288  0.75762023  0.27481692  1
  O  O14  1  0.51248735  0.74628764  0.36279832  1
  O  O15  1  0.64595109  0.96967861  0.46373243  1
  O  O16  1  0.52257951  0.00789709  0.51559756  1
  O  O17  1  0.68863202  0.96315669  0.60534017  1
  O  O18  1  0.74335217  0.10493316  0.70596803  1
  O  O19  1  0.75210385  0.11909580  0.86610143  1
  O  O20  1  0.77500791  0.26745225  0.84266620  1
  O  O21  1  0.77361228  0.32458234  0.06521661  1
  O  O22  1  0.87648682  0.28128702  0.10300511  1
  O  O23  1  0.93581609  0.31924309  0.22446619  1
  O  O24  1  0.79689410  0.43132621  0.31120648  1
  O  O25  1  0.95503655  0.58451853  0.46179177  1
  O  O26  1  0.94162869  0.64208450  0.59342418  1
