# generated using pymatgen
data_LiAl2F4
_symmetry_space_group_name_H-M   'P 1'
_cell_length_a   8.75424982
_cell_length_b   8.75424982
_cell_length_c   8.16335935
_cell_angle_alpha   90.00000000
_cell_angle_beta   90.00000000
_cell_angle_gamma   90.00000000
_symmetry_Int_Tables_number   1
_chemical_formula_structural   LiAl2F4
_chemical_formula_sum   'Li1 Al2 F4'
_cell_volume   625.61447118
_cell_formula_units_Z   1
loop_
 _symmetry_equiv_pos_site_id
 _symmetry_equiv_pos_as_xyz
  1  'x, y, z'
loop_
 _atom_site_type_symbol
 _atom_site_label
 _atom_site_symmetry_multiplicity
 _atom_site_fract_x
 _atom_site_fract_y
 _atom_site_fract_z
 _atom_site_occupancy
  Li  Li0  1  0.98017335  0.03913463  0.04211392  1
  Al  Al1  1  0.09321087  0.27923993  0.36080887  1
  Al  Al2  1  0.30273568  0.48704165  0.71989313  1
  F  F3  1  0.36142070  0.64005364  0.08824374  1
  F  F4  1  0.54411504  0.93413084  0.50008915  1
  F  F5  1  0.65964670  0.09080534  0.95498221  1
  F  F6  1  0.82008206  0.31721684  0.30995429  1
