# generated using pymatgen
data_LiAlO5
_symmetry_space_group_name_H-M   'P 1'
_cell_length_a   9.99249491
_cell_length_b   9.99249491
_cell_length_c   11.03656114
_cell_angle_alpha   90.00000000
_cell_angle_beta   90.00000000
_cell_angle_gamma   120.00000000
_symmetry_Int_Tables_number   1
_chemical_formula_structural   LiAlO5
_chemical_formula_sum   'Li1 Al1 O5'
_cell_volume   954.36010523
_cell_formula_units_Z   1
loop_
 _symmetry_equiv_pos_site_id
 _symmetry_equiv_pos_as_xyz
  1  'x, y, z'
loop_
 _atom_site_type_symbol
 _atom_site_label
 _atom_site_symmetry_multiplicity
 _atom_site_fract_x
 _atom_site_fract_y
 _atom_site_fract_z
 _atom_site_occupancy
  Li  Li0  1  0.94272885  0.99916774  0.05553454  1
  Al  Al1  1  0.22214561  0.20852180  0.46321226  1
  O  O2  1  0.37566069  0.41751244  0.79541428  1
  O  O3  1  0.32965446  0.59675229  0.06162023  1
  O  O4  1  0.49773190  0.85743378  0.56009427  1
  O  O5  1  0.64273460  0.06637252  0.87986053  1
  O  O6  1  0.82295733  0.38301499  0.22592723  1
