# generated using pymatgen
data_Li2TiO4
_symmetry_space_group_name_H-M   'P 1'
_cell_length_a   4.01218025
_cell_length_b   4.01218025
_cell_length_c   4.01218025
_cell_angle_alpha   90.00000000
_cell_angle_beta   90.00000000
_cell_angle_gamma   90.00000000
_symmetry_Int_Tables_number   1
_chemical_formula_structural   Li2TiO4
_chemical_formula_sum   'Li2 Ti1 O4'
_cell_volume   64.58643414
_cell_formula_units_Z   1
loop_
 _symmetry_equiv_pos_site_id
 _symmetry_equiv_pos_as_xyz
  1  'x, y, z'
loop_
 _atom_site_type_symbol
 _atom_site_label
 _atom_site_symmetry_multiplicity
 _atom_site_fract_x
 _atom_site_fract_y
 _atom_site_fract_z
 _atom_site_occupancy
  Li  Li0  1  0.00378760  0.90413509  0.09400982  1
  Li  Li1  1  0.15571330  0.33100479  0.43192767  1
  Ti  Ti2  1  0.32162891  0.37461438  0.70545897  1
  O  O3  1  0.42417864  0.70573840  0.14631686  1
  O  O4  1  0.61117506  0.98219957  0.48234182  1
  O  O5  1  0.74696710  0.17170202  0.96352781  1
  O  O6  1  0.79942812  0.44309327  0.17900327  1
