# generated using pymatgen
data_LiZrS7F2
_symmetry_space_group_name_H-M   'P 1'
_cell_length_a   6.02959354
_cell_length_b   4.63286809
_cell_length_c   11.40090285
_cell_angle_alpha   80.31691797
_cell_angle_beta   103.56209626
_cell_angle_gamma   96.28261860
_symmetry_Int_Tables_number   1
_chemical_formula_structural   LiZrS7F2
_chemical_formula_sum   'Li1 Zr1 S7 F2'
_cell_volume   304.37021155
_cell_formula_units_Z   1
loop_
 _symmetry_equiv_pos_site_id
 _symmetry_equiv_pos_as_xyz
  1  'x, y, z'
loop_
 _atom_site_type_symbol
 _atom_site_label
 _atom_site_symmetry_multiplicity
 _atom_site_fract_x
 _atom_site_fract_y
 _atom_site_fract_z
 _atom_site_occupancy
  Li  Li0  1  0.06024583  0.05131045  0.99471864  1
  Zr  Zr1  1  0.10129614  0.16934546  0.30901108  1
  F  F2  1  0.10170928  0.26165994  0.47659199  1
  F  F3  1  0.36896259  0.49458771  0.73795844  1
  S  S4  1  0.33493169  0.55633218  0.90188183  1
  S  S5  1  0.40289978  0.69989722  0.12069859  1
  S  S6  1  0.57233775  0.88406024  0.44024146  1
  S  S7  1  0.54397411  0.96497098  0.72572731  1
  S  S8  1  0.70979409  0.26100588  0.81794920  1
  S  S9  1  0.85101490  0.36413891  0.04658573  1
  S  S10  1  0.94368453  0.51564959  0.38319207  1
