# generated using pymatgen
data_SrLi4TiO4
_symmetry_space_group_name_H-M   'P 1'
_cell_length_a   4.27265868
_cell_length_b   4.27265868
_cell_length_c   4.27265868
_cell_angle_alpha   90.00000000
_cell_angle_beta   90.00000000
_cell_angle_gamma   90.00000000
_symmetry_Int_Tables_number   1
_chemical_formula_structural   SrLi4TiO4
_chemical_formula_sum   'Sr1 Li4 Ti1 O4'
_cell_volume   78.00000000
_cell_formula_units_Z   1
loop_
 _symmetry_equiv_pos_site_id
 _symmetry_equiv_pos_as_xyz
  1  'x, y, z'
loop_
 _atom_site_type_symbol
 _atom_site_label
 _atom_site_symmetry_multiplicity
 _atom_site_fract_x
 _atom_site_fract_y
 _atom_site_fract_z
 _atom_site_occupancy
  Li  Li0  1  0.93473837  0.06040570  0.04845545  1
  Li  Li1  1  0.16790771  0.15455820  0.17035641  1
  Li  Li2  1  0.21251045  0.41961030  0.49543221  1
  Li  Li3  1  0.39100009  0.49010109  0.70732986  1
  Ti  Ti4  1  0.42198555  0.74145739  0.10531349  1
  O  O5  1  0.49345239  0.77592218  0.21900358  1
  O  O6  1  0.53420986  0.92761305  0.64473351  1
  O  O7  1  0.66286783  0.14075500  0.80431544  1
  O  O8  1  0.74916400  0.23646645  0.06982778  1
  Sr  Sr9  1  0.84500539  0.42333435  0.36497078  1
