# generated using pymatgen
data_LiTi4P3O10
_symmetry_space_group_name_H-M   'P 1'
_cell_length_a   4.53160183
_cell_length_b   5.14811767
_cell_length_c   6.00105804
_cell_angle_alpha   90.00000000
_cell_angle_beta   90.00000000
_cell_angle_gamma   90.00000000
_symmetry_Int_Tables_number   1
_chemical_formula_structural   LiTi4P3O10
_chemical_formula_sum   'Li1 Ti4 P3 O10'
_cell_volume   140.00000000
_cell_formula_units_Z   1
loop_
 _symmetry_equiv_pos_site_id
 _symmetry_equiv_pos_as_xyz
  1  'x, y, z'
loop_
 _atom_site_type_symbol
 _atom_site_label
 _atom_site_symmetry_multiplicity
 _atom_site_fract_x
 _atom_site_fract_y
 _atom_site_fract_z
 _atom_site_occupancy
  Li  Li0  1  0.99022645  0.90396028  0.92921213  1
  Ti  Ti1  1  0.09351188  0.04977811  0.23534174  1
  Ti  Ti2  1  0.14894432  0.14594494  0.24880924  1
  Ti  Ti3  1  0.26156457  0.23814783  0.45552881  1
  Ti  Ti4  1  0.14149620  0.41282675  0.56823487  1
  P  P5  1  0.24749317  0.43110424  0.81016480  1
  P  P6  1  0.24891371  0.47249299  0.84419443  1
  P  P7  1  0.45600913  0.65750273  0.07278880  1
  O  O8  1  0.43308473  0.75032497  0.09579696  1
  O  O9  1  0.52207622  0.71362536  0.36354976  1
  O  O10  1  0.58997063  0.80400091  0.50106208  1
  O  O11  1  0.53263919  0.91858580  0.56987626  1
  O  O12  1  0.71927810  0.15920855  0.77165227  1
  O  O13  1  0.78237380  0.14885955  0.87546227  1
  O  O14  1  0.82787653  0.29417832  0.01799374  1
  O  O15  1  0.85759139  0.32355840  0.23437717  1
  O  O16  1  0.95179848  0.45534846  0.26002352  1
  O  O17  1  0.91578073  0.48881035  0.39263405  1
