# generated using pymatgen
data_Li3TiO4
_symmetry_space_group_name_H-M   'P 1'
_cell_length_a   11.51588636
_cell_length_b   11.51588636
_cell_length_c   11.51588636
_cell_angle_alpha   90.00000000
_cell_angle_beta   90.00000000
_cell_angle_gamma   90.00000000
_symmetry_Int_Tables_number   1
_chemical_formula_structural   Li3TiO4
_chemical_formula_sum   'Li3 Ti1 O4'
_cell_volume   1527.18662516
_cell_formula_units_Z   1
loop_
 _symmetry_equiv_pos_site_id
 _symmetry_equiv_pos_as_xyz
  1  'x, y, z'
loop_
 _atom_site_type_symbol
 _atom_site_label
 _atom_site_symmetry_multiplicity
 _atom_site_fract_x
 _atom_site_fract_y
 _atom_site_fract_z
 _atom_site_occupancy
  Li  Li0  1  0.06916332  0.91592102  0.97365639  1
  Li  Li1  1  0.09379099  0.17587222  0.24198591  1
  Li  Li2  1  0.31461389  0.37813510  0.72450029  1
  Ti  Ti3  1  0.45944260  0.64765405  0.88781576  1
  O  O4  1  0.51815147  0.83423100  0.40213767  1
  O  O5  1  0.54878858  0.00889465  0.61600241  1
  O  O6  1  0.71970025  0.28444988  0.88990775  1
  O  O7  1  0.90379797  0.45746744  0.35582309  1
