# generated using pymatgen
data_Li6TaO3
_symmetry_space_group_name_H-M   'P 1'
_cell_length_a   14.14454271
_cell_length_b   14.14454271
_cell_length_c   15.23437871
_cell_angle_alpha   90.00000000
_cell_angle_beta   90.00000000
_cell_angle_gamma   90.00000000
_symmetry_Int_Tables_number   1
_chemical_formula_structural   Li6TaO3
_chemical_formula_sum   'Li6 Ta1 O3'
_cell_volume   3047.91302992
_cell_formula_units_Z   1
loop_
 _symmetry_equiv_pos_site_id
 _symmetry_equiv_pos_as_xyz
  1  'x, y, z'
loop_
 _atom_site_type_symbol
 _atom_site_label
 _atom_site_symmetry_multiplicity
 _atom_site_fract_x
 _atom_site_fract_y
 _atom_site_fract_z
 _atom_site_occupancy
  Li  Li0  1  0.96414181  0.03999214  0.05260531  1
  Li  Li1  1  0.16174550  0.24409080  0.35085812  1
  Li  Li2  1  0.28568428  0.23780504  0.58685190  1
  Li  Li3  1  0.38666107  0.56102073  0.71355668  1
  Li  Li4  1  0.43301809  0.59157213  0.06710478  1
  Li  Li5  1  0.44191226  0.75770361  0.39607826  1
  Ta  Ta6  1  0.65347442  0.95875788  0.58559571  1
  O  O7  1  0.66682465  0.22678856  0.81280812  1
  O  O8  1  0.89328088  0.27353792  0.02508859  1
  O  O9  1  0.91549342  0.46512831  0.42016949  1
