# generated using pymatgen
data_Li3ZrCl9
_symmetry_space_group_name_H-M   'P 1'
_cell_length_a   8.67845950
_cell_length_b   8.67845950
_cell_length_c   9.39452069
_cell_angle_alpha   90.00000000
_cell_angle_beta   90.00000000
_cell_angle_gamma   90.00000000
_symmetry_Int_Tables_number   1
_chemical_formula_structural   Li3ZrCl9
_chemical_formula_sum   'Li3 Zr1 Cl9'
_cell_volume   707.55452015
_cell_formula_units_Z   1
loop_
 _symmetry_equiv_pos_site_id
 _symmetry_equiv_pos_as_xyz
  1  'x, y, z'
loop_
 _atom_site_type_symbol
 _atom_site_label
 _atom_site_symmetry_multiplicity
 _atom_site_fract_x
 _atom_site_fract_y
 _atom_site_fract_z
 _atom_site_occupancy
  Li  Li0  1  0.98787815  0.93860866  0.09004230  1
  Li  Li1  1  0.03822608  0.18016859  0.13106113  1
  Li  Li2  1  0.16841601  0.30214935  0.48609181  1
  Zr  Zr3  1  0.26712487  0.39316661  0.60290222  1
  Cl  Cl4  1  0.21409477  0.56773732  0.75285435  1
  Cl  Cl5  1  0.30964135  0.71671816  0.96742321  1
  Cl  Cl6  1  0.49388192  0.71205705  0.11265695  1
  Cl  Cl7  1  0.58225268  0.79062568  0.44891024  1
  Cl  Cl8  1  0.65318538  0.08634575  0.58705435  1
  Cl  Cl9  1  0.65910333  0.21395695  0.76302983  1
  Cl  Cl10  1  0.79622427  0.26508318  0.95331667  1
  Cl  Cl11  1  0.76739460  0.43190626  0.12564564  1
  Cl  Cl12  1  0.87011284  0.44656523  0.49491811  1
