# generated using pymatgen
data_Li3YCl8
_symmetry_space_group_name_H-M   'P 1'
_cell_length_a   4.76220316
_cell_length_b   4.76220316
_cell_length_c   4.76220316
_cell_angle_alpha   90.00000000
_cell_angle_beta   90.00000000
_cell_angle_gamma   90.00000000
_symmetry_Int_Tables_number   1
_chemical_formula_structural   Li3YCl8
_chemical_formula_sum   'Li3 Y1 Cl8'
_cell_volume   108.00000000
_cell_formula_units_Z   1
loop_
 _symmetry_equiv_pos_site_id
 _symmetry_equiv_pos_as_xyz
  1  'x, y, z'
loop_
 _atom_site_type_symbol
 _atom_site_label
 _atom_site_symmetry_multiplicity
 _atom_site_fract_x
 _atom_site_fract_y
 _atom_site_fract_z
 _atom_site_occupancy
  Li  Li0  1  0.96813936  0.96450507  0.08829159  1
  Li  Li1  1  0.16214770  0.23398739  0.13425636  1
  Li  Li2  1  0.22777064  0.32298309  0.52647177  1
  Y  Y3  1  0.29532069  0.31244696  0.57617540  1
  Cl  Cl4  1  0.27916881  0.58724176  0.93673054  1
  Cl  Cl5  1  0.44235344  0.62308513  0.03882199  1
  Cl  Cl6  1  0.41722391  0.73782347  0.30441433  1
  Cl  Cl7  1  0.50952325  0.89822972  0.46195389  1
  Cl  Cl8  1  0.69762344  0.01130755  0.66748810  1
  Cl  Cl9  1  0.66415795  0.23652336  0.00265486  1
  Cl  Cl10  1  0.76688564  0.41295456  0.08306145  1
  Cl  Cl11  1  0.97454771  0.45597829  0.35109345  1
