# generated using pymatgen
data_Li2TiO6
_symmetry_space_group_name_H-M   'P 1'
_cell_length_a   7.30449263
_cell_length_b   7.30449263
_cell_length_c   7.30449263
_cell_angle_alpha   90.00000000
_cell_angle_beta   90.00000000
_cell_angle_gamma   90.00000000
_symmetry_Int_Tables_number   1
_chemical_formula_structural   Li2TiO6
_chemical_formula_sum   'Li2 Ti1 O6'
_cell_volume   389.73567961
_cell_formula_units_Z   1
loop_
 _symmetry_equiv_pos_site_id
 _symmetry_equiv_pos_as_xyz
  1  'x, y, z'
loop_
 _atom_site_type_symbol
 _atom_site_label
 _atom_site_symmetry_multiplicity
 _atom_site_fract_x
 _atom_site_fract_y
 _atom_site_fract_z
 _atom_site_occupancy
  Li  Li0  1  0.99690231  0.06518933  0.97816498  1
  Li  Li1  1  0.19027473  0.23190566  0.34976835  1
  Ti  Ti2  1  0.13490909  0.35956943  0.49962491  1
  O  O3  1  0.30796935  0.46885900  0.87088634  1
  O  O4  1  0.41828520  0.81747353  0.16982755  1
  O  O5  1  0.48030813  0.81537748  0.52301089  1
  O  O6  1  0.60990868  0.11200395  0.74666138  1
  O  O7  1  0.78635762  0.26088377  0.05143027  1
  O  O8  1  0.92951856  0.36095373  0.38963299  1
