# generated using pymatgen
data_Li3Nb3F5
_symmetry_space_group_name_H-M   'P 1'
_cell_length_a   9.78101380
_cell_length_b   9.78101380
_cell_length_c   9.92032073
_cell_angle_alpha   90.00000000
_cell_angle_beta   90.00000000
_cell_angle_gamma   90.00000000
_symmetry_Int_Tables_number   1
_chemical_formula_structural   Li3Nb3F5
_chemical_formula_sum   'Li3 Nb3 F5'
_cell_volume   949.05953465
_cell_formula_units_Z   1
loop_
 _symmetry_equiv_pos_site_id
 _symmetry_equiv_pos_as_xyz
  1  'x, y, z'
loop_
 _atom_site_type_symbol
 _atom_site_label
 _atom_site_symmetry_multiplicity
 _atom_site_fract_x
 _atom_site_fract_y
 _atom_site_fract_z
 _atom_site_occupancy
  Li  Li0  1  0.96929080  0.05092961  0.91666412  1
  Li  Li1  1  0.07808190  0.06445160  0.19594369  1
  Li  Li2  1  0.17713780  0.23545469  0.46438506  1
  Nb  Nb3  1  0.28968773  0.43169069  0.64158326  1
  Nb  Nb4  1  0.36127629  0.52682143  0.94761619  1
  Nb  Nb5  1  0.41667657  0.69037345  0.22112785  1
  F  F6  1  0.56798255  0.95600972  0.43960888  1
  F  F7  1  0.63763081  0.97482708  0.63730037  1
  F  F8  1  0.81211437  0.14765204  0.88961424  1
  F  F9  1  0.75990588  0.26989748  0.04528354  1
  F  F10  1  0.96908770  0.37358938  0.35367089  1
