# generated using pymatgen
data_Li4AlP7
_symmetry_space_group_name_H-M   'P 1'
_cell_length_a   5.93091509
_cell_length_b   13.63753211
_cell_length_c   4.57339078
_cell_angle_alpha   105.34280220
_cell_angle_beta   73.10444184
_cell_angle_gamma   70.00215069
_symmetry_Int_Tables_number   1
_chemical_formula_structural   Li4AlP7
_chemical_formula_sum   'Li4 Al1 P7'
_cell_volume   304.13149572
_cell_formula_units_Z   1
loop_
 _symmetry_equiv_pos_site_id
 _symmetry_equiv_pos_as_xyz
  1  'x, y, z'
loop_
 _atom_site_type_symbol
 _atom_site_label
 _atom_site_symmetry_multiplicity
 _atom_site_fract_x
 _atom_site_fract_y
 _atom_site_fract_z
 _atom_site_occupancy
  Li  Li0  1  0.04532069  0.90794696  0.92167540  1
  Li  Li1  1  0.02916881  0.18274176  0.28223054  1
  Li  Li2  1  0.19235344  0.21858513  0.38432199  1
  Li  Li3  1  0.16722391  0.33332347  0.64991433  1
  Al  Al4  1  0.25952325  0.49372972  0.80745389  1
  P  P5  1  0.44762344  0.60680755  0.01298810  1
  P  P6  1  0.41415795  0.83202336  0.34815486  1
  P  P7  1  0.51688564  0.00845456  0.42856145  1
  P  P8  1  0.72454771  0.05147829  0.69659345  1
  P  P9  1  0.74626879  0.27590671  0.89648372  1
  P  P10  1  0.91722335  0.37838737  0.17894976  1
  P  P11  1  0.95354286  0.45451614  0.44864791  1
