# generated using pymatgen
data_Li4InCl7
_symmetry_space_group_name_H-M   'P 1'
_cell_length_a   4.88394172
_cell_length_b   4.88394172
_cell_length_c   4.36005927
_cell_angle_alpha   90.00000000
_cell_angle_beta   90.00000000
_cell_angle_gamma   90.00000000
_symmetry_Int_Tables_number   1
_chemical_formula_structural   Li4InCl7
_chemical_formula_sum   'Li4 In1 Cl7'
_cell_volume   104.00000000
_cell_formula_units_Z   1
loop_
 _symmetry_equiv_pos_site_id
 _symmetry_equiv_pos_as_xyz
  1  'x, y, z'
loop_
 _atom_site_type_symbol
 _atom_site_label
 _atom_site_symmetry_multiplicity
 _atom_site_fract_x
 _atom_site_fract_y
 _atom_site_fract_z
 _atom_site_occupancy
  Li  Li0  1  0.91632692  0.06317914  0.08376887  1
  Li  Li1  1  0.00480644  0.15305489  0.14787964  1
  Li  Li2  1  0.21904667  0.31282618  0.40192797  1
  Li  Li3  1  0.26580778  0.39674867  0.69174657  1
  In  In4  1  0.27920336  0.56779962  0.94850232  1
  Cl  Cl5  1  0.39597454  0.60902206  0.12838208  1
  Cl  Cl6  1  0.50598217  0.86674343  0.37994668  1
  Cl  Cl7  1  0.50264797  0.01331564  0.51057924  1
  Cl  Cl8  1  0.69666045  0.13034968  0.76493137  1
  Cl  Cl9  1  0.72833598  0.21503960  0.03377390  1
  Cl  Cl10  1  0.86996465  0.25922891  0.13336621  1
  Cl  Cl11  1  0.86442382  0.42275222  0.46966376  1
