# generated using pymatgen
data_Li2LaTi2O4
_symmetry_space_group_name_H-M   'P 1'
_cell_length_a   4.46474510
_cell_length_b   4.46474510
_cell_length_c   4.46474510
_cell_angle_alpha   90.00000000
_cell_angle_beta   90.00000000
_cell_angle_gamma   90.00000000
_symmetry_Int_Tables_number   1
_chemical_formula_structural   Li2LaTi2O4
_chemical_formula_sum   'Li2 La1 Ti2 O4'
_cell_volume   89.00000000
_cell_formula_units_Z   1
loop_
 _symmetry_equiv_pos_site_id
 _symmetry_equiv_pos_as_xyz
  1  'x, y, z'
loop_
 _atom_site_type_symbol
 _atom_site_label
 _atom_site_symmetry_multiplicity
 _atom_site_fract_x
 _atom_site_fract_y
 _atom_site_fract_z
 _atom_site_occupancy
  Li  Li0  1  0.92398602  0.03656704  0.07628379  1
  Li  Li1  1  0.20901703  0.26623143  0.38917238  1
  Ti  Ti2  1  0.24652292  0.45247878  0.56535150  1
  Ti  Ti3  1  0.39287603  0.54900619  0.83983849  1
  O  O4  1  0.48342564  0.63449323  0.13781258  1
  O  O5  1  0.62622541  0.83792822  0.36794318  1
  O  O6  1  0.57725692  0.05210546  0.79265811  1
  O  O7  1  0.85659247  0.16317701  0.98782552  1
  La  La8  1  0.82827250  0.42976197  0.38402630  1
