# generated using pymatgen
data_BaLiTiO2
_symmetry_space_group_name_H-M   'P 1'
_cell_length_a   3.27389123
_cell_length_b   3.31728968
_cell_length_c   3.86724463
_cell_angle_alpha   90.00000000
_cell_angle_beta   90.00000000
_cell_angle_gamma   90.00000000
_symmetry_Int_Tables_number   1
_chemical_formula_structural   BaLiTiO2
_chemical_formula_sum   'Ba1 Li1 Ti1 O2'
_cell_volume   42.00000000
_cell_formula_units_Z   1
loop_
 _symmetry_equiv_pos_site_id
 _symmetry_equiv_pos_as_xyz
  1  'x, y, z'
loop_
 _atom_site_type_symbol
 _atom_site_label
 _atom_site_symmetry_multiplicity
 _atom_site_fract_x
 _atom_site_fract_y
 _atom_site_fract_z
 _atom_site_occupancy
  Li  Li0  1  0.00424159  0.04515674  0.99127464  1
  Ti  Ti1  1  0.14355314  0.29914228  0.56511612  1
  O  O2  1  0.37865016  0.61423293  0.02620894  1
  O  O3  1  0.54622235  0.87570316  0.58701874  1
  Ba  Ba4  1  0.70820552  0.37213017  0.04203574  1
