# generated using pymatgen
data_Li2AlO4
_symmetry_space_group_name_H-M   'P 1'
_cell_length_a   4.00382078
_cell_length_b   4.00382078
_cell_length_c   3.86183492
_cell_angle_alpha   90.00000000
_cell_angle_beta   90.00000000
_cell_angle_gamma   120.00000000
_symmetry_Int_Tables_number   1
_chemical_formula_structural   Li2AlO4
_chemical_formula_sum   'Li2 Al1 O4'
_cell_volume   53.61343034
_cell_formula_units_Z   1
loop_
 _symmetry_equiv_pos_site_id
 _symmetry_equiv_pos_as_xyz
  1  'x, y, z'
loop_
 _atom_site_type_symbol
 _atom_site_label
 _atom_site_symmetry_multiplicity
 _atom_site_fract_x
 _atom_site_fract_y
 _atom_site_fract_z
 _atom_site_occupancy
  Li  Li0  1  0.90893194  0.05962583  0.90171025  1
  Li  Li1  1  0.14771110  0.19192208  0.44767694  1
  Al  Al2  1  0.34659590  0.38590426  0.75572853  1
  O  O3  1  0.51300454  0.72807355  0.19320281  1
  O  O4  1  0.58955526  0.94282168  0.49327466  1
  O  O5  1  0.61919387  0.11394346  0.89578232  1
  O  O6  1  0.94483331  0.29381473  0.19174651  1
