# generated using pymatgen
data_Li6Al2O9
_symmetry_space_group_name_H-M   'P 1'
_cell_length_a   10.09873863
_cell_length_b   10.09873863
_cell_length_c   10.81680502
_cell_angle_alpha   90.00000000
_cell_angle_beta   90.00000000
_cell_angle_gamma   90.00000000
_symmetry_Int_Tables_number   1
_chemical_formula_structural   Li6Al2O9
_chemical_formula_sum   'Li6 Al2 O9'
_cell_volume   1103.14668883
_cell_formula_units_Z   1
loop_
 _symmetry_equiv_pos_site_id
 _symmetry_equiv_pos_as_xyz
  1  'x, y, z'
loop_
 _atom_site_type_symbol
 _atom_site_label
 _atom_site_symmetry_multiplicity
 _atom_site_fract_x
 _atom_site_fract_y
 _atom_site_fract_z
 _atom_site_occupancy
  Li  Li0  1  0.99345239  0.96692218  0.91000358  1
  Li  Li1  1  0.99303339  0.05198952  0.22793351  1
  Li  Li2  1  0.08051489  0.19850794  0.27971544  1
  Li  Li3  1  0.12563459  0.22759586  0.43742778  1
  Li  Li4  1  0.18029951  0.34784023  0.62477078  1
  Li  Li5  1  0.28815686  0.54368860  0.85008787  1
  Al  Al6  1  0.38362571  0.55377375  0.88635073  1
  Al  Al7  1  0.38046963  0.71376250  0.11338973  1
  O  O8  1  0.52291810  0.85955426  0.25639489  1
  O  O9  1  0.53349984  0.93282798  0.36444013  1
  O  O10  1  0.54405200  0.00871921  0.50341371  1
  O  O11  1  0.61840056  0.00538508  0.72721618  1
  O  O12  1  0.75704826  0.13391917  0.74966551  1
  O  O13  1  0.82605298  0.19782600  0.07178531  1
  O  O14  1  0.81808823  0.24853151  0.13251697  1
  O  O15  1  0.85428369  0.37689726  0.26421880  1
  O  O16  1  0.88203390  0.60849407  0.43243111  1
