# generated using pymatgen
data_Li4TiO6
_symmetry_space_group_name_H-M   'P 1'
_cell_length_a   10.34422265
_cell_length_b   10.34422265
_cell_length_c   10.34422265
_cell_angle_alpha   90.00000000
_cell_angle_beta   90.00000000
_cell_angle_gamma   90.00000000
_symmetry_Int_Tables_number   1
_chemical_formula_structural   Li4TiO6
_chemical_formula_sum   'Li4 Ti1 O6'
_cell_volume   1106.86225751
_cell_formula_units_Z   1
loop_
 _symmetry_equiv_pos_site_id
 _symmetry_equiv_pos_as_xyz
  1  'x, y, z'
loop_
 _atom_site_type_symbol
 _atom_site_label
 _atom_site_symmetry_multiplicity
 _atom_site_fract_x
 _atom_site_fract_y
 _atom_site_fract_z
 _atom_site_occupancy
  Li  Li0  1  0.96130709  0.09692276  0.05979655  1
  Li  Li1  1  0.01273946  0.09354811  0.21630261  1
  Li  Li2  1  0.15446578  0.30860538  0.57045524  1
  Li  Li3  1  0.29027689  0.40792248  0.79295256  1
  Ti  Ti4  1  0.38464655  0.57075476  0.98360463  1
  O  O5  1  0.36291088  0.83147292  0.13600245  1
  O  O6  1  0.49490812  0.93421593  0.34783166  1
  O  O7  1  0.57819115  0.01415175  0.74271567  1
  O  O8  1  0.64161253  0.09591085  0.93915802  1
  O  O9  1  0.79464965  0.26598348  0.18280233  1
  O  O10  1  0.91225737  0.43164124  0.32924941  1
