# generated using pymatgen
data_Li3Ti3P4O11
_symmetry_space_group_name_H-M   'P 1'
_cell_length_a   4.84157944
_cell_length_b   4.94723025
_cell_length_c   6.59641395
_cell_angle_alpha   90.00000000
_cell_angle_beta   90.00000000
_cell_angle_gamma   90.00000000
_symmetry_Int_Tables_number   1
_chemical_formula_structural   Li3Ti3P4O11
_chemical_formula_sum   'Li3 Ti3 P4 O11'
_cell_volume   158.00000000
_cell_formula_units_Z   1
loop_
 _symmetry_equiv_pos_site_id
 _symmetry_equiv_pos_as_xyz
  1  'x, y, z'
loop_
 _atom_site_type_symbol
 _atom_site_label
 _atom_site_symmetry_multiplicity
 _atom_site_fract_x
 _atom_site_fract_y
 _atom_site_fract_z
 _atom_site_occupancy
  Li  Li0  1  0.92641789  0.09267635  0.07675611  1
  Li  Li1  1  0.11887567  0.04258520  0.18606129  1
  Li  Li2  1  0.12374488  0.16251310  0.16311585  1
  Ti  Ti3  1  0.09593704  0.15505065  0.40908018  1
  Ti  Ti4  1  0.24744253  0.38766409  0.43580222  1
  Ti  Ti5  1  0.21351057  0.35320350  0.61675653  1
  P  P6  1  0.27307614  0.52450431  0.75335760  1
  P  P7  1  0.25493505  0.58824022  0.89489299  1
  P  P8  1  0.30594759  0.71512452  0.05910196  1
  P  P9  1  0.40942518  0.75658146  0.13871982  1
  O  O10  1  0.53378913  0.77388156  0.23329160  1
  O  O11  1  0.59300669  0.81685889  0.42203891  1
  O  O12  1  0.56727903  0.93460844  0.59390418  1
  O  O13  1  0.65238525  0.94471544  0.55849816  1
  O  O14  1  0.71231207  0.17609277  0.70102225  1
  O  O15  1  0.70105696  0.23021851  0.94752354  1
  O  O16  1  0.71666106  0.16902287  0.89716476  1
  O  O17  1  0.71624831  0.24266769  0.15811113  1
  O  O18  1  0.84735252  0.42874893  0.24158144  1
  O  O19  1  0.89931858  0.39914864  0.37648982  1
  O  O20  1  0.00400824  0.57529772  0.49296247  1
