# generated using pymatgen
data_Li3InBr8
_symmetry_space_group_name_H-M   'P 1'
_cell_length_a   3.95563241
_cell_length_b   5.60982234
_cell_length_c   6.12877778
_cell_angle_alpha   90.00000000
_cell_angle_beta   90.00000000
_cell_angle_gamma   90.00000000
_symmetry_Int_Tables_number   1
_chemical_formula_structural   Li3InBr8
_chemical_formula_sum   'Li3 In1 Br8'
_cell_volume   136.00000000
_cell_formula_units_Z   1
loop_
 _symmetry_equiv_pos_site_id
 _symmetry_equiv_pos_as_xyz
  1  'x, y, z'
loop_
 _atom_site_type_symbol
 _atom_site_label
 _atom_site_symmetry_multiplicity
 _atom_site_fract_x
 _atom_site_fract_y
 _atom_site_fract_z
 _atom_site_occupancy
  Li  Li0  1  0.93720460  0.94897582  0.07654414  1
  Li  Li1  1  0.01446325  0.15244342  0.22401666  1
  Li  Li2  1  0.25996605  0.30579023  0.50741789  1
  In  In3  1  0.26213155  0.49463806  0.55814355  1
  Br  Br4  1  0.33661205  0.50904551  0.96644192  1
  Br  Br5  1  0.37793445  0.59493179  0.02838014  1
  Br  Br6  1  0.41506261  0.74373497  0.31582808  1
  Br  Br7  1  0.64275505  0.97183803  0.46445734  1
  Br  Br8  1  0.61607089  0.98263267  0.84283656  1
  Br  Br9  1  0.73402415  0.11999472  0.03222769  1
  Br  Br10  1  0.91775094  0.35743458  0.12451569  1
  Br  Br11  1  0.98308068  0.51413555  0.39085150  1
