# generated using pymatgen
data_LiTiO4
_symmetry_space_group_name_H-M   'P 1'
_cell_length_a   5.20242759
_cell_length_b   5.20242759
_cell_length_c   5.20242759
_cell_angle_alpha   90.00000000
_cell_angle_beta   90.00000000
_cell_angle_gamma   90.00000000
_symmetry_Int_Tables_number   1
_chemical_formula_structural   LiTiO4
_chemical_formula_sum   'Li1 Ti1 O4'
_cell_volume   140.80501823
_cell_formula_units_Z   1
loop_
 _symmetry_equiv_pos_site_id
 _symmetry_equiv_pos_as_xyz
  1  'x, y, z'
loop_
 _atom_site_type_symbol
 _atom_site_label
 _atom_site_symmetry_multiplicity
 _atom_site_fract_x
 _atom_site_fract_y
 _atom_site_fract_z
 _atom_site_occupancy
  Li  Li0  1  0.99992407  0.91462718  0.04311483  1
  Ti  Ti1  1  0.22766020  0.35484425  0.35504355  1
  O  O2  1  0.23498056  0.62902093  0.88877822  1
  O  O3  1  0.42259843  0.75730530  0.39025630  1
  O  O4  1  0.56925081  0.03636826  0.66076231  1
  O  O5  1  0.91938600  0.28558928  0.19501362  1
