# generated using pymatgen
data_Li3GeS4
_symmetry_space_group_name_H-M   'P 1'
_cell_length_a   3.80147871
_cell_length_b   3.82113006
_cell_length_c   5.64507180
_cell_angle_alpha   90.00000000
_cell_angle_beta   90.00000000
_cell_angle_gamma   90.00000000
_symmetry_Int_Tables_number   1
_chemical_formula_structural   Li3GeS4
_chemical_formula_sum   'Li3 Ge1 S4'
_cell_volume   82.00000000
_cell_formula_units_Z   1
loop_
 _symmetry_equiv_pos_site_id
 _symmetry_equiv_pos_as_xyz
  1  'x, y, z'
loop_
 _atom_site_type_symbol
 _atom_site_label
 _atom_site_symmetry_multiplicity
 _atom_site_fract_x
 _atom_site_fract_y
 _atom_site_fract_z
 _atom_site_occupancy
  Li  Li0  1  0.09966858  0.99139087  0.95734649  1
  Li  Li1  1  0.10301252  0.23974803  0.28820402  1
  Li  Li2  1  0.30085311  0.49161316  0.63080688  1
  Ge  Ge3  1  0.30974606  0.69820089  0.91718250  1
  S  S4  1  0.54947784  0.82270083  0.31980032  1
  S  S5  1  0.69656177  0.91200763  0.61389819  1
  S  S6  1  0.77708828  0.17709309  0.95570883  1
  S  S7  1  0.96199512  0.50029248  0.34989794  1
