# generated using pymatgen
data_Li2ZrSc2P3
_symmetry_space_group_name_H-M   'P 1'
_cell_length_a   10.52900403
_cell_length_b   10.45824659
_cell_length_c   4.67756882
_cell_angle_alpha   89.32717222
_cell_angle_beta   117.44840423
_cell_angle_gamma   61.80082886
_symmetry_Int_Tables_number   1
_chemical_formula_structural   Li2ZrSc2P3
_chemical_formula_sum   'Li4 Zr2 Sc4 P6'
_cell_volume   385.09192626
_cell_formula_units_Z   2
loop_
 _symmetry_equiv_pos_site_id
 _symmetry_equiv_pos_as_xyz
  1  'x, y, z'
loop_
 _atom_site_type_symbol
 _atom_site_label
 _atom_site_symmetry_multiplicity
 _atom_site_fract_x
 _atom_site_fract_y
 _atom_site_fract_z
 _atom_site_occupancy
  Li  Li0  1  0.09476710  0.99605621  0.93524764  1
  Li  Li1  1  0.96933319  0.12676045  0.23956446  1
  Li  Li2  1  0.09037834  0.18612306  0.36195077  1
  Li  Li3  1  0.11938806  0.25243724  0.45466690  1
  Zr  Zr4  1  0.22346666  0.39266521  0.66472373  1
  Zr  Zr5  1  0.28968422  0.55158519  0.76676926  1
  Sc  Sc6  1  0.43573748  0.65549800  0.95287963  1
  Sc  Sc7  1  0.42697447  0.61122990  0.05338699  1
  Sc  Sc8  1  0.41965550  0.76890931  0.29577275  1
  Sc  Sc9  1  0.48048376  0.83897472  0.56744024  1
  P  P10  1  0.71971660  0.00227461  0.53762641  1
  P  P11  1  0.66971612  0.13385559  0.86275408  1
  P  P12  1  0.75570969  0.26841793  0.02226033  1
  P  P13  1  0.79216211  0.25635756  0.08536762  1
  P  P14  1  0.88507162  0.39258530  0.25420797  1
  P  P15  1  0.03125534  0.59619927  0.50563623  1
