# generated using pymatgen
data_Li2TiO6
_symmetry_space_group_name_H-M   'P 1'
_cell_length_a   10.25992801
_cell_length_b   10.25992801
_cell_length_c   10.25992801
_cell_angle_alpha   90.00000000
_cell_angle_beta   90.00000000
_cell_angle_gamma   90.00000000
_symmetry_Int_Tables_number   1
_chemical_formula_structural   Li2TiO6
_chemical_formula_sum   'Li2 Ti1 O6'
_cell_volume   1080.02284009
_cell_formula_units_Z   1
loop_
 _symmetry_equiv_pos_site_id
 _symmetry_equiv_pos_as_xyz
  1  'x, y, z'
loop_
 _atom_site_type_symbol
 _atom_site_label
 _atom_site_symmetry_multiplicity
 _atom_site_fract_x
 _atom_site_fract_y
 _atom_site_fract_z
 _atom_site_occupancy
  Li  Li0  1  0.96824038  0.08456471  0.94038638  1
  Li  Li1  1  0.01639504  0.11989596  0.25049170  1
  Ti  Ti2  1  0.13500732  0.34261158  0.58752528  1
  O  O3  1  0.38753445  0.48419739  0.86494053  1
  O  O4  1  0.43031119  0.69095168  0.25431098  1
  O  O5  1  0.64763187  0.81384850  0.44454278  1
  O  O6  1  0.72477872  0.99578974  0.81932811  1
  O  O7  1  0.83463616  0.17415282  0.08070037  1
  O  O8  1  0.84170172  0.39375344  0.23247741  1
