# generated using pymatgen
data_LiAlO4
_symmetry_space_group_name_H-M   'P 1'
_cell_length_a   4.47851796
_cell_length_b   4.47851796
_cell_length_c   3.74041738
_cell_angle_alpha   90.00000000
_cell_angle_beta   90.00000000
_cell_angle_gamma   120.00000000
_symmetry_Int_Tables_number   1
_chemical_formula_structural   LiAlO4
_chemical_formula_sum   'Li1 Al1 O4'
_cell_volume   64.97096816
_cell_formula_units_Z   1
loop_
 _symmetry_equiv_pos_site_id
 _symmetry_equiv_pos_as_xyz
  1  'x, y, z'
loop_
 _atom_site_type_symbol
 _atom_site_label
 _atom_site_symmetry_multiplicity
 _atom_site_fract_x
 _atom_site_fract_y
 _atom_site_fract_z
 _atom_site_occupancy
  Li  Li0  1  0.09428413  0.08320219  0.05445301  1
  Al  Al1  1  0.10968205  0.32236272  0.36891928  1
  O  O2  1  0.28944809  0.48318908  0.90998721  1
  O  O3  1  0.44555218  0.84923611  0.30090008  1
  O  O4  1  0.75680555  0.16379186  0.73076117  1
  O  O5  1  0.80483310  0.28987317  0.22792498  1
