# generated using pymatgen
data_Li4YAlO6
_symmetry_space_group_name_H-M   'P 1'
_cell_length_a   7.95457519
_cell_length_b   11.64112218
_cell_length_c   4.59458022
_cell_angle_alpha   89.96095137
_cell_angle_beta   69.42252968
_cell_angle_gamma   70.99179120
_symmetry_Int_Tables_number   1
_chemical_formula_structural   Li4YAlO6
_chemical_formula_sum   'Li4 Y1 Al1 O6'
_cell_volume   373.46938803
_cell_formula_units_Z   1
loop_
 _symmetry_equiv_pos_site_id
 _symmetry_equiv_pos_as_xyz
  1  'x, y, z'
loop_
 _atom_site_type_symbol
 _atom_site_label
 _atom_site_symmetry_multiplicity
 _atom_site_fract_x
 _atom_site_fract_y
 _atom_site_fract_z
 _atom_site_occupancy
  Li  Li0  1  0.97383414  0.03906242  0.94593997  1
  Li  Li1  1  0.02383351  0.07617429  0.30071572  1
  Li  Li2  1  0.14484513  0.18927972  0.49436469  1
  Li  Li3  1  0.16131451  0.33222109  0.55686335  1
  Y  Y4  1  0.38434083  0.48836552  0.88412392  1
  Al  Al5  1  0.40902325  0.71875451  0.05884540  1
  O  O6  1  0.41234356  0.73442244  0.31454799  1
  O  O7  1  0.64986957  0.04355423  0.49515885  1
  O  O8  1  0.62194336  0.07714778  0.71162691  1
  O  O9  1  0.80228906  0.27070175  0.89888508  1
  O  O10  1  0.93084324  0.35840638  0.13216133  1
  O  O11  1  0.95414300  0.47539549  0.32978087  1
