# generated using pymatgen
data_Li4Zr3Nb4F4
_symmetry_space_group_name_H-M   'P 1'
_cell_length_a   7.58161233
_cell_length_b   9.74420205
_cell_length_c   9.70955676
_cell_angle_alpha   72.51446710
_cell_angle_beta   68.75849541
_cell_angle_gamma   77.86483329
_symmetry_Int_Tables_number   1
_chemical_formula_structural   Li4Zr3Nb4F4
_chemical_formula_sum   'Li4 Zr3 Nb4 F4'
_cell_volume   633.52615274
_cell_formula_units_Z   1
loop_
 _symmetry_equiv_pos_site_id
 _symmetry_equiv_pos_as_xyz
  1  'x, y, z'
loop_
 _atom_site_type_symbol
 _atom_site_label
 _atom_site_symmetry_multiplicity
 _atom_site_fract_x
 _atom_site_fract_y
 _atom_site_fract_z
 _atom_site_occupancy
  Li  Li0  1  0.09009445  0.02008261  0.04924011  1
  Li  Li1  1  0.12086414  0.18564503  0.09318022  1
  Li  Li2  1  0.04026907  0.16074405  0.38678111  1
  Li  Li3  1  0.25237953  0.37863988  0.45142932  1
  Nb  Nb4  1  0.34945665  0.39133526  0.74277687  1
  Nb  Nb5  1  0.40688918  0.57741789  0.92569207  1
  Nb  Nb6  1  0.37300427  0.61805953  0.94808579  1
  Nb  Nb7  1  0.51555543  0.82885998  0.25749878  1
  Zr  Zr8  1  0.50879033  0.89439268  0.38801586  1
  Zr  Zr9  1  0.52509265  0.05936604  0.60452108  1
  Zr  Zr10  1  0.72515786  0.09367447  0.77107406  1
  F  F11  1  0.65573870  0.16953227  0.00963481  1
  F  F12  1  0.81944336  0.36643187  0.03356478  1
  F  F13  1  0.87418730  0.45876487  0.23717371  1
  F  F14  1  0.01789805  0.45051971  0.34875059  1
