# generated using pymatgen
data_LiTiO5
_symmetry_space_group_name_H-M   'P 1'
_cell_length_a   10.67671056
_cell_length_b   10.67671056
_cell_length_c   10.67671056
_cell_angle_alpha   90.00000000
_cell_angle_beta   90.00000000
_cell_angle_gamma   90.00000000
_symmetry_Int_Tables_number   1
_chemical_formula_structural   LiTiO5
_chemical_formula_sum   'Li1 Ti1 O5'
_cell_volume   1217.06117308
_cell_formula_units_Z   1
loop_
 _symmetry_equiv_pos_site_id
 _symmetry_equiv_pos_as_xyz
  1  'x, y, z'
loop_
 _atom_site_type_symbol
 _atom_site_label
 _atom_site_symmetry_multiplicity
 _atom_site_fract_x
 _atom_site_fract_y
 _atom_site_fract_z
 _atom_site_occupancy
  Li  Li0  1  0.93591794  0.00028847  0.08832218  1
  Ti  Ti1  1  0.17835766  0.16605848  0.34633897  1
  O  O2  1  0.20422552  0.51553468  0.66608990  1
  O  O3  1  0.40071426  0.69540596  0.21313037  1
  O  O4  1  0.48679272  0.01537427  0.39834395  1
  O  O5  1  0.77065583  0.16742499  0.88691574  1
  O  O6  1  0.90327742  0.30394505  0.25843284  1
