# generated using pymatgen
data_LiTiO5
_symmetry_space_group_name_H-M   'P 1'
_cell_length_a   8.81991468
_cell_length_b   8.81991468
_cell_length_c   8.81991468
_cell_angle_alpha   90.00000000
_cell_angle_beta   90.00000000
_cell_angle_gamma   90.00000000
_symmetry_Int_Tables_number   1
_chemical_formula_structural   LiTiO5
_chemical_formula_sum   'Li1 Ti1 O5'
_cell_volume   686.10905727
_cell_formula_units_Z   1
loop_
 _symmetry_equiv_pos_site_id
 _symmetry_equiv_pos_as_xyz
  1  'x, y, z'
loop_
 _atom_site_type_symbol
 _atom_site_label
 _atom_site_symmetry_multiplicity
 _atom_site_fract_x
 _atom_site_fract_y
 _atom_site_fract_z
 _atom_site_occupancy
  Li  Li0  1  0.96760255  0.95574404  0.05091027  1
  Ti  Ti1  1  0.08211185  0.13289880  0.34838269  1
  O  O2  1  0.37089790  0.36555594  0.76417468  1
  O  O3  1  0.52243122  0.71393999  0.08098314  1
  O  O4  1  0.55306766  0.01685510  0.42445860  1
  O  O5  1  0.77548505  0.15771338  0.78144005  1
  O  O6  1  0.85786562  0.43269966  0.19937408  1
