# generated using pymatgen
data_Li4TiO4
_symmetry_space_group_name_H-M   'P 1'
_cell_length_a   9.66531682
_cell_length_b   9.66531682
_cell_length_c   9.66531682
_cell_angle_alpha   90.00000000
_cell_angle_beta   90.00000000
_cell_angle_gamma   90.00000000
_symmetry_Int_Tables_number   1
_chemical_formula_structural   Li4TiO4
_chemical_formula_sum   'Li4 Ti1 O4'
_cell_volume   902.91794304
_cell_formula_units_Z   1
loop_
 _symmetry_equiv_pos_site_id
 _symmetry_equiv_pos_as_xyz
  1  'x, y, z'
loop_
 _atom_site_type_symbol
 _atom_site_label
 _atom_site_symmetry_multiplicity
 _atom_site_fract_x
 _atom_site_fract_y
 _atom_site_fract_z
 _atom_site_occupancy
  Li  Li0  1  0.93592096  0.98022686  0.98405793  1
  Li  Li1  1  0.03455985  0.24262908  0.25139466  1
  Li  Li2  1  0.14439072  0.33116144  0.58980223  1
  Li  Li3  1  0.23407130  0.51016862  0.95970968  1
  Ti  Ti4  1  0.47038197  0.73037027  0.25958696  1
  O  O5  1  0.56751290  0.90248850  0.48077094  1
  O  O6  1  0.76084467  0.10142527  0.69286056  1
  O  O7  1  0.74660060  0.35278322  0.09941210  1
  O  O8  1  0.92080370  0.42434340  0.37335200  1
