# generated using pymatgen
data_Li2TiO4
_symmetry_space_group_name_H-M   'P 1'
_cell_length_a   11.59640666
_cell_length_b   11.59640666
_cell_length_c   11.59640666
_cell_angle_alpha   90.00000000
_cell_angle_beta   90.00000000
_cell_angle_gamma   90.00000000
_symmetry_Int_Tables_number   1
_chemical_formula_structural   Li2TiO4
_chemical_formula_sum   'Li2 Ti1 O4'
_cell_volume   1559.44589170
_cell_formula_units_Z   1
loop_
 _symmetry_equiv_pos_site_id
 _symmetry_equiv_pos_as_xyz
  1  'x, y, z'
loop_
 _atom_site_type_symbol
 _atom_site_label
 _atom_site_symmetry_multiplicity
 _atom_site_fract_x
 _atom_site_fract_y
 _atom_site_fract_z
 _atom_site_occupancy
  Li  Li0  1  0.03888943  0.04785495  0.98923517  1
  Li  Li1  1  0.14156116  0.32471255  0.46128691  1
  Ti  Ti2  1  0.28313689  0.53719789  0.69059456  1
  O  O3  1  0.38908386  0.66794667  0.06454476  1
  O  O4  1  0.58741491  0.87256321  0.50854635  1
  O  O5  1  0.65239727  0.20379381  0.93174838  1
  O  O6  1  0.80509910  0.47881899  0.33385105  1
