# generated using pymatgen
data_LiZrO5
_symmetry_space_group_name_H-M   'P 1'
_cell_length_a   12.91258462
_cell_length_b   12.91258462
_cell_length_c   11.65488139
_cell_angle_alpha   90.00000000
_cell_angle_beta   90.00000000
_cell_angle_gamma   90.00000000
_symmetry_Int_Tables_number   1
_chemical_formula_structural   LiZrO5
_chemical_formula_sum   'Li2 Zr2 O10'
_cell_volume   1943.27480189
_cell_formula_units_Z   2
loop_
 _symmetry_equiv_pos_site_id
 _symmetry_equiv_pos_as_xyz
  1  'x, y, z'
loop_
 _atom_site_type_symbol
 _atom_site_label
 _atom_site_symmetry_multiplicity
 _atom_site_fract_x
 _atom_site_fract_y
 _atom_site_fract_z
 _atom_site_occupancy
  Li  Li0  1  0.08776396  0.06583765  0.98753819  1
  Li  Li1  1  0.15896618  0.04572016  0.17971660  1
  Zr  Zr2  1  0.19921219  0.14965447  0.41940704  1
  Zr  Zr3  1  0.17283115  0.30532001  0.63344983  1
  O  O4  1  0.30642116  0.45817953  0.82645810  1
  O  O5  1  0.31929460  0.60416504  0.85475107  1
  O  O6  1  0.48197056  0.63759599  0.19902638  1
  O  O7  1  0.51418566  0.88872590  0.25131094  1
  O  O8  1  0.52180373  0.90616713  0.43342523  1
  O  O9  1  0.59021538  0.04468221  0.66327819  1
  O  O10  1  0.66704913  0.13775574  0.77109622  1
  O  O11  1  0.75262787  0.19623721  0.08986087  1
  O  O12  1  0.80954476  0.36574620  0.33252142  1
  O  O13  1  0.83520396  0.41821685  0.50358961  1
