# generated using pymatgen
data_Li2TiO4
_symmetry_space_group_name_H-M   'P 1'
_cell_length_a   6.63177812
_cell_length_b   6.63177812
_cell_length_c   6.63177812
_cell_angle_alpha   90.00000000
_cell_angle_beta   90.00000000
_cell_angle_gamma   90.00000000
_symmetry_Int_Tables_number   1
_chemical_formula_structural   Li2TiO4
_chemical_formula_sum   'Li2 Ti1 O4'
_cell_volume   291.66879202
_cell_formula_units_Z   1
loop_
 _symmetry_equiv_pos_site_id
 _symmetry_equiv_pos_as_xyz
  1  'x, y, z'
loop_
 _atom_site_type_symbol
 _atom_site_label
 _atom_site_symmetry_multiplicity
 _atom_site_fract_x
 _atom_site_fract_y
 _atom_site_fract_z
 _atom_site_occupancy
  Li  Li0  1  0.90815294  0.02503682  0.92768338  1
  Li  Li1  1  0.08639215  0.13800059  0.43624117  1
  Ti  Ti2  1  0.32944241  0.46733572  0.84394779  1
  O  O3  1  0.35259302  0.77342319  0.13500054  1
  O  O4  1  0.60014551  0.89302334  0.54126079  1
  O  O5  1  0.67768659  0.11460622  0.96970446  1
  O  O6  1  0.77595703  0.43360610  0.18765838  1
