# generated using pymatgen
data_LiAl3F7
_symmetry_space_group_name_H-M   'P 1'
_cell_length_a   8.10326822
_cell_length_b   8.10326822
_cell_length_c   8.19335896
_cell_angle_alpha   90.00000000
_cell_angle_beta   90.00000000
_cell_angle_gamma   90.00000000
_symmetry_Int_Tables_number   1
_chemical_formula_structural   LiAl3F7
_chemical_formula_sum   'Li1 Al3 F7'
_cell_volume   538.00016768
_cell_formula_units_Z   1
loop_
 _symmetry_equiv_pos_site_id
 _symmetry_equiv_pos_as_xyz
  1  'x, y, z'
loop_
 _atom_site_type_symbol
 _atom_site_label
 _atom_site_symmetry_multiplicity
 _atom_site_fract_x
 _atom_site_fract_y
 _atom_site_fract_z
 _atom_site_occupancy
  Li  Li0  1  0.98898306  0.01196715  0.97486551  1
  Al  Al1  1  0.11507801  0.21921986  0.28999343  1
  Al  Al2  1  0.10306368  0.29426690  0.38635774  1
  Al  Al3  1  0.30188685  0.51071253  0.62628237  1
  F  F4  1  0.27704139  0.63294387  0.92141280  1
  F  F5  1  0.46735860  0.69437767  0.16436227  1
  F  F6  1  0.59845373  0.94653880  0.40152002  1
  F  F7  1  0.65074931  0.95237593  0.70765872  1
  F  F8  1  0.75598484  0.18725810  0.91274626  1
  F  F9  1  0.90393606  0.40684495  0.21647092  1
  F  F10  1  0.93624751  0.38505288  0.44543108  1
