# generated using pymatgen
data_Li7La3Zr2O13
_symmetry_space_group_name_H-M   'P 1'
_cell_length_a   5.84822095
_cell_length_b   5.84822095
_cell_length_c   7.16338907
_cell_angle_alpha   90.00000000
_cell_angle_beta   90.00000000
_cell_angle_gamma   90.00000000
_symmetry_Int_Tables_number   1
_chemical_formula_structural   Li7La3Zr2O13
_chemical_formula_sum   'Li7 La3 Zr2 O13'
_cell_volume   245.00000000
_cell_formula_units_Z   1
loop_
 _symmetry_equiv_pos_site_id
 _symmetry_equiv_pos_as_xyz
  1  'x, y, z'
loop_
 _atom_site_type_symbol
 _atom_site_label
 _atom_site_symmetry_multiplicity
 _atom_site_fract_x
 _atom_site_fract_y
 _atom_site_fract_z
 _atom_site_occupancy
  Li  Li0  1  0.90712783  0.91005026  0.00278190  1
  Li  Li1  1  0.06589244  0.04857898  0.02287033  1
  Li  Li2  1  0.06612750  0.07799987  0.26768626  1
  Li  Li3  1  0.09336804  0.12561284  0.41389788  1
  Li  Li4  1  0.22945584  0.23085593  0.48085390  1
  Li  Li5  1  0.22304077  0.25594901  0.56989228  1
  Li  Li6  1  0.29428015  0.33357929  0.64865935  1
  La  La7  1  0.32461472  0.48982970  0.69382264  1
  La  La8  1  0.39397414  0.45370043  0.76851271  1
  La  La9  1  0.33090341  0.49892598  0.96732735  1
  Zr  Zr10  1  0.38652822  0.60607345  0.99331253  1
  Zr  Zr11  1  0.41536429  0.69110334  0.12146957  1
  O  O12  1  0.44540432  0.83027551  0.30145146  1
  O  O13  1  0.42157234  0.82444397  0.28534602  1
  O  O14  1  0.59656704  0.98236379  0.56398592  1
  O  O15  1  0.68645365  0.06908349  0.59510070  1
  O  O16  1  0.73292323  0.01909372  0.73506270  1
  O  O17  1  0.68967286  0.06741183  0.81922119  1
  O  O18  1  0.63538212  0.13921702  0.95562986  1
  O  O19  1  0.69903933  0.14317873  0.90027025  1
  O  O20  1  0.77343879  0.34172478  0.17321469  1
  O  O21  1  0.74473257  0.31072330  0.13850362  1
  O  O22  1  0.87153975  0.48075519  0.27320569  1
  O  O23  1  0.82650244  0.48004757  0.39617330  1
  O  O24  1  0.05900439  0.63830882  0.46211689  1
