# generated using pymatgen
data_Sr2Li2TiO4
_symmetry_space_group_name_H-M   'P 1'
_cell_length_a   3.44559777
_cell_length_b   3.93010230
_cell_length_c   5.31696821
_cell_angle_alpha   90.00000000
_cell_angle_beta   90.00000000
_cell_angle_gamma   90.00000000
_symmetry_Int_Tables_number   1
_chemical_formula_structural   Sr2Li2TiO4
_chemical_formula_sum   'Sr2 Li2 Ti1 O4'
_cell_volume   72.00000000
_cell_formula_units_Z   1
loop_
 _symmetry_equiv_pos_site_id
 _symmetry_equiv_pos_as_xyz
  1  'x, y, z'
loop_
 _atom_site_type_symbol
 _atom_site_label
 _atom_site_symmetry_multiplicity
 _atom_site_fract_x
 _atom_site_fract_y
 _atom_site_fract_z
 _atom_site_occupancy
  Li  Li0  1  0.90800842  0.91187758  0.07407091  1
  Li  Li1  1  0.17995454  0.12382394  0.23731450  1
  Ti  Ti2  1  0.21859049  0.31915815  0.55529073  1
  O  O3  1  0.30262819  0.61059899  0.89094153  1
  O  O4  1  0.34868305  0.80499738  0.14966458  1
  O  O5  1  0.64386760  0.91620614  0.48353702  1
  O  O6  1  0.68353732  0.13880665  0.80517821  1
  Sr  Sr7  1  0.84860138  0.20947698  0.04927771  1
  Sr  Sr8  1  0.93846834  0.48290790  0.39981059  1
