# generated using pymatgen
data_Li4YI6
_symmetry_space_group_name_H-M   'P 1'
_cell_length_a   4.42015848
_cell_length_b   4.42015848
_cell_length_c   5.73247726
_cell_angle_alpha   90.00000000
_cell_angle_beta   90.00000000
_cell_angle_gamma   90.00000000
_symmetry_Int_Tables_number   1
_chemical_formula_structural   Li4YI6
_chemical_formula_sum   'Li4 Y1 I6'
_cell_volume   112.00000000
_cell_formula_units_Z   1
loop_
 _symmetry_equiv_pos_site_id
 _symmetry_equiv_pos_as_xyz
  1  'x, y, z'
loop_
 _atom_site_type_symbol
 _atom_site_label
 _atom_site_symmetry_multiplicity
 _atom_site_fract_x
 _atom_site_fract_y
 _atom_site_fract_z
 _atom_site_occupancy
  Li  Li0  1  0.98464825  0.09848519  0.97990181  1
  Li  Li1  1  0.15369565  0.07576050  0.19738770  1
  Li  Li2  1  0.09824313  0.28143461  0.55887386  1
  Li  Li3  1  0.23771380  0.39342421  0.62493897  1
  Y  Y4  1  0.30954010  0.48848578  0.04289006  1
  I  I5  1  0.54084469  0.65963181  0.16562526  1
  I  I6  1  0.62868060  0.98034157  0.36679415  1
  I  I7  1  0.59247475  0.09903132  0.75314950  1
  I  I8  1  0.80352859  0.24076859  0.81781436  1
  I  I9  1  0.73709511  0.31353668  0.07991859  1
  I  I10  1  0.87151457  0.56933296  0.42765412  1
