# generated using pymatgen
data_Li3TiO4
_symmetry_space_group_name_H-M   'P 1'
_cell_length_a   8.62031932
_cell_length_b   8.62031932
_cell_length_c   8.62031932
_cell_angle_alpha   90.00000000
_cell_angle_beta   90.00000000
_cell_angle_gamma   90.00000000
_symmetry_Int_Tables_number   1
_chemical_formula_structural   Li3TiO4
_chemical_formula_sum   'Li3 Ti1 O4'
_cell_volume   640.57511160
_cell_formula_units_Z   1
loop_
 _symmetry_equiv_pos_site_id
 _symmetry_equiv_pos_as_xyz
  1  'x, y, z'
loop_
 _atom_site_type_symbol
 _atom_site_label
 _atom_site_symmetry_multiplicity
 _atom_site_fract_x
 _atom_site_fract_y
 _atom_site_fract_z
 _atom_site_occupancy
  Li  Li0  1  0.99746070  0.92561750  0.91061151  1
  Li  Li1  1  0.06180197  0.17418984  0.27990272  1
  Li  Li2  1  0.29565816  0.43998916  0.73372507  1
  Ti  Ti3  1  0.41369540  0.68394691  0.01743552  1
  O  O4  1  0.50918953  0.86157889  0.36377775  1
  O  O5  1  0.59986403  0.07164726  0.62092718  1
  O  O6  1  0.72900925  0.14018660  0.91232714  1
  O  O7  1  0.84174573  0.35714913  0.25510979  1
