# generated using pymatgen
data_Li4In2Cl5
_symmetry_space_group_name_H-M   'P 1'
_cell_length_a   4.49554747
_cell_length_b   4.49554747
_cell_length_c   5.14598082
_cell_angle_alpha   90.00000000
_cell_angle_beta   90.00000000
_cell_angle_gamma   90.00000000
_symmetry_Int_Tables_number   1
_chemical_formula_structural   Li4In2Cl5
_chemical_formula_sum   'Li4 In2 Cl5'
_cell_volume   104.00000000
_cell_formula_units_Z   1
loop_
 _symmetry_equiv_pos_site_id
 _symmetry_equiv_pos_as_xyz
  1  'x, y, z'
loop_
 _atom_site_type_symbol
 _atom_site_label
 _atom_site_symmetry_multiplicity
 _atom_site_fract_x
 _atom_site_fract_y
 _atom_site_fract_z
 _atom_site_occupancy
  Li  Li0  1  0.90403826  0.93895625  0.05100864  1
  Li  Li1  1  0.16921020  0.23491443  0.14373534  1
  Li  Li2  1  0.24171019  0.29610544  0.39284713  1
  Li  Li3  1  0.20394708  0.49219581  0.68629758  1
  In  In4  1  0.30115253  0.51281777  0.02157968  1
  In  In5  1  0.40099756  0.69824289  0.21506845  1
  Cl  Cl6  1  0.54427743  0.93193041  0.49021369  1
  Cl  Cl7  1  0.67843949  0.98861970  0.63475179  1
  Cl  Cl8  1  0.81536062  0.13771054  0.89704924  1
  Cl  Cl9  1  0.74305829  0.41592764  0.04891799  1
  Cl  Cl10  1  0.97641274  0.38986804  0.37153884  1
