# generated using pymatgen
data_Li6PS5
_symmetry_space_group_name_H-M   'P 1'
_cell_length_a   4.72468287
_cell_length_b   4.72468287
_cell_length_c   5.19652072
_cell_angle_alpha   90.00000000
_cell_angle_beta   90.00000000
_cell_angle_gamma   90.00000000
_symmetry_Int_Tables_number   1
_chemical_formula_structural   Li6PS5
_chemical_formula_sum   'Li6 P1 S5'
_cell_volume   116.00000000
_cell_formula_units_Z   1
loop_
 _symmetry_equiv_pos_site_id
 _symmetry_equiv_pos_as_xyz
  1  'x, y, z'
loop_
 _atom_site_type_symbol
 _atom_site_label
 _atom_site_symmetry_multiplicity
 _atom_site_fract_x
 _atom_site_fract_y
 _atom_site_fract_z
 _atom_site_occupancy
  Li  Li0  1  0.09389210  0.02167514  0.05259745  1
  Li  Li1  1  0.99250955  0.10575496  0.21482216  1
  Li  Li2  1  0.24242599  0.22376764  0.51504274  1
  Li  Li3  1  0.28937280  0.31045592  0.56835490  1
  Li  Li4  1  0.25830557  0.63572871  0.94076570  1
  Li  Li5  1  0.42134978  0.57701180  0.12110916  1
  P  P6  1  0.43639497  0.71577951  0.39421483  1
  S  S7  1  0.68151557  0.91426455  0.50065978  1
  S  S8  1  0.64136705  0.02654507  0.74093986  1
  S  S9  1  0.66589990  0.22104867  0.87156120  1
  S  S10  1  0.76168735  0.25669471  0.13710794  1
  S  S11  1  0.96912030  0.50095927  0.31088863  1
