# generated using pymatgen
data_Li7(SiS)3
_symmetry_space_group_name_H-M   'P 1'
_cell_length_a   4.35488870
_cell_length_b   5.08286547
_cell_length_c   5.51155512
_cell_angle_alpha   90.00000000
_cell_angle_beta   90.00000000
_cell_angle_gamma   90.00000000
_symmetry_Int_Tables_number   1
_chemical_formula_structural   Li7(SiS)3
_chemical_formula_sum   'Li7 Si3 S3'
_cell_volume   122.00000000
_cell_formula_units_Z   1
loop_
 _symmetry_equiv_pos_site_id
 _symmetry_equiv_pos_as_xyz
  1  'x, y, z'
loop_
 _atom_site_type_symbol
 _atom_site_label
 _atom_site_symmetry_multiplicity
 _atom_site_fract_x
 _atom_site_fract_y
 _atom_site_fract_z
 _atom_site_occupancy
  Li  Li0  1  0.07269948  0.93131093  0.07639879  1
  Li  Li1  1  0.07510738  0.10092413  0.28524231  1
  Li  Li2  1  0.13379249  0.33362508  0.39494825  1
  Li  Li3  1  0.21182731  0.30267446  0.54409595  1
  Li  Li4  1  0.36814113  0.41695410  0.88789958  1
  Li  Li5  1  0.43184363  0.55453986  0.93346664  1
  Li  Li6  1  0.45910656  0.79638260  0.29577666  1
  Si  Si7  1  0.53796287  0.86846460  0.31632393  1
  Si  Si8  1  0.60444582  0.04769678  0.59959424  1
  Si  Si9  1  0.70846783  0.07736250  0.90679525  1
  S  S10  1  0.74195700  0.18614091  0.05024931  1
  S  S11  1  0.76308967  0.26940501  0.26025968  1
  S  S12  1  0.90206056  0.50833287  0.43604322  1
