# generated using pymatgen
data_Li6La4ZrO10
_symmetry_space_group_name_H-M   'P 1'
_cell_length_a   5.84278967
_cell_length_b   6.15295404
_cell_length_c   6.28643625
_cell_angle_alpha   90.00000000
_cell_angle_beta   90.00000000
_cell_angle_gamma   90.00000000
_symmetry_Int_Tables_number   1
_chemical_formula_structural   Li6La4ZrO10
_chemical_formula_sum   'Li6 La4 Zr1 O10'
_cell_volume   226.00000000
_cell_formula_units_Z   1
loop_
 _symmetry_equiv_pos_site_id
 _symmetry_equiv_pos_as_xyz
  1  'x, y, z'
loop_
 _atom_site_type_symbol
 _atom_site_label
 _atom_site_symmetry_multiplicity
 _atom_site_fract_x
 _atom_site_fract_y
 _atom_site_fract_z
 _atom_site_occupancy
  Li  Li0  1  0.99499957  0.97879635  0.09128991  1
  Li  Li1  1  0.03984448  0.01971955  0.11426121  1
  Li  Li2  1  0.05802471  0.08095464  0.21081535  1
  Li  Li3  1  0.23035696  0.28812446  0.30245435  1
  Li  Li4  1  0.19740204  0.37408536  0.41069504  1
  Li  Li5  1  0.31760816  0.40573596  0.59093588  1
  La  La6  1  0.24145832  0.51319598  0.68725471  1
  La  La7  1  0.23508927  0.51371602  0.95785028  1
  La  La8  1  0.28422261  0.63255563  0.09119312  1
  La  La9  1  0.44908285  0.65241171  0.10363908  1
  Zr  Zr10  1  0.56847415  0.69893479  0.30786600  1
  O  O11  1  0.52580862  0.75896386  0.37205609  1
  O  O12  1  0.61727109  0.87994551  0.51280503  1
  O  O13  1  0.68667036  0.08460240  0.60795306  1
  O  O14  1  0.71261004  0.01259757  0.64657929  1
  O  O15  1  0.63212153  0.21937133  0.86524701  1
  O  O16  1  0.74159301  0.26684602  0.98069007  1
  O  O17  1  0.74785634  0.39831915  0.08233803  1
  O  O18  1  0.81891514  0.43845647  0.30824108  1
  O  O19  1  0.95235926  0.55367661  0.32547079  1
  O  O20  1  0.86273251  0.55003415  0.40134175  1
