# generated using pymatgen
data_Li2NbF
_symmetry_space_group_name_H-M   'P 1'
_cell_length_a   8.37242178
_cell_length_b   8.37242178
_cell_length_c   8.71710233
_cell_angle_alpha   90.00000000
_cell_angle_beta   90.00000000
_cell_angle_gamma   90.00000000
_symmetry_Int_Tables_number   1
_chemical_formula_structural   Li2NbF
_chemical_formula_sum   'Li6 Nb3 F3'
_cell_volume   611.04661337
_cell_formula_units_Z   3
loop_
 _symmetry_equiv_pos_site_id
 _symmetry_equiv_pos_as_xyz
  1  'x, y, z'
loop_
 _atom_site_type_symbol
 _atom_site_label
 _atom_site_symmetry_multiplicity
 _atom_site_fract_x
 _atom_site_fract_y
 _atom_site_fract_z
 _atom_site_occupancy
  Li  Li0  1  0.91096742  0.02384236  0.97071177  1
  Li  Li1  1  0.12680702  0.18648799  0.17599532  1
  Li  Li2  1  0.26192326  0.18825057  0.51774714  1
  Li  Li3  1  0.22330326  0.44613003  0.63858945  1
  Li  Li4  1  0.36378616  0.51337601  0.90189695  1
  Li  Li5  1  0.32170524  0.60810984  0.13774885  1
  Nb  Nb6  1  0.55943222  0.74880782  0.21754332  1
  Nb  Nb7  1  0.58758451  0.92937499  0.59177616  1
  Nb  Nb8  1  0.59317297  0.07094890  0.78609382  1
  F  F9  1  0.81289728  0.13211022  0.95793510  1
  F  F10  1  0.74619256  0.44633023  0.27007408  1
  F  F11  1  0.93544699  0.40225572  0.43467405  1
