# generated using pymatgen
data_Li2Zr(Cl4F3)2
_symmetry_space_group_name_H-M   'P 1'
_cell_length_a   10.40809620
_cell_length_b   12.37336068
_cell_length_c   10.80488903
_cell_angle_alpha   81.16803913
_cell_angle_beta   109.14284021
_cell_angle_gamma   79.36768000
_symmetry_Int_Tables_number   1
_chemical_formula_structural   Li2Zr(Cl4F3)2
_chemical_formula_sum   'Li2 Zr1 Cl8 F6'
_cell_volume   1257.17665508
_cell_formula_units_Z   1
loop_
 _symmetry_equiv_pos_site_id
 _symmetry_equiv_pos_as_xyz
  1  'x, y, z'
loop_
 _atom_site_type_symbol
 _atom_site_label
 _atom_site_symmetry_multiplicity
 _atom_site_fract_x
 _atom_site_fract_y
 _atom_site_fract_z
 _atom_site_occupancy
  Li  Li0  1  0.03749803  0.96095402  0.05085311  1
  Li  Li1  1  0.14593669  0.07148335  0.08874606  1
  Zr  Zr2  1  0.20909795  0.12578544  0.35747784  1
  F  F3  1  0.19017142  0.29632973  0.53356177  1
  F  F4  1  0.13605175  0.35835407  0.64308828  1
  F  F5  1  0.25771074  0.46809119  0.85699512  1
  F  F6  1  0.43748366  0.63020676  0.94719332  1
  F  F7  1  0.49375016  0.60314374  0.03348234  1
  F  F8  1  0.42028945  0.77992660  0.29345825  1
  Cl  Cl9  1  0.52392754  0.86755556  0.34953047  1
  Cl  Cl10  1  0.60901298  0.01110952  0.58334007  1
  Cl  Cl11  1  0.70099294  0.12363738  0.62722551  1
  Cl  Cl12  1  0.73051494  0.20243810  0.76012438  1
  Cl  Cl13  1  0.67183876  0.30444083  0.96381956  1
  Cl  Cl14  1  0.77406158  0.27624936  0.10367639  1
  Cl  Cl15  1  0.81273826  0.52275473  0.21594398  1
  Cl  Cl16  1  0.93874059  0.57880447  0.45654832  1
