# generated using pymatgen
data_Li5(NbCl3)2
_symmetry_space_group_name_H-M   'P 1'
_cell_length_a   12.44059186
_cell_length_b   12.44059186
_cell_length_c   12.42160859
_cell_angle_alpha   90.00000000
_cell_angle_beta   90.00000000
_cell_angle_gamma   90.00000000
_symmetry_Int_Tables_number   1
_chemical_formula_structural   Li5(NbCl3)2
_chemical_formula_sum   'Li5 Nb2 Cl6'
_cell_volume   1922.47156526
_cell_formula_units_Z   1
loop_
 _symmetry_equiv_pos_site_id
 _symmetry_equiv_pos_as_xyz
  1  'x, y, z'
loop_
 _atom_site_type_symbol
 _atom_site_label
 _atom_site_symmetry_multiplicity
 _atom_site_fract_x
 _atom_site_fract_y
 _atom_site_fract_z
 _atom_site_occupancy
  Li  Li0  1  0.08897015  0.94724670  0.02642226  1
  Li  Li1  1  0.01123547  0.05684376  0.17523989  1
  Li  Li2  1  0.14163558  0.15739614  0.33067521  1
  Li  Li3  1  0.18649873  0.38028173  0.62234824  1
  Li  Li4  1  0.27877037  0.54267054  0.76132262  1
  Nb  Nb5  1  0.37890090  0.54363505  0.07711129  1
  Nb  Nb6  1  0.38633856  0.83379931  0.26907957  1
  Cl  Cl7  1  0.51077588  0.96475959  0.31034026  1
  Cl  Cl8  1  0.57279858  0.09396186  0.53573869  1
  Cl  Cl9  1  0.78209802  0.07348652  0.73234093  1
  Cl  Cl10  1  0.85019861  0.21551250  0.08804485  1
  Cl  Cl11  1  0.86690847  0.31537690  0.14406295  1
  Cl  Cl12  1  0.00538396  0.57323191  0.40617681  1
