# generated using pymatgen
data_Li3TiIn3Br7
_symmetry_space_group_name_H-M   'P 1'
_cell_length_a   7.50801622
_cell_length_b   7.92595378
_cell_length_c   3.83769800
_cell_angle_alpha   114.59323952
_cell_angle_beta   93.28393471
_cell_angle_gamma   101.57726636
_symmetry_Int_Tables_number   1
_chemical_formula_structural   Li3TiIn3Br7
_chemical_formula_sum   'Li3 Ti1 In3 Br7'
_cell_volume   200.87517697
_cell_formula_units_Z   1
loop_
 _symmetry_equiv_pos_site_id
 _symmetry_equiv_pos_as_xyz
  1  'x, y, z'
loop_
 _atom_site_type_symbol
 _atom_site_label
 _atom_site_symmetry_multiplicity
 _atom_site_fract_x
 _atom_site_fract_y
 _atom_site_fract_z
 _atom_site_occupancy
  Li  Li0  1  0.94120914  0.09560620  0.93200929  1
  Li  Li1  1  0.97572346  0.12788683  0.28468647  1
  Li  Li2  1  0.18011933  0.23603933  0.37223382  1
  Ti  Ti3  1  0.21299105  0.42856307  0.65155683  1
  In  In4  1  0.18827120  0.54086037  0.69799998  1
  In  In5  1  0.29357857  0.51053804  0.95445325  1
  In  In6  1  0.42331273  0.68714101  0.09525388  1
  Br  Br7  1  0.53803244  0.87086619  0.37750740  1
  Br  Br8  1  0.51114452  0.85387751  0.41802723  1
  Br  Br9  1  0.58610571  0.03353132  0.61358631  1
  Br  Br10  1  0.62386197  0.16667727  0.84410636  1
  Br  Br11  1  0.71752651  0.21404214  0.08455082  1
  Br  Br12  1  0.90852467  0.39211981  0.16648233  1
  Br  Br13  1  0.01679508  0.47909963  0.40535499  1
