# generated using pymatgen
data_LiAlO4
_symmetry_space_group_name_H-M   'P 1'
_cell_length_a   11.32775164
_cell_length_b   11.32775164
_cell_length_c   11.39568291
_cell_angle_alpha   90.00000000
_cell_angle_beta   90.00000000
_cell_angle_gamma   120.00000000
_symmetry_Int_Tables_number   1
_chemical_formula_structural   LiAlO4
_chemical_formula_sum   'Li1 Al1 O4'
_cell_volume   1266.36361782
_cell_formula_units_Z   1
loop_
 _symmetry_equiv_pos_site_id
 _symmetry_equiv_pos_as_xyz
  1  'x, y, z'
loop_
 _atom_site_type_symbol
 _atom_site_label
 _atom_site_symmetry_multiplicity
 _atom_site_fract_x
 _atom_site_fract_y
 _atom_site_fract_z
 _atom_site_occupancy
  Li  Li0  1  0.01370986  0.95988108  0.98007220  1
  Al  Al1  1  0.12908518  0.17558848  0.49140575  1
  O  O2  1  0.26724973  0.61424594  0.86812111  1
  O  O3  1  0.49718793  0.83083410  0.40684758  1
  O  O4  1  0.76340440  0.99814378  0.83066763  1
  O  O5  1  0.89170538  0.26498095  0.16849422  1
