# generated using pymatgen
data_LiTiO6
_symmetry_space_group_name_H-M   'P 1'
_cell_length_a   10.10254436
_cell_length_b   10.10254436
_cell_length_c   10.10254436
_cell_angle_alpha   90.00000000
_cell_angle_beta   90.00000000
_cell_angle_gamma   90.00000000
_symmetry_Int_Tables_number   1
_chemical_formula_structural   LiTiO6
_chemical_formula_sum   'Li1 Ti1 O6'
_cell_volume   1031.07984762
_cell_formula_units_Z   1
loop_
 _symmetry_equiv_pos_site_id
 _symmetry_equiv_pos_as_xyz
  1  'x, y, z'
loop_
 _atom_site_type_symbol
 _atom_site_label
 _atom_site_symmetry_multiplicity
 _atom_site_fract_x
 _atom_site_fract_y
 _atom_site_fract_z
 _atom_site_occupancy
  Li  Li0  1  0.98588227  0.07768514  0.05746877  1
  Ti  Ti1  1  0.22325291  0.21532046  0.32628014  1
  O  O2  1  0.15265802  0.36316587  0.56938038  1
  O  O3  1  0.38428472  0.52989169  0.04293633  1
  O  O4  1  0.48127122  0.82283009  0.26604343  1
  O  O5  1  0.71148062  0.02455535  0.61251022  1
  O  O6  1  0.82143728  0.22561256  0.00046856  1
  O  O7  1  0.85532759  0.36667222  0.22859995  1
