# generated using pymatgen
data_Li3(InCl3)2
_symmetry_space_group_name_H-M   'P 1'
_cell_length_a   3.87358694
_cell_length_b   4.41543614
_cell_length_c   6.08059982
_cell_angle_alpha   90.00000000
_cell_angle_beta   90.00000000
_cell_angle_gamma   90.00000000
_symmetry_Int_Tables_number   1
_chemical_formula_structural   Li3(InCl3)2
_chemical_formula_sum   'Li3 In2 Cl6'
_cell_volume   104.00000000
_cell_formula_units_Z   1
loop_
 _symmetry_equiv_pos_site_id
 _symmetry_equiv_pos_as_xyz
  1  'x, y, z'
loop_
 _atom_site_type_symbol
 _atom_site_label
 _atom_site_symmetry_multiplicity
 _atom_site_fract_x
 _atom_site_fract_y
 _atom_site_fract_z
 _atom_site_occupancy
  Li  Li0  1  0.96162001  0.96905551  0.90265068  1
  Li  Li1  1  0.01724323  0.19736336  0.26926078  1
  Li  Li2  1  0.25311221  0.26585418  0.56891937  1
  In  In3  1  0.34251317  0.50567598  0.67885862  1
  In  In4  1  0.28073928  0.52889506  0.93427025  1
  Cl  Cl5  1  0.49367160  0.76895446  0.28898184  1
  Cl  Cl6  1  0.45629085  0.85192192  0.36993029  1
  Cl  Cl7  1  0.70793589  0.99959470  0.60002583  1
  Cl  Cl8  1  0.67166441  0.07839454  0.90941255  1
  Cl  Cl9  1  0.80088766  0.29590054  0.21303594  1
  Cl  Cl10  1  0.95787941  0.53671817  0.28243715  1
