# generated using pymatgen
data_Li4Zr4Sc2N5
_symmetry_space_group_name_H-M   'P 1'
_cell_length_a   11.21787511
_cell_length_b   11.43565225
_cell_length_c   3.82149500
_cell_angle_alpha   114.82852549
_cell_angle_beta   93.62279724
_cell_angle_gamma   73.20045480
_symmetry_Int_Tables_number   1
_chemical_formula_structural   Li4Zr4Sc2N5
_chemical_formula_sum   'Li4 Zr4 Sc2 N5'
_cell_volume   424.97804488
_cell_formula_units_Z   1
loop_
 _symmetry_equiv_pos_site_id
 _symmetry_equiv_pos_as_xyz
  1  'x, y, z'
loop_
 _atom_site_type_symbol
 _atom_site_label
 _atom_site_symmetry_multiplicity
 _atom_site_fract_x
 _atom_site_fract_y
 _atom_site_fract_z
 _atom_site_occupancy
  Li  Li0  1  0.06723528  0.05076459  0.91211573  1
  Li  Li1  1  0.12729217  0.14127922  0.18126435  1
  Li  Li2  1  0.18187021  0.16507712  0.35578406  1
  Li  Li3  1  0.25840161  0.38304020  0.47791656  1
  Zr  Zr4  1  0.16888648  0.35276198  0.67632061  1
  Zr  Zr5  1  0.26618399  0.55589455  0.87100308  1
  Zr  Zr6  1  0.35877166  0.55099722  0.04636071  1
  Zr  Zr7  1  0.55595897  0.75395432  0.23317638  1
  Sc  Sc8  1  0.53892021  0.78127879  0.30689653  1
  Sc  Sc9  1  0.56192436  0.00799889  0.65502281  1
  N  N10  1  0.70850174  0.15979738  0.78605709  1
  N  N11  1  0.66229191  0.19720288  0.95953789  1
  N  N12  1  0.73425357  0.29760985  0.17137216  1
  N  N13  1  0.83603544  0.49464953  0.23783598  1
  N  N14  1  0.88888085  0.49618874  0.39362428  1
