# generated using pymatgen
data_Li2AlO3
_symmetry_space_group_name_H-M   'P 1'
_cell_length_a   5.88691969
_cell_length_b   5.88691969
_cell_length_c   6.65382224
_cell_angle_alpha   90.00000000
_cell_angle_beta   90.00000000
_cell_angle_gamma   120.00000000
_symmetry_Int_Tables_number   1
_chemical_formula_structural   Li2AlO3
_chemical_formula_sum   'Li2 Al1 O3'
_cell_volume   199.69999225
_cell_formula_units_Z   1
loop_
 _symmetry_equiv_pos_site_id
 _symmetry_equiv_pos_as_xyz
  1  'x, y, z'
loop_
 _atom_site_type_symbol
 _atom_site_label
 _atom_site_symmetry_multiplicity
 _atom_site_fract_x
 _atom_site_fract_y
 _atom_site_fract_z
 _atom_site_occupancy
  Li  Li0  1  0.90030905  0.90085452  0.05791542  1
  Li  Li1  1  0.22891940  0.21553458  0.49676061  1
  Al  Al2  1  0.29521208  0.48979445  0.89573425  1
  O  O3  1  0.59148437  0.73791282  0.22833836  1
  O  O4  1  0.58118009  0.09164068  0.83371822  1
  O  O5  1  0.79082842  0.38386923  0.20070417  1
