# generated using pymatgen
data_Li3TaF7
_symmetry_space_group_name_H-M   'P 1'
_cell_length_a   11.44876424
_cell_length_b   11.44876424
_cell_length_c   10.61844467
_cell_angle_alpha   90.00000000
_cell_angle_beta   90.00000000
_cell_angle_gamma   90.00000000
_symmetry_Int_Tables_number   1
_chemical_formula_structural   Li3TaF7
_chemical_formula_sum   'Li3 Ta1 F7'
_cell_volume   1391.80416760
_cell_formula_units_Z   1
loop_
 _symmetry_equiv_pos_site_id
 _symmetry_equiv_pos_as_xyz
  1  'x, y, z'
loop_
 _atom_site_type_symbol
 _atom_site_label
 _atom_site_symmetry_multiplicity
 _atom_site_fract_x
 _atom_site_fract_y
 _atom_site_fract_z
 _atom_site_occupancy
  Li  Li0  1  0.96167552  0.93408156  0.03767830  1
  Li  Li1  1  0.05255232  0.23545872  0.29314084  1
  Li  Li2  1  0.18746150  0.25091729  0.47333453  1
  Ta  Ta3  1  0.20093054  0.36688339  0.66172761  1
  F  F4  1  0.45010437  0.58320349  0.02561601  1
  F  F5  1  0.45707583  0.72883062  0.26712010  1
  F  F6  1  0.63173621  0.85846205  0.44623890  1
  F  F7  1  0.61455900  0.10838967  0.73566572  1
  F  F8  1  0.71201956  0.20344026  0.98440585  1
  F  F9  1  0.86439614  0.23484710  0.09648049  1
  F  F10  1  0.93207261  0.47647161  0.46776396  1
