# generated using pymatgen
data_Li5LaNbO6
_symmetry_space_group_name_H-M   'P 1'
_cell_length_a   11.96486222
_cell_length_b   11.96486222
_cell_length_c   12.61436433
_cell_angle_alpha   90.00000000
_cell_angle_beta   90.00000000
_cell_angle_gamma   90.00000000
_symmetry_Int_Tables_number   1
_chemical_formula_structural   Li5LaNbO6
_chemical_formula_sum   'Li5 La1 Nb1 O6'
_cell_volume   1805.84625877
_cell_formula_units_Z   1
loop_
 _symmetry_equiv_pos_site_id
 _symmetry_equiv_pos_as_xyz
  1  'x, y, z'
loop_
 _atom_site_type_symbol
 _atom_site_label
 _atom_site_symmetry_multiplicity
 _atom_site_fract_x
 _atom_site_fract_y
 _atom_site_fract_z
 _atom_site_occupancy
  Li  Li0  1  0.97646930  0.07373060  0.97663396  1
  Li  Li1  1  0.98606896  0.08216689  0.23989167  1
  Li  Li2  1  0.14691690  0.33086963  0.45561089  1
  Li  Li3  1  0.32868127  0.37329008  0.59124075  1
  Li  Li4  1  0.25805808  0.41449307  0.79746777  1
  Nb  Nb5  1  0.31595673  0.52329074  0.04799166  1
  O  O6  1  0.38037518  0.80244252  0.11868378  1
  O  O7  1  0.50858127  0.80122436  0.40171957  1
  O  O8  1  0.57727401  0.07341747  0.55407768  1
  O  O9  1  0.61300372  0.15274370  0.90224630  1
  O  O10  1  0.77840767  0.24138881  0.99423051  1
  O  O11  1  0.81098984  0.28195040  0.16285504  1
  La  La12  1  0.95022297  0.46910791  0.48612162  1
