# generated using pymatgen
data_Li5La(TiCl4)2
_symmetry_space_group_name_H-M   'P 1'
_cell_length_a   9.85615399
_cell_length_b   9.85615399
_cell_length_c   9.18976563
_cell_angle_alpha   90.00000000
_cell_angle_beta   90.00000000
_cell_angle_gamma   90.00000000
_symmetry_Int_Tables_number   1
_chemical_formula_structural   Li5La(TiCl4)2
_chemical_formula_sum   'Li5 La1 Ti2 Cl8'
_cell_volume   892.72849259
_cell_formula_units_Z   1
loop_
 _symmetry_equiv_pos_site_id
 _symmetry_equiv_pos_as_xyz
  1  'x, y, z'
loop_
 _atom_site_type_symbol
 _atom_site_label
 _atom_site_symmetry_multiplicity
 _atom_site_fract_x
 _atom_site_fract_y
 _atom_site_fract_z
 _atom_site_occupancy
  Li  Li0  1  0.96116749  0.96501013  0.06467445  1
  Li  Li1  1  0.07941070  0.13610460  0.11580019  1
  Li  Li2  1  0.20309490  0.28026264  0.40107453  1
  Li  Li3  1  0.21438477  0.23217378  0.41788211  1
  Li  Li4  1  0.24224056  0.41684106  0.64049713  1
  Ti  Ti5  1  0.37327943  0.45471295  0.80009008  1
  Ti  Ti6  1  0.47062211  0.68831623  0.92212076  1
  Cl  Cl7  1  0.38820244  0.79020940  0.20731268  1
  Cl  Cl8  1  0.59578860  0.80274596  0.23764006  1
  Cl  Cl9  1  0.47393396  0.83695388  0.48251507  1
  Cl  Cl10  1  0.62355477  0.10494750  0.64137330  1
  Cl  Cl11  1  0.70328674  0.09405694  0.77500860  1
  Cl  Cl12  1  0.73209923  0.12746163  0.04547747  1
  Cl  Cl13  1  0.82344645  0.35321589  0.21291874  1
  Cl  Cl14  1  0.82556859  0.51545770  0.20295035  1
  La  La15  1  0.84282614  0.47623293  0.53091143  1
