# generated using pymatgen
data_Li6Al4P3
_symmetry_space_group_name_H-M   'P 1'
_cell_length_a   7.91401945
_cell_length_b   9.01989948
_cell_length_c   8.15828964
_cell_angle_alpha   90.00000000
_cell_angle_beta   90.00000000
_cell_angle_gamma   90.00000000
_symmetry_Int_Tables_number   1
_chemical_formula_structural   Li6Al4P3
_chemical_formula_sum   'Li6 Al4 P3'
_cell_volume   582.36857326
_cell_formula_units_Z   1
loop_
 _symmetry_equiv_pos_site_id
 _symmetry_equiv_pos_as_xyz
  1  'x, y, z'
loop_
 _atom_site_type_symbol
 _atom_site_label
 _atom_site_symmetry_multiplicity
 _atom_site_fract_x
 _atom_site_fract_y
 _atom_site_fract_z
 _atom_site_occupancy
  Li  Li0  1  0.09588052  0.99130768  0.97394813  1
  Li  Li1  1  0.14174106  0.22233714  0.23546458  1
  Li  Li2  1  0.22589588  0.32111006  0.33413346  1
  Li  Li3  1  0.13320363  0.33569629  0.62248358  1
  Li  Li4  1  0.25007822  0.46587287  0.71921246  1
  Li  Li5  1  0.44927583  0.55044305  0.91135956  1
  Al  Al6  1  0.55945929  0.75680039  0.16154904  1
  Al  Al7  1  0.57754203  0.80735693  0.37470415  1
  Al  Al8  1  0.71210742  0.01520633  0.51934262  1
  Al  Al9  1  0.63428696  0.19528625  0.75385606  1
  P  P10  1  0.82457656  0.30321105  0.02033172  1
  P  P11  1  0.82391542  0.44587855  0.31209613  1
  P  P12  1  0.99016710  0.52041251  0.41508947  1
