# generated using pymatgen
data_LiAlO5
_symmetry_space_group_name_H-M   'P 1'
_cell_length_a   9.22688713
_cell_length_b   9.22688713
_cell_length_c   15.36972182
_cell_angle_alpha   90.00000000
_cell_angle_beta   90.00000000
_cell_angle_gamma   120.00000000
_symmetry_Int_Tables_number   1
_chemical_formula_structural   LiAlO5
_chemical_formula_sum   'Li1 Al1 O5'
_cell_volume   1133.20127559
_cell_formula_units_Z   1
loop_
 _symmetry_equiv_pos_site_id
 _symmetry_equiv_pos_as_xyz
  1  'x, y, z'
loop_
 _atom_site_type_symbol
 _atom_site_label
 _atom_site_symmetry_multiplicity
 _atom_site_fract_x
 _atom_site_fract_y
 _atom_site_fract_z
 _atom_site_occupancy
  Li  Li0  1  0.06869106  0.96326551  0.05367029  1
  Al  Al1  1  0.22214608  0.23225249  0.42100658  1
  O  O2  1  0.32016806  0.54103424  0.65105905  1
  O  O3  1  0.46987853  0.79233284  0.15216751  1
  O  O4  1  0.59691473  0.85987624  0.46816956  1
  O  O5  1  0.67065223  0.16922190  0.83851231  1
  O  O6  1  0.83072758  0.38077012  0.33050557  1
