# generated using pymatgen
data_Li3AlO3
_symmetry_space_group_name_H-M   'P 1'
_cell_length_a   11.05432096
_cell_length_b   11.05432096
_cell_length_c   10.99217247
_cell_angle_alpha   90.00000000
_cell_angle_beta   90.00000000
_cell_angle_gamma   120.00000000
_symmetry_Int_Tables_number   1
_chemical_formula_structural   Li3AlO3
_chemical_formula_sum   'Li3 Al1 O3'
_cell_volume   1163.26404894
_cell_formula_units_Z   1
loop_
 _symmetry_equiv_pos_site_id
 _symmetry_equiv_pos_as_xyz
  1  'x, y, z'
loop_
 _atom_site_type_symbol
 _atom_site_label
 _atom_site_symmetry_multiplicity
 _atom_site_fract_x
 _atom_site_fract_y
 _atom_site_fract_z
 _atom_site_occupancy
  Li  Li0  1  0.01643150  0.92665990  0.99817268  1
  Li  Li1  1  0.04766083  0.23851654  0.37100515  1
  Li  Li2  1  0.33149095  0.40707103  0.67287066  1
  Al  Al3  1  0.42395745  0.77165793  0.21446790  1
  O  O4  1  0.63720650  0.82727474  0.43012651  1
  O  O5  1  0.69076517  0.10863375  0.96936876  1
  O  O6  1  0.79192504  0.42147184  0.23396173  1
