# generated using pymatgen
data_Na5Sc3P5
_symmetry_space_group_name_H-M   'P 1'
_cell_length_a   8.07889471
_cell_length_b   14.90911155
_cell_length_c   7.79410860
_cell_angle_alpha   108.83596864
_cell_angle_beta   68.60087637
_cell_angle_gamma   77.81631003
_symmetry_Int_Tables_number   1
_chemical_formula_structural   Na5Sc3P5
_chemical_formula_sum   'Na5 Sc3 P5'
_cell_volume   767.50263373
_cell_formula_units_Z   1
loop_
 _symmetry_equiv_pos_site_id
 _symmetry_equiv_pos_as_xyz
  1  'x, y, z'
loop_
 _atom_site_type_symbol
 _atom_site_label
 _atom_site_symmetry_multiplicity
 _atom_site_fract_x
 _atom_site_fract_y
 _atom_site_fract_z
 _atom_site_occupancy
  Na  Na0  1  0.90012215  0.09089006  0.08629923  1
  Na  Na1  1  0.00110034  0.10008679  0.28461067  1
  Na  Na2  1  0.25164227  0.18771722  0.35888035  1
  Na  Na3  1  0.30016419  0.46053412  0.68040971  1
  Na  Na4  1  0.37173363  0.41166052  0.72445175  1
  Sc  Sc5  1  0.37433388  0.56022628  0.96934674  1
  Sc  Sc6  1  0.55996233  0.79442335  0.26287913  1
  Sc  Sc7  1  0.57855683  0.87674725  0.32719063  1
  P  P8  1  0.66794822  0.98157457  0.68876206  1
  P  P9  1  0.74977647  0.21840676  0.82553200  1
  P  P10  1  0.76826090  0.14727340  0.97251202  1
  P  P11  1  0.76103422  0.37836164  0.13837246  1
  P  P12  1  0.98426325  0.47480969  0.43044547  1
