# generated using pymatgen
data_Li3SiS5
_symmetry_space_group_name_H-M   'P 1'
_cell_length_a   4.00941787
_cell_length_b   4.00941787
_cell_length_c   5.84743241
_cell_angle_alpha   90.00000000
_cell_angle_beta   90.00000000
_cell_angle_gamma   90.00000000
_symmetry_Int_Tables_number   1
_chemical_formula_structural   Li3SiS5
_chemical_formula_sum   'Li3 Si1 S5'
_cell_volume   94.00000000
_cell_formula_units_Z   1
loop_
 _symmetry_equiv_pos_site_id
 _symmetry_equiv_pos_as_xyz
  1  'x, y, z'
loop_
 _atom_site_type_symbol
 _atom_site_label
 _atom_site_symmetry_multiplicity
 _atom_site_fract_x
 _atom_site_fract_y
 _atom_site_fract_z
 _atom_site_occupancy
  Li  Li0  1  0.94709382  0.92114993  0.09243886  1
  Li  Li1  1  0.02334698  0.23715647  0.22135126  1
  Li  Li2  1  0.28042673  0.42626427  0.60995090  1
  Si  Si3  1  0.33162831  0.51649371  0.93755110  1
  S  S4  1  0.37438307  0.77433623  0.18762917  1
  S  S5  1  0.50975682  0.93923780  0.45170278  1
  S  S6  1  0.65060111  0.08390283  0.65009850  1
  S  S7  1  0.71466407  0.19358207  0.11140394  1
  S  S8  1  0.94301941  0.48925032  0.27285849  1
