# generated using pymatgen
data_Li3AlO4
_symmetry_space_group_name_H-M   'P 1'
_cell_length_a   8.50419327
_cell_length_b   8.50419327
_cell_length_c   8.90605770
_cell_angle_alpha   90.00000000
_cell_angle_beta   90.00000000
_cell_angle_gamma   120.00000000
_symmetry_Int_Tables_number   1
_chemical_formula_structural   Li3AlO4
_chemical_formula_sum   'Li3 Al1 O4'
_cell_volume   557.80497000
_cell_formula_units_Z   1
loop_
 _symmetry_equiv_pos_site_id
 _symmetry_equiv_pos_as_xyz
  1  'x, y, z'
loop_
 _atom_site_type_symbol
 _atom_site_label
 _atom_site_symmetry_multiplicity
 _atom_site_fract_x
 _atom_site_fract_y
 _atom_site_fract_z
 _atom_site_occupancy
  Li  Li0  1  0.09560620  0.93200929  0.90429489  1
  Li  Li1  1  0.13731540  0.29993647  0.36451219  1
  Li  Li2  1  0.25489648  0.40273382  0.65320534  1
  Al  Al3  1  0.45684878  0.69730683  0.88430692  1
  O  O4  1  0.57857466  0.75899998  0.24543571  1
  O  O5  1  0.55768089  0.03070325  0.63099130  1
  O  O6  1  0.74371244  0.18675388  0.00153244  1
  O  O7  1  0.93686619  0.48425740  0.23046595  1
