# generated using pymatgen
data_Li3LaP10
_symmetry_space_group_name_H-M   'P 1'
_cell_length_a   4.44129532
_cell_length_b   13.79967705
_cell_length_c   9.78003257
_cell_angle_alpha   98.61508288
_cell_angle_beta   80.53557277
_cell_angle_gamma   103.57823738
_symmetry_Int_Tables_number   1
_chemical_formula_structural   Li3LaP10
_chemical_formula_sum   'Li3 La1 P10'
_cell_volume   570.84114255
_cell_formula_units_Z   1
loop_
 _symmetry_equiv_pos_site_id
 _symmetry_equiv_pos_as_xyz
  1  'x, y, z'
loop_
 _atom_site_type_symbol
 _atom_site_label
 _atom_site_symmetry_multiplicity
 _atom_site_fract_x
 _atom_site_fract_y
 _atom_site_fract_z
 _atom_site_occupancy
  Li  Li0  1  0.91530583  0.06036521  0.99186871  1
  Li  Li1  1  0.07321666  0.14072732  0.14003297  1
  Li  Li2  1  0.07524574  0.17116271  0.44500097  1
  La  La3  1  0.26980511  0.38259595  0.49849729  1
  P  P4  1  0.32841297  0.47535957  0.73413232  1
  P  P5  1  0.36526480  0.55414746  0.91978901  1
  P  P6  1  0.52615607  0.67703569  0.03349046  1
  P  P7  1  0.43190108  0.85810438  0.33197087  1
  P  P8  1  0.57393014  0.97428791  0.58182975  1
  P  P9  1  0.68291974  0.01161976  0.64452176  1
  P  P10  1  0.61794900  0.06856205  0.93507566  1
  P  P11  1  0.76145520  0.31558058  0.00359988  1
  P  P12  1  0.88599021  0.35702176  0.19996992  1
  P  P13  1  0.89131325  0.48080592  0.52618469  1
