# generated using pymatgen
data_Li3Y2Ti3O7
_symmetry_space_group_name_H-M   'P 1'
_cell_length_a   12.33712735
_cell_length_b   12.33712735
_cell_length_c   13.10850004
_cell_angle_alpha   90.00000000
_cell_angle_beta   90.00000000
_cell_angle_gamma   90.00000000
_symmetry_Int_Tables_number   1
_chemical_formula_structural   Li3Y2Ti3O7
_chemical_formula_sum   'Li3 Y2 Ti3 O7'
_cell_volume   1995.17546423
_cell_formula_units_Z   1
loop_
 _symmetry_equiv_pos_site_id
 _symmetry_equiv_pos_as_xyz
  1  'x, y, z'
loop_
 _atom_site_type_symbol
 _atom_site_label
 _atom_site_symmetry_multiplicity
 _atom_site_fract_x
 _atom_site_fract_y
 _atom_site_fract_z
 _atom_site_occupancy
  Li  Li0  1  0.00846651  0.04134367  0.08370897  1
  Li  Li1  1  0.08833044  0.04212499  0.27447062  1
  Li  Li2  1  0.20260628  0.16107306  0.32672255  1
  Ti  Ti3  1  0.24236080  0.26385145  0.43419522  1
  Ti  Ti4  1  0.33509587  0.43577803  0.73866966  1
  Ti  Ti5  1  0.33899148  0.49746246  0.92000960  1
  O  O6  1  0.45152833  0.59774044  0.96130391  1
  O  O7  1  0.53634185  0.74088612  0.22250540  1
  O  O8  1  0.48860654  0.90399647  0.40797744  1
  O  O9  1  0.68377552  0.00202442  0.54420535  1
  O  O10  1  0.71936505  0.04998547  0.69103511  1
  O  O11  1  0.81278683  0.17937543  0.97410646  1
  O  O12  1  0.82302052  0.31135357  0.07125393  1
  Y  Y13  1  0.91505923  0.34948776  0.31147894  1
  Y  Y14  1  0.97242105  0.60035544  0.54082273  1
