# generated using pymatgen
data_Li2TaInF4
_symmetry_space_group_name_H-M   'P 1'
_cell_length_a   9.55896534
_cell_length_b   9.55896534
_cell_length_c   10.49080727
_cell_angle_alpha   90.00000000
_cell_angle_beta   90.00000000
_cell_angle_gamma   90.00000000
_symmetry_Int_Tables_number   1
_chemical_formula_structural   Li2TaInF4
_chemical_formula_sum   'Li4 Ta2 In2 F8'
_cell_volume   958.58511720
_cell_formula_units_Z   2
loop_
 _symmetry_equiv_pos_site_id
 _symmetry_equiv_pos_as_xyz
  1  'x, y, z'
loop_
 _atom_site_type_symbol
 _atom_site_label
 _atom_site_symmetry_multiplicity
 _atom_site_fract_x
 _atom_site_fract_y
 _atom_site_fract_z
 _atom_site_occupancy
  Li  Li0  1  0.00827934  0.97609886  0.05145758  1
  Li  Li1  1  0.09157846  0.18973566  0.13496748  1
  Li  Li2  1  0.04563455  0.19684249  0.25502877  1
  Li  Li3  1  0.28339430  0.24069010  0.44505120  1
  Ta  Ta4  1  0.26622470  0.43374425  0.60047841  1
  Ta  Ta5  1  0.23693424  0.58080904  0.82171212  1
  F  F6  1  0.45409671  0.62511552  0.02406229  1
  F  F7  1  0.43183302  0.68216440  0.06736195  1
  F  F8  1  0.51269641  0.80497441  0.31989365  1
  F  F9  1  0.49912098  0.91483741  0.43774973  1
  F  F10  1  0.59955051  0.97087929  0.55895156  1
  F  F11  1  0.70327047  0.10034103  0.77356583  1
  F  F12  1  0.73974353  0.31117237  0.88911627  1
  F  F13  1  0.71738116  0.30761695  0.03834231  1
  In  In14  1  0.90809090  0.45504338  0.27376731  1
  In  In15  1  0.84186487  0.46908866  0.37029284  1
