# generated using pymatgen
data_Li4Al4In2(P2N3)3
_symmetry_space_group_name_H-M   'P 1'
_cell_length_a   7.88074299
_cell_length_b   7.72793377
_cell_length_c   13.19005900
_cell_angle_alpha   61.33507797
_cell_angle_beta   81.99455453
_cell_angle_gamma   68.74992305
_symmetry_Int_Tables_number   1
_chemical_formula_structural   Li4Al4In2(P2N3)3
_chemical_formula_sum   'Li4 Al4 In2 P6 N9'
_cell_volume   656.33450721
_cell_formula_units_Z   1
loop_
 _symmetry_equiv_pos_site_id
 _symmetry_equiv_pos_as_xyz
  1  'x, y, z'
loop_
 _atom_site_type_symbol
 _atom_site_label
 _atom_site_symmetry_multiplicity
 _atom_site_fract_x
 _atom_site_fract_y
 _atom_site_fract_z
 _atom_site_occupancy
  Li  Li0  1  0.92698870  0.08267060  0.90793684  1
  Li  Li1  1  0.11498801  0.08311241  0.19680153  1
  Li  Li2  1  0.03526676  0.20385123  0.18981288  1
  Li  Li3  1  0.09267923  0.26141497  0.41010819  1
  In  In4  1  0.24787118  0.20345901  0.41654070  1
  In  In5  1  0.21418961  0.41403552  0.43895755  1
  Al  Al6  1  0.20045285  0.29412787  0.56954493  1
  Al  Al7  1  0.36509577  0.53619893  0.67133334  1
  Al  Al8  1  0.22041781  0.50654985  0.93201508  1
  Al  Al9  1  0.45402999  0.53168730  0.90107622  1
  P  P10  1  0.41343678  0.62153119  0.08325185  1
  P  P11  1  0.43663112  0.67896648  0.05359747  1
  P  P12  1  0.48994814  0.70966328  0.18468656  1
  P  P13  1  0.44964007  0.87899709  0.39290658  1
  P  P14  1  0.64589457  0.98109998  0.43457061  1
  P  P15  1  0.65518216  0.93699773  0.64555279  1
  N  N16  1  0.61913025  0.05258366  0.61062557  1
  N  N17  1  0.70562888  0.19951437  0.79953383  1
  N  N18  1  0.77751640  0.16608216  0.94505371  1
  N  N19  1  0.72592596  0.29194342  0.03075721  1
  N  N20  1  0.80776763  0.29539926  0.10900834  1
  N  N21  1  0.90947159  0.35077674  0.15405564  1
  N  N22  1  0.89536346  0.46279850  0.37511105  1
  N  N23  1  0.88891209  0.44894650  0.33317736  1
  N  N24  1  0.00709121  0.62467053  0.43897188  1
