# generated using pymatgen
data_Li6ZrInS7
_symmetry_space_group_name_H-M   'P 1'
_cell_length_a   11.30805215
_cell_length_b   11.30805215
_cell_length_c   11.43207124
_cell_angle_alpha   90.00000000
_cell_angle_beta   90.00000000
_cell_angle_gamma   90.00000000
_symmetry_Int_Tables_number   1
_chemical_formula_structural   Li6ZrInS7
_chemical_formula_sum   'Li6 Zr1 In1 S7'
_cell_volume   1461.84230992
_cell_formula_units_Z   1
loop_
 _symmetry_equiv_pos_site_id
 _symmetry_equiv_pos_as_xyz
  1  'x, y, z'
loop_
 _atom_site_type_symbol
 _atom_site_label
 _atom_site_symmetry_multiplicity
 _atom_site_fract_x
 _atom_site_fract_y
 _atom_site_fract_z
 _atom_site_occupancy
  Li  Li0  1  0.03441328  0.08514859  0.93278310  1
  Li  Li1  1  0.06688832  0.18623301  0.16924682  1
  Li  Li2  1  0.09519040  0.23379699  0.31690048  1
  Li  Li3  1  0.18572636  0.26547049  0.43593919  1
  Li  Li4  1  0.31529909  0.42809250  0.78112435  1
  Li  Li5  1  0.42155680  0.54863482  0.79670940  1
  Zr  Zr6  1  0.43003977  0.73784677  0.09133589  1
  S  S7  1  0.37530836  0.84374400  0.22666059  1
  S  S8  1  0.45419080  0.87478343  0.32224248  1
  S  S9  1  0.52030751  0.06688600  0.52339527  1
  S  S10  1  0.63541364  0.16677627  0.73278362  1
  S  S11  1  0.66501331  0.13608317  0.92273332  1
  S  S12  1  0.72223283  0.23812070  0.06372164  1
  S  S13  1  0.86481931  0.40323599  0.19635594  1
  In  In14  1  0.85444116  0.48233341  0.41513173  1
