# generated using pymatgen
data_Li4ZrCl8
_symmetry_space_group_name_H-M   'P 1'
_cell_length_a   10.51523346
_cell_length_b   10.51523346
_cell_length_c   11.43406004
_cell_angle_alpha   90.00000000
_cell_angle_beta   90.00000000
_cell_angle_gamma   90.00000000
_symmetry_Int_Tables_number   1
_chemical_formula_structural   Li4ZrCl8
_chemical_formula_sum   'Li4 Zr1 Cl8'
_cell_volume   1264.26555826
_cell_formula_units_Z   1
loop_
 _symmetry_equiv_pos_site_id
 _symmetry_equiv_pos_as_xyz
  1  'x, y, z'
loop_
 _atom_site_type_symbol
 _atom_site_label
 _atom_site_symmetry_multiplicity
 _atom_site_fract_x
 _atom_site_fract_y
 _atom_site_fract_z
 _atom_site_occupancy
  Li  Li0  1  0.04134568  0.08046590  0.02504874  1
  Li  Li1  1  0.08989251  0.15874558  0.18310164  1
  Li  Li2  1  0.10158534  0.22097490  0.42619260  1
  Li  Li3  1  0.13223176  0.40164351  0.55183472  1
  Zr  Zr4  1  0.28352272  0.50681953  0.75009400  1
  Cl  Cl5  1  0.42261692  0.61836751  0.93507941  1
  Cl  Cl6  1  0.48876936  0.76414011  0.24664534  1
  Cl  Cl7  1  0.45904162  0.81136631  0.44863602  1
  Cl  Cl8  1  0.63770349  0.05984126  0.54548915  1
  Cl  Cl9  1  0.66109881  0.14531358  0.74831721  1
  Cl  Cl10  1  0.67606844  0.23120878  0.02785227  1
  Cl  Cl11  1  0.80965690  0.45562582  0.24614935  1
  Cl  Cl12  1  0.99507032  0.49660469  0.49465188  1
