# generated using pymatgen
data_LiAlO4
_symmetry_space_group_name_H-M   'P 1'
_cell_length_a   7.43277794
_cell_length_b   7.43277794
_cell_length_c   10.44032056
_cell_angle_alpha   90.00000000
_cell_angle_beta   90.00000000
_cell_angle_gamma   120.00000000
_symmetry_Int_Tables_number   1
_chemical_formula_structural   LiAlO4
_chemical_formula_sum   'Li1 Al1 O4'
_cell_volume   499.51298352
_cell_formula_units_Z   1
loop_
 _symmetry_equiv_pos_site_id
 _symmetry_equiv_pos_as_xyz
  1  'x, y, z'
loop_
 _atom_site_type_symbol
 _atom_site_label
 _atom_site_symmetry_multiplicity
 _atom_site_fract_x
 _atom_site_fract_y
 _atom_site_fract_z
 _atom_site_occupancy
  Li  Li0  1  0.95527320  0.04106313  0.01171077  1
  Al  Al1  1  0.25044219  0.30089109  0.40973868  1
  O  O2  1  0.38603172  0.51065214  0.81836844  1
  O  O3  1  0.57945350  0.80184210  0.36323979  1
  O  O4  1  0.68968718  0.09562024  0.72218727  1
  O  O5  1  0.88172590  0.29555442  0.22421227  1
