# generated using pymatgen
data_Li2TiO3
_symmetry_space_group_name_H-M   'P 1'
_cell_length_a   8.33117353
_cell_length_b   8.33117353
_cell_length_c   8.33117353
_cell_angle_alpha   90.00000000
_cell_angle_beta   90.00000000
_cell_angle_gamma   90.00000000
_symmetry_Int_Tables_number   1
_chemical_formula_structural   Li2TiO3
_chemical_formula_sum   'Li2 Ti1 O3'
_cell_volume   578.25386138
_cell_formula_units_Z   1
loop_
 _symmetry_equiv_pos_site_id
 _symmetry_equiv_pos_as_xyz
  1  'x, y, z'
loop_
 _atom_site_type_symbol
 _atom_site_label
 _atom_site_symmetry_multiplicity
 _atom_site_fract_x
 _atom_site_fract_y
 _atom_site_fract_z
 _atom_site_occupancy
  Li  Li0  1  0.97609886  0.05145758  0.02907846  1
  Li  Li1  1  0.25527733  0.24100914  0.35696789  1
  Ti  Ti2  1  0.32792582  0.46711210  0.96856097  1
  O  O3  1  0.43731510  0.76317620  0.32522470  1
  O  O4  1  0.69591092  0.02464508  0.66976757  1
  O  O5  1  0.90851737  0.35192045  0.26076337  1
