# generated using pymatgen
data_Li4NbO9
_symmetry_space_group_name_H-M   'P 1'
_cell_length_a   8.74229116
_cell_length_b   8.74229116
_cell_length_c   8.57963179
_cell_angle_alpha   90.00000000
_cell_angle_beta   90.00000000
_cell_angle_gamma   90.00000000
_symmetry_Int_Tables_number   1
_chemical_formula_structural   Li4NbO9
_chemical_formula_sum   'Li4 Nb1 O9'
_cell_volume   655.72113697
_cell_formula_units_Z   1
loop_
 _symmetry_equiv_pos_site_id
 _symmetry_equiv_pos_as_xyz
  1  'x, y, z'
loop_
 _atom_site_type_symbol
 _atom_site_label
 _atom_site_symmetry_multiplicity
 _atom_site_fract_x
 _atom_site_fract_y
 _atom_site_fract_z
 _atom_site_occupancy
  Li  Li0  1  0.96758826  0.91231336  0.95560061  1
  Li  Li1  1  0.00593400  0.21366054  0.22158445  1
  Li  Li2  1  0.22990070  0.32821529  0.34536009  1
  Li  Li3  1  0.28662301  0.29251333  0.60896684  1
  Nb  Nb4  1  0.25498310  0.49558259  0.80630036  1
  O  O5  1  0.35802877  0.58144926  0.96825808  1
  O  O6  1  0.46696349  0.74392099  0.09299293  1
  O  O7  1  0.55205859  0.78536021  0.32140337  1
  O  O8  1  0.58325452  0.86628632  0.42519498  1
  O  O9  1  0.60240659  0.12146124  0.65886627  1
  O  O10  1  0.72178170  0.07819749  0.81167607  1
  O  O11  1  0.81320098  0.24147254  0.98168858  1
  O  O12  1  0.86193635  0.36115424  0.27738296  1
  O  O13  1  0.01757343  0.56313498  0.52254787  1
