# generated using pymatgen
data_Li3La3(NF)2
_symmetry_space_group_name_H-M   'P 1'
_cell_length_a   5.11837921
_cell_length_b   5.09542063
_cell_length_c   6.05498816
_cell_angle_alpha   90.00000000
_cell_angle_beta   90.00000000
_cell_angle_gamma   90.00000000
_symmetry_Int_Tables_number   1
_chemical_formula_structural   Li3La3(NF)2
_chemical_formula_sum   'Li3 La3 N2 F2'
_cell_volume   157.91587764
_cell_formula_units_Z   1
loop_
 _symmetry_equiv_pos_site_id
 _symmetry_equiv_pos_as_xyz
  1  'x, y, z'
loop_
 _atom_site_type_symbol
 _atom_site_label
 _atom_site_symmetry_multiplicity
 _atom_site_fract_x
 _atom_site_fract_y
 _atom_site_fract_z
 _atom_site_occupancy
  Li  Li0  1  0.90600276  0.01616107  0.06295734  1
  Li  Li1  1  0.06195108  0.17166846  0.22582127  1
  Li  Li2  1  0.25607435  0.38231326  0.59258732  1
  La  La3  1  0.33241927  0.40418846  0.86981766  1
  La  La4  1  0.37589961  0.69712175  0.14133530  1
  La  La5  1  0.51088355  0.90471100  0.24134768  1
  F  F6  1  0.56614005  0.97168966  0.47422704  1
  F  F7  1  0.64757468  0.06422762  0.84273180  1
  N  N8  1  0.70882372  0.34421585  0.11584269  1
  N  N9  1  0.91576549  0.39304074  0.29229801  1
