# generated using pymatgen
data_Li3YBr4
_symmetry_space_group_name_H-M   'P 1'
_cell_length_a   4.08429029
_cell_length_b   4.51957821
_cell_length_c   4.98394590
_cell_angle_alpha   90.00000000
_cell_angle_beta   90.00000000
_cell_angle_gamma   90.00000000
_symmetry_Int_Tables_number   1
_chemical_formula_structural   Li3YBr4
_chemical_formula_sum   'Li3 Y1 Br4'
_cell_volume   92.00000000
_cell_formula_units_Z   1
loop_
 _symmetry_equiv_pos_site_id
 _symmetry_equiv_pos_as_xyz
  1  'x, y, z'
loop_
 _atom_site_type_symbol
 _atom_site_label
 _atom_site_symmetry_multiplicity
 _atom_site_fract_x
 _atom_site_fract_y
 _atom_site_fract_z
 _atom_site_occupancy
  Li  Li0  1  0.05126123  0.08926090  0.98257625  1
  Li  Li1  1  0.16901870  0.12882634  0.32711984  1
  Li  Li2  1  0.18140843  0.34113930  0.71104303  1
  Y  Y3  1  0.46728951  0.65019343  0.06905161  1
  Br  Br4  1  0.53347613  0.83519741  0.21709820  1
  Br  Br5  1  0.53961679  0.96423504  0.61008414  1
  Br  Br6  1  0.78906242  0.15943997  0.90400017  1
  Br  Br7  1  0.81634096  0.49829906  0.26892846  1
