# generated using pymatgen
data_Li3TaO7
_symmetry_space_group_name_H-M   'P 1'
_cell_length_a   4.72452217
_cell_length_b   7.90731555
_cell_length_c   9.16318652
_cell_angle_alpha   61.74718320
_cell_angle_beta   99.20165345
_cell_angle_gamma   103.28768745
_symmetry_Int_Tables_number   1
_chemical_formula_structural   Li3TaO7
_chemical_formula_sum   'Li3 Ta1 O7'
_cell_volume   292.94462788
_cell_formula_units_Z   1
loop_
 _symmetry_equiv_pos_site_id
 _symmetry_equiv_pos_as_xyz
  1  'x, y, z'
loop_
 _atom_site_type_symbol
 _atom_site_label
 _atom_site_symmetry_multiplicity
 _atom_site_fract_x
 _atom_site_fract_y
 _atom_site_fract_z
 _atom_site_occupancy
  Li  Li0  1  0.02417070  0.04596485  0.91727176  1
  Li  Li1  1  0.16365518  0.13400212  0.32555939  1
  Li  Li2  1  0.21566862  0.37676310  0.52635652  1
  Ta  Ta3  1  0.27419694  0.49755823  0.65409020  1
  O  O4  1  0.32971768  0.58389694  0.97370516  1
  O  O5  1  0.46290377  0.75894903  0.23030588  1
  O  O6  1  0.58680023  0.96301136  0.45304874  1
  O  O7  1  0.64933307  0.06392040  0.64771703  1
  O  O8  1  0.67501191  0.14877909  0.92742337  1
  O  O9  1  0.71964434  0.35207708  0.08968087  1
  O  O10  1  0.88492132  0.47988246  0.32455554  1
