# generated using pymatgen
data_Li5PS4
_symmetry_space_group_name_H-M   'P 1'
_cell_length_a   4.57885697
_cell_length_b   4.57885697
_cell_length_c   4.57885697
_cell_angle_alpha   90.00000000
_cell_angle_beta   90.00000000
_cell_angle_gamma   90.00000000
_symmetry_Int_Tables_number   1
_chemical_formula_structural   Li5PS4
_chemical_formula_sum   'Li5 P1 S4'
_cell_volume   96.00000000
_cell_formula_units_Z   1
loop_
 _symmetry_equiv_pos_site_id
 _symmetry_equiv_pos_as_xyz
  1  'x, y, z'
loop_
 _atom_site_type_symbol
 _atom_site_label
 _atom_site_symmetry_multiplicity
 _atom_site_fract_x
 _atom_site_fract_y
 _atom_site_fract_z
 _atom_site_occupancy
  Li  Li0  1  0.05685839  0.91570838  0.04447814  1
  Li  Li1  1  0.05281283  0.11733122  0.16716630  1
  Li  Li2  1  0.13912276  0.41888160  0.62034081  1
  Li  Li3  1  0.34430802  0.51280676  0.76725949  1
  Li  Li4  1  0.36559037  0.59896810  0.07685734  1
  P  P5  1  0.53732456  0.83734832  0.22777392  1
  S  S6  1  0.64089522  0.91358731  0.61164619  1
  S  S7  1  0.62666503  0.14573935  0.77505626  1
  S  S8  1  0.73597023  0.21505212  0.12396947  1
  S  S9  1  0.96886931  0.45144861  0.39217745  1
