# generated using pymatgen
data_Li2TiO3
_symmetry_space_group_name_H-M   'P 1'
_cell_length_a   7.00295443
_cell_length_b   7.00295443
_cell_length_c   7.00295443
_cell_angle_alpha   90.00000000
_cell_angle_beta   90.00000000
_cell_angle_gamma   90.00000000
_symmetry_Int_Tables_number   1
_chemical_formula_structural   Li2TiO3
_chemical_formula_sum   'Li2 Ti1 O3'
_cell_volume   343.43448404
_cell_formula_units_Z   1
loop_
 _symmetry_equiv_pos_site_id
 _symmetry_equiv_pos_as_xyz
  1  'x, y, z'
loop_
 _atom_site_type_symbol
 _atom_site_label
 _atom_site_symmetry_multiplicity
 _atom_site_fract_x
 _atom_site_fract_y
 _atom_site_fract_z
 _atom_site_occupancy
  Li  Li0  1  0.08654432  0.93814910  0.05822133  1
  Li  Li1  1  0.14222326  0.33360277  0.52381190  1
  Ti  Ti2  1  0.37839899  0.59484753  0.86443640  1
  O  O3  1  0.52995148  0.76552205  0.25190745  1
  O  O4  1  0.62984978  0.14293496  0.74867267  1
  O  O5  1  0.88374135  0.26183058  0.26824223  1
