# generated using pymatgen
data_Li3TiO4
_symmetry_space_group_name_H-M   'P 1'
_cell_length_a   11.11264103
_cell_length_b   11.11264103
_cell_length_c   11.11264103
_cell_angle_alpha   90.00000000
_cell_angle_beta   90.00000000
_cell_angle_gamma   90.00000000
_symmetry_Int_Tables_number   1
_chemical_formula_structural   Li3TiO4
_chemical_formula_sum   'Li3 Ti1 O4'
_cell_volume   1372.30882765
_cell_formula_units_Z   1
loop_
 _symmetry_equiv_pos_site_id
 _symmetry_equiv_pos_as_xyz
  1  'x, y, z'
loop_
 _atom_site_type_symbol
 _atom_site_label
 _atom_site_symmetry_multiplicity
 _atom_site_fract_x
 _atom_site_fract_y
 _atom_site_fract_z
 _atom_site_occupancy
  Li  Li0  1  0.96805861  0.09967898  0.98962101  1
  Li  Li1  1  0.22370684  0.21617112  0.23147439  1
  Li  Li2  1  0.31368411  0.47368970  0.58635074  1
  Ti  Ti3  1  0.27642326  0.70581844  0.93448052  1
  O  O4  1  0.45130753  0.77410566  0.38834773  1
  O  O5  1  0.67945584  0.04096519  0.71233908  1
  O  O6  1  0.76007732  0.26224426  0.95265304  1
  O  O7  1  0.94853034  0.46150433  0.33322163  1
