# generated using pymatgen
data_Li3ScTi3F4
_symmetry_space_group_name_H-M   'P 1'
_cell_length_a   13.41249414
_cell_length_b   13.41249414
_cell_length_c   13.27226167
_cell_angle_alpha   90.00000000
_cell_angle_beta   90.00000000
_cell_angle_gamma   90.00000000
_symmetry_Int_Tables_number   1
_chemical_formula_structural   Li3ScTi3F4
_chemical_formula_sum   'Li3 Sc1 Ti3 F4'
_cell_volume   2387.61350117
_cell_formula_units_Z   1
loop_
 _symmetry_equiv_pos_site_id
 _symmetry_equiv_pos_as_xyz
  1  'x, y, z'
loop_
 _atom_site_type_symbol
 _atom_site_label
 _atom_site_symmetry_multiplicity
 _atom_site_fract_x
 _atom_site_fract_y
 _atom_site_fract_z
 _atom_site_occupancy
  Li  Li0  1  0.98745029  0.93167997  0.94954983  1
  Li  Li1  1  0.09377575  0.06932374  0.18172070  1
  Li  Li2  1  0.15113982  0.29233446  0.47696933  1
  Ti  Ti3  1  0.20014987  0.36238055  0.68620008  1
  Ti  Ti4  1  0.33530142  0.54664666  0.01666012  1
  Ti  Ti5  1  0.43099342  0.75586004  0.23433155  1
  F  F6  1  0.64094706  0.81847477  0.42139565  1
  F  F7  1  0.59617172  0.00420707  0.70431943  1
  F  F8  1  0.75574663  0.14245386  0.83192016  1
  F  F9  1  0.74874413  0.41898023  0.11463475  1
  Sc  Sc10  1  0.89747481  0.46244682  0.46871132  1
