# generated using pymatgen
data_Li3Ti2P3O14
_symmetry_space_group_name_H-M   'P 1'
_cell_length_a   5.38321261
_cell_length_b   5.38321261
_cell_length_c   5.38321261
_cell_angle_alpha   90.00000000
_cell_angle_beta   90.00000000
_cell_angle_gamma   90.00000000
_symmetry_Int_Tables_number   1
_chemical_formula_structural   Li3Ti2P3O14
_chemical_formula_sum   'Li3 Ti2 P3 O14'
_cell_volume   156.00000000
_cell_formula_units_Z   1
loop_
 _symmetry_equiv_pos_site_id
 _symmetry_equiv_pos_as_xyz
  1  'x, y, z'
loop_
 _atom_site_type_symbol
 _atom_site_label
 _atom_site_symmetry_multiplicity
 _atom_site_fract_x
 _atom_site_fract_y
 _atom_site_fract_z
 _atom_site_occupancy
  Li  Li0  1  0.07495135  0.92466622  0.99917477  1
  Li  Li1  1  0.10008116  0.00582877  0.16291641  1
  Li  Li2  1  0.15518126  0.23752813  0.28852159  1
  Ti  Ti3  1  0.17451189  0.13149299  0.34116973  1
  Ti  Ti4  1  0.27864566  0.30020069  0.46062155  1
  P  P5  1  0.20812732  0.41203294  0.56777820  1
  P  P6  1  0.34887134  0.38175911  0.70689087  1
  P  P7  1  0.34261247  0.46866985  0.78960135  1
  O  O8  1  0.37203972  0.55111631  0.96901528  1
  O  O9  1  0.33179301  0.65308095  0.12243584  1
  O  O10  1  0.38893739  0.66168122  0.19880323  1
  O  O11  1  0.58455192  0.73843196  0.29619713  1
  O  O12  1  0.49254836  0.80369539  0.52043886  1
  O  O13  1  0.50314496  0.01346960  0.47746237  1
  O  O14  1  0.69456814  0.09634507  0.69417313  1
  O  O15  1  0.68011316  0.08034219  0.84988443  1
  O  O16  1  0.65721135  0.23195240  0.92807362  1
  O  O17  1  0.72692854  0.29062164  0.02025833  1
  O  O18  1  0.80211626  0.32905434  0.04676517  1
  O  O19  1  0.80052265  0.33250126  0.33618172  1
  O  O20  1  0.96322143  0.52193719  0.32574738  1
  O  O21  1  0.87871129  0.45005846  0.42141397  1
