# generated using pymatgen
data_Li4ScGaO8
_symmetry_space_group_name_H-M   'P 1'
_cell_length_a   10.09640856
_cell_length_b   10.09640856
_cell_length_c   9.87942209
_cell_angle_alpha   90.00000000
_cell_angle_beta   90.00000000
_cell_angle_gamma   90.00000000
_symmetry_Int_Tables_number   1
_chemical_formula_structural   Li4ScGaO8
_chemical_formula_sum   'Li4 Sc1 Ga1 O8'
_cell_volume   1007.08325150
_cell_formula_units_Z   1
loop_
 _symmetry_equiv_pos_site_id
 _symmetry_equiv_pos_as_xyz
  1  'x, y, z'
loop_
 _atom_site_type_symbol
 _atom_site_label
 _atom_site_symmetry_multiplicity
 _atom_site_fract_x
 _atom_site_fract_y
 _atom_site_fract_z
 _atom_site_occupancy
  Li  Li0  1  0.05717565  0.09390057  0.07667457  1
  Li  Li1  1  0.12427060  0.02818278  0.15493157  1
  Li  Li2  1  0.21886991  0.23856599  0.37564380  1
  Li  Li3  1  0.25829513  0.30654481  0.54705507  1
  Ga  Ga4  1  0.27269233  0.52614347  0.83293542  1
  O  O5  1  0.44205801  0.51391177  0.84384253  1
  O  O6  1  0.46471591  0.75957455  0.05447944  1
  O  O7  1  0.53062652  0.88794213  0.26906986  1
  O  O8  1  0.48066105  0.83999702  0.49085574  1
  O  O9  1  0.65199996  0.07789793  0.72137005  1
  O  O10  1  0.68800304  0.22372596  0.91241965  1
  O  O11  1  0.72725394  0.31970569  0.00280983  1
  O  O12  1  0.79758045  0.29121809  0.27077947  1
  Sc  Sc13  1  0.93387329  0.49096784  0.44776914  1
