# generated using pymatgen
data_Li2AlO3
_symmetry_space_group_name_H-M   'P 1'
_cell_length_a   4.76865092
_cell_length_b   4.76865092
_cell_length_c   9.49740745
_cell_angle_alpha   90.00000000
_cell_angle_beta   90.00000000
_cell_angle_gamma   120.00000000
_symmetry_Int_Tables_number   1
_chemical_formula_structural   Li2AlO3
_chemical_formula_sum   'Li2 Al1 O3'
_cell_volume   187.03667125
_cell_formula_units_Z   1
loop_
 _symmetry_equiv_pos_site_id
 _symmetry_equiv_pos_as_xyz
  1  'x, y, z'
loop_
 _atom_site_type_symbol
 _atom_site_label
 _atom_site_symmetry_multiplicity
 _atom_site_fract_x
 _atom_site_fract_y
 _atom_site_fract_z
 _atom_site_occupancy
  Li  Li0  1  0.08074276  0.95368655  0.03666925  1
  Li  Li1  1  0.14614646  0.21180530  0.44972626  1
  Al  Al2  1  0.24271481  0.45477482  0.86297116  1
  O  O3  1  0.47904191  0.74383824  0.33223037  1
  O  O4  1  0.65593064  0.12844928  0.68406469  1
  O  O5  1  0.81562685  0.35013201  0.27692185  1
