# generated using pymatgen
data_Li3In4(P5N2)2
_symmetry_space_group_name_H-M   'P 1'
_cell_length_a   5.14718499
_cell_length_b   5.13833486
_cell_length_c   4.19494515
_cell_angle_alpha   90.00000000
_cell_angle_beta   90.00000000
_cell_angle_gamma   90.00000000
_symmetry_Int_Tables_number   1
_chemical_formula_structural   Li3In4(P5N2)2
_chemical_formula_sum   'Li3 In4 P10 N4'
_cell_volume   110.94774190
_cell_formula_units_Z   1
loop_
 _symmetry_equiv_pos_site_id
 _symmetry_equiv_pos_as_xyz
  1  'x, y, z'
loop_
 _atom_site_type_symbol
 _atom_site_label
 _atom_site_symmetry_multiplicity
 _atom_site_fract_x
 _atom_site_fract_y
 _atom_site_fract_z
 _atom_site_occupancy
  Li  Li0  1  0.00194390  0.06787035  0.92625456  1
  Li  Li1  1  0.98636387  0.06625834  0.21223832  1
  Li  Li2  1  0.09052146  0.11206071  0.22027873  1
  In  In3  1  0.14318688  0.18039963  0.40407367  1
  In  In4  1  0.26335613  0.22446458  0.54043033  1
  In  In5  1  0.19054462  0.46708756  0.70823917  1
  In  In6  1  0.38405735  0.37960254  0.82903371  1
  N  N7  1  0.29393296  0.54780161  0.79790984  1
  N  N8  1  0.38625431  0.51811885  0.97438274  1
  N  N9  1  0.44697659  0.62186114  0.09519724  1
  N  N10  1  0.54444724  0.77759202  0.17723691  1
  P  P11  1  0.56742806  0.86894007  0.46888350  1
  P  P12  1  0.61823714  0.01225164  0.53949779  1
  P  P13  1  0.58855581  0.09314976  0.53151825  1
  P  P14  1  0.59701085  0.12728333  0.80585295  1
  P  P15  1  0.62988740  0.07701789  0.89260248  1
  P  P16  1  0.76691733  0.31499070  0.06867897  1
  P  P17  1  0.88783783  0.28910345  0.17473033  1
  P  P18  1  0.77436894  0.40451307  0.29605119  1
  P  P19  1  0.85684439  0.36719257  0.46628771  1
  P  P20  1  0.03440569  0.47837009  0.43903095  1
