# generated using pymatgen
data_Li2AlO4
_symmetry_space_group_name_H-M   'P 1'
_cell_length_a   9.86559584
_cell_length_b   9.86559584
_cell_length_c   16.36212104
_cell_angle_alpha   90.00000000
_cell_angle_beta   90.00000000
_cell_angle_gamma   120.00000000
_symmetry_Int_Tables_number   1
_chemical_formula_structural   Li2AlO4
_chemical_formula_sum   'Li2 Al1 O4'
_cell_volume   1379.16704868
_cell_formula_units_Z   1
loop_
 _symmetry_equiv_pos_site_id
 _symmetry_equiv_pos_as_xyz
  1  'x, y, z'
loop_
 _atom_site_type_symbol
 _atom_site_label
 _atom_site_symmetry_multiplicity
 _atom_site_fract_x
 _atom_site_fract_y
 _atom_site_fract_z
 _atom_site_occupancy
  Li  Li0  1  0.06108657  0.02137561  0.01694510  1
  Li  Li1  1  0.18997725  0.17692952  0.46118973  1
  Al  Al2  1  0.38312186  0.48821169  0.72018603  1
  O  O3  1  0.49983343  0.65958941  0.18935415  1
  O  O4  1  0.64172201  0.87638996  0.48379524  1
  O  O5  1  0.64456313  0.08080925  0.79507217  1
  O  O6  1  0.76904257  0.39052781  0.28503646  1
