# generated using pymatgen
data_LiNbIn2S9
_symmetry_space_group_name_H-M   'P 1'
_cell_length_a   14.75440570
_cell_length_b   14.75440570
_cell_length_c   13.46707348
_cell_angle_alpha   90.00000000
_cell_angle_beta   90.00000000
_cell_angle_gamma   90.00000000
_symmetry_Int_Tables_number   1
_chemical_formula_structural   LiNbIn2S9
_chemical_formula_sum   'Li1 Nb1 In2 S9'
_cell_volume   2931.68072656
_cell_formula_units_Z   1
loop_
 _symmetry_equiv_pos_site_id
 _symmetry_equiv_pos_as_xyz
  1  'x, y, z'
loop_
 _atom_site_type_symbol
 _atom_site_label
 _atom_site_symmetry_multiplicity
 _atom_site_fract_x
 _atom_site_fract_y
 _atom_site_fract_z
 _atom_site_occupancy
  Li  Li0  1  0.06735411  0.05094467  0.04570134  1
  Nb  Nb1  1  0.16125476  0.15703078  0.12675876  1
  S  S2  1  0.11965515  0.17219012  0.48825991  1
  S  S3  1  0.23773750  0.46086578  0.68615815  1
  S  S4  1  0.25379472  0.57655803  0.78244746  1
  S  S5  1  0.41214674  0.63499449  0.92105930  1
  S  S6  1  0.40402468  0.79466462  0.11208186  1
  S  S7  1  0.49699050  0.84792058  0.48151404  1
  S  S8  1  0.52817323  0.06172674  0.64905965  1
  S  S9  1  0.71874741  0.17277511  0.74155652  1
  S  S10  1  0.68876018  0.16557443  0.97866946  1
  In  In11  1  0.80858150  0.35731322  0.15380200  1
  In  In12  1  0.88436984  0.55372684  0.40377624  1
