# generated using pymatgen
data_Li5Ta2AlS9Cl5
_symmetry_space_group_name_H-M   'P 1'
_cell_length_a   6.54230458
_cell_length_b   5.66358207
_cell_length_c   6.62952816
_cell_angle_alpha   90.00000000
_cell_angle_beta   90.00000000
_cell_angle_gamma   90.00000000
_symmetry_Int_Tables_number   1
_chemical_formula_structural   Li5Ta2AlS9Cl5
_chemical_formula_sum   'Li5 Ta2 Al1 S9 Cl5'
_cell_volume   245.64310416
_cell_formula_units_Z   1
loop_
 _symmetry_equiv_pos_site_id
 _symmetry_equiv_pos_as_xyz
  1  'x, y, z'
loop_
 _atom_site_type_symbol
 _atom_site_label
 _atom_site_symmetry_multiplicity
 _atom_site_fract_x
 _atom_site_fract_y
 _atom_site_fract_z
 _atom_site_occupancy
  Li  Li0  1  0.02815756  0.99048699  0.97521695  1
  Li  Li1  1  0.97007073  0.09700554  0.15867488  1
  Li  Li2  1  0.04406188  0.19325509  0.24249060  1
  Li  Li3  1  0.08960901  0.18066622  0.25815040  1
  Li  Li4  1  0.09559686  0.27962865  0.56741754  1
  Ta  Ta5  1  0.26128204  0.34892792  0.67014938  1
  Ta  Ta6  1  0.25878830  0.50752822  0.74029790  1
  Al  Al7  1  0.31288010  0.54606894  0.80778416  1
  Cl  Cl8  1  0.38404869  0.55053480  0.90228376  1
  Cl  Cl9  1  0.48643159  0.67672256  0.02241117  1
  Cl  Cl10  1  0.42233962  0.65297009  0.15451379  1
  Cl  Cl11  1  0.44548559  0.77659657  0.40671125  1
  Cl  Cl12  1  0.45786701  0.82059177  0.42153145  1
  S  S13  1  0.50833410  0.95131068  0.62856593  1
  S  S14  1  0.73045871  0.98226825  0.72203827  1
  S  S15  1  0.70423443  0.08450120  0.85608639  1
  S  S16  1  0.75408633  0.09885474  0.85348123  1
  S  S17  1  0.80405122  0.25382140  0.94194268  1
  S  S18  1  0.87367159  0.33720419  0.04221346  1
  S  S19  1  0.92173391  0.41792813  0.28754222  1
  S  S20  1  0.90864189  0.39207356  0.38965798  1
  S  S21  1  0.05259288  0.53499935  0.53436181  1
