# generated using pymatgen
data_Li4La2NbS5
_symmetry_space_group_name_H-M   'P 1'
_cell_length_a   10.41961812
_cell_length_b   10.41961812
_cell_length_c   10.57432305
_cell_angle_alpha   90.00000000
_cell_angle_beta   90.00000000
_cell_angle_gamma   90.00000000
_symmetry_Int_Tables_number   1
_chemical_formula_structural   Li4La2NbS5
_chemical_formula_sum   'Li4 La2 Nb1 S5'
_cell_volume   1148.03777635
_cell_formula_units_Z   1
loop_
 _symmetry_equiv_pos_site_id
 _symmetry_equiv_pos_as_xyz
  1  'x, y, z'
loop_
 _atom_site_type_symbol
 _atom_site_label
 _atom_site_symmetry_multiplicity
 _atom_site_fract_x
 _atom_site_fract_y
 _atom_site_fract_z
 _atom_site_occupancy
  Li  Li0  1  0.94860441  0.94753116  0.91016722  1
  Li  Li1  1  0.98524972  0.12997268  0.14680802  1
  Li  Li2  1  0.26356248  0.19778992  0.36544410  1
  Li  Li3  1  0.29225518  0.36937399  0.60042037  1
  Nb  Nb4  1  0.39998837  0.52770540  0.93177226  1
  S  S5  1  0.33312777  0.59439827  0.02215107  1
  S  S6  1  0.56491048  0.90526074  0.37638270  1
  S  S7  1  0.50890792  0.84820421  0.45675043  1
  S  S8  1  0.65982034  0.10120120  0.83249286  1
  S  S9  1  0.75940315  0.16333671  0.93287764  1
  La  La10  1  0.80699498  0.31613846  0.12490914  1
  La  La11  1  0.91040886  0.48191403  0.44060182  1
