# generated using pymatgen
data_Li4GaO5
_symmetry_space_group_name_H-M   'P 1'
_cell_length_a   14.62051161
_cell_length_b   12.05265153
_cell_length_c   10.99730904
_cell_angle_alpha   69.83530420
_cell_angle_beta   104.64120880
_cell_angle_gamma   91.15883092
_symmetry_Int_Tables_number   1
_chemical_formula_structural   Li4GaO5
_chemical_formula_sum   'Li4 Ga1 O5'
_cell_volume   1755.26481530
_cell_formula_units_Z   1
loop_
 _symmetry_equiv_pos_site_id
 _symmetry_equiv_pos_as_xyz
  1  'x, y, z'
loop_
 _atom_site_type_symbol
 _atom_site_label
 _atom_site_symmetry_multiplicity
 _atom_site_fract_x
 _atom_site_fract_y
 _atom_site_fract_z
 _atom_site_occupancy
  Li  Li0  1  0.03407906  0.09858323  0.01449594  1
  Li  Li1  1  0.13312133  0.14043002  0.28440211  1
  Li  Li2  1  0.28145050  0.33283658  0.53258312  1
  Li  Li3  1  0.23028109  0.43024163  0.69941963  1
  Ga  Ga4  1  0.34791469  0.57772023  0.97452405  1
  O  O5  1  0.54215715  0.71331843  0.39445770  1
  O  O6  1  0.55324054  0.00223114  0.58819762  1
  O  O7  1  0.71404351  0.21064158  0.74141994  1
  O  O8  1  0.79510761  0.37897988  0.99918065  1
  O  O9  1  0.93347797  0.37812987  0.32063763  1
