# generated using pymatgen
data_Li4TiO5
_symmetry_space_group_name_H-M   'P 1'
_cell_length_a   11.00122881
_cell_length_b   11.00122881
_cell_length_c   11.00122881
_cell_angle_alpha   90.00000000
_cell_angle_beta   90.00000000
_cell_angle_gamma   90.00000000
_symmetry_Int_Tables_number   1
_chemical_formula_structural   Li4TiO5
_chemical_formula_sum   'Li4 Ti1 O5'
_cell_volume   1331.44610843
_cell_formula_units_Z   1
loop_
 _symmetry_equiv_pos_site_id
 _symmetry_equiv_pos_as_xyz
  1  'x, y, z'
loop_
 _atom_site_type_symbol
 _atom_site_label
 _atom_site_symmetry_multiplicity
 _atom_site_fract_x
 _atom_site_fract_y
 _atom_site_fract_z
 _atom_site_occupancy
  Li  Li0  1  0.01529039  0.07542307  0.01171831  1
  Li  Li1  1  0.06915450  0.12151460  0.22876862  1
  Li  Li2  1  0.27829012  0.32386260  0.49573779  1
  Li  Li3  1  0.23880035  0.51398966  0.80335371  1
  Ti  Ti4  1  0.41457632  0.71925326  0.04713874  1
  O  O5  1  0.41941474  0.76572640  0.33725770  1
  O  O6  1  0.54043591  0.89042572  0.48394322  1
  O  O7  1  0.74738556  0.11633331  0.82843946  1
  O  O8  1  0.88568131  0.26941000  0.12124258  1
  O  O9  1  0.99821105  0.40013864  0.36880230  1
