# generated using pymatgen
data_Li5ScBr6
_symmetry_space_group_name_H-M   'P 1'
_cell_length_a   4.15561159
_cell_length_b   5.21520876
_cell_length_c   5.81385103
_cell_angle_alpha   90.00000000
_cell_angle_beta   90.00000000
_cell_angle_gamma   90.00000000
_symmetry_Int_Tables_number   1
_chemical_formula_structural   Li5ScBr6
_chemical_formula_sum   'Li5 Sc1 Br6'
_cell_volume   126.00000000
_cell_formula_units_Z   1
loop_
 _symmetry_equiv_pos_site_id
 _symmetry_equiv_pos_as_xyz
  1  'x, y, z'
loop_
 _atom_site_type_symbol
 _atom_site_label
 _atom_site_symmetry_multiplicity
 _atom_site_fract_x
 _atom_site_fract_y
 _atom_site_fract_z
 _atom_site_occupancy
  Li  Li0  1  0.06668539  0.00450919  0.02171170  1
  Li  Li1  1  0.03800562  0.19198052  0.15625753  1
  Li  Li2  1  0.12236245  0.20763799  0.38127437  1
  Li  Li3  1  0.24494334  0.38292637  0.72288763  1
  Li  Li4  1  0.25760155  0.63038157  0.77527351  1
  Sc  Sc5  1  0.36289026  0.64781492  0.01384810  1
  Br  Br6  1  0.51407819  0.74835601  0.40054352  1
  Br  Br7  1  0.48805410  0.99607440  0.49192906  1
  Br  Br8  1  0.69528248  0.04394571  0.81813903  1
  Br  Br9  1  0.65550401  0.20584737  0.01493383  1
  Br  Br10  1  0.84250317  0.28521298  0.14584641  1
  Br  Br11  1  0.84487229  0.46529248  0.44340774  1
