# generated using pymatgen
data_Li6Ti2Cl5
_symmetry_space_group_name_H-M   'P 1'
_cell_length_a   8.28552880
_cell_length_b   8.28552880
_cell_length_c   8.88120611
_cell_angle_alpha   90.00000000
_cell_angle_beta   90.00000000
_cell_angle_gamma   90.00000000
_symmetry_Int_Tables_number   1
_chemical_formula_structural   Li6Ti2Cl5
_chemical_formula_sum   'Li6 Ti2 Cl5'
_cell_volume   609.69468832
_cell_formula_units_Z   1
loop_
 _symmetry_equiv_pos_site_id
 _symmetry_equiv_pos_as_xyz
  1  'x, y, z'
loop_
 _atom_site_type_symbol
 _atom_site_label
 _atom_site_symmetry_multiplicity
 _atom_site_fract_x
 _atom_site_fract_y
 _atom_site_fract_z
 _atom_site_occupancy
  Li  Li0  1  0.98448887  0.09413479  0.02648465  1
  Li  Li1  1  0.15903282  0.13426129  0.29470808  1
  Li  Li2  1  0.12247307  0.17105572  0.45353683  1
  Li  Li3  1  0.28898257  0.28010132  0.67873897  1
  Li  Li4  1  0.22325231  0.59240308  0.74731040  1
  Li  Li5  1  0.41735738  0.57564743  0.07423731  1
  Ti  Ti6  1  0.46289766  0.71530532  0.20078739  1
  Ti  Ti7  1  0.44578099  0.93090460  0.45858342  1
  Cl  Cl8  1  0.60304545  0.96422509  0.57540069  1
  Cl  Cl9  1  0.76610033  0.11843211  0.85884018  1
  Cl  Cl10  1  0.83569296  0.34401867  0.00040246  1
  Cl  Cl11  1  0.83150809  0.38749625  0.23942923  1
  Cl  Cl12  1  0.99688825  0.57157714  0.33511052  1
