# generated using pymatgen
data_LiTi(PO4)3
_symmetry_space_group_name_H-M   'P 1'
_cell_length_a   4.87699896
_cell_length_b   4.87699896
_cell_length_c   4.87699896
_cell_angle_alpha   90.00000000
_cell_angle_beta   90.00000000
_cell_angle_gamma   90.00000000
_symmetry_Int_Tables_number   1
_chemical_formula_structural   LiTi(PO4)3
_chemical_formula_sum   'Li1 Ti1 P3 O12'
_cell_volume   116.00000000
_cell_formula_units_Z   1
loop_
 _symmetry_equiv_pos_site_id
 _symmetry_equiv_pos_as_xyz
  1  'x, y, z'
loop_
 _atom_site_type_symbol
 _atom_site_label
 _atom_site_symmetry_multiplicity
 _atom_site_fract_x
 _atom_site_fract_y
 _atom_site_fract_z
 _atom_site_occupancy
  Li  Li0  1  0.07375995  0.93314788  0.04688782  1
  Ti  Ti1  1  0.96251358  0.07670982  0.12643502  1
  P  P2  1  0.04728190  0.26570263  0.29248887  1
  P  P3  1  0.27060538  0.31201406  0.54410974  1
  P  P4  1  0.24509387  0.47402934  0.58462692  1
  O  O5  1  0.21625029  0.52664995  0.82821334  1
  O  O6  1  0.25965788  0.64564394  0.83956000  1
  O  O7  1  0.50632163  0.60800724  0.11074199  1
  O  O8  1  0.42392798  0.82872600  0.23335920  1
  O  O9  1  0.49794785  0.84906794  0.29331945  1
  O  O10  1  0.64790912  0.00065582  0.52766083  1
  O  O11  1  0.61559161  0.01126494  0.76779264  1
  O  O12  1  0.70416062  0.18849629  0.91446219  1
  O  O13  1  0.86410917  0.22385042  0.98735424  1
  O  O14  1  0.84194874  0.35666905  0.22981133  1
  O  O15  1  0.96039162  0.34614220  0.23927638  1
  O  O16  1  0.92475567  0.51101279  0.43738322  1
