# generated using pymatgen
data_Li2ScCl5
_symmetry_space_group_name_H-M   'P 1'
_cell_length_a   4.12128530
_cell_length_b   4.12128530
_cell_length_c   4.12128530
_cell_angle_alpha   90.00000000
_cell_angle_beta   90.00000000
_cell_angle_gamma   90.00000000
_symmetry_Int_Tables_number   1
_chemical_formula_structural   Li2ScCl5
_chemical_formula_sum   'Li2 Sc1 Cl5'
_cell_volume   70.00000000
_cell_formula_units_Z   1
loop_
 _symmetry_equiv_pos_site_id
 _symmetry_equiv_pos_as_xyz
  1  'x, y, z'
loop_
 _atom_site_type_symbol
 _atom_site_label
 _atom_site_symmetry_multiplicity
 _atom_site_fract_x
 _atom_site_fract_y
 _atom_site_fract_z
 _atom_site_occupancy
  Li  Li0  1  0.97853262  0.92174885  0.90137149  1
  Li  Li1  1  0.19538832  0.10263710  0.33489481  1
  Sc  Sc2  1  0.22769208  0.48598463  0.66895931  1
  Cl  Cl3  1  0.40287173  0.53961641  0.97823787  1
  Cl  Cl4  1  0.51487869  0.79095104  0.22504958  1
  Cl  Cl5  1  0.70159060  0.95578421  0.65617113  1
  Cl  Cl6  1  0.76235553  0.23044400  0.89576804  1
  Cl  Cl7  1  0.94475514  0.50973883  0.20806168  1
