# generated using pymatgen
data_Li3Sc3Al4P4N7
_symmetry_space_group_name_H-M   'P 1'
_cell_length_a   4.82550268
_cell_length_b   14.90108360
_cell_length_c   3.63979614
_cell_angle_alpha   101.09526830
_cell_angle_beta   70.67480771
_cell_angle_gamma   113.45900601
_symmetry_Int_Tables_number   1
_chemical_formula_structural   Li3Sc3Al4P4N7
_chemical_formula_sum   'Li3 Sc3 Al4 P4 N7'
_cell_volume   226.00258552
_cell_formula_units_Z   1
loop_
 _symmetry_equiv_pos_site_id
 _symmetry_equiv_pos_as_xyz
  1  'x, y, z'
loop_
 _atom_site_type_symbol
 _atom_site_label
 _atom_site_symmetry_multiplicity
 _atom_site_fract_x
 _atom_site_fract_y
 _atom_site_fract_z
 _atom_site_occupancy
  Li  Li0  1  0.92540515  0.94844571  0.97206762  1
  Li  Li1  1  0.03522180  0.04554007  0.05023214  1
  Li  Li2  1  0.09651006  0.13761362  0.32776715  1
  Sc  Sc3  1  0.18429430  0.23576537  0.33980095  1
  Sc  Sc4  1  0.16176796  0.35360953  0.55633021  1
  Sc  Sc5  1  0.27778136  0.31088438  0.66948281  1
  Al  Al6  1  0.29643146  0.38513134  0.72167282  1
  Al  Al7  1  0.30953104  0.50763084  0.82270746  1
  Al  Al8  1  0.35564089  0.55933312  0.01806980  1
  Al  Al9  1  0.33825038  0.62508274  0.03128615  1
  P  P10  1  0.46814478  0.70174265  0.29559017  1
  P  P11  1  0.44844212  0.86035346  0.33987956  1
  P  P12  1  0.58109589  0.97976174  0.47462727  1
  P  P13  1  0.60158389  0.90711980  0.59477890  1
  N  N14  1  0.61255615  0.09457665  0.68206321  1
  N  N15  1  0.63530463  0.19732118  0.80408307  1
  N  N16  1  0.73422540  0.24009969  0.07187920  1
  N  N17  1  0.78766491  0.31005225  0.08410711  1
  N  N18  1  0.95067181  0.39818642  0.22634557  1
  N  N19  1  0.93804554  0.50333895  0.39442002  1
  N  N20  1  0.95454098  0.54620500  0.45809969  1
