# generated using pymatgen
data_LiLa4O3
_symmetry_space_group_name_H-M   'P 1'
_cell_length_a   8.47938380
_cell_length_b   14.31474888
_cell_length_c   8.44154260
_cell_angle_alpha   93.43146121
_cell_angle_beta   105.20517517
_cell_angle_gamma   79.05666996
_symmetry_Int_Tables_number   1
_chemical_formula_structural   LiLa4O3
_chemical_formula_sum   'Li1 La4 O3'
_cell_volume   970.73182403
_cell_formula_units_Z   1
loop_
 _symmetry_equiv_pos_site_id
 _symmetry_equiv_pos_as_xyz
  1  'x, y, z'
loop_
 _atom_site_type_symbol
 _atom_site_label
 _atom_site_symmetry_multiplicity
 _atom_site_fract_x
 _atom_site_fract_y
 _atom_site_fract_z
 _atom_site_occupancy
  Li  Li0  1  0.99862463  0.93547660  0.09445571  1
  La  La1  1  0.14610732  0.11154216  0.40771920  1
  La  La2  1  0.30333511  0.43434770  0.66592794  1
  La  La3  1  0.45677683  0.60128586  0.95802947  1
  La  La4  1  0.46320369  0.86247426  0.37103074  1
  O  O5  1  0.69416442  0.10207304  0.61954940  1
  O  O6  1  0.82694681  0.20205855  0.88915647  1
  O  O7  1  0.77767639  0.51388600  0.22318614  1
