# generated using pymatgen
data_Li4TiO5
_symmetry_space_group_name_H-M   'P 1'
_cell_length_a   4.19122595
_cell_length_b   4.19122595
_cell_length_c   4.19122595
_cell_angle_alpha   90.00000000
_cell_angle_beta   90.00000000
_cell_angle_gamma   90.00000000
_symmetry_Int_Tables_number   1
_chemical_formula_structural   Li4TiO5
_chemical_formula_sum   'Li4 Ti1 O5'
_cell_volume   73.62464635
_cell_formula_units_Z   1
loop_
 _symmetry_equiv_pos_site_id
 _symmetry_equiv_pos_as_xyz
  1  'x, y, z'
loop_
 _atom_site_type_symbol
 _atom_site_label
 _atom_site_symmetry_multiplicity
 _atom_site_fract_x
 _atom_site_fract_y
 _atom_site_fract_z
 _atom_site_occupancy
  Li  Li0  1  0.03347797  0.92192987  0.96443763  1
  Li  Li1  1  0.16036550  0.20277078  0.23794457  1
  Li  Li2  1  0.20240259  0.37050109  0.57399306  1
  Li  Li3  1  0.20435912  0.52441197  0.78962148  1
  Ti  Ti4  1  0.36536519  0.59589249  0.98580029  1
  O  O5  1  0.52250568  0.83768199  0.25562681  1
  O  O6  1  0.64628852  0.90761328  0.61698358  1
  O  O7  1  0.72084852  0.18006338  0.78536579  1
  O  O8  1  0.83082804  0.31981919  0.16685095  1
  O  O9  1  0.98496712  0.52490880  0.32511833  1
