# generated using pymatgen
data_LiTi2F8
_symmetry_space_group_name_H-M   'P 1'
_cell_length_a   14.04050699
_cell_length_b   14.04050699
_cell_length_c   13.87018826
_cell_angle_alpha   90.00000000
_cell_angle_beta   90.00000000
_cell_angle_gamma   90.00000000
_symmetry_Int_Tables_number   1
_chemical_formula_structural   LiTi2F8
_chemical_formula_sum   'Li1 Ti2 F8'
_cell_volume   2734.31116396
_cell_formula_units_Z   1
loop_
 _symmetry_equiv_pos_site_id
 _symmetry_equiv_pos_as_xyz
  1  'x, y, z'
loop_
 _atom_site_type_symbol
 _atom_site_label
 _atom_site_symmetry_multiplicity
 _atom_site_fract_x
 _atom_site_fract_y
 _atom_site_fract_z
 _atom_site_occupancy
  Li  Li0  1  0.07964532  0.90399880  0.99871067  1
  Ti  Ti1  1  0.13749773  0.19929443  0.19155199  1
  Ti  Ti2  1  0.09640951  0.31155254  0.44199595  1
  F  F3  1  0.31106301  0.44738251  0.76061600  1
  F  F4  1  0.38207868  0.66488319  0.90291046  1
  F  F5  1  0.44735474  0.81516176  0.20043389  1
  F  F6  1  0.63989401  0.97975109  0.38423017  1
  F  F7  1  0.71958362  0.09526712  0.62993808  1
  F  F8  1  0.63706850  0.21082407  0.84245872  1
  F  F9  1  0.84140983  0.27616560  0.20347817  1
  F  F10  1  0.95269714  0.37475828  0.31672785  1
