# generated using pymatgen
data_Li2La2Al4Br3
_symmetry_space_group_name_H-M   'P 1'
_cell_length_a   11.52010993
_cell_length_b   14.85866010
_cell_length_c   6.78866457
_cell_angle_alpha   83.80897601
_cell_angle_beta   64.96579379
_cell_angle_gamma   67.50539275
_symmetry_Int_Tables_number   1
_chemical_formula_structural   Li2La2Al4Br3
_chemical_formula_sum   'Li2 La2 Al4 Br3'
_cell_volume   970.73407050
_cell_formula_units_Z   1
loop_
 _symmetry_equiv_pos_site_id
 _symmetry_equiv_pos_as_xyz
  1  'x, y, z'
loop_
 _atom_site_type_symbol
 _atom_site_label
 _atom_site_symmetry_multiplicity
 _atom_site_fract_x
 _atom_site_fract_y
 _atom_site_fract_z
 _atom_site_occupancy
  Li  Li0  1  0.98121501  0.90780198  0.02901722  1
  Li  Li1  1  0.05476568  0.13152175  0.27440913  1
  Al  Al2  1  0.11887833  0.28692284  0.55617102  1
  Al  Al3  1  0.31998319  0.52826680  0.78071368  1
  Al  Al4  1  0.41874202  0.67024687  0.85412452  1
  Al  Al5  1  0.54769603  0.68381864  0.25122731  1
  La  La6  1  0.64200876  0.80988449  0.45824557  1
  La  La7  1  0.57919483  0.01396912  0.63068122  1
  Br  Br8  1  0.70734888  0.13361173  0.82895402  1
  Br  Br9  1  0.72927087  0.40167628  0.14329005  1
  Br  Br10  1  0.00310952  0.54467918  0.34385024  1
