# generated using pymatgen
data_Li2TiO5
_symmetry_space_group_name_H-M   'P 1'
_cell_length_a   4.58109223
_cell_length_b   4.58109223
_cell_length_c   4.58109223
_cell_angle_alpha   90.00000000
_cell_angle_beta   90.00000000
_cell_angle_gamma   90.00000000
_symmetry_Int_Tables_number   1
_chemical_formula_structural   Li2TiO5
_chemical_formula_sum   'Li2 Ti1 O5'
_cell_volume   96.14066169
_cell_formula_units_Z   1
loop_
 _symmetry_equiv_pos_site_id
 _symmetry_equiv_pos_as_xyz
  1  'x, y, z'
loop_
 _atom_site_type_symbol
 _atom_site_label
 _atom_site_symmetry_multiplicity
 _atom_site_fract_x
 _atom_site_fract_y
 _atom_site_fract_z
 _atom_site_occupancy
  Li  Li0  1  0.00763492  0.91193420  0.94339684  1
  Li  Li1  1  0.04698127  0.23318380  0.38346571  1
  Ti  Ti2  1  0.30623197  0.39834352  0.72147940  1
  O  O3  1  0.31785501  0.55641466  0.88882061  1
  O  O4  1  0.53845618  0.75304601  0.22208251  1
  O  O5  1  0.56860798  0.93076276  0.61267739  1
  O  O6  1  0.72064242  0.14627767  0.90872680  1
  O  O7  1  0.81075849  0.49658839  0.32389088  1
