# generated using pymatgen
data_LiTiO3
_symmetry_space_group_name_H-M   'P 1'
_cell_length_a   6.88445447
_cell_length_b   6.88445447
_cell_length_c   6.88445447
_cell_angle_alpha   90.00000000
_cell_angle_beta   90.00000000
_cell_angle_gamma   90.00000000
_symmetry_Int_Tables_number   1
_chemical_formula_structural   LiTiO3
_chemical_formula_sum   'Li1 Ti1 O3'
_cell_volume   326.29363044
_cell_formula_units_Z   1
loop_
 _symmetry_equiv_pos_site_id
 _symmetry_equiv_pos_as_xyz
  1  'x, y, z'
loop_
 _atom_site_type_symbol
 _atom_site_label
 _atom_site_symmetry_multiplicity
 _atom_site_fract_x
 _atom_site_fract_y
 _atom_site_fract_z
 _atom_site_occupancy
  Li  Li0  1  0.01172288  0.95006961  0.02946739  1
  Ti  Ti1  1  0.25201406  0.26983331  0.53000794  1
  O  O2  1  0.44312746  0.59860635  0.03078022  1
  O  O3  1  0.65168522  0.00937586  0.64323901  1
  O  O4  1  0.70584439  0.34912025  0.06011308  1
