# generated using pymatgen
data_LiAlO5
_symmetry_space_group_name_H-M   'P 1'
_cell_length_a   5.00071903
_cell_length_b   5.00071903
_cell_length_c   7.23731236
_cell_angle_alpha   90.00000000
_cell_angle_beta   90.00000000
_cell_angle_gamma   120.00000000
_symmetry_Int_Tables_number   1
_chemical_formula_structural   LiAlO5
_chemical_formula_sum   'Li1 Al1 O5'
_cell_volume   156.73747904
_cell_formula_units_Z   1
loop_
 _symmetry_equiv_pos_site_id
 _symmetry_equiv_pos_as_xyz
  1  'x, y, z'
loop_
 _atom_site_type_symbol
 _atom_site_label
 _atom_site_symmetry_multiplicity
 _atom_site_fract_x
 _atom_site_fract_y
 _atom_site_fract_z
 _atom_site_occupancy
  Li  Li0  1  0.06700943  0.02563878  0.04755269  1
  Al  Al1  1  0.07996635  0.25003627  0.40161196  1
  O  O2  1  0.23233381  0.48163022  0.80615724  1
  O  O3  1  0.47000528  0.60924835  0.15419240  1
  O  O4  1  0.57440275  0.02424472  0.51066062  1
  O  O5  1  0.64623876  0.05834506  0.96298621  1
  O  O6  1  0.83828795  0.43449849  0.16531341  1
