# generated using pymatgen
data_Li2AlO3
_symmetry_space_group_name_H-M   'P 1'
_cell_length_a   9.01601597
_cell_length_b   9.01601597
_cell_length_c   11.26117951
_cell_angle_alpha   90.00000000
_cell_angle_beta   90.00000000
_cell_angle_gamma   120.00000000
_symmetry_Int_Tables_number   1
_chemical_formula_structural   Li2AlO3
_chemical_formula_sum   'Li2 Al1 O3'
_cell_volume   792.76388559
_cell_formula_units_Z   1
loop_
 _symmetry_equiv_pos_site_id
 _symmetry_equiv_pos_as_xyz
  1  'x, y, z'
loop_
 _atom_site_type_symbol
 _atom_site_label
 _atom_site_symmetry_multiplicity
 _atom_site_fract_x
 _atom_site_fract_y
 _atom_site_fract_z
 _atom_site_occupancy
  Li  Li0  1  0.04105788  0.90464390  0.99765467  1
  Li  Li1  1  0.17950332  0.24493687  0.48969502  1
  Al  Al2  1  0.42413665  0.58307330  0.80847644  1
  O  O3  1  0.40771574  0.82196344  0.26888331  1
  O  O4  1  0.58781951  0.01867966  0.66353491  1
  O  O5  1  0.80730004  0.43032944  0.23112721  1
