# generated using pymatgen
data_Li5ScNb2F3
_symmetry_space_group_name_H-M   'P 1'
_cell_length_a   10.09591591
_cell_length_b   10.09591591
_cell_length_c   9.29988163
_cell_angle_alpha   90.00000000
_cell_angle_beta   90.00000000
_cell_angle_gamma   90.00000000
_symmetry_Int_Tables_number   1
_chemical_formula_structural   Li5ScNb2F3
_chemical_formula_sum   'Li5 Sc1 Nb2 F3'
_cell_volume   947.91385162
_cell_formula_units_Z   1
loop_
 _symmetry_equiv_pos_site_id
 _symmetry_equiv_pos_as_xyz
  1  'x, y, z'
loop_
 _atom_site_type_symbol
 _atom_site_label
 _atom_site_symmetry_multiplicity
 _atom_site_fract_x
 _atom_site_fract_y
 _atom_site_fract_z
 _atom_site_occupancy
  Li  Li0  1  0.08998454  0.92429596  0.92782587  1
  Li  Li1  1  0.05696224  0.16125358  0.30582744  1
  Li  Li2  1  0.13052603  0.30159270  0.50561462  1
  Li  Li3  1  0.28777364  0.38983466  0.76191091  1
  Li  Li4  1  0.33566645  0.63809641  0.88876044  1
  Nb  Nb5  1  0.42175297  0.78514262  0.18582112  1
  Nb  Nb6  1  0.64438119  0.83449798  0.42751793  1
  F  F7  1  0.60802479  0.06758071  0.58409194  1
  F  F8  1  0.72977670  0.22690493  0.90985683  1
  F  F9  1  0.82539372  0.27735225  0.14834618  1
  Sc  Sc10  1  0.90362239  0.41489294  0.46456148  1
