# generated using pymatgen
data_Li2ScTaO8
_symmetry_space_group_name_H-M   'P 1'
_cell_length_a   9.44988982
_cell_length_b   9.44988982
_cell_length_c   9.10552897
_cell_angle_alpha   90.00000000
_cell_angle_beta   90.00000000
_cell_angle_gamma   90.00000000
_symmetry_Int_Tables_number   1
_chemical_formula_structural   Li2ScTaO8
_chemical_formula_sum   'Li2 Sc1 Ta1 O8'
_cell_volume   813.12753948
_cell_formula_units_Z   1
loop_
 _symmetry_equiv_pos_site_id
 _symmetry_equiv_pos_as_xyz
  1  'x, y, z'
loop_
 _atom_site_type_symbol
 _atom_site_label
 _atom_site_symmetry_multiplicity
 _atom_site_fract_x
 _atom_site_fract_y
 _atom_site_fract_z
 _atom_site_occupancy
  Li  Li0  1  0.06572575  0.97175324  0.99488357  1
  Li  Li1  1  0.10759456  0.11417729  0.30822039  1
  Ta  Ta2  1  0.16008394  0.21060220  0.52152042  1
  O  O3  1  0.20186664  0.33137492  0.70222161  1
  O  O4  1  0.41990812  0.54270146  0.93301915  1
  O  O5  1  0.34920587  0.64020720  0.02878895  1
  O  O6  1  0.49412301  0.71749698  0.34037135  1
  O  O7  1  0.58362742  0.95884990  0.48125711  1
  O  O8  1  0.62493150  0.09062100  0.78961540  1
  O  O9  1  0.69762377  0.14622363  0.95660046  1
  O  O10  1  0.92568613  0.33794816  0.18036029  1
  Sc  Sc11  1  0.92304659  0.40326918  0.32894533  1
