# generated using pymatgen
data_Li5(SiS3)2
_symmetry_space_group_name_H-M   'P 1'
_cell_length_a   5.09164337
_cell_length_b   5.09164337
_cell_length_c   5.09164337
_cell_angle_alpha   90.00000000
_cell_angle_beta   90.00000000
_cell_angle_gamma   90.00000000
_symmetry_Int_Tables_number   1
_chemical_formula_structural   Li5(SiS3)2
_chemical_formula_sum   'Li5 Si2 S6'
_cell_volume   132.00000000
_cell_formula_units_Z   1
loop_
 _symmetry_equiv_pos_site_id
 _symmetry_equiv_pos_as_xyz
  1  'x, y, z'
loop_
 _atom_site_type_symbol
 _atom_site_label
 _atom_site_symmetry_multiplicity
 _atom_site_fract_x
 _atom_site_fract_y
 _atom_site_fract_z
 _atom_site_occupancy
  Li  Li0  1  0.95623616  0.91798833  0.97104589  1
  Li  Li1  1  0.10411291  0.04463679  0.29358332  1
  Li  Li2  1  0.21246634  0.27541300  0.42197496  1
  Li  Li3  1  0.27506346  0.36486684  0.65886575  1
  Li  Li4  1  0.24614836  0.58068347  0.75355268  1
  Si  Si5  1  0.34834332  0.58696390  0.91338165  1
  Si  Si6  1  0.50529570  0.65719791  0.20435144  1
  S  S7  1  0.56647780  0.93146270  0.36480833  1
  S  S8  1  0.62749657  0.90465195  0.61217020  1
  S  S9  1  0.69628499  0.06087001  0.89711651  1
  S  S10  1  0.80192228  0.27383097  0.95869978  1
  S  S11  1  0.74808467  0.30252644  0.12539093  1
  S  S12  1  0.90850643  0.47501007  0.44085607  1
