# generated using pymatgen
data_Li2AlO3
_symmetry_space_group_name_H-M   'P 1'
_cell_length_a   11.30836717
_cell_length_b   11.30836717
_cell_length_c   14.09386114
_cell_angle_alpha   90.00000000
_cell_angle_beta   90.00000000
_cell_angle_gamma   120.00000000
_symmetry_Int_Tables_number   1
_chemical_formula_structural   Li2AlO3
_chemical_formula_sum   'Li2 Al1 O3'
_cell_volume   1560.84731754
_cell_formula_units_Z   1
loop_
 _symmetry_equiv_pos_site_id
 _symmetry_equiv_pos_as_xyz
  1  'x, y, z'
loop_
 _atom_site_type_symbol
 _atom_site_label
 _atom_site_symmetry_multiplicity
 _atom_site_fract_x
 _atom_site_fract_y
 _atom_site_fract_z
 _atom_site_occupancy
  Li  Li0  1  0.05852772  0.07856240  0.95532685  1
  Li  Li1  1  0.25699034  0.17274390  0.38953851  1
  Al  Al2  1  0.42060725  0.46213478  0.89519540  1
  O  O3  1  0.53042022  0.78079727  0.36984200  1
  O  O4  1  0.65774295  0.16976438  0.67465220  1
  O  O5  1  0.92705335  0.38761534  0.18460564  1
