# generated using pymatgen
data_Li3ZrO5
_symmetry_space_group_name_H-M   'P 1'
_cell_length_a   11.00419267
_cell_length_b   11.00419267
_cell_length_c   11.80320507
_cell_angle_alpha   90.00000000
_cell_angle_beta   90.00000000
_cell_angle_gamma   90.00000000
_symmetry_Int_Tables_number   1
_chemical_formula_structural   Li3ZrO5
_chemical_formula_sum   'Li3 Zr1 O5'
_cell_volume   1429.27673228
_cell_formula_units_Z   1
loop_
 _symmetry_equiv_pos_site_id
 _symmetry_equiv_pos_as_xyz
  1  'x, y, z'
loop_
 _atom_site_type_symbol
 _atom_site_label
 _atom_site_symmetry_multiplicity
 _atom_site_fract_x
 _atom_site_fract_y
 _atom_site_fract_z
 _atom_site_occupancy
  Li  Li0  1  0.96060612  0.94800869  0.08712077  1
  Li  Li1  1  0.16316642  0.14479253  0.30570779  1
  Li  Li2  1  0.20004772  0.42523427  0.50442633  1
  Zr  Zr3  1  0.25069049  0.56006927  0.93430386  1
  O  O4  1  0.49930760  0.79169702  0.15142503  1
  O  O5  1  0.58115514  0.97853421  0.35844324  1
  O  O6  1  0.66537733  0.12525530  0.79753685  1
  O  O7  1  0.73132977  0.17303578  0.05359294  1
  O  O8  1  0.85488484  0.47655796  0.33322089  1
