# generated using pymatgen
data_LiLaTiO4
_symmetry_space_group_name_H-M   'P 1'
_cell_length_a   3.48758011
_cell_length_b   3.99995366
_cell_length_c   4.94618024
_cell_angle_alpha   90.00000000
_cell_angle_beta   90.00000000
_cell_angle_gamma   90.00000000
_symmetry_Int_Tables_number   1
_chemical_formula_structural   LiLaTiO4
_chemical_formula_sum   'Li1 La1 Ti1 O4'
_cell_volume   69.00000000
_cell_formula_units_Z   1
loop_
 _symmetry_equiv_pos_site_id
 _symmetry_equiv_pos_as_xyz
  1  'x, y, z'
loop_
 _atom_site_type_symbol
 _atom_site_label
 _atom_site_symmetry_multiplicity
 _atom_site_fract_x
 _atom_site_fract_y
 _atom_site_fract_z
 _atom_site_occupancy
  Li  Li0  1  0.92311955  0.99176740  0.05573319  1
  Ti  Ti1  1  0.20481625  0.16000804  0.36459348  1
  O  O2  1  0.20174309  0.45809668  0.73877351  1
  O  O3  1  0.33687136  0.76291728  0.12562174  1
  O  O4  1  0.52265227  0.99850970  0.44857260  1
  O  O5  1  0.75045409  0.20276247  0.86216252  1
  La  La6  1  0.85736492  0.48578370  0.23309025  1
