# generated using pymatgen
data_LiAlO3
_symmetry_space_group_name_H-M   'P 1'
_cell_length_a   9.93679888
_cell_length_b   9.93679888
_cell_length_c   10.68065762
_cell_angle_alpha   90.00000000
_cell_angle_beta   90.00000000
_cell_angle_gamma   120.00000000
_symmetry_Int_Tables_number   1
_chemical_formula_structural   LiAlO3
_chemical_formula_sum   'Li1 Al1 O3'
_cell_volume   913.31717635
_cell_formula_units_Z   1
loop_
 _symmetry_equiv_pos_site_id
 _symmetry_equiv_pos_as_xyz
  1  'x, y, z'
loop_
 _atom_site_type_symbol
 _atom_site_label
 _atom_site_symmetry_multiplicity
 _atom_site_fract_x
 _atom_site_fract_y
 _atom_site_fract_z
 _atom_site_occupancy
  Li  Li0  1  0.94043760  0.90436095  0.02677947  1
  Al  Al1  1  0.20530186  0.31213927  0.54036914  1
  O  O2  1  0.49740487  0.60814447  0.09102807  1
  O  O3  1  0.56705076  0.95872675  0.59620040  1
  O  O4  1  0.77483658  0.33545788  0.99904390  1
