# generated using pymatgen
data_Li3AlO5
_symmetry_space_group_name_H-M   'P 1'
_cell_length_a   4.11802082
_cell_length_b   4.11802082
_cell_length_c   6.03992982
_cell_angle_alpha   90.00000000
_cell_angle_beta   90.00000000
_cell_angle_gamma   120.00000000
_symmetry_Int_Tables_number   1
_chemical_formula_structural   Li3AlO5
_chemical_formula_sum   'Li3 Al1 O5'
_cell_volume   88.70326408
_cell_formula_units_Z   1
loop_
 _symmetry_equiv_pos_site_id
 _symmetry_equiv_pos_as_xyz
  1  'x, y, z'
loop_
 _atom_site_type_symbol
 _atom_site_label
 _atom_site_symmetry_multiplicity
 _atom_site_fract_x
 _atom_site_fract_y
 _atom_site_fract_z
 _atom_site_occupancy
  Li  Li0  1  0.00151071  0.02505384  0.02002982  1
  Li  Li1  1  0.12205139  0.18151078  0.38772281  1
  Li  Li2  1  0.13543092  0.28607109  0.53806526  1
  Al  Al3  1  0.32628005  0.53775848  0.84948422  1
  O  O4  1  0.42653708  0.65866203  0.15149646  1
  O  O5  1  0.62800114  0.95083770  0.49685119  1
  O  O6  1  0.63509375  0.15439684  0.83873837  1
  O  O7  1  0.84320508  0.30648588  0.13041638  1
  O  O8  1  0.81894997  0.34432588  0.36107554  1
