# generated using pymatgen
data_Li3AlO3
_symmetry_space_group_name_H-M   'P 1'
_cell_length_a   10.12807183
_cell_length_b   10.12807183
_cell_length_c   12.40705443
_cell_angle_alpha   90.00000000
_cell_angle_beta   90.00000000
_cell_angle_gamma   120.00000000
_symmetry_Int_Tables_number   1
_chemical_formula_structural   Li3AlO3
_chemical_formula_sum   'Li3 Al1 O3'
_cell_volume   1102.18085917
_cell_formula_units_Z   1
loop_
 _symmetry_equiv_pos_site_id
 _symmetry_equiv_pos_as_xyz
  1  'x, y, z'
loop_
 _atom_site_type_symbol
 _atom_site_label
 _atom_site_symmetry_multiplicity
 _atom_site_fract_x
 _atom_site_fract_y
 _atom_site_fract_z
 _atom_site_occupancy
  Li  Li0  1  0.06374920  0.05058165  0.02145210  1
  Li  Li1  1  0.18702881  0.13247322  0.38386589  1
  Li  Li2  1  0.18611172  0.44304711  0.82182129  1
  Al  Al3  1  0.44220607  0.63175280  0.02634386  1
  O  O4  1  0.61719583  0.97631796  0.42625381  1
  O  O5  1  0.72618432  0.09322447  0.92315494  1
  O  O6  1  0.93469484  0.34210475  0.26865041  1
