# generated using pymatgen
data_LiPS2
_symmetry_space_group_name_H-M   'P 1'
_cell_length_a   4.37172731
_cell_length_b   4.37172731
_cell_length_c   6.27877785
_cell_angle_alpha   90.00000000
_cell_angle_beta   90.00000000
_cell_angle_gamma   90.00000000
_symmetry_Int_Tables_number   1
_chemical_formula_structural   LiPS2
_chemical_formula_sum   'Li3 P3 S6'
_cell_volume   120.00000000
_cell_formula_units_Z   3
loop_
 _symmetry_equiv_pos_site_id
 _symmetry_equiv_pos_as_xyz
  1  'x, y, z'
loop_
 _atom_site_type_symbol
 _atom_site_label
 _atom_site_symmetry_multiplicity
 _atom_site_fract_x
 _atom_site_fract_y
 _atom_site_fract_z
 _atom_site_occupancy
  Li  Li0  1  0.03129543  0.96632443  0.93909493  1
  Li  Li1  1  0.98738642  0.21227682  0.13524292  1
  Li  Li2  1  0.09033733  0.29475811  0.41880643  1
  P  P3  1  0.17328417  0.35035539  0.65772977  1
  P  P4  1  0.32202815  0.63275478  0.85318652  1
  P  P5  1  0.43629339  0.65951096  0.04060529  1
  S  S6  1  0.42831201  0.70970598  0.37085988  1
  S  S7  1  0.51369558  0.02537480  0.42822230  1
  S  S8  1  0.75940873  0.15446376  0.78760513  1
  S  S9  1  0.84230401  0.20144610  0.94765610  1
  S  S10  1  0.83583627  0.28994377  0.14333789  1
  S  S11  1  0.82641531  0.58308624  0.32557517  1
