# generated using pymatgen
data_LiTiO3
_symmetry_space_group_name_H-M   'P 1'
_cell_length_a   11.93206643
_cell_length_b   11.93206643
_cell_length_c   11.93206643
_cell_angle_alpha   90.00000000
_cell_angle_beta   90.00000000
_cell_angle_gamma   90.00000000
_symmetry_Int_Tables_number   1
_chemical_formula_structural   LiTiO3
_chemical_formula_sum   'Li1 Ti1 O3'
_cell_volume   1698.81852497
_cell_formula_units_Z   1
loop_
 _symmetry_equiv_pos_site_id
 _symmetry_equiv_pos_as_xyz
  1  'x, y, z'
loop_
 _atom_site_type_symbol
 _atom_site_label
 _atom_site_symmetry_multiplicity
 _atom_site_fract_x
 _atom_site_fract_y
 _atom_site_fract_z
 _atom_site_occupancy
  Li  Li0  1  0.98286823  0.03721353  0.98174701  1
  Ti  Ti1  1  0.27546100  0.28728572  0.49346989  1
  O  O2  1  0.38580136  0.67720606  0.96976288  1
  O  O3  1  0.52712460  0.91935844  0.56900961  1
  O  O4  1  0.72182620  0.28919479  0.11697329  1
