# generated using pymatgen
data_Li5Ga2Br8N7
_symmetry_space_group_name_H-M   'P 1'
_cell_length_a   11.45824666
_cell_length_b   7.56867420
_cell_length_c   9.14415547
_cell_angle_alpha   104.07032765
_cell_angle_beta   105.11791774
_cell_angle_gamma   61.30773659
_symmetry_Int_Tables_number   1
_chemical_formula_structural   Li5Ga2Br8N7
_chemical_formula_sum   'Li5 Ga2 Br8 N7'
_cell_volume   665.02636886
_cell_formula_units_Z   1
loop_
 _symmetry_equiv_pos_site_id
 _symmetry_equiv_pos_as_xyz
  1  'x, y, z'
loop_
 _atom_site_type_symbol
 _atom_site_label
 _atom_site_symmetry_multiplicity
 _atom_site_fract_x
 _atom_site_fract_y
 _atom_site_fract_z
 _atom_site_occupancy
  Li  Li0  1  0.02929082  0.94628743  0.07669601  1
  Li  Li1  1  0.06440442  0.97796576  0.09742319  1
  Li  Li2  1  0.19043861  0.12455026  0.29041659  1
  Li  Li3  1  0.10431017  0.31469696  0.38558659  1
  Li  Li4  1  0.14129999  0.27728632  0.53087824  1
  Ga  Ga5  1  0.31015584  0.35687602  0.68554542  1
  Ga  Ga6  1  0.27115313  0.36648368  0.70031663  1
  Br  Br7  1  0.27273512  0.42878413  0.80979387  1
  Br  Br8  1  0.35696993  0.50754062  0.01629324  1
  Br  Br9  1  0.40625771  0.59954202  0.15818124  1
  Br  Br10  1  0.44670667  0.70831204  0.18360802  1
  Br  Br11  1  0.54394664  0.89025071  0.36129622  1
  Br  Br12  1  0.52684952  0.90893527  0.44590129  1
  Br  Br13  1  0.66899067  0.88727395  0.58253386  1
  Br  Br14  1  0.53730815  0.10399651  0.64720168  1
  N  N15  1  0.66583896  0.02697110  0.72588570  1
  N  N16  1  0.76875948  0.17340397  0.82687511  1
  N  N17  1  0.83456729  0.33937887  0.02951454  1
  N  N18  1  0.77442290  0.22965063  0.10974845  1
  N  N19  1  0.77952336  0.42361864  0.19356141  1
  N  N20  1  0.81420207  0.42503417  0.46029228  1
  N  N21  1  0.95958263  0.46691160  0.51782548  1
