# generated using pymatgen
data_Li5Nb4Ga3Br5
_symmetry_space_group_name_H-M   'P 1'
_cell_length_a   9.80919732
_cell_length_b   8.67503720
_cell_length_c   9.58368267
_cell_angle_alpha   90.00000000
_cell_angle_beta   90.00000000
_cell_angle_gamma   90.00000000
_symmetry_Int_Tables_number   1
_chemical_formula_structural   Li5Nb4Ga3Br5
_chemical_formula_sum   'Li5 Nb4 Ga3 Br5'
_cell_volume   815.52493100
_cell_formula_units_Z   1
loop_
 _symmetry_equiv_pos_site_id
 _symmetry_equiv_pos_as_xyz
  1  'x, y, z'
loop_
 _atom_site_type_symbol
 _atom_site_label
 _atom_site_symmetry_multiplicity
 _atom_site_fract_x
 _atom_site_fract_y
 _atom_site_fract_z
 _atom_site_occupancy
  Li  Li0  1  0.07000675  0.06624557  0.04430630  1
  Li  Li1  1  0.99892000  0.09394515  0.16222228  1
  Li  Li2  1  0.05218012  0.26430546  0.33923484  1
  Li  Li3  1  0.16184564  0.36459557  0.53643380  1
  Li  Li4  1  0.30628728  0.48006474  0.70663882  1
  Ga  Ga5  1  0.35897063  0.56957138  0.77329443  1
  Ga  Ga6  1  0.34702043  0.65117485  0.01006638  1
  Ga  Ga7  1  0.45777808  0.69125381  0.04366230  1
  Nb  Nb8  1  0.44334647  0.80490783  0.14206468  1
  Nb  Nb9  1  0.52064656  0.87182661  0.47868615  1
  Nb  Nb10  1  0.58492577  0.87484701  0.59457125  1
  Nb  Nb11  1  0.66069390  0.09195726  0.68639414  1
  Br  Br12  1  0.79647131  0.11355766  0.93638297  1
  Br  Br13  1  0.72220791  0.25912628  0.06534788  1
  Br  Br14  1  0.72856333  0.41254775  0.24589265  1
  Br  Br15  1  0.85370867  0.40271177  0.29540582  1
  Br  Br16  1  0.86218529  0.53533231  0.55362793  1
