# generated using pymatgen
data_Li3(LaP)2
_symmetry_space_group_name_H-M   'P 1'
_cell_length_a   4.58983691
_cell_length_b   7.05844753
_cell_length_c   12.88811561
_cell_angle_alpha   60.40087478
_cell_angle_beta   68.94055163
_cell_angle_gamma   70.03283468
_symmetry_Int_Tables_number   1
_chemical_formula_structural   Li3(LaP)2
_chemical_formula_sum   'Li6 La4 P4'
_cell_volume   331.80969603
_cell_formula_units_Z   2
loop_
 _symmetry_equiv_pos_site_id
 _symmetry_equiv_pos_as_xyz
  1  'x, y, z'
loop_
 _atom_site_type_symbol
 _atom_site_label
 _atom_site_symmetry_multiplicity
 _atom_site_fract_x
 _atom_site_fract_y
 _atom_site_fract_z
 _atom_site_occupancy
  Li  Li0  1  0.03590490  0.07526454  0.95215097  1
  Li  Li1  1  0.04642125  0.05526566  0.19651233  1
  Li  Li2  1  0.08082776  0.13275861  0.28605182  1
  Li  Li3  1  0.28245674  0.31580535  0.63710863  1
  Li  Li4  1  0.27000199  0.50994349  0.67871404  1
  Li  Li5  1  0.35268200  0.63525424  0.92888680  1
  La  La6  1  0.50983751  0.68010782  0.11232629  1
  La  La7  1  0.42801623  0.75592785  0.22691705  1
  La  La8  1  0.54698325  0.85680884  0.42066694  1
  La  La9  1  0.59598071  0.01772853  0.65221242  1
  P  P10  1  0.66466684  0.16580836  0.80816661  1
  P  P11  1  0.85116260  0.20957986  0.10187687  1
  P  P12  1  0.89381301  0.43665718  0.26043245  1
  P  P13  1  0.01883713  0.56561084  0.40317356  1
