# generated using pymatgen
data_BaLi2TiO4
_symmetry_space_group_name_H-M   'P 1'
_cell_length_a   3.95789161
_cell_length_b   3.95789161
_cell_length_c   3.95789161
_cell_angle_alpha   90.00000000
_cell_angle_beta   90.00000000
_cell_angle_gamma   90.00000000
_symmetry_Int_Tables_number   1
_chemical_formula_structural   BaLi2TiO4
_chemical_formula_sum   'Ba1 Li2 Ti1 O4'
_cell_volume   62.00000000
_cell_formula_units_Z   1
loop_
 _symmetry_equiv_pos_site_id
 _symmetry_equiv_pos_as_xyz
  1  'x, y, z'
loop_
 _atom_site_type_symbol
 _atom_site_label
 _atom_site_symmetry_multiplicity
 _atom_site_fract_x
 _atom_site_fract_y
 _atom_site_fract_z
 _atom_site_occupancy
  Li  Li0  1  0.97309422  0.04145591  0.97748150  1
  Li  Li1  1  0.05903238  0.16190234  0.35539519  1
  Ti  Ti2  1  0.28277139  0.43485041  0.70529836  1
  O  O3  1  0.38134700  0.60550382  0.92632962  1
  O  O4  1  0.50379486  0.84452837  0.25931350  1
  O  O5  1  0.66570097  0.96947937  0.62770698  1
  O  O6  1  0.74773117  0.19301332  0.99086261  1
  Ba  Ba7  1  0.93898220  0.45116694  0.36728542  1
