# generated using pymatgen
data_Li3Ga3F7
_symmetry_space_group_name_H-M   'P 1'
_cell_length_a   10.56234639
_cell_length_b   10.56234639
_cell_length_c   10.97624733
_cell_angle_alpha   90.00000000
_cell_angle_beta   90.00000000
_cell_angle_gamma   90.00000000
_symmetry_Int_Tables_number   1
_chemical_formula_structural   Li3Ga3F7
_chemical_formula_sum   'Li3 Ga3 F7'
_cell_volume   1224.54485127
_cell_formula_units_Z   1
loop_
 _symmetry_equiv_pos_site_id
 _symmetry_equiv_pos_as_xyz
  1  'x, y, z'
loop_
 _atom_site_type_symbol
 _atom_site_label
 _atom_site_symmetry_multiplicity
 _atom_site_fract_x
 _atom_site_fract_y
 _atom_site_fract_z
 _atom_site_occupancy
  Li  Li0  1  0.91720048  0.90240601  0.04863970  1
  Li  Li1  1  0.08807037  0.07119667  0.16528676  1
  Li  Li2  1  0.22687034  0.16976101  0.45696375  1
  Ga  Ga3  1  0.29879084  0.33725852  0.56149844  1
  Ga  Ga4  1  0.26391766  0.52736018  0.84502314  1
  Ga  Ga5  1  0.37955041  0.68005472  0.04670054  1
  F  F6  1  0.51509331  0.69021113  0.17611934  1
  F  F7  1  0.44891588  0.79045714  0.39966630  1
  F  F8  1  0.66192187  0.94555433  0.53017941  1
  F  F9  1  0.76348150  0.10291156  0.80988143  1
  F  F10  1  0.76031762  0.14976261  0.95863907  1
  F  F11  1  0.76230795  0.37554155  0.27930563  1
  F  F12  1  0.95560261  0.51692612  0.35577264  1
