# generated using pymatgen
data_Li2TiO6
_symmetry_space_group_name_H-M   'P 1'
_cell_length_a   8.77124890
_cell_length_b   8.77124890
_cell_length_c   8.77124890
_cell_angle_alpha   90.00000000
_cell_angle_beta   90.00000000
_cell_angle_gamma   90.00000000
_symmetry_Int_Tables_number   1
_chemical_formula_structural   Li2TiO6
_chemical_formula_sum   'Li2 Ti1 O6'
_cell_volume   674.81434370
_cell_formula_units_Z   1
loop_
 _symmetry_equiv_pos_site_id
 _symmetry_equiv_pos_as_xyz
  1  'x, y, z'
loop_
 _atom_site_type_symbol
 _atom_site_label
 _atom_site_symmetry_multiplicity
 _atom_site_fract_x
 _atom_site_fract_y
 _atom_site_fract_z
 _atom_site_occupancy
  Li  Li0  1  0.93238814  0.01340069  0.90733131  1
  Li  Li1  1  0.09906499  0.20119183  0.32881102  1
  Ti  Ti2  1  0.13743772  0.26323746  0.65761564  1
  O  O3  1  0.37827796  0.45856195  0.89256422  1
  O  O4  1  0.51494968  0.63069739  0.25479881  1
  O  O5  1  0.48107223  0.96843657  0.36332372  1
  O  O6  1  0.67497684  0.10434733  0.68629757  1
  O  O7  1  0.80251972  0.16743695  0.95629026  1
  O  O8  1  0.82184035  0.35358786  0.25358796  1
