# generated using pymatgen
data_Li3Ta3S5
_symmetry_space_group_name_H-M   'P 1'
_cell_length_a   13.59117314
_cell_length_b   6.05462787
_cell_length_c   8.56855704
_cell_angle_alpha   113.91216407
_cell_angle_beta   93.13016625
_cell_angle_gamma   118.33183816
_symmetry_Int_Tables_number   1
_chemical_formula_structural   Li3Ta3S5
_chemical_formula_sum   'Li3 Ta3 S5'
_cell_volume   539.98579329
_cell_formula_units_Z   1
loop_
 _symmetry_equiv_pos_site_id
 _symmetry_equiv_pos_as_xyz
  1  'x, y, z'
loop_
 _atom_site_type_symbol
 _atom_site_label
 _atom_site_symmetry_multiplicity
 _atom_site_fract_x
 _atom_site_fract_y
 _atom_site_fract_z
 _atom_site_occupancy
  Li  Li0  1  0.02322801  0.95234742  0.06147817  1
  Li  Li1  1  0.13451532  0.05094010  0.17472785  1
  Li  Li2  1  0.13863752  0.31327458  0.52905240  1
  Ta  Ta3  1  0.21313701  0.44552239  0.62852731  1
  Ta  Ta4  1  0.37127128  0.50029784  0.89539684  1
  Ta  Ta5  1  0.37652672  0.76638834  0.24621571  1
  S  S6  1  0.60168651  0.87638898  0.49497940  1
  S  S7  1  0.57921865  0.97930102  0.57307061  1
  S  S8  1  0.76572891  0.12077328  0.81708251  1
  S  S9  1  0.76178979  0.24333094  0.11842739  1
  S  S10  1  0.87973333  0.40368676  0.32522680  1
