# generated using pymatgen
data_Li3ScTaO6
_symmetry_space_group_name_H-M   'P 1'
_cell_length_a   9.17373080
_cell_length_b   9.17373080
_cell_length_c   9.62760388
_cell_angle_alpha   90.00000000
_cell_angle_beta   90.00000000
_cell_angle_gamma   90.00000000
_symmetry_Int_Tables_number   1
_chemical_formula_structural   Li3ScTaO6
_chemical_formula_sum   'Li3 Sc1 Ta1 O6'
_cell_volume   810.23350253
_cell_formula_units_Z   1
loop_
 _symmetry_equiv_pos_site_id
 _symmetry_equiv_pos_as_xyz
  1  'x, y, z'
loop_
 _atom_site_type_symbol
 _atom_site_label
 _atom_site_symmetry_multiplicity
 _atom_site_fract_x
 _atom_site_fract_y
 _atom_site_fract_z
 _atom_site_occupancy
  Li  Li0  1  0.91696572  0.93077794  0.96366171  1
  Li  Li1  1  0.19038303  0.11770858  0.20998697  1
  Li  Li2  1  0.22460621  0.26971469  0.41656215  1
  Ta  Ta3  1  0.35299381  0.36103077  0.62455036  1
  O  O4  1  0.39493179  0.55468807  0.89109493  1
  O  O5  1  0.35859854  0.81289803  0.10707625  1
  O  O6  1  0.46912520  0.90763690  0.41047310  1
  O  O7  1  0.55964780  0.97549176  0.66922977  1
  O  O8  1  0.71596755  0.27014872  0.88451986  1
  O  O9  1  0.83780854  0.30916247  0.09177196  1
  Sc  Sc10  1  0.83740292  0.37161507  0.44185988  1
