# generated using pymatgen
data_LiGaS6
_symmetry_space_group_name_H-M   'P 1'
_cell_length_a   8.74075638
_cell_length_b   8.74075638
_cell_length_c   8.82517440
_cell_angle_alpha   90.00000000
_cell_angle_beta   90.00000000
_cell_angle_gamma   90.00000000
_symmetry_Int_Tables_number   1
_chemical_formula_structural   LiGaS6
_chemical_formula_sum   'Li1 Ga1 S6'
_cell_volume   674.25057909
_cell_formula_units_Z   1
loop_
 _symmetry_equiv_pos_site_id
 _symmetry_equiv_pos_as_xyz
  1  'x, y, z'
loop_
 _atom_site_type_symbol
 _atom_site_label
 _atom_site_symmetry_multiplicity
 _atom_site_fract_x
 _atom_site_fract_y
 _atom_site_fract_z
 _atom_site_occupancy
  Li  Li0  1  0.99054481  0.03536181  0.04243438  1
  Ga  Ga1  1  0.18116047  0.20021171  0.39866315  1
  S  S2  1  0.18235582  0.48238163  0.73624627  1
  S  S3  1  0.38739128  0.61241872  0.91725425  1
  S  S4  1  0.41646890  0.81311955  0.29555676  1
  S  S5  1  0.63221014  0.08734355  0.59632137  1
  S  S6  1  0.65494972  0.17774980  0.92747479  1
  S  S7  1  0.79540132  0.36491948  0.20853714  1
