# generated using pymatgen
data_LiAlO5
_symmetry_space_group_name_H-M   'P 1'
_cell_length_a   6.97547667
_cell_length_b   6.97547667
_cell_length_c   12.21521964
_cell_angle_alpha   90.00000000
_cell_angle_beta   90.00000000
_cell_angle_gamma   120.00000000
_symmetry_Int_Tables_number   1
_chemical_formula_structural   LiAlO5
_chemical_formula_sum   'Li1 Al1 O5'
_cell_volume   514.73025141
_cell_formula_units_Z   1
loop_
 _symmetry_equiv_pos_site_id
 _symmetry_equiv_pos_as_xyz
  1  'x, y, z'
loop_
 _atom_site_type_symbol
 _atom_site_label
 _atom_site_symmetry_multiplicity
 _atom_site_fract_x
 _atom_site_fract_y
 _atom_site_fract_z
 _atom_site_occupancy
  Li  Li0  1  0.07856240  0.95532685  0.09032367  1
  Al  Al1  1  0.04593438  0.18434803  0.46127391  1
  O  O2  1  0.20851574  0.48481445  0.77842022  1
  O  O3  1  0.40036869  0.75427057  0.11307628  1
  O  O4  1  0.66252629  0.85389029  0.58972002  1
  O  O5  1  0.75356772  0.15865326  0.89466013  1
  O  O6  1  0.90940631  0.48108289  0.32333427  1
