# generated using pymatgen
data_Li2TiO3
_symmetry_space_group_name_H-M   'P 1'
_cell_length_a   4.34158140
_cell_length_b   4.34158140
_cell_length_c   4.34158140
_cell_angle_alpha   90.00000000
_cell_angle_beta   90.00000000
_cell_angle_gamma   90.00000000
_symmetry_Int_Tables_number   1
_chemical_formula_structural   Li2TiO3
_chemical_formula_sum   'Li2 Ti1 O3'
_cell_volume   81.83589634
_cell_formula_units_Z   1
loop_
 _symmetry_equiv_pos_site_id
 _symmetry_equiv_pos_as_xyz
  1  'x, y, z'
loop_
 _atom_site_type_symbol
 _atom_site_label
 _atom_site_symmetry_multiplicity
 _atom_site_fract_x
 _atom_site_fract_y
 _atom_site_fract_z
 _atom_site_occupancy
  Li  Li0  1  0.96477876  0.08589846  0.94447963  1
  Li  Li1  1  0.09169423  0.24049688  0.43028294  1
  Ti  Ti2  1  0.39695136  0.58487044  0.81225054  1
  O  O3  1  0.53853293  0.83850588  0.26523616  1
  O  O4  1  0.58465499  0.04971255  0.77252316  1
  O  O5  1  0.75350858  0.44053204  0.24028685  1
