# generated using pymatgen
data_Li2LaTiO4
_symmetry_space_group_name_H-M   'P 1'
_cell_length_a   3.61746833
_cell_length_b   4.14892424
_cell_length_c   5.13039121
_cell_angle_alpha   90.00000000
_cell_angle_beta   90.00000000
_cell_angle_gamma   90.00000000
_symmetry_Int_Tables_number   1
_chemical_formula_structural   Li2LaTiO4
_chemical_formula_sum   'Li2 La1 Ti1 O4'
_cell_volume   77.00000000
_cell_formula_units_Z   1
loop_
 _symmetry_equiv_pos_site_id
 _symmetry_equiv_pos_as_xyz
  1  'x, y, z'
loop_
 _atom_site_type_symbol
 _atom_site_label
 _atom_site_symmetry_multiplicity
 _atom_site_fract_x
 _atom_site_fract_y
 _atom_site_fract_z
 _atom_site_occupancy
  Li  Li0  1  0.92311955  0.99176740  0.05573319  1
  Li  Li1  1  0.18695911  0.13111518  0.31784348  1
  Ti  Ti2  1  0.16602880  0.40031096  0.64527351  1
  O  O3  1  0.28329993  0.67623871  0.98537174  1
  O  O4  1  0.45122370  0.88293828  0.26157260  1
  O  O5  1  0.66116837  0.05829818  0.62841252  1
  O  O6  1  0.75022206  0.31242656  0.95259025  1
  La  La7  1  0.92420668  0.31674815  0.28273392  1
