# generated using pymatgen
data_Li2ScBr3
_symmetry_space_group_name_H-M   'P 1'
_cell_length_a   4.91241192
_cell_length_b   4.91241192
_cell_length_c   5.46996287
_cell_angle_alpha   90.00000000
_cell_angle_beta   90.00000000
_cell_angle_gamma   90.00000000
_symmetry_Int_Tables_number   1
_chemical_formula_structural   Li2ScBr3
_chemical_formula_sum   'Li4 Sc2 Br6'
_cell_volume   132.00000000
_cell_formula_units_Z   2
loop_
 _symmetry_equiv_pos_site_id
 _symmetry_equiv_pos_as_xyz
  1  'x, y, z'
loop_
 _atom_site_type_symbol
 _atom_site_label
 _atom_site_symmetry_multiplicity
 _atom_site_fract_x
 _atom_site_fract_y
 _atom_site_fract_z
 _atom_site_occupancy
  Li  Li0  1  0.92668660  0.94882714  0.96674573  1
  Li  Li1  1  0.02473246  0.09919312  0.23992933  1
  Li  Li2  1  0.24895028  0.23177059  0.50951071  1
  Li  Li3  1  0.21477519  0.37756362  0.69131299  1
  Sc  Sc4  1  0.27167242  0.45295872  0.85498717  1
  Sc  Sc5  1  0.47448856  0.63105091  0.08250231  1
  Br  Br6  1  0.51458208  0.88100998  0.28216224  1
  Br  Br7  1  0.55399024  0.91135877  0.48409234  1
  Br  Br8  1  0.62983440  0.05792239  0.84463348  1
  Br  Br9  1  0.81449015  0.19646027  0.91600567  1
  Br  Br10  1  0.77271889  0.39083899  0.15451101  1
  Br  Br11  1  0.90202518  0.39646421  0.32314185  1
