# generated using pymatgen
data_Li4TiO6
_symmetry_space_group_name_H-M   'P 1'
_cell_length_a   10.14391176
_cell_length_b   10.14391176
_cell_length_c   10.14391176
_cell_angle_alpha   90.00000000
_cell_angle_beta   90.00000000
_cell_angle_gamma   90.00000000
_symmetry_Int_Tables_number   1
_chemical_formula_structural   Li4TiO6
_chemical_formula_sum   'Li4 Ti1 O6'
_cell_volume   1043.79782673
_cell_formula_units_Z   1
loop_
 _symmetry_equiv_pos_site_id
 _symmetry_equiv_pos_as_xyz
  1  'x, y, z'
loop_
 _atom_site_type_symbol
 _atom_site_label
 _atom_site_symmetry_multiplicity
 _atom_site_fract_x
 _atom_site_fract_y
 _atom_site_fract_z
 _atom_site_occupancy
  Li  Li0  1  0.93393674  0.96079456  0.06047483  1
  Li  Li1  1  0.02048709  0.18192593  0.19910672  1
  Li  Li2  1  0.09164872  0.32475437  0.40950612  1
  Li  Li3  1  0.27333616  0.39787257  0.67317139  1
  Ti  Ti4  1  0.26540197  0.49766074  0.94331526  1
  O  O5  1  0.47383124  0.68149435  0.22596577  1
  O  O6  1  0.56409939  0.84251113  0.48014799  1
  O  O7  1  0.56797160  0.99897142  0.72865555  1
  O  O8  1  0.81441326  0.14721523  0.93881138  1
  O  O9  1  0.86765264  0.34472858  0.17668275  1
  O  O10  1  0.87962874  0.44939004  0.28653408  1
