# generated using pymatgen
data_Li3Sc2Cl7
_symmetry_space_group_name_H-M   'P 1'
_cell_length_a   4.99314214
_cell_length_b   4.99314214
_cell_length_c   4.33187481
_cell_angle_alpha   90.00000000
_cell_angle_beta   90.00000000
_cell_angle_gamma   90.00000000
_symmetry_Int_Tables_number   1
_chemical_formula_structural   Li3Sc2Cl7
_chemical_formula_sum   'Li3 Sc2 Cl7'
_cell_volume   108.00000000
_cell_formula_units_Z   1
loop_
 _symmetry_equiv_pos_site_id
 _symmetry_equiv_pos_as_xyz
  1  'x, y, z'
loop_
 _atom_site_type_symbol
 _atom_site_label
 _atom_site_symmetry_multiplicity
 _atom_site_fract_x
 _atom_site_fract_y
 _atom_site_fract_z
 _atom_site_occupancy
  Li  Li0  1  0.06528353  0.00923440  0.98412062  1
  Li  Li1  1  0.08111173  0.03610418  0.22624410  1
  Li  Li2  1  0.22687451  0.33099172  0.42351543  1
  Sc  Sc3  1  0.26145304  0.44793872  0.68914116  1
  Sc  Sc4  1  0.27211045  0.59199303  0.87545677  1
  Cl  Cl5  1  0.47414064  0.70442243  0.05874812  1
  Cl  Cl6  1  0.49694218  0.73913760  0.30758867  1
  Cl  Cl7  1  0.62561904  0.85680660  0.50842450  1
  Cl  Cl8  1  0.63981395  0.16689410  0.65510227  1
  Cl  Cl9  1  0.68311675  0.28263397  0.87721802  1
  Cl  Cl10  1  0.79874429  0.40212349  0.25769359  1
  Cl  Cl11  1  0.96221389  0.46846012  0.38197343  1
