# generated using pymatgen
data_LiAl3S5
_symmetry_space_group_name_H-M   'P 1'
_cell_length_a   11.39019969
_cell_length_b   11.39019969
_cell_length_c   11.47365168
_cell_angle_alpha   90.00000000
_cell_angle_beta   90.00000000
_cell_angle_gamma   90.00000000
_symmetry_Int_Tables_number   1
_chemical_formula_structural   LiAl3S5
_chemical_formula_sum   'Li1 Al3 S5'
_cell_volume   1488.55311958
_cell_formula_units_Z   1
loop_
 _symmetry_equiv_pos_site_id
 _symmetry_equiv_pos_as_xyz
  1  'x, y, z'
loop_
 _atom_site_type_symbol
 _atom_site_label
 _atom_site_symmetry_multiplicity
 _atom_site_fract_x
 _atom_site_fract_y
 _atom_site_fract_z
 _atom_site_occupancy
  Li  Li0  1  0.07844560  0.92537661  0.00974293  1
  Al  Al1  1  0.09013644  0.17365255  0.30839282  1
  Al  Al2  1  0.23236133  0.35676822  0.66963412  1
  Al  Al3  1  0.34822673  0.53907503  0.85439180  1
  S  S4  1  0.39267533  0.75890137  0.25967480  1
  S  S5  1  0.57654195  0.82185740  0.44789175  1
  S  S6  1  0.70138021  0.10538068  0.76813328  1
  S  S7  1  0.72455278  0.23064170  0.95556161  1
  S  S8  1  0.79810703  0.37361144  0.30774510  1
