# generated using pymatgen
data_Li2TiP3O7
_symmetry_space_group_name_H-M   'P 1'
_cell_length_a   4.27846221
_cell_length_b   4.27846221
_cell_length_c   5.13514193
_cell_angle_alpha   90.00000000
_cell_angle_beta   90.00000000
_cell_angle_gamma   90.00000000
_symmetry_Int_Tables_number   1
_chemical_formula_structural   Li2TiP3O7
_chemical_formula_sum   'Li2 Ti1 P3 O7'
_cell_volume   94.00000000
_cell_formula_units_Z   1
loop_
 _symmetry_equiv_pos_site_id
 _symmetry_equiv_pos_as_xyz
  1  'x, y, z'
loop_
 _atom_site_type_symbol
 _atom_site_label
 _atom_site_symmetry_multiplicity
 _atom_site_fract_x
 _atom_site_fract_y
 _atom_site_fract_z
 _atom_site_occupancy
  Li  Li0  1  0.05852756  0.09110329  0.07328970  1
  Li  Li1  1  0.04330500  0.20116162  0.20393261  1
  Ti  Ti2  1  0.11373528  0.32915917  0.47608368  1
  P  P3  1  0.21528947  0.29869061  0.70056322  1
  P  P4  1  0.37981342  0.40539068  0.71735987  1
  P  P5  1  0.43102580  0.59151667  0.08597826  1
  O  O6  1  0.43762391  0.76763767  0.11715712  1
  O  O7  1  0.52997491  0.80066446  0.48967915  1
  O  O8  1  0.56924435  0.90049178  0.60901587  1
  O  O9  1  0.67968954  0.10539890  0.83468709  1
  O  O10  1  0.75233896  0.15825227  0.04326140  1
  O  O11  1  0.81357640  0.45630921  0.29662931  1
  O  O12  1  0.85769263  0.43328809  0.42584070  1
