# generated using pymatgen
data_Li6Zr2Ga3O8
_symmetry_space_group_name_H-M   'P 1'
_cell_length_a   13.71290169
_cell_length_b   10.70366341
_cell_length_c   11.24458036
_cell_angle_alpha   74.09492115
_cell_angle_beta   115.02545150
_cell_angle_gamma   113.36287898
_symmetry_Int_Tables_number   1
_chemical_formula_structural   Li6Zr2Ga3O8
_chemical_formula_sum   'Li6 Zr2 Ga3 O8'
_cell_volume   1361.64531347
_cell_formula_units_Z   1
loop_
 _symmetry_equiv_pos_site_id
 _symmetry_equiv_pos_as_xyz
  1  'x, y, z'
loop_
 _atom_site_type_symbol
 _atom_site_label
 _atom_site_symmetry_multiplicity
 _atom_site_fract_x
 _atom_site_fract_y
 _atom_site_fract_z
 _atom_site_occupancy
  Li  Li0  1  0.09034104  0.03165459  0.00999847  1
  Li  Li1  1  0.04296016  0.99018043  0.13625641  1
  Li  Li2  1  0.20470817  0.17623949  0.26523607  1
  Li  Li3  1  0.25398918  0.27866250  0.48356037  1
  Li  Li4  1  0.28165852  0.37856615  0.49466110  1
  Li  Li5  1  0.28530161  0.38287257  0.69862215  1
  Zr  Zr6  1  0.36661766  0.50629580  0.87337297  1
  Zr  Zr7  1  0.39722934  0.64232656  0.04000453  1
  Ga  Ga8  1  0.44038099  0.74857515  0.17918758  1
  Ga  Ga9  1  0.53984718  0.68382914  0.32790497  1
  Ga  Ga10  1  0.44915235  0.82223748  0.38578893  1
  O  O11  1  0.54459119  0.03063279  0.45868470  1
  O  O12  1  0.66911748  0.95332127  0.57035479  1
  O  O13  1  0.76933971  0.07008502  0.74524448  1
  O  O14  1  0.79612230  0.25799986  0.01080212  1
  O  O15  1  0.74643989  0.29410640  0.13970560  1
  O  O16  1  0.85603500  0.33754030  0.13271810  1
  O  O17  1  0.91254899  0.49307558  0.36363091  1
  O  O18  1  0.90141888  0.59034806  0.40909082  1
