# generated using pymatgen
data_Li4P2S7
_symmetry_space_group_name_H-M   'P 1'
_cell_length_a   4.51869487
_cell_length_b   4.51869487
_cell_length_c   6.46469291
_cell_angle_alpha   90.00000000
_cell_angle_beta   90.00000000
_cell_angle_gamma   90.00000000
_symmetry_Int_Tables_number   1
_chemical_formula_structural   Li4P2S7
_chemical_formula_sum   'Li4 P2 S7'
_cell_volume   132.00000000
_cell_formula_units_Z   1
loop_
 _symmetry_equiv_pos_site_id
 _symmetry_equiv_pos_as_xyz
  1  'x, y, z'
loop_
 _atom_site_type_symbol
 _atom_site_label
 _atom_site_symmetry_multiplicity
 _atom_site_fract_x
 _atom_site_fract_y
 _atom_site_fract_z
 _atom_site_occupancy
  Li  Li0  1  0.07670885  0.00054760  0.02081167  1
  Li  Li1  1  0.08841684  0.18171837  0.23609247  1
  Li  Li2  1  0.08612326  0.15169913  0.49446232  1
  Li  Li3  1  0.31146264  0.35557221  0.51112709  1
  P  P4  1  0.36025776  0.49173408  0.88431124  1
  P  P5  1  0.39770214  0.53526976  0.09800306  1
  S  S6  1  0.53321316  0.65249718  0.18991914  1
  S  S7  1  0.59214078  0.77224558  0.42840883  1
  S  S8  1  0.69572390  0.89947102  0.60723501  1
  S  S9  1  0.74620532  0.10394915  0.88997691  1
  S  S10  1  0.70216852  0.23674935  0.11192545  1
  S  S11  1  0.80060849  0.38248625  0.11880850  1
  S  S12  1  0.85670584  0.41059281  0.37413836  1
