# generated using pymatgen
data_Li7LaZr2O13
_symmetry_space_group_name_H-M   'P 1'
_cell_length_a   5.23728510
_cell_length_b   5.23728510
_cell_length_c   7.10922370
_cell_angle_alpha   90.00000000
_cell_angle_beta   90.00000000
_cell_angle_gamma   90.00000000
_symmetry_Int_Tables_number   1
_chemical_formula_structural   Li7LaZr2O13
_chemical_formula_sum   'Li7 La1 Zr2 O13'
_cell_volume   195.00000000
_cell_formula_units_Z   1
loop_
 _symmetry_equiv_pos_site_id
 _symmetry_equiv_pos_as_xyz
  1  'x, y, z'
loop_
 _atom_site_type_symbol
 _atom_site_label
 _atom_site_symmetry_multiplicity
 _atom_site_fract_x
 _atom_site_fract_y
 _atom_site_fract_z
 _atom_site_occupancy
  Li  Li0  1  0.91275192  0.04307224  0.90904952  1
  Li  Li1  1  0.12993341  0.05370165  0.20557410  1
  Li  Li2  1  0.09294315  0.19145160  0.30760956  1
  Li  Li3  1  0.12990297  0.22465319  0.39158590  1
  Li  Li4  1  0.19897749  0.23544273  0.51024298  1
  Li  Li5  1  0.13455053  0.29476636  0.59269779  1
  Li  Li6  1  0.34889419  0.45169040  0.63683042  1
  La  La7  1  0.36654379  0.50038727  0.80457463  1
  Zr  Zr8  1  0.35404333  0.52979936  0.97576777  1
  Zr  Zr9  1  0.37548084  0.73291381  0.07089210  1
  O  O10  1  0.52486673  0.69454115  0.22464380  1
  O  O11  1  0.55829030  0.84600933  0.22425618  1
  O  O12  1  0.57120304  0.85008408  0.41717858  1
  O  O13  1  0.46679377  0.87116517  0.40256132  1
  O  O14  1  0.65280187  0.93737683  0.67748320  1
  O  O15  1  0.69557919  0.07473780  0.66205008  1
  O  O16  1  0.78264533  0.11252161  0.73895374  1
  O  O17  1  0.63998430  0.27708316  0.92347456  1
  O  O18  1  0.77081854  0.29689426  0.11700065  1
  O  O19  1  0.92237395  0.25701010  0.21671754  1
  O  O20  1  0.91149549  0.36519605  0.36998835  1
  O  O21  1  0.90772317  0.43005114  0.33579130  1
  O  O22  1  0.92479864  0.63044372  0.43328101  1
