# generated using pymatgen
data_Li6La(GaS)3
_symmetry_space_group_name_H-M   'P 1'
_cell_length_a   9.84256424
_cell_length_b   9.84256424
_cell_length_c   9.64504420
_cell_angle_alpha   90.00000000
_cell_angle_beta   90.00000000
_cell_angle_gamma   90.00000000
_symmetry_Int_Tables_number   1
_chemical_formula_structural   Li6La(GaS)3
_chemical_formula_sum   'Li6 La1 Ga3 S3'
_cell_volume   934.37398446
_cell_formula_units_Z   1
loop_
 _symmetry_equiv_pos_site_id
 _symmetry_equiv_pos_as_xyz
  1  'x, y, z'
loop_
 _atom_site_type_symbol
 _atom_site_label
 _atom_site_symmetry_multiplicity
 _atom_site_fract_x
 _atom_site_fract_y
 _atom_site_fract_z
 _atom_site_occupancy
  Li  Li0  1  0.96204216  0.00145668  0.01835426  1
  Li  Li1  1  0.14440943  0.09318377  0.28944190  1
  Li  Li2  1  0.23720450  0.21359895  0.35897529  1
  Li  Li3  1  0.15256450  0.38367353  0.61745796  1
  Li  Li4  1  0.22021111  0.51213064  0.74334766  1
  Li  Li5  1  0.45779346  0.63150333  0.90692919  1
  Ga  Ga6  1  0.47951869  0.75263010  0.11235069  1
  Ga  Ga7  1  0.47985699  0.78813605  0.40737606  1
  Ga  Ga8  1  0.66562743  0.02594625  0.60093051  1
  S  S9  1  0.65455567  0.11515032  0.79133089  1
  S  S10  1  0.78821716  0.25337297  0.99984336  1
  S  S11  1  0.86661644  0.27699952  0.13189742  1
  La  La12  1  0.91809997  0.48051202  0.42326410  1
