# generated using pymatgen
data_Li3YI7
_symmetry_space_group_name_H-M   'P 1'
_cell_length_a   4.57118986
_cell_length_b   4.63862116
_cell_length_c   5.37633952
_cell_angle_alpha   90.00000000
_cell_angle_beta   90.00000000
_cell_angle_gamma   90.00000000
_symmetry_Int_Tables_number   1
_chemical_formula_structural   Li3YI7
_chemical_formula_sum   'Li3 Y1 I7'
_cell_volume   114.00000000
_cell_formula_units_Z   1
loop_
 _symmetry_equiv_pos_site_id
 _symmetry_equiv_pos_as_xyz
  1  'x, y, z'
loop_
 _atom_site_type_symbol
 _atom_site_label
 _atom_site_symmetry_multiplicity
 _atom_site_fract_x
 _atom_site_fract_y
 _atom_site_fract_z
 _atom_site_occupancy
  Li  Li0  1  0.09611736  0.90055315  0.96917075  1
  Li  Li1  1  0.18946560  0.16904077  0.19831161  1
  Li  Li2  1  0.09894969  0.38943802  0.55740571  1
  Y  Y3  1  0.36746007  0.35279527  0.76049370  1
  I  I4  1  0.35020881  0.58556185  0.92993857  1
  I  I5  1  0.47501134  0.82541621  0.27689123  1
  I  I6  1  0.64347095  0.79437660  0.38500814  1
  I  I7  1  0.59502288  0.00997335  0.68110837  1
  I  I8  1  0.71550057  0.19482123  0.82992425  1
  I  I9  1  0.88821467  0.28226343  0.10435597  1
  I  I10  1  0.00600173  0.50625820  0.39400297  1
