# generated using pymatgen
data_Li2TiO5
_symmetry_space_group_name_H-M   'P 1'
_cell_length_a   10.79460584
_cell_length_b   10.79460584
_cell_length_c   10.79460584
_cell_angle_alpha   90.00000000
_cell_angle_beta   90.00000000
_cell_angle_gamma   90.00000000
_symmetry_Int_Tables_number   1
_chemical_formula_structural   Li2TiO5
_chemical_formula_sum   'Li2 Ti1 O5'
_cell_volume   1257.82541981
_cell_formula_units_Z   1
loop_
 _symmetry_equiv_pos_site_id
 _symmetry_equiv_pos_as_xyz
  1  'x, y, z'
loop_
 _atom_site_type_symbol
 _atom_site_label
 _atom_site_symmetry_multiplicity
 _atom_site_fract_x
 _atom_site_fract_y
 _atom_site_fract_z
 _atom_site_occupancy
  Li  Li0  1  0.96402414  0.94616165  0.03625431  1
  Li  Li1  1  0.14879025  0.12721374  0.26168369  1
  Ti  Ti2  1  0.29100445  0.34863085  0.61251980  1
  O  O3  1  0.46738238  0.53971516  0.03471430  1
  O  O4  1  0.44030601  0.77536920  0.31598789  1
  O  O5  1  0.66146215  0.93395978  0.57774299  1
  O  O6  1  0.81953473  0.27748379  0.96871196  1
  O  O7  1  0.78082246  0.49760517  0.30582413  1
