# generated using pymatgen
data_Li4Sc2AlO7
_symmetry_space_group_name_H-M   'P 1'
_cell_length_a   10.68495328
_cell_length_b   10.68495328
_cell_length_c   11.31108014
_cell_angle_alpha   90.00000000
_cell_angle_beta   90.00000000
_cell_angle_gamma   90.00000000
_symmetry_Int_Tables_number   1
_chemical_formula_structural   Li4Sc2AlO7
_chemical_formula_sum   'Li4 Sc2 Al1 O7'
_cell_volume   1291.36596075
_cell_formula_units_Z   1
loop_
 _symmetry_equiv_pos_site_id
 _symmetry_equiv_pos_as_xyz
  1  'x, y, z'
loop_
 _atom_site_type_symbol
 _atom_site_label
 _atom_site_symmetry_multiplicity
 _atom_site_fract_x
 _atom_site_fract_y
 _atom_site_fract_z
 _atom_site_occupancy
  Li  Li0  1  0.01952041  0.95465877  0.08699316  1
  Li  Li1  1  0.05838496  0.03330778  0.08785387  1
  Li  Li2  1  0.22402726  0.21957394  0.36220985  1
  Li  Li3  1  0.24491911  0.41484537  0.65728699  1
  Al  Al4  1  0.20611569  0.51630760  0.78993027  1
  O  O5  1  0.31538238  0.67132376  0.92967969  1
  O  O6  1  0.38131822  0.63887205  0.09027690  1
  O  O7  1  0.58279155  0.73810710  0.37606135  1
  O  O8  1  0.63967737  0.93775721  0.58014450  1
  O  O9  1  0.66815764  0.03161184  0.73875709  1
  O  O10  1  0.68315948  0.06739657  0.80891827  1
  O  O11  1  0.87435765  0.32463024  0.15476647  1
  Sc  Sc12  1  0.95682106  0.40242212  0.15451450  1
  Sc  Sc13  1  0.94544040  0.52675667  0.43335915  1
