# generated using pymatgen
data_Li2TaS5
_symmetry_space_group_name_H-M   'P 1'
_cell_length_a   6.13535212
_cell_length_b   9.84884395
_cell_length_c   14.82690918
_cell_angle_alpha   70.99514445
_cell_angle_beta   74.66478681
_cell_angle_gamma   99.49562193
_symmetry_Int_Tables_number   1
_chemical_formula_structural   Li2TaS5
_chemical_formula_sum   'Li4 Ta2 S10'
_cell_volume   785.34999327
_cell_formula_units_Z   2
loop_
 _symmetry_equiv_pos_site_id
 _symmetry_equiv_pos_as_xyz
  1  'x, y, z'
loop_
 _atom_site_type_symbol
 _atom_site_label
 _atom_site_symmetry_multiplicity
 _atom_site_fract_x
 _atom_site_fract_y
 _atom_site_fract_z
 _atom_site_occupancy
  Li  Li0  1  0.04433261  0.98455724  0.00209957  1
  Li  Li1  1  0.97286529  0.07040419  0.21509905  1
  Li  Li2  1  0.09943574  0.17437484  0.37529375  1
  Li  Li3  1  0.22417016  0.38648418  0.51386680  1
  Ta  Ta4  1  0.33064815  0.45610192  0.72065012  1
  Ta  Ta5  1  0.33013299  0.52783035  0.82893581  1
  S  S6  1  0.32947324  0.62015043  0.94382732  1
  S  S7  1  0.48766415  0.72202238  0.13933079  1
  S  S8  1  0.44217866  0.85802427  0.24197234  1
  S  S9  1  0.58818330  0.91290155  0.40278886  1
  S  S10  1  0.55484826  0.08438423  0.57178666  1
  S  S11  1  0.75335698  0.07906133  0.74258070  1
  S  S12  1  0.82416164  0.27817669  0.89461136  1
  S  S13  1  0.73587970  0.33159565  0.12476973  1
  S  S14  1  0.95530242  0.32311876  0.28703271  1
  S  S15  1  0.85132645  0.50423419  0.36751587  1
