# generated using pymatgen
data_Li4TiO3
_symmetry_space_group_name_H-M   'P 1'
_cell_length_a   9.33033292
_cell_length_b   9.33033292
_cell_length_c   9.33033292
_cell_angle_alpha   90.00000000
_cell_angle_beta   90.00000000
_cell_angle_gamma   90.00000000
_symmetry_Int_Tables_number   1
_chemical_formula_structural   Li4TiO3
_chemical_formula_sum   'Li4 Ti1 O3'
_cell_volume   812.25318216
_cell_formula_units_Z   1
loop_
 _symmetry_equiv_pos_site_id
 _symmetry_equiv_pos_as_xyz
  1  'x, y, z'
loop_
 _atom_site_type_symbol
 _atom_site_label
 _atom_site_symmetry_multiplicity
 _atom_site_fract_x
 _atom_site_fract_y
 _atom_site_fract_z
 _atom_site_occupancy
  Li  Li0  1  0.03356814  0.02187011  0.04027828  1
  Li  Li1  1  0.09587968  0.26163955  0.41056444  1
  Li  Li2  1  0.34838325  0.36741857  0.63489755  1
  Li  Li3  1  0.44483150  0.53102858  0.89361012  1
  Ti  Ti4  1  0.56251364  0.70908251  0.27340210  1
  O  O5  1  0.55425481  0.05734419  0.60921746  1
  O  O6  1  0.67322460  0.24909891  0.97723532  1
  O  O7  1  0.94935608  0.45598184  0.23483132  1
