# generated using pymatgen
data_LiTa2O5
_symmetry_space_group_name_H-M   'P 1'
_cell_length_a   10.44530476
_cell_length_b   10.44530476
_cell_length_c   9.41285382
_cell_angle_alpha   90.00000000
_cell_angle_beta   90.00000000
_cell_angle_gamma   90.00000000
_symmetry_Int_Tables_number   1
_chemical_formula_structural   LiTa2O5
_chemical_formula_sum   'Li1 Ta2 O5'
_cell_volume   1026.98368817
_cell_formula_units_Z   1
loop_
 _symmetry_equiv_pos_site_id
 _symmetry_equiv_pos_as_xyz
  1  'x, y, z'
loop_
 _atom_site_type_symbol
 _atom_site_label
 _atom_site_symmetry_multiplicity
 _atom_site_fract_x
 _atom_site_fract_y
 _atom_site_fract_z
 _atom_site_occupancy
  Li  Li0  1  0.08428879  0.96829090  0.99421737  1
  Ta  Ta1  1  0.03107524  0.14379066  0.27151688  1
  Ta  Ta2  1  0.19998484  0.40066804  0.62086744  1
  O  O3  1  0.30769505  0.57280308  0.99432042  1
  O  O4  1  0.50459877  0.80458383  0.34119103  1
  O  O5  1  0.55518177  0.96798432  0.65167695  1
  O  O6  1  0.74645914  0.11549708  0.00934742  1
  O  O7  1  0.94514612  0.42383583  0.32615326  1
