# generated using pymatgen
data_Li3TiO5
_symmetry_space_group_name_H-M   'P 1'
_cell_length_a   6.60599179
_cell_length_b   6.60599179
_cell_length_c   6.60599179
_cell_angle_alpha   90.00000000
_cell_angle_beta   90.00000000
_cell_angle_gamma   90.00000000
_symmetry_Int_Tables_number   1
_chemical_formula_structural   Li3TiO5
_chemical_formula_sum   'Li3 Ti1 O5'
_cell_volume   288.27971767
_cell_formula_units_Z   1
loop_
 _symmetry_equiv_pos_site_id
 _symmetry_equiv_pos_as_xyz
  1  'x, y, z'
loop_
 _atom_site_type_symbol
 _atom_site_label
 _atom_site_symmetry_multiplicity
 _atom_site_fract_x
 _atom_site_fract_y
 _atom_site_fract_z
 _atom_site_occupancy
  Li  Li0  1  0.05517188  0.99706442  0.06772821  1
  Li  Li1  1  0.08845092  0.25110050  0.30345778  1
  Li  Li2  1  0.17557580  0.42920284  0.65654289  1
  Ti  Ti3  1  0.41004218  0.53988094  0.89347833  1
  O  O4  1  0.45593821  0.77636794  0.19826341  1
  O  O5  1  0.48783267  0.80166494  0.54613753  1
  O  O6  1  0.74736008  0.06085426  0.65230658  1
  O  O7  1  0.83034323  0.25233237  0.11499500  1
  O  O8  1  0.90197564  0.35118429  0.41819110  1
