# generated using pymatgen
data_Li2GeS6
_symmetry_space_group_name_H-M   'P 1'
_cell_length_a   4.49639598
_cell_length_b   4.49639598
_cell_length_c   4.84726735
_cell_angle_alpha   90.00000000
_cell_angle_beta   90.00000000
_cell_angle_gamma   90.00000000
_symmetry_Int_Tables_number   1
_chemical_formula_structural   Li2GeS6
_chemical_formula_sum   'Li2 Ge1 S6'
_cell_volume   98.00000000
_cell_formula_units_Z   1
loop_
 _symmetry_equiv_pos_site_id
 _symmetry_equiv_pos_as_xyz
  1  'x, y, z'
loop_
 _atom_site_type_symbol
 _atom_site_label
 _atom_site_symmetry_multiplicity
 _atom_site_fract_x
 _atom_site_fract_y
 _atom_site_fract_z
 _atom_site_occupancy
  Li  Li0  1  0.08857429  0.05159273  0.99860407  1
  Li  Li1  1  0.11490202  0.16231559  0.25564009  1
  Ge  Ge2  1  0.24766456  0.38919158  0.63560169  1
  S  S3  1  0.42313390  0.57849080  0.96007359  1
  S  S4  1  0.35732929  0.74540764  0.16034582  1
  S  S5  1  0.57605518  0.80598589  0.49179494  1
  S  S6  1  0.63529632  0.04706737  0.77037930  1
  S  S7  1  0.75210670  0.19292795  0.03763406  1
  S  S8  1  0.95637214  0.48023983  0.40158798  1
