# generated using pymatgen
data_Li2GaS4
_symmetry_space_group_name_H-M   'P 1'
_cell_length_a   14.16084530
_cell_length_b   14.16084530
_cell_length_c   14.92463141
_cell_angle_alpha   90.00000000
_cell_angle_beta   90.00000000
_cell_angle_gamma   90.00000000
_symmetry_Int_Tables_number   1
_chemical_formula_structural   Li2GaS4
_chemical_formula_sum   'Li2 Ga1 S4'
_cell_volume   2992.82946751
_cell_formula_units_Z   1
loop_
 _symmetry_equiv_pos_site_id
 _symmetry_equiv_pos_as_xyz
  1  'x, y, z'
loop_
 _atom_site_type_symbol
 _atom_site_label
 _atom_site_symmetry_multiplicity
 _atom_site_fract_x
 _atom_site_fract_y
 _atom_site_fract_z
 _atom_site_occupancy
  Li  Li0  1  0.04015139  0.93576949  0.02928011  1
  Li  Li1  1  0.20824935  0.27585931  0.38623637  1
  Ga  Ga2  1  0.37942547  0.45245825  0.79743786  1
  S  S3  1  0.41956022  0.76125845  0.03360533  1
  S  S4  1  0.54083286  0.95891920  0.47276514  1
  S  S5  1  0.67277705  0.11788702  0.94118920  1
  S  S6  1  0.82910470  0.38675864  0.18973052  1
