# generated using pymatgen
data_Li3Ga2P6S7
_symmetry_space_group_name_H-M   'P 1'
_cell_length_a   12.01311388
_cell_length_b   3.30382534
_cell_length_c   7.27963825
_cell_angle_alpha   119.51555705
_cell_angle_beta   63.15843722
_cell_angle_gamma   96.47541762
_symmetry_Int_Tables_number   1
_chemical_formula_structural   Li3Ga2P6S7
_chemical_formula_sum   'Li3 Ga2 P6 S7'
_cell_volume   222.08913546
_cell_formula_units_Z   1
loop_
 _symmetry_equiv_pos_site_id
 _symmetry_equiv_pos_as_xyz
  1  'x, y, z'
loop_
 _atom_site_type_symbol
 _atom_site_label
 _atom_site_symmetry_multiplicity
 _atom_site_fract_x
 _atom_site_fract_y
 _atom_site_fract_z
 _atom_site_occupancy
  Li  Li0  1  0.06335486  0.91517879  0.99315396  1
  Li  Li1  1  0.10895749  0.07175907  0.22286074  1
  Li  Li2  1  0.06904364  0.15721030  0.37605104  1
  Ga  Ga3  1  0.19081555  0.34740615  0.40099000  1
  Ga  Ga4  1  0.19013331  0.27387268  0.51108150  1
  S  S5  1  0.37075278  0.53536517  0.68170981  1
  S  S6  1  0.40233528  0.60753683  0.82750394  1
  S  S7  1  0.45657679  0.57440275  0.98421986  1
  S  S8  1  0.52846680  0.67997066  0.23623951  1
  S  S9  1  0.56864377  0.72052092  0.34938117  1
  S  S10  1  0.64654211  0.89612205  0.36537233  1
  S  S11  1  0.60701606  0.88931146  0.51388400  1
  P  P12  1  0.63883399  0.08369871  0.79292670  1
  P  P13  1  0.73259854  0.16731475  0.89521262  1
  P  P14  1  0.81393446  0.30161902  0.13233958  1
  P  P15  1  0.73388648  0.31750409  0.28022317  1
  P  P16  1  0.91083875  0.39853383  0.24424262  1
  P  P17  1  0.03970065  0.60951683  0.56728835  1
