# generated using pymatgen
data_Li4YTi2F4
_symmetry_space_group_name_H-M   'P 1'
_cell_length_a   12.55491486
_cell_length_b   12.55491486
_cell_length_c   12.62307794
_cell_angle_alpha   90.00000000
_cell_angle_beta   90.00000000
_cell_angle_gamma   90.00000000
_symmetry_Int_Tables_number   1
_chemical_formula_structural   Li4YTi2F4
_chemical_formula_sum   'Li4 Y1 Ti2 F4'
_cell_volume   1989.72385899
_cell_formula_units_Z   1
loop_
 _symmetry_equiv_pos_site_id
 _symmetry_equiv_pos_as_xyz
  1  'x, y, z'
loop_
 _atom_site_type_symbol
 _atom_site_label
 _atom_site_symmetry_multiplicity
 _atom_site_fract_x
 _atom_site_fract_y
 _atom_site_fract_z
 _atom_site_occupancy
  Li  Li0  1  0.06705433  0.07457825  0.06025148  1
  Li  Li1  1  0.10458819  0.17114361  0.32242828  1
  Li  Li2  1  0.16553793  0.25233295  0.42462017  1
  Li  Li3  1  0.19524137  0.47516191  0.70424541  1
  Ti  Ti4  1  0.46355378  0.54701478  0.01794370  1
  Ti  Ti5  1  0.45615464  0.78898432  0.11853088  1
  F  F6  1  0.49034999  0.94378963  0.41083525  1
  F  F7  1  0.72013057  0.09574718  0.72550350  1
  F  F8  1  0.74081604  0.27252035  0.89881651  1
  F  F9  1  0.79628102  0.37661207  0.11114437  1
  Y  Y10  1  0.94111389  0.39045210  0.31109059  1
