# generated using pymatgen
data_Li5Ga2F7
_symmetry_space_group_name_H-M   'P 1'
_cell_length_a   11.02034697
_cell_length_b   11.02034697
_cell_length_c   11.96362495
_cell_angle_alpha   90.00000000
_cell_angle_beta   90.00000000
_cell_angle_gamma   90.00000000
_symmetry_Int_Tables_number   1
_chemical_formula_structural   Li5Ga2F7
_chemical_formula_sum   'Li5 Ga2 F7'
_cell_volume   1452.95888900
_cell_formula_units_Z   1
loop_
 _symmetry_equiv_pos_site_id
 _symmetry_equiv_pos_as_xyz
  1  'x, y, z'
loop_
 _atom_site_type_symbol
 _atom_site_label
 _atom_site_symmetry_multiplicity
 _atom_site_fract_x
 _atom_site_fract_y
 _atom_site_fract_z
 _atom_site_occupancy
  Li  Li0  1  0.97768479  0.97811928  0.97750669  1
  Li  Li1  1  0.00381702  0.15976729  0.15575062  1
  Li  Li2  1  0.10431629  0.23529040  0.31686627  1
  Li  Li3  1  0.24363466  0.27797575  0.55613277  1
  Li  Li4  1  0.26743957  0.43680653  0.67183661  1
  Ga  Ga5  1  0.33920655  0.62991178  0.84315159  1
  Ga  Ga6  1  0.33147483  0.75692946  0.10821488  1
  F  F7  1  0.59009908  0.79682721  0.33610893  1
  F  F8  1  0.54842157  0.88397991  0.42083567  1
  F  F9  1  0.74098499  0.96807808  0.73826691  1
  F  F10  1  0.75414643  0.21162689  0.85598659  1
  F  F11  1  0.87648170  0.18218059  0.10620872  1
  F  F12  1  0.82481806  0.47359445  0.33709231  1
  F  F13  1  0.88610817  0.50802560  0.49629676  1
