# generated using pymatgen
data_Li3AlO3
_symmetry_space_group_name_H-M   'P 1'
_cell_length_a   6.16205700
_cell_length_b   6.16205700
_cell_length_c   10.65808979
_cell_angle_alpha   90.00000000
_cell_angle_beta   90.00000000
_cell_angle_gamma   120.00000000
_symmetry_Int_Tables_number   1
_chemical_formula_structural   Li3AlO3
_chemical_formula_sum   'Li3 Al1 O3'
_cell_volume   350.47853894
_cell_formula_units_Z   1
loop_
 _symmetry_equiv_pos_site_id
 _symmetry_equiv_pos_as_xyz
  1  'x, y, z'
loop_
 _atom_site_type_symbol
 _atom_site_label
 _atom_site_symmetry_multiplicity
 _atom_site_fract_x
 _atom_site_fract_y
 _atom_site_fract_z
 _atom_site_occupancy
  Li  Li0  1  0.91715922  0.94302723  0.02356735  1
  Li  Li1  1  0.23088177  0.26074631  0.32787390  1
  Li  Li2  1  0.34791025  0.47023820  0.75579202  1
  Al  Al3  1  0.43478867  0.66044532  0.18715907  1
  O  O4  1  0.55560506  0.02435480  0.54245732  1
  O  O5  1  0.80436983  0.14677717  0.95638293  1
  O  O6  1  0.93717229  0.45904039  0.21616923  1
