# generated using pymatgen
data_Li2Nb2O5
_symmetry_space_group_name_H-M   'P 1'
_cell_length_a   10.53420079
_cell_length_b   10.53420079
_cell_length_c   9.93184870
_cell_angle_alpha   90.00000000
_cell_angle_beta   90.00000000
_cell_angle_gamma   90.00000000
_symmetry_Int_Tables_number   1
_chemical_formula_structural   Li2Nb2O5
_chemical_formula_sum   'Li2 Nb2 O5'
_cell_volume   1102.13115575
_cell_formula_units_Z   1
loop_
 _symmetry_equiv_pos_site_id
 _symmetry_equiv_pos_as_xyz
  1  'x, y, z'
loop_
 _atom_site_type_symbol
 _atom_site_label
 _atom_site_symmetry_multiplicity
 _atom_site_fract_x
 _atom_site_fract_y
 _atom_site_fract_z
 _atom_site_occupancy
  Li  Li0  1  0.06205928  0.01762074  0.07258113  1
  Li  Li1  1  0.02790703  0.08841756  0.19889935  1
  Nb  Nb2  1  0.30711872  0.43946566  0.50641588  1
  Nb  Nb3  1  0.31367175  0.62190702  0.80065358  1
  O  O4  1  0.36141235  0.76628226  0.12277606  1
  O  O5  1  0.50550283  0.89173986  0.38571402  1
  O  O6  1  0.64383064  0.98774817  0.71034210  1
  O  O7  1  0.68761731  0.34128682  0.93756227  1
  O  O8  1  0.85348250  0.46046977  0.33246873  1
