# generated using pymatgen
data_LiTiO4
_symmetry_space_group_name_H-M   'P 1'
_cell_length_a   9.96834893
_cell_length_b   9.96834893
_cell_length_c   9.96834893
_cell_angle_alpha   90.00000000
_cell_angle_beta   90.00000000
_cell_angle_gamma   90.00000000
_symmetry_Int_Tables_number   1
_chemical_formula_structural   LiTiO4
_chemical_formula_sum   'Li1 Ti1 O4'
_cell_volume   990.53469979
_cell_formula_units_Z   1
loop_
 _symmetry_equiv_pos_site_id
 _symmetry_equiv_pos_as_xyz
  1  'x, y, z'
loop_
 _atom_site_type_symbol
 _atom_site_label
 _atom_site_symmetry_multiplicity
 _atom_site_fract_x
 _atom_site_fract_y
 _atom_site_fract_z
 _atom_site_occupancy
  Li  Li0  1  0.96767520  0.08673731  0.09309231  1
  Ti  Ti1  1  0.12420341  0.27526369  0.50163009  1
  O  O2  1  0.23580323  0.51712400  0.91310766  1
  O  O3  1  0.40786899  0.75844390  0.38901168  1
  O  O4  1  0.75649664  0.98069600  0.70500406  1
  O  O5  1  0.76927610  0.31536978  0.22532935  1
