# generated using pymatgen
data_Li6La3S2
_symmetry_space_group_name_H-M   'P 1'
_cell_length_a   5.40611800
_cell_length_b   4.80091232
_cell_length_c   6.36380416
_cell_angle_alpha   90.00000000
_cell_angle_beta   90.00000000
_cell_angle_gamma   90.00000000
_symmetry_Int_Tables_number   1
_chemical_formula_structural   Li6La3S2
_chemical_formula_sum   'Li6 La3 S2'
_cell_volume   165.16807286
_cell_formula_units_Z   1
loop_
 _symmetry_equiv_pos_site_id
 _symmetry_equiv_pos_as_xyz
  1  'x, y, z'
loop_
 _atom_site_type_symbol
 _atom_site_label
 _atom_site_symmetry_multiplicity
 _atom_site_fract_x
 _atom_site_fract_y
 _atom_site_fract_z
 _atom_site_occupancy
  Li  Li0  1  0.05159273  0.99860407  0.00379091  1
  Li  Li1  1  0.07344691  0.11184211  0.26344234  1
  Li  Li2  1  0.21145421  0.34800573  0.56580057  1
  Li  Li3  1  0.31188474  0.52867965  0.62688485  1
  Li  Li4  1  0.38993290  0.58515390  0.97249962  1
  Li  Li5  1  0.36164246  0.77280504  0.15862965  1
  La  La6  1  0.51385525  0.90759142  0.40232892  1
  La  La7  1  0.57084714  0.03104821  0.73348325  1
  La  La8  1  0.76929034  0.25120415  0.86856961  1
  S  S9  1  0.81500241  0.38484796  0.18667746  1
  S  S10  1  0.89507970  0.54357220  0.34016905  1
