# generated using pymatgen
data_Li4Ta2Cl5
_symmetry_space_group_name_H-M   'P 1'
_cell_length_a   8.73355590
_cell_length_b   8.73355590
_cell_length_c   7.95488694
_cell_angle_alpha   90.00000000
_cell_angle_beta   90.00000000
_cell_angle_gamma   90.00000000
_symmetry_Int_Tables_number   1
_chemical_formula_structural   Li4Ta2Cl5
_chemical_formula_sum   'Li4 Ta2 Cl5'
_cell_volume   606.75899072
_cell_formula_units_Z   1
loop_
 _symmetry_equiv_pos_site_id
 _symmetry_equiv_pos_as_xyz
  1  'x, y, z'
loop_
 _atom_site_type_symbol
 _atom_site_label
 _atom_site_symmetry_multiplicity
 _atom_site_fract_x
 _atom_site_fract_y
 _atom_site_fract_z
 _atom_site_occupancy
  Li  Li0  1  0.94182656  0.08132777  0.96059824  1
  Li  Li1  1  0.17714086  0.20646222  0.24290072  1
  Li  Li2  1  0.27448004  0.39369978  0.45368871  1
  Li  Li3  1  0.33774781  0.48224976  0.63222814  1
  Ta  Ta4  1  0.33233532  0.55994217  0.98719226  1
  Ta  Ta5  1  0.50352311  0.78305503  0.16321083  1
  Cl  Cl6  1  0.54342126  0.94418363  0.48292057  1
  Cl  Cl7  1  0.65062166  0.97303329  0.61611234  1
  Cl  Cl8  1  0.82259117  0.16127226  0.00287136  1
  Cl  Cl9  1  0.78449736  0.32104159  0.18313054  1
  Cl  Cl10  1  0.82384621  0.49820886  0.37722154  1
