# generated using pymatgen
data_Li3AlO5
_symmetry_space_group_name_H-M   'P 1'
_cell_length_a   11.36578000
_cell_length_b   11.36578000
_cell_length_c   17.63745153
_cell_angle_alpha   90.00000000
_cell_angle_beta   90.00000000
_cell_angle_gamma   120.00000000
_symmetry_Int_Tables_number   1
_chemical_formula_structural   Li3AlO5
_chemical_formula_sum   'Li3 Al1 O5'
_cell_volume   1973.17205186
_cell_formula_units_Z   1
loop_
 _symmetry_equiv_pos_site_id
 _symmetry_equiv_pos_as_xyz
  1  'x, y, z'
loop_
 _atom_site_type_symbol
 _atom_site_label
 _atom_site_symmetry_multiplicity
 _atom_site_fract_x
 _atom_site_fract_y
 _atom_site_fract_z
 _atom_site_occupancy
  Li  Li0  1  0.99146898  0.05575709  0.96887376  1
  Li  Li1  1  0.02279340  0.11869604  0.37953225  1
  Li  Li2  1  0.27556675  0.45732202  0.68145599  1
  Al  Al3  1  0.34889831  0.44984784  0.88953564  1
  O  O4  1  0.46877254  0.72147026  0.13991899  1
  O  O5  1  0.52423578  0.91610797  0.53922860  1
  O  O6  1  0.68506995  0.10033457  0.66629207  1
  O  O7  1  0.68861948  0.16716731  0.05328978  1
  O  O8  1  0.81494675  0.52835545  0.37858584  1
