# generated using pymatgen
data_Li5Ta3InS4
_symmetry_space_group_name_H-M   'P 1'
_cell_length_a   12.02759449
_cell_length_b   12.02759449
_cell_length_c   12.93740384
_cell_angle_alpha   90.00000000
_cell_angle_beta   90.00000000
_cell_angle_gamma   90.00000000
_symmetry_Int_Tables_number   1
_chemical_formula_structural   Li5Ta3InS4
_chemical_formula_sum   'Li5 Ta3 In1 S4'
_cell_volume   1871.56403076
_cell_formula_units_Z   1
loop_
 _symmetry_equiv_pos_site_id
 _symmetry_equiv_pos_as_xyz
  1  'x, y, z'
loop_
 _atom_site_type_symbol
 _atom_site_label
 _atom_site_symmetry_multiplicity
 _atom_site_fract_x
 _atom_site_fract_y
 _atom_site_fract_z
 _atom_site_occupancy
  Li  Li0  1  0.95316535  0.06204566  0.04643879  1
  Li  Li1  1  0.02735378  0.20457564  0.18432853  1
  Li  Li2  1  0.13825386  0.22660787  0.38088851  1
  Li  Li3  1  0.20827592  0.30577306  0.64834970  1
  Li  Li4  1  0.27644293  0.45930530  0.80968600  1
  Ta  Ta5  1  0.32748165  0.65165663  0.93818454  1
  Ta  Ta6  1  0.45667123  0.72849451  0.18282851  1
  Ta  Ta7  1  0.46229815  0.85329446  0.46174694  1
  S  S8  1  0.52353620  0.89859571  0.67457781  1
  S  S9  1  0.67852257  0.21025292  0.80028875  1
  S  S10  1  0.79633970  0.22160838  0.97325463  1
  S  S11  1  0.77098952  0.46720477  0.14316599  1
  In  In12  1  0.97834383  0.53339918  0.47252798  1
