# generated using pymatgen
data_Li2Sc2Ti2S3
_symmetry_space_group_name_H-M   'P 1'
_cell_length_a   14.49610402
_cell_length_b   14.49610402
_cell_length_c   14.64358473
_cell_angle_alpha   90.00000000
_cell_angle_beta   90.00000000
_cell_angle_gamma   90.00000000
_symmetry_Int_Tables_number   1
_chemical_formula_structural   Li2Sc2Ti2S3
_chemical_formula_sum   'Li2 Sc2 Ti2 S3'
_cell_volume   3077.15942948
_cell_formula_units_Z   1
loop_
 _symmetry_equiv_pos_site_id
 _symmetry_equiv_pos_as_xyz
  1  'x, y, z'
loop_
 _atom_site_type_symbol
 _atom_site_label
 _atom_site_symmetry_multiplicity
 _atom_site_fract_x
 _atom_site_fract_y
 _atom_site_fract_z
 _atom_site_occupancy
  Li  Li0  1  0.01331435  0.94894069  0.99973815  1
  Li  Li1  1  0.14575926  0.27317416  0.38952998  1
  Ti  Ti2  1  0.31364626  0.30630877  0.55397038  1
  Ti  Ti3  1  0.36878870  0.50331225  0.86695973  1
  S  S4  1  0.42445887  0.79134630  0.11498942  1
  S  S5  1  0.56990720  0.84087674  0.52383661  1
  S  S6  1  0.65456972  0.09650560  0.83389966  1
  Sc  Sc7  1  0.71973294  0.27512049  0.06340291  1
  Sc  Sc8  1  0.91138382  0.41680022  0.29038957  1
