# generated using pymatgen
data_KZrF4
_symmetry_space_group_name_H-M   'P 1'
_cell_length_a   9.02001079
_cell_length_b   10.07143578
_cell_length_c   5.08669436
_cell_angle_alpha   69.82892024
_cell_angle_beta   83.05872278
_cell_angle_gamma   80.81535937
_symmetry_Int_Tables_number   1
_chemical_formula_structural   KZrF4
_chemical_formula_sum   'K1 Zr1 F4'
_cell_volume   427.11374915
_cell_formula_units_Z   1
loop_
 _symmetry_equiv_pos_site_id
 _symmetry_equiv_pos_as_xyz
  1  'x, y, z'
loop_
 _atom_site_type_symbol
 _atom_site_label
 _atom_site_symmetry_multiplicity
 _atom_site_fract_x
 _atom_site_fract_y
 _atom_site_fract_z
 _atom_site_occupancy
  K  K0  1  0.05479158  0.97647329  0.97463748  1
  Zr  Zr1  1  0.13066507  0.29673158  0.40458465  1
  F  F2  1  0.28641331  0.62629576  0.79918782  1
  F  F3  1  0.59232547  0.77382825  0.21278147  1
  F  F4  1  0.75364825  0.07405001  0.79643048  1
  F  F5  1  0.74293760  0.38104610  0.10546533  1
