# generated using pymatgen
data_Li3TiO6
_symmetry_space_group_name_H-M   'P 1'
_cell_length_a   7.97322588
_cell_length_b   7.97322588
_cell_length_c   7.97322588
_cell_angle_alpha   90.00000000
_cell_angle_beta   90.00000000
_cell_angle_gamma   90.00000000
_symmetry_Int_Tables_number   1
_chemical_formula_structural   Li3TiO6
_chemical_formula_sum   'Li3 Ti1 O6'
_cell_volume   506.87655414
_cell_formula_units_Z   1
loop_
 _symmetry_equiv_pos_site_id
 _symmetry_equiv_pos_as_xyz
  1  'x, y, z'
loop_
 _atom_site_type_symbol
 _atom_site_label
 _atom_site_symmetry_multiplicity
 _atom_site_fract_x
 _atom_site_fract_y
 _atom_site_fract_z
 _atom_site_occupancy
  Li  Li0  1  0.00999006  0.95014336  0.94542050  1
  Li  Li1  1  0.11917348  0.24075573  0.20098435  1
  Li  Li2  1  0.12569670  0.34462379  0.52983928  1
  Ti  Ti3  1  0.38057815  0.45864838  0.77966721  1
  O  O4  1  0.42879294  0.73847999  0.11544138  1
  O  O5  1  0.42794195  0.86082074  0.28466643  1
  O  O6  1  0.53957478  0.95453135  0.59962931  1
  O  O7  1  0.64720233  0.11379776  0.88433198  1
  O  O8  1  0.73174395  0.30082576  0.07031314  1
  O  O9  1  0.96468997  0.42004000  0.39892426  1
