# generated using pymatgen
data_Li3TiO4
_symmetry_space_group_name_H-M   'P 1'
_cell_length_a   7.87768725
_cell_length_b   7.87768725
_cell_length_c   7.87768725
_cell_angle_alpha   90.00000000
_cell_angle_beta   90.00000000
_cell_angle_gamma   90.00000000
_symmetry_Int_Tables_number   1
_chemical_formula_structural   Li3TiO4
_chemical_formula_sum   'Li3 Ti1 O4'
_cell_volume   488.87317177
_cell_formula_units_Z   1
loop_
 _symmetry_equiv_pos_site_id
 _symmetry_equiv_pos_as_xyz
  1  'x, y, z'
loop_
 _atom_site_type_symbol
 _atom_site_label
 _atom_site_symmetry_multiplicity
 _atom_site_fract_x
 _atom_site_fract_y
 _atom_site_fract_z
 _atom_site_occupancy
  Li  Li0  1  0.93013760  0.99858867  0.04228571  1
  Li  Li1  1  0.03797326  0.18350783  0.30039729  1
  Li  Li2  1  0.33822743  0.31426893  0.58761675  1
  Ti  Ti3  1  0.44413397  0.52046802  0.94716096  1
  O  O4  1  0.55379015  0.88502692  0.35454722  1
  O  O5  1  0.61029345  0.99339010  0.69676654  1
  O  O6  1  0.65056907  0.18612429  0.96817784  1
  O  O7  1  0.90830886  0.49881608  0.30290674  1
