# generated using pymatgen
data_Li3La(AlCl)3
_symmetry_space_group_name_H-M   'P 1'
_cell_length_a   12.54672821
_cell_length_b   12.54672821
_cell_length_c   13.08289019
_cell_angle_alpha   90.00000000
_cell_angle_beta   90.00000000
_cell_angle_gamma   90.00000000
_symmetry_Int_Tables_number   1
_chemical_formula_structural   Li3La(AlCl)3
_chemical_formula_sum   'Li3 La1 Al3 Cl3'
_cell_volume   2059.51366117
_cell_formula_units_Z   1
loop_
 _symmetry_equiv_pos_site_id
 _symmetry_equiv_pos_as_xyz
  1  'x, y, z'
loop_
 _atom_site_type_symbol
 _atom_site_label
 _atom_site_symmetry_multiplicity
 _atom_site_fract_x
 _atom_site_fract_y
 _atom_site_fract_z
 _atom_site_occupancy
  Li  Li0  1  0.01027992  0.93296054  0.08430262  1
  Li  Li1  1  0.13422299  0.10159852  0.18472243  1
  Li  Li2  1  0.29675970  0.28294961  0.54497191  1
  Al  Al3  1  0.37177774  0.38810717  0.80622031  1
  Al  Al4  1  0.30981567  0.58824451  0.96126551  1
  Al  Al5  1  0.41562627  0.88837013  0.38470218  1
  Cl  Cl6  1  0.68434259  0.88063735  0.65500516  1
  Cl  Cl7  1  0.75352528  0.11214042  0.79316235  1
  Cl  Cl8  1  0.84854892  0.29733315  0.03188814  1
  La  La9  1  0.89350408  0.43170564  0.33013874  1
