# generated using pymatgen
data_Li5Y3Ta(P3Cl2)3
_symmetry_space_group_name_H-M   'P 1'
_cell_length_a   5.85938759
_cell_length_b   8.93591076
_cell_length_c   12.21887169
_cell_angle_alpha   99.41367178
_cell_angle_beta   64.82062092
_cell_angle_gamma   77.10698481
_symmetry_Int_Tables_number   1
_chemical_formula_structural   Li5Y3Ta(P3Cl2)3
_chemical_formula_sum   'Li5 Y3 Ta1 P9 Cl6'
_cell_volume   539.60694551
_cell_formula_units_Z   1
loop_
 _symmetry_equiv_pos_site_id
 _symmetry_equiv_pos_as_xyz
  1  'x, y, z'
loop_
 _atom_site_type_symbol
 _atom_site_label
 _atom_site_symmetry_multiplicity
 _atom_site_fract_x
 _atom_site_fract_y
 _atom_site_fract_z
 _atom_site_occupancy
  Li  Li0  1  0.02632482  0.07552668  0.02549559  1
  Li  Li1  1  0.96945654  0.04546555  0.08008178  1
  Li  Li2  1  0.99701632  0.12746248  0.25454702  1
  Li  Li3  1  0.08958366  0.10584001  0.23256566  1
  Li  Li4  1  0.12413057  0.18959617  0.36373609  1
  Ta  Ta5  1  0.29853364  0.27977078  0.59441585  1
  Y  Y6  1  0.31808214  0.45326028  0.56496387  1
  Y  Y7  1  0.31869136  0.47251910  0.85077932  1
  Y  Y8  1  0.26131283  0.56985647  0.89453927  1
  Cl  Cl9  1  0.42938374  0.61018966  0.03479116  1
  Cl  Cl10  1  0.48662938  0.71568314  0.18729498  1
  Cl  Cl11  1  0.37898395  0.75769243  0.16543683  1
  Cl  Cl12  1  0.59007419  0.79557552  0.36430298  1
  Cl  Cl13  1  0.50009720  0.81506483  0.40429033  1
  Cl  Cl14  1  0.53573001  0.91990786  0.60081683  1
  P  P15  1  0.57598967  0.93136607  0.56731361  1
  P  P16  1  0.73762261  0.12960008  0.82603806  1
  P  P17  1  0.74686528  0.20158378  0.82540505  1
  P  P18  1  0.79228828  0.29020463  0.95198547  1
  P  P19  1  0.82097196  0.20806613  0.08040839  1
  P  P20  1  0.75144371  0.41028769  0.24926925  1
  P  P21  1  0.91903605  0.45403181  0.26934578  1
  P  P22  1  0.87220596  0.39270606  0.44235142  1
  P  P23  1  0.95559963  0.51320211  0.42033403  1
