# generated using pymatgen
data_LiAlO5
_symmetry_space_group_name_H-M   'P 1'
_cell_length_a   7.12138791
_cell_length_b   7.12138791
_cell_length_c   8.19483236
_cell_angle_alpha   90.00000000
_cell_angle_beta   90.00000000
_cell_angle_gamma   120.00000000
_symmetry_Int_Tables_number   1
_chemical_formula_structural   LiAlO5
_chemical_formula_sum   'Li1 Al1 O5'
_cell_volume   359.91503701
_cell_formula_units_Z   1
loop_
 _symmetry_equiv_pos_site_id
 _symmetry_equiv_pos_as_xyz
  1  'x, y, z'
loop_
 _atom_site_type_symbol
 _atom_site_label
 _atom_site_symmetry_multiplicity
 _atom_site_fract_x
 _atom_site_fract_y
 _atom_site_fract_z
 _atom_site_occupancy
  Li  Li0  1  0.03518805  0.06525315  0.00284753  1
  Al  Al1  1  0.14312668  0.24155785  0.29343074  1
  O  O2  1  0.34694829  0.45123080  0.66394367  1
  O  O3  1  0.48391525  0.68520662  0.07060441  1
  O  O4  1  0.51895974  0.83473865  0.39791639  1
  O  O5  1  0.70942507  0.08435564  0.96689581  1
  O  O6  1  0.78526611  0.31596791  0.28625518  1
