# generated using pymatgen
data_Li4(PS2)3
_symmetry_space_group_name_H-M   'P 1'
_cell_length_a   4.61555712
_cell_length_b   4.61555712
_cell_length_c   6.00843974
_cell_angle_alpha   90.00000000
_cell_angle_beta   90.00000000
_cell_angle_gamma   90.00000000
_symmetry_Int_Tables_number   1
_chemical_formula_structural   Li4(PS2)3
_chemical_formula_sum   'Li4 P3 S6'
_cell_volume   128.00000000
_cell_formula_units_Z   1
loop_
 _symmetry_equiv_pos_site_id
 _symmetry_equiv_pos_as_xyz
  1  'x, y, z'
loop_
 _atom_site_type_symbol
 _atom_site_label
 _atom_site_symmetry_multiplicity
 _atom_site_fract_x
 _atom_site_fract_y
 _atom_site_fract_z
 _atom_site_occupancy
  Li  Li0  1  0.95898219  0.90179014  0.07959222  1
  Li  Li1  1  0.15250103  0.17806770  0.28500990  1
  Li  Li2  1  0.09747207  0.33530418  0.39974318  1
  Li  Li3  1  0.23085524  0.42437362  0.61876228  1
  P  P4  1  0.37836393  0.46435005  0.72095201  1
  P  P5  1  0.36917351  0.63260251  0.95746243  1
  P  P6  1  0.50754714  0.70990466  0.19270970  1
  S  S7  1  0.55671473  0.77181182  0.31731487  1
  S  S8  1  0.67722250  0.90417548  0.60751372  1
  S  S9  1  0.66612827  0.13589956  0.81240974  1
  S  S10  1  0.84298360  0.23668911  0.08408496  1
  S  S11  1  0.91075740  0.28611482  0.14480675  1
  S  S12  1  0.95670878  0.51034083  0.47986248  1
