# generated using pymatgen
data_Li3AlO4
_symmetry_space_group_name_H-M   'P 1'
_cell_length_a   5.45632123
_cell_length_b   5.45632123
_cell_length_c   10.10831564
_cell_angle_alpha   90.00000000
_cell_angle_beta   90.00000000
_cell_angle_gamma   120.00000000
_symmetry_Int_Tables_number   1
_chemical_formula_structural   Li3AlO4
_chemical_formula_sum   'Li3 Al1 O4'
_cell_volume   260.62092902
_cell_formula_units_Z   1
loop_
 _symmetry_equiv_pos_site_id
 _symmetry_equiv_pos_as_xyz
  1  'x, y, z'
loop_
 _atom_site_type_symbol
 _atom_site_label
 _atom_site_symmetry_multiplicity
 _atom_site_fract_x
 _atom_site_fract_y
 _atom_site_fract_z
 _atom_site_occupancy
  Li  Li0  1  0.98727255  0.03920365  0.96750102  1
  Li  Li1  1  0.06507962  0.25426372  0.25399824  1
  Li  Li2  1  0.32472787  0.30789435  0.65638920  1
  Al  Al3  1  0.29113923  0.54473883  0.01804247  1
  O  O4  1  0.48852135  0.74663296  0.40386238  1
  O  O5  1  0.62519198  0.98556971  0.53925895  1
  O  O6  1  0.73337422  0.23476185  0.03755894  1
  O  O7  1  0.85792163  0.32436767  0.25262674  1
