# generated using pymatgen
data_Li3AlO4
_symmetry_space_group_name_H-M   'P 1'
_cell_length_a   10.01144408
_cell_length_b   10.01144408
_cell_length_c   19.32171409
_cell_angle_alpha   90.00000000
_cell_angle_beta   90.00000000
_cell_angle_gamma   120.00000000
_symmetry_Int_Tables_number   1
_chemical_formula_structural   Li3AlO4
_chemical_formula_sum   'Li3 Al1 O4'
_cell_volume   1677.14161283
_cell_formula_units_Z   1
loop_
 _symmetry_equiv_pos_site_id
 _symmetry_equiv_pos_as_xyz
  1  'x, y, z'
loop_
 _atom_site_type_symbol
 _atom_site_label
 _atom_site_symmetry_multiplicity
 _atom_site_fract_x
 _atom_site_fract_y
 _atom_site_fract_z
 _atom_site_occupancy
  Li  Li0  1  0.96501026  0.09652616  0.94846028  1
  Li  Li1  1  0.13623578  0.29549979  0.28097771  1
  Li  Li2  1  0.18002114  0.45357235  0.71153705  1
  Al  Al3  1  0.32558393  0.54880670  0.04283486  1
  O  O4  1  0.49676289  0.89572926  0.35214159  1
  O  O5  1  0.72255008  0.02011265  0.63428855  1
  O  O6  1  0.79667345  0.20957673  0.89827940  1
  O  O7  1  0.89677154  0.48030830  0.21340360  1
