# generated using pymatgen
data_Li3Nb3S2Cl5
_symmetry_space_group_name_H-M   'P 1'
_cell_length_a   7.00223989
_cell_length_b   12.11728984
_cell_length_c   3.45918891
_cell_angle_alpha   102.80793261
_cell_angle_beta   74.01213880
_cell_angle_gamma   119.91115896
_symmetry_Int_Tables_number   1
_chemical_formula_structural   Li3Nb3S2Cl5
_chemical_formula_sum   'Li3 Nb3 S2 Cl5'
_cell_volume   243.31429253
_cell_formula_units_Z   1
loop_
 _symmetry_equiv_pos_site_id
 _symmetry_equiv_pos_as_xyz
  1  'x, y, z'
loop_
 _atom_site_type_symbol
 _atom_site_label
 _atom_site_symmetry_multiplicity
 _atom_site_fract_x
 _atom_site_fract_y
 _atom_site_fract_z
 _atom_site_occupancy
  Li  Li0  1  0.94929513  0.90645854  0.04896426  1
  Li  Li1  1  0.11272803  0.19204787  0.16294891  1
  Li  Li2  1  0.09780949  0.34495879  0.49365049  1
  Nb  Nb3  1  0.22691544  0.45471020  0.59667337  1
  Nb  Nb4  1  0.36640002  0.59592115  0.70740750  1
  Nb  Nb5  1  0.37909001  0.60659576  0.95226556  1
  S  S6  1  0.43183660  0.67468019  0.25404728  1
  S  S7  1  0.51612588  0.88077777  0.42828719  1
  Cl  Cl8  1  0.67556451  0.90277697  0.55587848  1
  Cl  Cl9  1  0.70337149  0.03261032  0.87939919  1
  Cl  Cl10  1  0.71794586  0.30223503  0.05748618  1
  Cl  Cl11  1  0.78320503  0.30193563  0.15308747  1
  Cl  Cl12  1  0.99234636  0.53189631  0.50270890  1
