# generated using pymatgen
data_LiGa3Cl10
_symmetry_space_group_name_H-M   'P 1'
_cell_length_a   14.17178817
_cell_length_b   14.17178817
_cell_length_c   14.80539767
_cell_angle_alpha   90.00000000
_cell_angle_beta   90.00000000
_cell_angle_gamma   90.00000000
_symmetry_Int_Tables_number   1
_chemical_formula_structural   LiGa3Cl10
_chemical_formula_sum   'Li1 Ga3 Cl10'
_cell_volume   2973.50984615
_cell_formula_units_Z   1
loop_
 _symmetry_equiv_pos_site_id
 _symmetry_equiv_pos_as_xyz
  1  'x, y, z'
loop_
 _atom_site_type_symbol
 _atom_site_label
 _atom_site_symmetry_multiplicity
 _atom_site_fract_x
 _atom_site_fract_y
 _atom_site_fract_z
 _atom_site_occupancy
  Li  Li0  1  0.93940658  0.91234761  0.05889461  1
  Ga  Ga1  1  0.15789804  0.16427950  0.19956969  1
  Ga  Ga2  1  0.20603256  0.15640309  0.33097738  1
  Ga  Ga3  1  0.27592043  0.41450522  0.51364469  1
  Cl  Cl4  1  0.26564634  0.52943987  0.71004216  1
  Cl  Cl5  1  0.35859953  0.59621140  0.00248636  1
  Cl  Cl6  1  0.39729366  0.78148586  0.20535834  1
  Cl  Cl7  1  0.46467587  0.76520605  0.23079527  1
  Cl  Cl8  1  0.58171749  0.93787554  0.40851880  1
  Cl  Cl9  1  0.65714163  0.97795205  0.75617808  1
  Cl  Cl10  1  0.72348136  0.05572040  0.88798023  1
  Cl  Cl11  1  0.79157515  0.17532871  0.99839545  1
  Cl  Cl12  1  0.77404813  0.38454090  0.29424281  1
  Cl  Cl13  1  0.95882537  0.49228216  0.39324798  1
