# generated using pymatgen
data_Li3AlO4
_symmetry_space_group_name_H-M   'P 1'
_cell_length_a   9.01848686
_cell_length_b   9.01848686
_cell_length_c   15.38309710
_cell_angle_alpha   90.00000000
_cell_angle_beta   90.00000000
_cell_angle_gamma   120.00000000
_symmetry_Int_Tables_number   1
_chemical_formula_structural   Li3AlO4
_chemical_formula_sum   'Li3 Al1 O4'
_cell_volume   1083.53206133
_cell_formula_units_Z   1
loop_
 _symmetry_equiv_pos_site_id
 _symmetry_equiv_pos_as_xyz
  1  'x, y, z'
loop_
 _atom_site_type_symbol
 _atom_site_label
 _atom_site_symmetry_multiplicity
 _atom_site_fract_x
 _atom_site_fract_y
 _atom_site_fract_z
 _atom_site_occupancy
  Li  Li0  1  0.91120101  0.90780802  0.90597144  1
  Li  Li1  1  0.19841619  0.17849349  0.30361959  1
  Li  Li2  1  0.21680373  0.33488637  0.74040901  1
  Al  Al3  1  0.27835988  0.60497202  0.95365825  1
  O  O4  1  0.52136687  0.84213357  0.40714440  1
  O  O5  1  0.55637983  0.91514490  0.71982220  1
  O  O6  1  0.78631504  0.20264129  0.03072339  1
  O  O7  1  0.81950041  0.51340377  0.19873247  1
