# generated using pymatgen
data_Li5Zr3O3
_symmetry_space_group_name_H-M   'P 1'
_cell_length_a   6.45217124
_cell_length_b   11.20146270
_cell_length_c   4.69698669
_cell_angle_alpha   111.04678532
_cell_angle_beta   81.30329030
_cell_angle_gamma   73.34408091
_symmetry_Int_Tables_number   1
_chemical_formula_structural   Li5Zr3O3
_chemical_formula_sum   'Li5 Zr3 O3'
_cell_volume   291.01044604
_cell_formula_units_Z   1
loop_
 _symmetry_equiv_pos_site_id
 _symmetry_equiv_pos_as_xyz
  1  'x, y, z'
loop_
 _atom_site_type_symbol
 _atom_site_label
 _atom_site_symmetry_multiplicity
 _atom_site_fract_x
 _atom_site_fract_y
 _atom_site_fract_z
 _atom_site_occupancy
  Li  Li0  1  0.06103611  0.03575877  0.04915839  1
  Li  Li1  1  0.99364361  0.11770358  0.18967044  1
  Li  Li2  1  0.10919638  0.36615177  0.43314821  1
  Li  Li3  1  0.17451556  0.48439976  0.80750368  1
  Li  Li4  1  0.37572785  0.64992229  0.98473669  1
  Zr  Zr5  1  0.50118503  0.65717479  0.10930425  1
  Zr  Zr6  1  0.45473037  0.88572278  0.42199996  1
  Zr  Zr7  1  0.59346134  0.00621548  0.72929236  1
  O  O8  1  0.72144047  0.23583265  0.88061345  1
  O  O9  1  0.86763709  0.38938328  0.18028295  1
  O  O10  1  0.98860781  0.56078941  0.47778027  1
