# generated using pymatgen
data_Li3ScBr5
_symmetry_space_group_name_H-M   'P 1'
_cell_length_a   4.61043629
_cell_length_b   4.61043629
_cell_length_c   4.61043629
_cell_angle_alpha   90.00000000
_cell_angle_beta   90.00000000
_cell_angle_gamma   90.00000000
_symmetry_Int_Tables_number   1
_chemical_formula_structural   Li3ScBr5
_chemical_formula_sum   'Li3 Sc1 Br5'
_cell_volume   98.00000000
_cell_formula_units_Z   1
loop_
 _symmetry_equiv_pos_site_id
 _symmetry_equiv_pos_as_xyz
  1  'x, y, z'
loop_
 _atom_site_type_symbol
 _atom_site_label
 _atom_site_symmetry_multiplicity
 _atom_site_fract_x
 _atom_site_fract_y
 _atom_site_fract_z
 _atom_site_occupancy
  Li  Li0  1  0.98454499  0.09887136  0.96631555  1
  Li  Li1  1  0.10833452  0.22090832  0.20564419  1
  Li  Li2  1  0.24952199  0.35677710  0.61573863  1
  Sc  Sc3  1  0.38353543  0.61205533  0.80862293  1
  Br  Br4  1  0.40249916  0.79782240  0.08257321  1
  Br  Br5  1  0.54215103  0.95351273  0.54857156  1
  Br  Br6  1  0.58218877  0.06885186  0.80324197  1
  Br  Br7  1  0.74093978  0.16067617  0.99120275  1
  Br  Br8  1  0.86080726  0.42646757  0.37641274  1
