# generated using pymatgen
data_LiLa4N2
_symmetry_space_group_name_H-M   'P 1'
_cell_length_a   11.13347058
_cell_length_b   9.01460207
_cell_length_c   14.92464898
_cell_angle_alpha   84.52365098
_cell_angle_beta   94.01475774
_cell_angle_gamma   60.50318578
_symmetry_Int_Tables_number   1
_chemical_formula_structural   LiLa4N2
_chemical_formula_sum   'Li1 La4 N2'
_cell_volume   1285.90318491
_cell_formula_units_Z   1
loop_
 _symmetry_equiv_pos_site_id
 _symmetry_equiv_pos_as_xyz
  1  'x, y, z'
loop_
 _atom_site_type_symbol
 _atom_site_label
 _atom_site_symmetry_multiplicity
 _atom_site_fract_x
 _atom_site_fract_y
 _atom_site_fract_z
 _atom_site_occupancy
  Li  Li0  1  0.97774168  0.01388071  0.98141234  1
  La  La1  1  0.04544019  0.20887965  0.32126617  1
  La  La2  1  0.38019121  0.50745944  0.83749318  1
  La  La3  1  0.33520232  0.63762453  0.17678518  1
  La  La4  1  0.57789038  0.97399205  0.49340464  1
  N  N5  1  0.78758161  0.15806596  0.87754173  1
  N  N6  1  0.95123828  0.29615444  0.18665593  1
