# generated using pymatgen
data_Li7SiS4
_symmetry_space_group_name_H-M   'P 1'
_cell_length_a   4.84880759
_cell_length_b   4.84880759
_cell_length_c   4.84880759
_cell_angle_alpha   90.00000000
_cell_angle_beta   90.00000000
_cell_angle_gamma   90.00000000
_symmetry_Int_Tables_number   1
_chemical_formula_structural   Li7SiS4
_chemical_formula_sum   'Li7 Si1 S4'
_cell_volume   114.00000000
_cell_formula_units_Z   1
loop_
 _symmetry_equiv_pos_site_id
 _symmetry_equiv_pos_as_xyz
  1  'x, y, z'
loop_
 _atom_site_type_symbol
 _atom_site_label
 _atom_site_symmetry_multiplicity
 _atom_site_fract_x
 _atom_site_fract_y
 _atom_site_fract_z
 _atom_site_occupancy
  Li  Li0  1  0.07097869  0.93426532  0.07262136  1
  Li  Li1  1  0.09776735  0.14526812  0.31328512  1
  Li  Li2  1  0.17424542  0.31602605  0.46636746  1
  Li  Li3  1  0.22104150  0.42281640  0.67833978  1
  Li  Li4  1  0.42517545  0.46726588  0.79608101  1
  Li  Li5  1  0.43681334  0.74459538  0.12846869  1
  Li  Li6  1  0.59348330  0.84352235  0.25535223  1
  Si  Si7  1  0.49921887  0.87497564  0.55159620  1
  S  S8  1  0.71206357  0.02365354  0.76809445  1
  S  S9  1  0.75819098  0.29707157  0.88319247  1
  S  S10  1  0.79626105  0.29131477  0.17667702  1
  S  S11  1  0.99655381  0.48975001  0.49105598  1
