# generated using pymatgen
data_Li4Ge2S5
_symmetry_space_group_name_H-M   'P 1'
_cell_length_a   4.67044002
_cell_length_b   4.84048800
_cell_length_c   4.95417195
_cell_angle_alpha   90.00000000
_cell_angle_beta   90.00000000
_cell_angle_gamma   90.00000000
_symmetry_Int_Tables_number   1
_chemical_formula_structural   Li4Ge2S5
_chemical_formula_sum   'Li4 Ge2 S5'
_cell_volume   112.00000000
_cell_formula_units_Z   1
loop_
 _symmetry_equiv_pos_site_id
 _symmetry_equiv_pos_as_xyz
  1  'x, y, z'
loop_
 _atom_site_type_symbol
 _atom_site_label
 _atom_site_symmetry_multiplicity
 _atom_site_fract_x
 _atom_site_fract_y
 _atom_site_fract_z
 _atom_site_occupancy
  Li  Li0  1  0.06615012  0.01763299  0.02220535  1
  Li  Li1  1  0.10171990  0.10156415  0.25140043  1
  Li  Li2  1  0.14389550  0.34434596  0.49014738  1
  Li  Li3  1  0.26668306  0.38345138  0.76302427  1
  Ge  Ge4  1  0.29660870  0.61404694  0.95477655  1
  Ge  Ge5  1  0.38470932  0.66530281  0.26313423  1
  S  S6  1  0.48099120  0.94840243  0.39468633  1
  S  S7  1  0.57906933  0.10379801  0.73067669  1
  S  S8  1  0.65838408  0.10010698  0.92097065  1
  S  S9  1  0.81582655  0.40412060  0.04936876  1
  S  S10  1  0.90537362  0.38473554  0.36735919  1
