# generated using pymatgen
data_LiAlO4
_symmetry_space_group_name_H-M   'P 1'
_cell_length_a   6.40083889
_cell_length_b   6.40083889
_cell_length_c   9.71135256
_cell_angle_alpha   90.00000000
_cell_angle_beta   90.00000000
_cell_angle_gamma   120.00000000
_symmetry_Int_Tables_number   1
_chemical_formula_structural   LiAlO4
_chemical_formula_sum   'Li1 Al1 O4'
_cell_volume   344.57530214
_cell_formula_units_Z   1
loop_
 _symmetry_equiv_pos_site_id
 _symmetry_equiv_pos_as_xyz
  1  'x, y, z'
loop_
 _atom_site_type_symbol
 _atom_site_label
 _atom_site_symmetry_multiplicity
 _atom_site_fract_x
 _atom_site_fract_y
 _atom_site_fract_z
 _atom_site_occupancy
  Li  Li0  1  0.93921328  0.00473381  0.05356801  1
  Al  Al1  1  0.08883954  0.35355408  0.49653745  1
  O  O2  1  0.41636046  0.61718548  0.92414678  1
  O  O3  1  0.58664002  0.88971582  0.37866023  1
  O  O4  1  0.68168463  0.01912085  0.66497394  1
  O  O5  1  0.76665639  0.31491259  0.08480674  1
