# generated using pymatgen
data_Li4ZrF7
_symmetry_space_group_name_H-M   'P 1'
_cell_length_a   10.95403129
_cell_length_b   10.95403129
_cell_length_c   10.66637861
_cell_angle_alpha   90.00000000
_cell_angle_beta   90.00000000
_cell_angle_gamma   90.00000000
_symmetry_Int_Tables_number   1
_chemical_formula_structural   Li4ZrF7
_chemical_formula_sum   'Li4 Zr1 F7'
_cell_volume   1279.86731809
_cell_formula_units_Z   1
loop_
 _symmetry_equiv_pos_site_id
 _symmetry_equiv_pos_as_xyz
  1  'x, y, z'
loop_
 _atom_site_type_symbol
 _atom_site_label
 _atom_site_symmetry_multiplicity
 _atom_site_fract_x
 _atom_site_fract_y
 _atom_site_fract_z
 _atom_site_occupancy
  Li  Li0  1  0.04870865  0.06547628  0.98009820  1
  Li  Li1  1  0.12812660  0.17418891  0.27797334  1
  Li  Li2  1  0.14361732  0.36402408  0.42107599  1
  Li  Li3  1  0.18530667  0.47642197  0.57891422  1
  Zr  Zr4  1  0.35002524  0.63374477  0.92095933  1
  F  F5  1  0.34325114  0.71902906  0.04759813  1
  F  F6  1  0.42785827  0.81392061  0.34248321  1
  F  F7  1  0.58188867  0.02098024  0.50016115  1
  F  F8  1  0.63161438  0.03393717  0.73646252  1
  F  F9  1  0.75052046  0.20102064  0.00231973  1
  F  F10  1  0.90967014  0.39304255  0.21003090  1
  F  F11  1  0.85607324  0.39551428  0.45872794  1
