# generated using pymatgen
data_Li4TiO4
_symmetry_space_group_name_H-M   'P 1'
_cell_length_a   11.51425380
_cell_length_b   11.51425380
_cell_length_c   11.51425380
_cell_angle_alpha   90.00000000
_cell_angle_beta   90.00000000
_cell_angle_gamma   90.00000000
_symmetry_Int_Tables_number   1
_chemical_formula_structural   Li4TiO4
_chemical_formula_sum   'Li4 Ti1 O4'
_cell_volume   1526.53720775
_cell_formula_units_Z   1
loop_
 _symmetry_equiv_pos_site_id
 _symmetry_equiv_pos_as_xyz
  1  'x, y, z'
loop_
 _atom_site_type_symbol
 _atom_site_label
 _atom_site_symmetry_multiplicity
 _atom_site_fract_x
 _atom_site_fract_y
 _atom_site_fract_z
 _atom_site_occupancy
  Li  Li0  1  0.01489339  0.99974170  0.98172513  1
  Li  Li1  1  0.05934199  0.21956804  0.38700813  1
  Li  Li2  1  0.24320861  0.28252407  0.57522509  1
  Li  Li3  1  0.36804688  0.56604735  0.89546662  1
  Ti  Ti4  1  0.39121945  0.69130836  0.08289495  1
  O  O5  1  0.46477370  0.83427811  0.43507843  1
  O  O6  1  0.76079766  0.10048681  0.82467753  1
  O  O7  1  0.82104138  0.20408603  0.03885384  1
  O  O8  1  0.96051736  0.52472399  0.38203238  1
