# generated using pymatgen
data_Li4Sc2NbCl5
_symmetry_space_group_name_H-M   'P 1'
_cell_length_a   10.50965115
_cell_length_b   10.50965115
_cell_length_c   9.60650712
_cell_angle_alpha   90.00000000
_cell_angle_beta   90.00000000
_cell_angle_gamma   90.00000000
_symmetry_Int_Tables_number   1
_chemical_formula_structural   Li4Sc2NbCl5
_chemical_formula_sum   'Li4 Sc2 Nb1 Cl5'
_cell_volume   1061.06529576
_cell_formula_units_Z   1
loop_
 _symmetry_equiv_pos_site_id
 _symmetry_equiv_pos_as_xyz
  1  'x, y, z'
loop_
 _atom_site_type_symbol
 _atom_site_label
 _atom_site_symmetry_multiplicity
 _atom_site_fract_x
 _atom_site_fract_y
 _atom_site_fract_z
 _atom_site_occupancy
  Li  Li0  1  0.98733636  0.95765426  0.98522679  1
  Li  Li1  1  0.13042787  0.12929612  0.17142006  1
  Li  Li2  1  0.19784128  0.32708461  0.42510851  1
  Li  Li3  1  0.33585203  0.36832587  0.60734029  1
  Nb  Nb4  1  0.26749594  0.47876616  0.87617490  1
  Cl  Cl5  1  0.37838052  0.70705950  0.12718585  1
  Cl  Cl6  1  0.54220961  0.75970614  0.27152918  1
  Cl  Cl7  1  0.60322510  0.00175590  0.43403076  1
  Cl  Cl8  1  0.61258699  0.04548364  0.69796162  1
  Cl  Cl9  1  0.69010393  0.26339804  0.90696058  1
  Sc  Sc10  1  0.91906897  0.36000319  0.11489856  1
  Sc  Sc11  1  0.90425240  0.47081002  0.35386899  1
