# generated using pymatgen
data_LiYTi3Cl4
_symmetry_space_group_name_H-M   'P 1'
_cell_length_a   12.98813316
_cell_length_b   12.98813316
_cell_length_c   12.95262750
_cell_angle_alpha   90.00000000
_cell_angle_beta   90.00000000
_cell_angle_gamma   90.00000000
_symmetry_Int_Tables_number   1
_chemical_formula_structural   LiYTi3Cl4
_chemical_formula_sum   'Li1 Y1 Ti3 Cl4'
_cell_volume   2184.99949671
_cell_formula_units_Z   1
loop_
 _symmetry_equiv_pos_site_id
 _symmetry_equiv_pos_as_xyz
  1  'x, y, z'
loop_
 _atom_site_type_symbol
 _atom_site_label
 _atom_site_symmetry_multiplicity
 _atom_site_fract_x
 _atom_site_fract_y
 _atom_site_fract_z
 _atom_site_occupancy
  Li  Li0  1  0.02372016  0.92966289  0.05747200  1
  Ti  Ti1  1  0.15583936  0.22161139  0.35256211  1
  Ti  Ti2  1  0.14517284  0.41581232  0.59175886  1
  Ti  Ti3  1  0.28925946  0.63694038  0.83705507  1
  Cl  Cl4  1  0.45771773  0.77807900  0.11414787  1
  Cl  Cl5  1  0.49413417  0.84499351  0.47848297  1
  Cl  Cl6  1  0.69269634  0.12979268  0.78240753  1
  Cl  Cl7  1  0.85588789  0.28702189  0.97931510  1
  Y  Y8  1  0.95071880  0.45125008  0.36890755  1
