# generated using pymatgen
data_Li7La2ZrO11
_symmetry_space_group_name_H-M   'P 1'
_cell_length_a   5.74889708
_cell_length_b   5.74889708
_cell_length_c   5.74889708
_cell_angle_alpha   90.00000000
_cell_angle_beta   90.00000000
_cell_angle_gamma   90.00000000
_symmetry_Int_Tables_number   1
_chemical_formula_structural   Li7La2ZrO11
_chemical_formula_sum   'Li7 La2 Zr1 O11'
_cell_volume   190.00000000
_cell_formula_units_Z   1
loop_
 _symmetry_equiv_pos_site_id
 _symmetry_equiv_pos_as_xyz
  1  'x, y, z'
loop_
 _atom_site_type_symbol
 _atom_site_label
 _atom_site_symmetry_multiplicity
 _atom_site_fract_x
 _atom_site_fract_y
 _atom_site_fract_z
 _atom_site_occupancy
  Li  Li0  1  0.07887829  0.09556389  0.06801987  1
  Li  Li1  1  0.01902606  0.11653269  0.05762830  1
  Li  Li2  1  0.12983010  0.12346460  0.19574480  1
  Li  Li3  1  0.13744349  0.16593511  0.30290576  1
  Li  Li4  1  0.16521475  0.31517662  0.45481999  1
  Li  Li5  1  0.24108817  0.40713204  0.67234609  1
  Li  Li6  1  0.31608014  0.38018913  0.73308231  1
  La  La7  1  0.28910705  0.52066338  0.85199920  1
  La  La8  1  0.44809850  0.66349571  0.09532031  1
  Zr  Zr9  1  0.49949060  0.73836837  0.19757808  1
  O  O10  1  0.54690987  0.77062080  0.17964835  1
  O  O11  1  0.46066305  0.92266622  0.29141920  1
  O  O12  1  0.48457426  0.88087149  0.42581848  1
  O  O13  1  0.59683332  0.07088326  0.57901512  1
  O  O14  1  0.70272975  0.02738419  0.68585647  1
  O  O15  1  0.76270676  0.14861357  0.90436786  1
  O  O16  1  0.83381312  0.26818522  0.05232518  1
  O  O17  1  0.72300603  0.29256536  0.15065957  1
  O  O18  1  0.90151658  0.45138436  0.21596089  1
  O  O19  1  0.89605613  0.37621014  0.39967333  1
  O  O20  1  0.87914919  0.47026064  0.56650826  1
