# generated using pymatgen
data_Li3Al2F4
_symmetry_space_group_name_H-M   'P 1'
_cell_length_a   9.80714192
_cell_length_b   9.80714192
_cell_length_c   10.30565867
_cell_angle_alpha   90.00000000
_cell_angle_beta   90.00000000
_cell_angle_gamma   90.00000000
_symmetry_Int_Tables_number   1
_chemical_formula_structural   Li3Al2F4
_chemical_formula_sum   'Li3 Al2 F4'
_cell_volume   991.19858788
_cell_formula_units_Z   1
loop_
 _symmetry_equiv_pos_site_id
 _symmetry_equiv_pos_as_xyz
  1  'x, y, z'
loop_
 _atom_site_type_symbol
 _atom_site_label
 _atom_site_symmetry_multiplicity
 _atom_site_fract_x
 _atom_site_fract_y
 _atom_site_fract_z
 _atom_site_occupancy
  Li  Li0  1  0.04762798  0.94400564  0.94805599  1
  Li  Li1  1  0.11731742  0.25330694  0.27723202  1
  Li  Li2  1  0.31579071  0.28762301  0.51734291  1
  Al  Al3  1  0.26863968  0.57248058  0.91178497  1
  Al  Al4  1  0.43447896  0.70389058  0.19976865  1
  F  F5  1  0.64591628  0.96456410  0.38782964  1
  F  F6  1  0.69057627  0.05701435  0.72495406  1
  F  F7  1  0.70616870  0.26227029  0.09768738  1
  F  F8  1  0.92343259  0.47487697  0.35233887  1
