# generated using pymatgen
data_Li3Si3S7
_symmetry_space_group_name_H-M   'P 1'
_cell_length_a   5.55385495
_cell_length_b   5.55385495
_cell_length_c   4.47393861
_cell_angle_alpha   90.00000000
_cell_angle_beta   90.00000000
_cell_angle_gamma   90.00000000
_symmetry_Int_Tables_number   1
_chemical_formula_structural   Li3Si3S7
_chemical_formula_sum   'Li3 Si3 S7'
_cell_volume   138.00000000
_cell_formula_units_Z   1
loop_
 _symmetry_equiv_pos_site_id
 _symmetry_equiv_pos_as_xyz
  1  'x, y, z'
loop_
 _atom_site_type_symbol
 _atom_site_label
 _atom_site_symmetry_multiplicity
 _atom_site_fract_x
 _atom_site_fract_y
 _atom_site_fract_z
 _atom_site_occupancy
  Li  Li0  1  0.04363384  0.93262122  0.03083590  1
  Li  Li1  1  0.08585648  0.18283899  0.21904250  1
  Li  Li2  1  0.10705600  0.29580721  0.34925925  1
  Si  Si3  1  0.29953825  0.43367792  0.56227245  1
  Si  Si4  1  0.39507625  0.44915318  0.75406621  1
  Si  Si5  1  0.33940909  0.59457899  0.06724703  1
  S  S6  1  0.42911975  0.71457498  0.26062618  1
  S  S7  1  0.47130125  0.78987275  0.39839269  1
  S  S8  1  0.65193716  0.99485887  0.65994907  1
  S  S9  1  0.72676490  0.17476337  0.71403732  1
  S  S10  1  0.84226976  0.28614845  0.07242699  1
  S  S11  1  0.91072027  0.31016830  0.22087334  1
  S  S12  1  0.90256196  0.54744196  0.49337381  1
