# generated using pymatgen
data_Li(GaCl5)2
_symmetry_space_group_name_H-M   'P 1'
_cell_length_a   10.85375039
_cell_length_b   10.85375039
_cell_length_c   10.90324382
_cell_angle_alpha   90.00000000
_cell_angle_beta   90.00000000
_cell_angle_gamma   90.00000000
_symmetry_Int_Tables_number   1
_chemical_formula_structural   Li(GaCl5)2
_chemical_formula_sum   'Li1 Ga2 Cl10'
_cell_volume   1284.44461813
_cell_formula_units_Z   1
loop_
 _symmetry_equiv_pos_site_id
 _symmetry_equiv_pos_as_xyz
  1  'x, y, z'
loop_
 _atom_site_type_symbol
 _atom_site_label
 _atom_site_symmetry_multiplicity
 _atom_site_fract_x
 _atom_site_fract_y
 _atom_site_fract_z
 _atom_site_occupancy
  Li  Li0  1  0.91064130  0.03120418  0.99746086  1
  Ga  Ga1  1  0.99379993  0.20502025  0.22972184  1
  Ga  Ga2  1  0.16690896  0.15257165  0.35069486  1
  Cl  Cl3  1  0.17842569  0.37231646  0.65780171  1
  Cl  Cl4  1  0.33907121  0.41391489  0.76256174  1
  Cl  Cl5  1  0.41211273  0.68834761  0.02017394  1
  Cl  Cl6  1  0.41921155  0.79961951  0.20947356  1
  Cl  Cl7  1  0.61701516  0.79399016  0.39238075  1
  Cl  Cl8  1  0.58579295  0.07482693  0.67518425  1
  Cl  Cl9  1  0.69008547  0.20984770  0.86389576  1
  Cl  Cl10  1  0.77656266  0.33283538  0.91905336  1
  Cl  Cl11  1  0.91022840  0.27977333  0.15137085  1
  Cl  Cl12  1  0.94208140  0.46052720  0.39657295  1
