# generated using pymatgen
data_Li5GaS9
_symmetry_space_group_name_H-M   'P 1'
_cell_length_a   12.45014082
_cell_length_b   12.45014082
_cell_length_c   13.03341076
_cell_angle_alpha   90.00000000
_cell_angle_beta   90.00000000
_cell_angle_gamma   90.00000000
_symmetry_Int_Tables_number   1
_chemical_formula_structural   Li5GaS9
_chemical_formula_sum   'Li5 Ga1 S9'
_cell_volume   2020.25695339
_cell_formula_units_Z   1
loop_
 _symmetry_equiv_pos_site_id
 _symmetry_equiv_pos_as_xyz
  1  'x, y, z'
loop_
 _atom_site_type_symbol
 _atom_site_label
 _atom_site_symmetry_multiplicity
 _atom_site_fract_x
 _atom_site_fract_y
 _atom_site_fract_z
 _atom_site_occupancy
  Li  Li0  1  0.96797456  0.03832016  0.97517870  1
  Li  Li1  1  0.10764729  0.04731524  0.17739372  1
  Li  Li2  1  0.07202530  0.25270312  0.32614802  1
  Li  Li3  1  0.12524832  0.22603103  0.47143529  1
  Li  Li4  1  0.17884365  0.49844806  0.67104603  1
  Ga  Ga5  1  0.31371937  0.52599515  0.84030030  1
  S  S6  1  0.44885961  0.66587418  0.97459377  1
  S  S7  1  0.39707170  0.83716718  0.28908725  1
  S  S8  1  0.48257740  0.76817107  0.42315484  1
  S  S9  1  0.68990117  0.92951941  0.62718822  1
  S  S10  1  0.60557009  0.01333412  0.84208171  1
  S  S11  1  0.82916794  0.16439020  0.95349542  1
  S  S12  1  0.84564045  0.29752151  0.06363433  1
  S  S13  1  0.93969391  0.43777607  0.18410043  1
  S  S14  1  0.00559448  0.43696199  0.38584136  1
