# generated using pymatgen
data_Li3AlS10
_symmetry_space_group_name_H-M   'P 1'
_cell_length_a   7.05369774
_cell_length_b   8.44936236
_cell_length_c   3.46591095
_cell_angle_alpha   113.83946918
_cell_angle_beta   64.25250861
_cell_angle_gamma   114.26152701
_symmetry_Int_Tables_number   1
_chemical_formula_structural   Li3AlS10
_chemical_formula_sum   'Li3 Al1 S10'
_cell_volume   163.09304619
_cell_formula_units_Z   1
loop_
 _symmetry_equiv_pos_site_id
 _symmetry_equiv_pos_as_xyz
  1  'x, y, z'
loop_
 _atom_site_type_symbol
 _atom_site_label
 _atom_site_symmetry_multiplicity
 _atom_site_fract_x
 _atom_site_fract_y
 _atom_site_fract_z
 _atom_site_occupancy
  Li  Li0  1  0.05986914  0.06262109  0.09707041  1
  Li  Li1  1  0.16891457  0.09151315  0.24664782  1
  Li  Li2  1  0.18348674  0.18108339  0.41118073  1
  Al  Al3  1  0.27083154  0.35415650  0.60061040  1
  S  S4  1  0.35483619  0.49272057  0.66719773  1
  S  S5  1  0.35926110  0.60834846  0.97922051  1
  S  S6  1  0.40281341  0.71367307  0.10482000  1
  S  S7  1  0.49193133  0.74759125  0.23921604  1
  S  S8  1  0.65466875  0.91687772  0.58486965  1
  S  S9  1  0.66839437  0.03599771  0.60114356  1
  S  S10  1  0.79128078  0.14180063  0.88875442  1
  S  S11  1  0.72210068  0.36207357  0.96786262  1
  S  S12  1  0.83451797  0.42410274  0.15332336  1
  S  S13  1  0.01463525  0.54341496  0.52594846  1
