# generated using pymatgen
data_LiLa2TiS5
_symmetry_space_group_name_H-M   'P 1'
_cell_length_a   12.15337444
_cell_length_b   12.15337444
_cell_length_c   11.68682605
_cell_angle_alpha   90.00000000
_cell_angle_beta   90.00000000
_cell_angle_gamma   90.00000000
_symmetry_Int_Tables_number   1
_chemical_formula_structural   LiLa2TiS5
_chemical_formula_sum   'Li1 La2 Ti1 S5'
_cell_volume   1726.19691691
_cell_formula_units_Z   1
loop_
 _symmetry_equiv_pos_site_id
 _symmetry_equiv_pos_as_xyz
  1  'x, y, z'
loop_
 _atom_site_type_symbol
 _atom_site_label
 _atom_site_symmetry_multiplicity
 _atom_site_fract_x
 _atom_site_fract_y
 _atom_site_fract_z
 _atom_site_occupancy
  Li  Li0  1  0.07284719  0.90141086  0.00260419  1
  Ti  Ti1  1  0.14357747  0.18900992  0.36424441  1
  S  S2  1  0.23157746  0.35644868  0.63663237  1
  S  S3  1  0.27793571  0.62242125  0.95626275  1
  S  S4  1  0.35986678  0.80151103  0.14220296  1
  S  S5  1  0.53015347  0.89372672  0.37603103  1
  S  S6  1  0.60053293  0.11136225  0.68500610  1
  La  La7  1  0.73146726  0.19368776  0.04339395  1
  La  La8  1  0.84632665  0.53395217  0.33676163  1
