# generated using pymatgen
data_Li5Y2NbS3
_symmetry_space_group_name_H-M   'P 1'
_cell_length_a   9.72837001
_cell_length_b   9.72837001
_cell_length_c   8.86180602
_cell_angle_alpha   90.00000000
_cell_angle_beta   90.00000000
_cell_angle_gamma   90.00000000
_symmetry_Int_Tables_number   1
_chemical_formula_structural   Li5Y2NbS3
_chemical_formula_sum   'Li5 Y2 Nb1 S3'
_cell_volume   838.69180577
_cell_formula_units_Z   1
loop_
 _symmetry_equiv_pos_site_id
 _symmetry_equiv_pos_as_xyz
  1  'x, y, z'
loop_
 _atom_site_type_symbol
 _atom_site_label
 _atom_site_symmetry_multiplicity
 _atom_site_fract_x
 _atom_site_fract_y
 _atom_site_fract_z
 _atom_site_occupancy
  Li  Li0  1  0.06408956  0.03204032  0.93166579  1
  Li  Li1  1  0.04853642  0.13271417  0.25959759  1
  Li  Li2  1  0.11190000  0.38560769  0.39258676  1
  Li  Li3  1  0.29218147  0.49141004  0.80169847  1
  Li  Li4  1  0.44644240  0.54977142  0.02854498  1
  Nb  Nb5  1  0.51007508  0.66967093  0.11701253  1
  S  S6  1  0.50004362  0.83008946  0.46446524  1
  S  S7  1  0.72678582  0.98694421  0.73429384  1
  S  S8  1  0.64655888  0.15416129  0.98756093  1
  Y  Y9  1  0.75069647  0.25698516  0.17523474  1
  Y  Y10  1  0.92360651  0.51283525  0.30066478  1
