# generated using pymatgen
data_LiTi3P2O15
_symmetry_space_group_name_H-M   'P 1'
_cell_length_a   4.79616922
_cell_length_b   4.79616922
_cell_length_c   6.52082076
_cell_angle_alpha   90.00000000
_cell_angle_beta   90.00000000
_cell_angle_gamma   90.00000000
_symmetry_Int_Tables_number   1
_chemical_formula_structural   LiTi3P2O15
_chemical_formula_sum   'Li1 Ti3 P2 O15'
_cell_volume   150.00000000
_cell_formula_units_Z   1
loop_
 _symmetry_equiv_pos_site_id
 _symmetry_equiv_pos_as_xyz
  1  'x, y, z'
loop_
 _atom_site_type_symbol
 _atom_site_label
 _atom_site_symmetry_multiplicity
 _atom_site_fract_x
 _atom_site_fract_y
 _atom_site_fract_z
 _atom_site_occupancy
  Li  Li0  1  0.97627465  0.90187101  0.02552813  1
  Ti  Ti1  1  0.00326466  0.05729501  0.07302927  1
  Ti  Ti2  1  0.11990134  0.09196106  0.26849855  1
  Ti  Ti3  1  0.14631847  0.29426921  0.31705870  1
  P  P4  1  0.27556745  0.30313144  0.56647985  1
  P  P5  1  0.26501327  0.43192645  0.63375335  1
  O  O6  1  0.19908904  0.47305071  0.70821471  1
  O  O7  1  0.38413990  0.44215486  0.83944303  1
  O  O8  1  0.37153193  0.60105600  0.05205977  1
  O  O9  1  0.41911784  0.64442709  0.09248015  1
  O  O10  1  0.52998125  0.80153698  0.25305935  1
  O  O11  1  0.44224979  0.79344716  0.35181924  1
  O  O12  1  0.61278812  0.97999878  0.55134529  1
  O  O13  1  0.56034129  0.04570261  0.64130795  1
  O  O14  1  0.63706926  0.12357350  0.76659052  1
  O  O15  1  0.75601577  0.23834448  0.92384739  1
  O  O16  1  0.71506541  0.23808732  0.06571889  1
  O  O17  1  0.81884459  0.34480698  0.14773280  1
  O  O18  1  0.77597948  0.46448942  0.17151914  1
  O  O19  1  0.86468410  0.46137418  0.37312058  1
  O  O20  1  0.88687902  0.46927531  0.40867223  1
