# generated using pymatgen
data_Li3Ti3O8
_symmetry_space_group_name_H-M   'P 1'
_cell_length_a   14.71973262
_cell_length_b   14.71973262
_cell_length_c   14.00209600
_cell_angle_alpha   90.00000000
_cell_angle_beta   90.00000000
_cell_angle_gamma   90.00000000
_symmetry_Int_Tables_number   1
_chemical_formula_structural   Li3Ti3O8
_chemical_formula_sum   'Li3 Ti3 O8'
_cell_volume   3033.84153831
_cell_formula_units_Z   1
loop_
 _symmetry_equiv_pos_site_id
 _symmetry_equiv_pos_as_xyz
  1  'x, y, z'
loop_
 _atom_site_type_symbol
 _atom_site_label
 _atom_site_symmetry_multiplicity
 _atom_site_fract_x
 _atom_site_fract_y
 _atom_site_fract_z
 _atom_site_occupancy
  Li  Li0  1  0.07219380  0.90330110  0.99825736  1
  Li  Li1  1  0.12542842  0.04517087  0.20670402  1
  Li  Li2  1  0.11441543  0.16591477  0.47236399  1
  Ti  Ti3  1  0.29921996  0.36432823  0.46263946  1
  Ti  Ti4  1  0.24052817  0.39738889  0.68436536  1
  Ti  Ti5  1  0.44061982  0.62803863  0.95446018  1
  O  O6  1  0.34542273  0.63291578  0.16204972  1
  O  O7  1  0.40456037  0.79512082  0.36621356  1
  O  O8  1  0.61711198  0.87522684  0.42430969  1
  O  O9  1  0.73292465  0.97005101  0.68757332  1
  O  O10  1  0.69556121  0.16065673  0.87639913  1
  O  O11  1  0.76872312  0.26608588  0.99258392  1
  O  O12  1  0.80955254  0.43848718  0.15788569  1
  O  O13  1  0.94013517  0.45302633  0.52608628  1
