# generated using pymatgen
data_Li5Ti2(P3O)2
_symmetry_space_group_name_H-M   'P 1'
_cell_length_a   13.25118250
_cell_length_b   10.17940330
_cell_length_c   13.55819962
_cell_angle_alpha   98.90052698
_cell_angle_beta   64.23197971
_cell_angle_gamma   101.64561218
_symmetry_Int_Tables_number   1
_chemical_formula_structural   Li5Ti2(P3O)2
_chemical_formula_sum   'Li5 Ti2 P6 O2'
_cell_volume   1608.43583005
_cell_formula_units_Z   1
loop_
 _symmetry_equiv_pos_site_id
 _symmetry_equiv_pos_as_xyz
  1  'x, y, z'
loop_
 _atom_site_type_symbol
 _atom_site_label
 _atom_site_symmetry_multiplicity
 _atom_site_fract_x
 _atom_site_fract_y
 _atom_site_fract_z
 _atom_site_occupancy
  Li  Li0  1  0.97872771  0.03841968  0.06509580  1
  Li  Li1  1  0.09639309  0.10285383  0.22536070  1
  Li  Li2  1  0.19442684  0.12147905  0.38380027  1
  Li  Li3  1  0.29301940  0.30596705  0.62098945  1
  Li  Li4  1  0.35344926  0.46245574  0.68679162  1
  Ti  Ti5  1  0.24231426  0.45949675  0.92104233  1
  Ti  Ti6  1  0.31848499  0.71926328  0.00045673  1
  P  P7  1  0.41178346  0.69882551  0.13090878  1
  P  P8  1  0.48192193  0.81290525  0.49242931  1
  P  P9  1  0.53153046  0.89962921  0.56104637  1
  P  P10  1  0.73942584  0.16581021  0.80542629  1
  P  P11  1  0.81896548  0.24113736  0.89888409  1
  P  P12  1  0.75310144  0.34608378  0.18341607  1
  O  O13  1  0.92947278  0.36887023  0.35893271  1
  O  O14  1  0.91636123  0.60193190  0.44636222  1
