# generated using pymatgen
data_Li7La2Zr2O13
_symmetry_space_group_name_H-M   'P 1'
_cell_length_a   6.03681074
_cell_length_b   6.03681074
_cell_length_c   6.03681074
_cell_angle_alpha   90.00000000
_cell_angle_beta   90.00000000
_cell_angle_gamma   90.00000000
_symmetry_Int_Tables_number   1
_chemical_formula_structural   Li7La2Zr2O13
_chemical_formula_sum   'Li7 La2 Zr2 O13'
_cell_volume   220.00000000
_cell_formula_units_Z   1
loop_
 _symmetry_equiv_pos_site_id
 _symmetry_equiv_pos_as_xyz
  1  'x, y, z'
loop_
 _atom_site_type_symbol
 _atom_site_label
 _atom_site_symmetry_multiplicity
 _atom_site_fract_x
 _atom_site_fract_y
 _atom_site_fract_z
 _atom_site_occupancy
  Li  Li0  1  0.09744117  0.04175027  0.95183777  1
  Li  Li1  1  0.13563602  0.05232119  0.10028126  1
  Li  Li2  1  0.05517940  0.22977455  0.13047522  1
  Li  Li3  1  0.06967661  0.22918137  0.32832198  1
  Li  Li4  1  0.11926465  0.32816075  0.45985888  1
  Li  Li5  1  0.12018182  0.26847365  0.56719208  1
  Li  Li6  1  0.16254361  0.36547720  0.69923030  1
  La  La7  1  0.23794522  0.56229680  0.67219389  1
  La  La8  1  0.40089891  0.58318242  0.94975383  1
  Zr  Zr9  1  0.36440467  0.66885652  0.03683122  1
  Zr  Zr10  1  0.33670726  0.61183022  0.05551746  1
  O  O11  1  0.54870922  0.71468014  0.25014405  1
  O  O12  1  0.48306861  0.72340860  0.36708909  1
  O  O13  1  0.47375366  0.97362521  0.43664548  1
  O  O14  1  0.57326422  0.86110455  0.60611508  1
  O  O15  1  0.69668462  0.98652379  0.57282328  1
  O  O16  1  0.60903922  0.15821823  0.67504161  1
  O  O17  1  0.74709570  0.20249968  0.91691623  1
  O  O18  1  0.84770928  0.15030658  0.96322944  1
  O  O19  1  0.83729549  0.25767619  0.09141732  1
  O  O20  1  0.93309877  0.28264896  0.16142277  1
  O  O21  1  0.84573125  0.35414342  0.32031726  1
  O  O22  1  0.98083537  0.58139567  0.36533530  1
  O  O23  1  0.02094918  0.57749385  0.52663462  1
