# generated using pymatgen
data_LiTi3PO14
_symmetry_space_group_name_H-M   'P 1'
_cell_length_a   5.14256318
_cell_length_b   5.14256318
_cell_length_c   5.14256318
_cell_angle_alpha   90.00000000
_cell_angle_beta   90.00000000
_cell_angle_gamma   90.00000000
_symmetry_Int_Tables_number   1
_chemical_formula_structural   LiTi3PO14
_chemical_formula_sum   'Li1 Ti3 P1 O14'
_cell_volume   136.00000000
_cell_formula_units_Z   1
loop_
 _symmetry_equiv_pos_site_id
 _symmetry_equiv_pos_as_xyz
  1  'x, y, z'
loop_
 _atom_site_type_symbol
 _atom_site_label
 _atom_site_symmetry_multiplicity
 _atom_site_fract_x
 _atom_site_fract_y
 _atom_site_fract_z
 _atom_site_occupancy
  Li  Li0  1  0.99273496  0.91759751  0.01450504  1
  Ti  Ti1  1  0.01292207  0.09505737  0.16537920  1
  Ti  Ti2  1  0.11778543  0.20732974  0.32988833  1
  Ti  Ti3  1  0.08630509  0.30202696  0.48167394  1
  P  P4  1  0.21503445  0.28863806  0.61414445  1
  O  O5  1  0.21101616  0.40012910  0.74439181  1
  O  O6  1  0.38684159  0.60362316  0.89544379  1
  O  O7  1  0.38757571  0.58231354  0.96518288  1
  O  O8  1  0.38276327  0.71610112  0.00795517  1
  O  O9  1  0.52073023  0.81565011  0.32756742  1
  O  O10  1  0.47186218  0.93612813  0.37306570  1
  O  O11  1  0.64253427  0.91467630  0.58269100  1
  O  O12  1  0.69873617  0.09437890  0.61599333  1
  O  O13  1  0.70880424  0.01150418  0.74886806  1
  O  O14  1  0.74010267  0.24555725  0.87390532  1
  O  O15  1  0.70723695  0.31764922  0.04600104  1
  O  O16  1  0.76988056  0.27701565  0.20256759  1
  O  O17  1  0.86909247  0.47929121  0.43274342  1
  O  O18  1  0.00009747  0.55410786  0.43233386  1
