# generated using pymatgen
data_Li2TiO5
_symmetry_space_group_name_H-M   'P 1'
_cell_length_a   6.93734328
_cell_length_b   6.93734328
_cell_length_c   6.93734328
_cell_angle_alpha   90.00000000
_cell_angle_beta   90.00000000
_cell_angle_gamma   90.00000000
_symmetry_Int_Tables_number   1
_chemical_formula_structural   Li2TiO5
_chemical_formula_sum   'Li2 Ti1 O5'
_cell_volume   333.87165870
_cell_formula_units_Z   1
loop_
 _symmetry_equiv_pos_site_id
 _symmetry_equiv_pos_as_xyz
  1  'x, y, z'
loop_
 _atom_site_type_symbol
 _atom_site_label
 _atom_site_symmetry_multiplicity
 _atom_site_fract_x
 _atom_site_fract_y
 _atom_site_fract_z
 _atom_site_occupancy
  Li  Li0  1  0.90231901  0.05926542  0.02956057  1
  Li  Li1  1  0.09333802  0.29989540  0.25604365  1
  Ti  Ti2  1  0.26678206  0.37211739  0.66235031  1
  O  O3  1  0.40565725  0.64110610  0.93889233  1
  O  O4  1  0.53429072  0.86446905  0.38700701  1
  O  O5  1  0.70440142  0.09631614  0.66815143  1
  O  O6  1  0.82921404  0.16592440  0.03852195  1
  O  O7  1  0.82790597  0.42297463  0.31631240  1
