# generated using pymatgen
data_Li4Ta3Cl10
_symmetry_space_group_name_H-M   'P 1'
_cell_length_a   3.35062540
_cell_length_b   4.19659928
_cell_length_c   4.96282716
_cell_angle_alpha   119.76115200
_cell_angle_beta   83.98189298
_cell_angle_gamma   117.88771944
_symmetry_Int_Tables_number   1
_chemical_formula_structural   Li4Ta3Cl10
_chemical_formula_sum   'Li4 Ta3 Cl10'
_cell_volume   52.80137498
_cell_formula_units_Z   1
loop_
 _symmetry_equiv_pos_site_id
 _symmetry_equiv_pos_as_xyz
  1  'x, y, z'
loop_
 _atom_site_type_symbol
 _atom_site_label
 _atom_site_symmetry_multiplicity
 _atom_site_fract_x
 _atom_site_fract_y
 _atom_site_fract_z
 _atom_site_occupancy
  Li  Li0  1  0.93484135  0.91792749  0.99403994  1
  Li  Li1  1  0.99298248  0.01950669  0.06251857  1
  Li  Li2  1  0.10160776  0.23480004  0.36642565  1
  Li  Li3  1  0.20002495  0.36733229  0.39712543  1
  Ta  Ta4  1  0.29277825  0.37101664  0.67743228  1
  Ta  Ta5  1  0.31206042  0.46026570  0.74756953  1
  Ta  Ta6  1  0.36981737  0.59092424  0.88968702  1
  Cl  Cl7  1  0.32674652  0.72740061  0.14647964  1
  Cl  Cl8  1  0.55681399  0.79815898  0.27007336  1
  Cl  Cl9  1  0.55560997  0.76480236  0.42849562  1
  Cl  Cl10  1  0.57848364  0.90949909  0.62145501  1
  Cl  Cl11  1  0.57510467  0.12387591  0.61719175  1
  Cl  Cl12  1  0.77068183  0.19122266  0.89042065  1
  Cl  Cl13  1  0.72689328  0.25319183  0.96052605  1
  Cl  Cl14  1  0.77104827  0.31006853  0.23077003  1
  Cl  Cl15  1  0.83105752  0.39616104  0.33537628  1
  Cl  Cl16  1  0.95532304  0.55612621  0.37489121  1
