# generated using pymatgen
data_Li3GeS7
_symmetry_space_group_name_H-M   'P 1'
_cell_length_a   4.46096318
_cell_length_b   5.13726208
_cell_length_c   5.14898524
_cell_angle_alpha   90.00000000
_cell_angle_beta   90.00000000
_cell_angle_gamma   90.00000000
_symmetry_Int_Tables_number   1
_chemical_formula_structural   Li3GeS7
_chemical_formula_sum   'Li3 Ge1 S7'
_cell_volume   118.00000000
_cell_formula_units_Z   1
loop_
 _symmetry_equiv_pos_site_id
 _symmetry_equiv_pos_as_xyz
  1  'x, y, z'
loop_
 _atom_site_type_symbol
 _atom_site_label
 _atom_site_symmetry_multiplicity
 _atom_site_fract_x
 _atom_site_fract_y
 _atom_site_fract_z
 _atom_site_occupancy
  Li  Li0  1  0.99762981  0.07163294  0.05809906  1
  Li  Li1  1  0.13245745  0.21238330  0.30519948  1
  Li  Li2  1  0.25039543  0.28243931  0.56388455  1
  Ge  Ge3  1  0.32584382  0.41128235  0.75175398  1
  S  S4  1  0.44127816  0.68435305  0.04071718  1
  S  S5  1  0.51908852  0.64264749  0.13097537  1
  S  S6  1  0.56520564  0.97378209  0.49699986  1
  S  S7  1  0.69727707  0.01134144  0.61170693  1
  S  S8  1  0.64248325  0.27502827  0.86159752  1
  S  S9  1  0.75436206  0.41381645  0.20301199  1
  S  S10  1  0.89680164  0.57015478  0.42917257  1
