# generated using pymatgen
data_Li3Al2F4
_symmetry_space_group_name_H-M   'P 1'
_cell_length_a   9.25004438
_cell_length_b   9.25004438
_cell_length_c   8.57246996
_cell_angle_alpha   90.00000000
_cell_angle_beta   90.00000000
_cell_angle_gamma   90.00000000
_symmetry_Int_Tables_number   1
_chemical_formula_structural   Li3Al2F4
_chemical_formula_sum   'Li3 Al2 F4'
_cell_volume   733.48900003
_cell_formula_units_Z   1
loop_
 _symmetry_equiv_pos_site_id
 _symmetry_equiv_pos_as_xyz
  1  'x, y, z'
loop_
 _atom_site_type_symbol
 _atom_site_label
 _atom_site_symmetry_multiplicity
 _atom_site_fract_x
 _atom_site_fract_y
 _atom_site_fract_z
 _atom_site_occupancy
  Li  Li0  1  0.04596318  0.95544506  0.93091310  1
  Li  Li1  1  0.20800854  0.23310950  0.32208732  1
  Li  Li2  1  0.19331892  0.30232988  0.60118364  1
  Al  Al3  1  0.26004923  0.57062623  0.83901749  1
  Al  Al4  1  0.52783651  0.78621699  0.13516707  1
  F  F5  1  0.53644130  0.85275344  0.40332184  1
  F  F6  1  0.67069990  0.10889159  0.84492544  1
  F  F7  1  0.82875919  0.17263264  0.08409269  1
  F  F8  1  0.84727458  0.38808259  0.25414461  1
