# generated using pymatgen
data_Li4TiO4
_symmetry_space_group_name_H-M   'P 1'
_cell_length_a   7.79688353
_cell_length_b   7.79688353
_cell_length_c   7.79688353
_cell_angle_alpha   90.00000000
_cell_angle_beta   90.00000000
_cell_angle_gamma   90.00000000
_symmetry_Int_Tables_number   1
_chemical_formula_structural   Li4TiO4
_chemical_formula_sum   'Li4 Ti1 O4'
_cell_volume   473.98340843
_cell_formula_units_Z   1
loop_
 _symmetry_equiv_pos_site_id
 _symmetry_equiv_pos_as_xyz
  1  'x, y, z'
loop_
 _atom_site_type_symbol
 _atom_site_label
 _atom_site_symmetry_multiplicity
 _atom_site_fract_x
 _atom_site_fract_y
 _atom_site_fract_z
 _atom_site_occupancy
  Li  Li0  1  0.00843890  0.92438018  0.04864952  1
  Li  Li1  1  0.02400564  0.24055697  0.24593367  1
  Li  Li2  1  0.31247711  0.29573027  0.64166046  1
  Li  Li3  1  0.30655407  0.53218581  0.96892447  1
  Ti  Ti4  1  0.50057972  0.68766466  0.17875747  1
  O  O5  1  0.48390044  0.99376836  0.38278831  1
  O  O6  1  0.69152961  0.15844092  0.76423038  1
  O  O7  1  0.77002795  0.34786438  0.01043668  1
  O  O8  1  0.98320295  0.46994604  0.36452537  1
