# generated using pymatgen
data_Li3TiO5
_symmetry_space_group_name_H-M   'P 1'
_cell_length_a   4.16934682
_cell_length_b   4.16934682
_cell_length_c   4.16934682
_cell_angle_alpha   90.00000000
_cell_angle_beta   90.00000000
_cell_angle_gamma   90.00000000
_symmetry_Int_Tables_number   1
_chemical_formula_structural   Li3TiO5
_chemical_formula_sum   'Li3 Ti1 O5'
_cell_volume   72.47764433
_cell_formula_units_Z   1
loop_
 _symmetry_equiv_pos_site_id
 _symmetry_equiv_pos_as_xyz
  1  'x, y, z'
loop_
 _atom_site_type_symbol
 _atom_site_label
 _atom_site_symmetry_multiplicity
 _atom_site_fract_x
 _atom_site_fract_y
 _atom_site_fract_z
 _atom_site_occupancy
  Li  Li0  1  0.03882376  0.92239147  0.07220112  1
  Li  Li1  1  0.09603503  0.19287812  0.35353220  1
  Li  Li2  1  0.19452801  0.41008885  0.51025593  1
  Ti  Ti3  1  0.23969152  0.48209242  0.77295293  1
  O  O4  1  0.46396457  0.80422733  0.09628461  1
  O  O5  1  0.56520242  0.80676884  0.37684831  1
  O  O6  1  0.61636870  0.00281368  0.68317517  1
  O  O7  1  0.79879240  0.32104271  0.97690897  1
  O  O8  1  0.89339575  0.39457309  0.26135536  1
