# generated using pymatgen
data_LiTiO6
_symmetry_space_group_name_H-M   'P 1'
_cell_length_a   8.92697970
_cell_length_b   8.92697970
_cell_length_c   8.92697970
_cell_angle_alpha   90.00000000
_cell_angle_beta   90.00000000
_cell_angle_gamma   90.00000000
_symmetry_Int_Tables_number   1
_chemical_formula_structural   LiTiO6
_chemical_formula_sum   'Li1 Ti1 O6'
_cell_volume   711.39963969
_cell_formula_units_Z   1
loop_
 _symmetry_equiv_pos_site_id
 _symmetry_equiv_pos_as_xyz
  1  'x, y, z'
loop_
 _atom_site_type_symbol
 _atom_site_label
 _atom_site_symmetry_multiplicity
 _atom_site_fract_x
 _atom_site_fract_y
 _atom_site_fract_z
 _atom_site_occupancy
  Li  Li0  1  0.07812348  0.08485852  0.99789340  1
  Ti  Ti1  1  0.16549566  0.19987981  0.39888294  1
  O  O2  1  0.30809906  0.44604836  0.71979239  1
  O  O3  1  0.44219948  0.67532725  0.97000749  1
  O  O4  1  0.58788455  0.86211655  0.27900962  1
  O  O5  1  0.66275398  0.08889179  0.73223941  1
  O  O6  1  0.83871718  0.27804307  0.87069295  1
  O  O7  1  0.81597537  0.43550109  0.38198664  1
