# generated using pymatgen
data_Li4TiO5
_symmetry_space_group_name_H-M   'P 1'
_cell_length_a   6.67254297
_cell_length_b   6.67254297
_cell_length_c   6.67254297
_cell_angle_alpha   90.00000000
_cell_angle_beta   90.00000000
_cell_angle_gamma   90.00000000
_symmetry_Int_Tables_number   1
_chemical_formula_structural   Li4TiO5
_chemical_formula_sum   'Li4 Ti1 O5'
_cell_volume   297.08049449
_cell_formula_units_Z   1
loop_
 _symmetry_equiv_pos_site_id
 _symmetry_equiv_pos_as_xyz
  1  'x, y, z'
loop_
 _atom_site_type_symbol
 _atom_site_label
 _atom_site_symmetry_multiplicity
 _atom_site_fract_x
 _atom_site_fract_y
 _atom_site_fract_z
 _atom_site_occupancy
  Li  Li0  1  0.98761690  0.05012169  0.99893623  1
  Li  Li1  1  0.16728465  0.21081240  0.24984770  1
  Li  Li2  1  0.22042682  0.40901798  0.60342495  1
  Li  Li3  1  0.29471184  0.38698730  0.85910879  1
  Ti  Ti4  1  0.44513899  0.55627800  0.07297466  1
  O  O5  1  0.52226796  0.85559984  0.32678806  1
  O  O6  1  0.66527804  0.06514704  0.58417891  1
  O  O7  1  0.77257839  0.18686671  0.85637460  1
  O  O8  1  0.73871978  0.26531640  0.07943419  1
  O  O9  1  0.83374581  0.49156122  0.28940030  1
