# generated using pymatgen
data_Li7La5Zr3O11
_symmetry_space_group_name_H-M   'P 1'
_cell_length_a   6.35959533
_cell_length_b   6.35959533
_cell_length_c   7.44230615
_cell_angle_alpha   90.00000000
_cell_angle_beta   90.00000000
_cell_angle_gamma   90.00000000
_symmetry_Int_Tables_number   1
_chemical_formula_structural   Li7La5Zr3O11
_chemical_formula_sum   'Li7 La5 Zr3 O11'
_cell_volume   301.00000000
_cell_formula_units_Z   1
loop_
 _symmetry_equiv_pos_site_id
 _symmetry_equiv_pos_as_xyz
  1  'x, y, z'
loop_
 _atom_site_type_symbol
 _atom_site_label
 _atom_site_symmetry_multiplicity
 _atom_site_fract_x
 _atom_site_fract_y
 _atom_site_fract_z
 _atom_site_occupancy
  Li  Li0  1  0.91295813  0.94551732  0.93726816  1
  Li  Li1  1  0.99594822  0.97071350  0.03515270  1
  Li  Li2  1  0.02495054  0.04880521  0.16578246  1
  Li  Li3  1  0.10827737  0.09207827  0.22034748  1
  Li  Li4  1  0.22538918  0.28304935  0.41666228  1
  Li  Li5  1  0.16077094  0.32233120  0.54368265  1
  Li  Li6  1  0.25334316  0.31176391  0.70035587  1
  La  La7  1  0.27155773  0.50093769  0.71742557  1
  La  La8  1  0.34439738  0.48812986  0.82517659  1
  La  La9  1  0.26550069  0.56415272  0.89159238  1
  La  La10  1  0.47385020  0.63620626  0.99850565  1
  La  La11  1  0.44526076  0.73214948  0.09433474  1
  Zr  Zr12  1  0.40479006  0.72020404  0.29001824  1
  Zr  Zr13  1  0.47093397  0.83452722  0.35831366  1
  Zr  Zr14  1  0.63201041  0.90256518  0.45838313  1
  O  O15  1  0.58386219  0.99816225  0.41973334  1
  O  O16  1  0.52694814  0.90003122  0.65168598  1
  O  O17  1  0.70886388  0.09003174  0.68816928  1
  O  O18  1  0.59516293  0.11978634  0.82462783  1
  O  O19  1  0.79690233  0.17448871  0.92898300  1
  O  O20  1  0.73811290  0.16489028  0.04153202  1
  O  O21  1  0.72945538  0.38025318  0.17971263  1
  O  O22  1  0.80277066  0.41153180  0.13295355  1
  O  O23  1  0.84358494  0.45498970  0.22115146  1
  O  O24  1  0.83882788  0.42068674  0.46603885  1
  O  O25  1  0.92125110  0.64937072  0.50172510  1
