# generated using pymatgen
data_Li2ZrO2
_symmetry_space_group_name_H-M   'P 1'
_cell_length_a   10.47303669
_cell_length_b   10.47303669
_cell_length_c   11.14247051
_cell_angle_alpha   90.00000000
_cell_angle_beta   90.00000000
_cell_angle_gamma   90.00000000
_symmetry_Int_Tables_number   1
_chemical_formula_structural   Li2ZrO2
_chemical_formula_sum   'Li6 Zr3 O6'
_cell_volume   1222.15627878
_cell_formula_units_Z   3
loop_
 _symmetry_equiv_pos_site_id
 _symmetry_equiv_pos_as_xyz
  1  'x, y, z'
loop_
 _atom_site_type_symbol
 _atom_site_label
 _atom_site_symmetry_multiplicity
 _atom_site_fract_x
 _atom_site_fract_y
 _atom_site_fract_z
 _atom_site_occupancy
  Li  Li0  1  0.02206676  0.96684064  0.08314115  1
  Li  Li1  1  0.00506068  0.05177933  0.20800051  1
  Li  Li2  1  0.17356397  0.24080969  0.25221932  1
  Li  Li3  1  0.28718416  0.42065957  0.53902146  1
  Li  Li4  1  0.17726130  0.43595815  0.66075580  1
  Li  Li5  1  0.32777811  0.58892522  0.81406416  1
  Zr  Zr6  1  0.36215513  0.59785159  0.99037794  1
  Zr  Zr7  1  0.40166079  0.81478829  0.23239020  1
  Zr  Zr8  1  0.59567330  0.95460192  0.32402403  1
  O  O9  1  0.65289048  0.96322051  0.56729887  1
  O  O10  1  0.74191009  0.06191325  0.82230836  1
  O  O11  1  0.78580951  0.22164585  0.93373202  1
  O  O12  1  0.72390839  0.30408533  0.08097892  1
  O  O13  1  0.79260670  0.43687551  0.36383014  1
  O  O14  1  0.99329288  0.41909966  0.52164857  1
