# generated using pymatgen
data_Li2ZrAlN
_symmetry_space_group_name_H-M   'P 1'
_cell_length_a   6.72491066
_cell_length_b   6.21039172
_cell_length_c   6.75477717
_cell_angle_alpha   90.00000000
_cell_angle_beta   90.00000000
_cell_angle_gamma   90.00000000
_symmetry_Int_Tables_number   1
_chemical_formula_structural   Li2ZrAlN
_chemical_formula_sum   'Li4 Zr2 Al2 N2'
_cell_volume   282.10873931
_cell_formula_units_Z   2
loop_
 _symmetry_equiv_pos_site_id
 _symmetry_equiv_pos_as_xyz
  1  'x, y, z'
loop_
 _atom_site_type_symbol
 _atom_site_label
 _atom_site_symmetry_multiplicity
 _atom_site_fract_x
 _atom_site_fract_y
 _atom_site_fract_z
 _atom_site_occupancy
  Li  Li0  1  0.94293358  0.94799742  0.08008135  1
  Li  Li1  1  0.06579360  0.25440342  0.34994971  1
  Li  Li2  1  0.20602609  0.34087185  0.53782221  1
  Li  Li3  1  0.20033871  0.38726868  0.81962809  1
  Zr  Zr4  1  0.46095843  0.62512768  0.98141342  1
  Zr  Zr5  1  0.58582328  0.77863889  0.36618523  1
  Al  Al6  1  0.51747823  0.95013428  0.55000668  1
  Al  Al7  1  0.67793843  0.12611410  0.88268256  1
  N  N8  1  0.75083535  0.25226421  0.12628828  1
  N  N9  1  0.90808585  0.51335310  0.44817319  1
