# generated using pymatgen
data_Li3InBr7
_symmetry_space_group_name_H-M   'P 1'
_cell_length_a   4.95667717
_cell_length_b   4.95667717
_cell_length_c   5.04708265
_cell_angle_alpha   90.00000000
_cell_angle_beta   90.00000000
_cell_angle_gamma   90.00000000
_symmetry_Int_Tables_number   1
_chemical_formula_structural   Li3InBr7
_chemical_formula_sum   'Li3 In1 Br7'
_cell_volume   124.00000000
_cell_formula_units_Z   1
loop_
 _symmetry_equiv_pos_site_id
 _symmetry_equiv_pos_as_xyz
  1  'x, y, z'
loop_
 _atom_site_type_symbol
 _atom_site_label
 _atom_site_symmetry_multiplicity
 _atom_site_fract_x
 _atom_site_fract_y
 _atom_site_fract_z
 _atom_site_occupancy
  Li  Li0  1  0.07872927  0.07972811  0.97124445  1
  Li  Li1  1  0.18527365  0.16018604  0.33216573  1
  Li  Li2  1  0.22017654  0.20268986  0.38646508  1
  In  In3  1  0.25061473  0.50848761  0.63257898  1
  Br  Br4  1  0.33868693  0.53444313  0.99192810  1
  Br  Br5  1  0.51617113  0.76271982  0.17451073  1
  Br  Br6  1  0.61237944  0.92633467  0.33550704  1
  Br  Br7  1  0.61967011  0.03512720  0.72935833  1
  Br  Br8  1  0.67266552  0.07879846  0.85691484  1
  Br  Br9  1  0.79236905  0.32116966  0.19437198  1
  Br  Br10  1  0.83908352  0.46097623  0.32079690  1
