# generated using pymatgen
data_Li3TiPO11
_symmetry_space_group_name_H-M   'P 1'
_cell_length_a   4.23473333
_cell_length_b   4.49123661
_cell_length_c   5.78363240
_cell_angle_alpha   90.00000000
_cell_angle_beta   90.00000000
_cell_angle_gamma   90.00000000
_symmetry_Int_Tables_number   1
_chemical_formula_structural   Li3TiPO11
_chemical_formula_sum   'Li3 Ti1 P1 O11'
_cell_volume   110.00000000
_cell_formula_units_Z   1
loop_
 _symmetry_equiv_pos_site_id
 _symmetry_equiv_pos_as_xyz
  1  'x, y, z'
loop_
 _atom_site_type_symbol
 _atom_site_label
 _atom_site_symmetry_multiplicity
 _atom_site_fract_x
 _atom_site_fract_y
 _atom_site_fract_z
 _atom_site_occupancy
  Li  Li0  1  0.05498026  0.90099565  0.03168617  1
  Li  Li1  1  0.08693406  0.06804872  0.11870727  1
  Li  Li2  1  0.20784917  0.30010261  0.27432562  1
  Ti  Ti3  1  0.19582577  0.35749986  0.53979141  1
  P  P4  1  0.22940377  0.34481792  0.59109239  1
  O  O5  1  0.30344838  0.57341036  0.76668876  1
  O  O6  1  0.43633500  0.62346707  0.99366294  1
  O  O7  1  0.40590627  0.64027992  0.20588540  1
  O  O8  1  0.59755984  0.85481613  0.35215230  1
  O  O9  1  0.48567425  0.85456263  0.37565962  1
  O  O10  1  0.72450978  0.91783442  0.67696775  1
  O  O11  1  0.75887291  0.14067537  0.76484016  1
  O  O12  1  0.67629808  0.20989126  0.87826886  1
  O  O13  1  0.83626718  0.28221750  0.21257382  1
  O  O14  1  0.77579701  0.31696941  0.24134378  1
  O  O15  1  0.01767206  0.60082869  0.43710282  1
