# generated using pymatgen
data_Li3(TiCl5)2
_symmetry_space_group_name_H-M   'P 1'
_cell_length_a   5.79421010
_cell_length_b   6.58890219
_cell_length_c   5.63175654
_cell_angle_alpha   90.00000000
_cell_angle_beta   90.00000000
_cell_angle_gamma   90.00000000
_symmetry_Int_Tables_number   1
_chemical_formula_structural   Li3(TiCl5)2
_chemical_formula_sum   'Li3 Ti2 Cl10'
_cell_volume   215.00629302
_cell_formula_units_Z   1
loop_
 _symmetry_equiv_pos_site_id
 _symmetry_equiv_pos_as_xyz
  1  'x, y, z'
loop_
 _atom_site_type_symbol
 _atom_site_label
 _atom_site_symmetry_multiplicity
 _atom_site_fract_x
 _atom_site_fract_y
 _atom_site_fract_z
 _atom_site_occupancy
  Li  Li0  1  0.00441947  0.01338209  0.98168542  1
  Li  Li1  1  0.05283336  0.19579307  0.26033175  1
  Li  Li2  1  0.10209671  0.28212833  0.43920506  1
  Ti  Ti3  1  0.11904138  0.37108664  0.51636504  1
  Ti  Ti4  1  0.25401718  0.34633098  0.64111328  1
  Cl  Cl5  1  0.40193022  0.45573896  0.86135612  1
  Cl  Cl6  1  0.42509437  0.69347214  0.13491680  1
  Cl  Cl7  1  0.46920617  0.77049908  0.25682002  1
  Cl  Cl8  1  0.47755112  0.89326122  0.45071113  1
  Cl  Cl9  1  0.57329743  0.99865773  0.56616832  1
  Cl  Cl10  1  0.62315594  0.09025972  0.73811470  1
  Cl  Cl11  1  0.74650974  0.18191846  0.85259913  1
  Cl  Cl12  1  0.87553854  0.34774683  0.00576722  1
  Cl  Cl13  1  0.77552362  0.45978496  0.31831050  1
  Cl  Cl14  1  0.00167209  0.41889343  0.49599464  1
