# generated using pymatgen
data_Na3TaNb2O5
_symmetry_space_group_name_H-M   'P 1'
_cell_length_a   4.78769681
_cell_length_b   13.81070588
_cell_length_c   10.01992759
_cell_angle_alpha   95.11812199
_cell_angle_beta   83.70043510
_cell_angle_gamma   109.91986498
_symmetry_Int_Tables_number   1
_chemical_formula_structural   Na3TaNb2O5
_chemical_formula_sum   'Na6 Ta2 Nb4 O10'
_cell_volume   618.17911326
_cell_formula_units_Z   2
loop_
 _symmetry_equiv_pos_site_id
 _symmetry_equiv_pos_as_xyz
  1  'x, y, z'
loop_
 _atom_site_type_symbol
 _atom_site_label
 _atom_site_symmetry_multiplicity
 _atom_site_fract_x
 _atom_site_fract_y
 _atom_site_fract_z
 _atom_site_occupancy
  Na  Na0  1  0.98536161  0.08923481  0.01389857  1
  Na  Na1  1  0.03703712  0.09572929  0.16661102  1
  Na  Na2  1  0.07762844  0.09034251  0.21143481  1
  Na  Na3  1  0.21807419  0.19157034  0.38252722  1
  Na  Na4  1  0.23113184  0.38773069  0.50733441  1
  Na  Na5  1  0.27596355  0.37466639  0.65970071  1
  Ta  Ta6  1  0.18207599  0.35283625  0.61833891  1
  Ta  Ta7  1  0.35879087  0.56983591  0.86510866  1
  Nb  Nb8  1  0.34003642  0.49121888  0.95163250  1
  Nb  Nb9  1  0.42125721  0.72804219  0.06310410  1
  Nb  Nb10  1  0.47037461  0.70433667  0.11027489  1
  Nb  Nb11  1  0.52768586  0.73076307  0.38240703  1
  O  O12  1  0.61062872  0.83916227  0.47045487  1
  O  O13  1  0.50863187  0.91506046  0.57068201  1
  O  O14  1  0.54159202  0.94538732  0.59314828  1
  O  O15  1  0.73124164  0.06289446  0.87860149  1
  O  O16  1  0.71169014  0.27056878  0.83620915  1
  O  O17  1  0.76643940  0.27584263  0.11823908  1
  O  O18  1  0.86012171  0.36306359  0.07144646  1
  O  O19  1  0.88907588  0.42831055  0.18143683  1
  O  O20  1  0.96247028  0.44826590  0.42106465  1
  O  O21  1  0.93380564  0.61388334  0.58402722  1
