# generated using pymatgen
data_Li2TiO6
_symmetry_space_group_name_H-M   'P 1'
_cell_length_a   4.03748498
_cell_length_b   4.03748498
_cell_length_c   4.03748498
_cell_angle_alpha   90.00000000
_cell_angle_beta   90.00000000
_cell_angle_gamma   90.00000000
_symmetry_Int_Tables_number   1
_chemical_formula_structural   Li2TiO6
_chemical_formula_sum   'Li2 Ti1 O6'
_cell_volume   65.81619326
_cell_formula_units_Z   1
loop_
 _symmetry_equiv_pos_site_id
 _symmetry_equiv_pos_as_xyz
  1  'x, y, z'
loop_
 _atom_site_type_symbol
 _atom_site_label
 _atom_site_symmetry_multiplicity
 _atom_site_fract_x
 _atom_site_fract_y
 _atom_site_fract_z
 _atom_site_occupancy
  Li  Li0  1  0.91647995  0.90204625  0.93870975  1
  Li  Li1  1  0.16388415  0.19754342  0.32330695  1
  Ti  Ti2  1  0.23806595  0.33450422  0.57183399  1
  O  O3  1  0.33981168  0.53231863  0.78866901  1
  O  O4  1  0.44151498  0.69596686  0.14813097  1
  O  O5  1  0.50825003  0.96221340  0.38471067  1
  O  O6  1  0.62988568  0.17079788  0.77364558  1
  O  O7  1  0.75874854  0.25853169  0.09681420  1
  O  O8  1  0.97212591  0.36447820  0.24504298  1
