# generated using pymatgen
data_Li3(SiS4)2
_symmetry_space_group_name_H-M   'P 1'
_cell_length_a   4.86179489
_cell_length_b   4.86179489
_cell_length_c   5.92290504
_cell_angle_alpha   90.00000000
_cell_angle_beta   90.00000000
_cell_angle_gamma   90.00000000
_symmetry_Int_Tables_number   1
_chemical_formula_structural   Li3(SiS4)2
_chemical_formula_sum   'Li3 Si2 S8'
_cell_volume   140.00000000
_cell_formula_units_Z   1
loop_
 _symmetry_equiv_pos_site_id
 _symmetry_equiv_pos_as_xyz
  1  'x, y, z'
loop_
 _atom_site_type_symbol
 _atom_site_label
 _atom_site_symmetry_multiplicity
 _atom_site_fract_x
 _atom_site_fract_y
 _atom_site_fract_z
 _atom_site_occupancy
  Li  Li0  1  0.99315858  0.09273262  0.00186955  1
  Li  Li1  1  0.06798376  0.19240983  0.29495072  1
  Li  Li2  1  0.17273637  0.24687985  0.46437146  1
  Si  Si3  1  0.23246719  0.40070978  0.65013298  1
  Si  Si4  1  0.29213973  0.54761747  0.75153047  1
  S  S5  1  0.38440618  0.71629138  0.93450704  1
  S  S6  1  0.55099088  0.68522868  0.24602584  1
  S  S7  1  0.56210427  0.78380604  0.32864312  1
  S  S8  1  0.65847124  0.07536198  0.61455048  1
  S  S9  1  0.62768011  0.14104940  0.73304149  1
  S  S10  1  0.85946981  0.31714862  0.07298159  1
  S  S11  1  0.93164930  0.46827108  0.12453508  1
  S  S12  1  0.83134546  0.44680739  0.50000226  1
