# generated using pymatgen
data_Li2AlO5
_symmetry_space_group_name_H-M   'P 1'
_cell_length_a   11.18912433
_cell_length_b   11.18912433
_cell_length_c   13.73427743
_cell_angle_alpha   90.00000000
_cell_angle_beta   90.00000000
_cell_angle_gamma   120.00000000
_symmetry_Int_Tables_number   1
_chemical_formula_structural   Li2AlO5
_chemical_formula_sum   'Li2 Al1 O5'
_cell_volume   1489.11640129
_cell_formula_units_Z   1
loop_
 _symmetry_equiv_pos_site_id
 _symmetry_equiv_pos_as_xyz
  1  'x, y, z'
loop_
 _atom_site_type_symbol
 _atom_site_label
 _atom_site_symmetry_multiplicity
 _atom_site_fract_x
 _atom_site_fract_y
 _atom_site_fract_z
 _atom_site_occupancy
  Li  Li0  1  0.09436456  0.01309513  0.09416573  1
  Li  Li1  1  0.16335836  0.11075804  0.23771508  1
  Al  Al2  1  0.22788746  0.47171488  0.57307898  1
  O  O3  1  0.35005057  0.55282949  0.02167810  1
  O  O4  1  0.56162567  0.83626527  0.29351073  1
  O  O5  1  0.69192490  0.05503921  0.54375704  1
  O  O6  1  0.73330648  0.21899083  0.02685833  1
  O  O7  1  0.82039280  0.31782119  0.24366484  1
