# generated using pymatgen
data_Li3AlO5
_symmetry_space_group_name_H-M   'P 1'
_cell_length_a   7.72458487
_cell_length_b   7.72458487
_cell_length_c   7.03254180
_cell_angle_alpha   90.00000000
_cell_angle_beta   90.00000000
_cell_angle_gamma   120.00000000
_symmetry_Int_Tables_number   1
_chemical_formula_structural   Li3AlO5
_chemical_formula_sum   'Li3 Al1 O5'
_cell_volume   363.40696927
_cell_formula_units_Z   1
loop_
 _symmetry_equiv_pos_site_id
 _symmetry_equiv_pos_as_xyz
  1  'x, y, z'
loop_
 _atom_site_type_symbol
 _atom_site_label
 _atom_site_symmetry_multiplicity
 _atom_site_fract_x
 _atom_site_fract_y
 _atom_site_fract_z
 _atom_site_occupancy
  Li  Li0  1  0.93298421  0.91177001  0.06990286  1
  Li  Li1  1  0.14658701  0.15345028  0.25528966  1
  Li  Li2  1  0.15536303  0.32116715  0.64126037  1
  Al  Al3  1  0.24574343  0.63093864  0.85938090  1
  O  O4  1  0.53167336  0.78629702  0.17560992  1
  O  O5  1  0.47256262  0.81537052  0.41203158  1
  O  O6  1  0.61221208  0.98939264  0.78468011  1
  O  O7  1  0.83304173  0.30890130  0.99220400  1
  O  O8  1  0.89026852  0.47652312  0.28312083  1
