# generated using pymatgen
data_Li2Nb4In3Br2
_symmetry_space_group_name_H-M   'P 1'
_cell_length_a   11.36910413
_cell_length_b   4.97769770
_cell_length_c   11.07552019
_cell_angle_alpha   80.81080944
_cell_angle_beta   73.92344096
_cell_angle_gamma   88.37590515
_symmetry_Int_Tables_number   1
_chemical_formula_structural   Li2Nb4In3Br2
_chemical_formula_sum   'Li2 Nb4 In3 Br2'
_cell_volume   594.46078021
_cell_formula_units_Z   1
loop_
 _symmetry_equiv_pos_site_id
 _symmetry_equiv_pos_as_xyz
  1  'x, y, z'
loop_
 _atom_site_type_symbol
 _atom_site_label
 _atom_site_symmetry_multiplicity
 _atom_site_fract_x
 _atom_site_fract_y
 _atom_site_fract_z
 _atom_site_occupancy
  Li  Li0  1  0.01851339  0.05497114  0.92635036  1
  Li  Li1  1  0.14816782  0.06254682  0.29080877  1
  Nb  Nb2  1  0.26657086  0.29658435  0.49010509  1
  Nb  Nb3  1  0.22138306  0.43420522  0.64588243  1
  Nb  Nb4  1  0.28119150  0.63665129  0.01897651  1
  Nb  Nb5  1  0.45620314  0.77587182  0.26311908  1
  In  In6  1  0.59573656  0.94645343  0.45967315  1
  In  In7  1  0.58915120  0.00931792  0.60620839  1
  In  In8  1  0.75283711  0.12572760  0.94860095  1
  Br  Br9  1  0.82313502  0.28142278  0.08551880  1
  Br  Br10  1  0.93256669  0.55048399  0.39471022  1
