# generated using pymatgen
data_LiTi(PO5)2
_symmetry_space_group_name_H-M   'P 1'
_cell_length_a   4.33961824
_cell_length_b   4.66376743
_cell_length_c   4.74332433
_cell_angle_alpha   90.00000000
_cell_angle_beta   90.00000000
_cell_angle_gamma   90.00000000
_symmetry_Int_Tables_number   1
_chemical_formula_structural   LiTi(PO5)2
_chemical_formula_sum   'Li1 Ti1 P2 O10'
_cell_volume   96.00000000
_cell_formula_units_Z   1
loop_
 _symmetry_equiv_pos_site_id
 _symmetry_equiv_pos_as_xyz
  1  'x, y, z'
loop_
 _atom_site_type_symbol
 _atom_site_label
 _atom_site_symmetry_multiplicity
 _atom_site_fract_x
 _atom_site_fract_y
 _atom_site_fract_z
 _atom_site_occupancy
  Li  Li0  1  0.96649920  0.03232766  0.96180842  1
  Ti  Ti1  1  0.12447305  0.09276992  0.25181488  1
  P  P2  1  0.18157043  0.24741152  0.45785237  1
  P  P3  1  0.27063568  0.32326393  0.56924895  1
  O  O4  1  0.38076208  0.40924860  0.72344037  1
  O  O5  1  0.34749812  0.50411806  0.92088074  1
  O  O6  1  0.47013619  0.66332972  0.19686028  1
  O  O7  1  0.46803057  0.89572198  0.36341172  1
  O  O8  1  0.51802179  0.00532542  0.42817078  1
  O  O9  1  0.64024264  0.01577565  0.76031466  1
  O  O10  1  0.68314743  0.09825347  0.95250478  1
  O  O11  1  0.82949712  0.32902088  0.97380211  1
  O  O12  1  0.79188592  0.32735655  0.22680969  1
  O  O13  1  0.98001599  0.47022362  0.38551599  1
