# generated using pymatgen
data_LiTi3P3O13
_symmetry_space_group_name_H-M   'P 1'
_cell_length_a   5.26563743
_cell_length_b   5.26563743
_cell_length_c   5.26563743
_cell_angle_alpha   90.00000000
_cell_angle_beta   90.00000000
_cell_angle_gamma   90.00000000
_symmetry_Int_Tables_number   1
_chemical_formula_structural   LiTi3P3O13
_chemical_formula_sum   'Li1 Ti3 P3 O13'
_cell_volume   146.00000000
_cell_formula_units_Z   1
loop_
 _symmetry_equiv_pos_site_id
 _symmetry_equiv_pos_as_xyz
  1  'x, y, z'
loop_
 _atom_site_type_symbol
 _atom_site_label
 _atom_site_symmetry_multiplicity
 _atom_site_fract_x
 _atom_site_fract_y
 _atom_site_fract_z
 _atom_site_occupancy
  Li  Li0  1  0.91848499  0.07206328  0.95325673  1
  Ti  Ti1  1  0.99511679  0.02465885  0.04007544  1
  Ti  Ti2  1  0.04858860  0.11177192  0.35796265  1
  Ti  Ti3  1  0.08153046  0.17152921  0.38294637  1
  P  P4  1  0.27275917  0.41074355  0.58369296  1
  P  P5  1  0.33563215  0.45910402  0.63351742  1
  P  P6  1  0.25310144  0.53708378  0.87441607  1
  O  O7  1  0.41280611  0.53290356  0.00629938  1
  O  O8  1  0.38302790  0.73899856  0.05009556  1
  O  O9  1  0.36531431  0.79785654  0.19019737  1
  O  O10  1  0.56152159  0.81483015  0.22454614  1
  O  O11  1  0.51888089  0.95561632  0.44994103  1
  O  O12  1  0.61153186  0.91590829  0.57217780  1
  O  O13  1  0.71040733  0.99855668  0.62643058  1
  O  O14  1  0.60019400  0.17816051  0.92729735  1
  O  O15  1  0.84569664  0.16765162  0.99199682  1
  O  O16  1  0.86284790  0.31022418  0.00207766  1
  O  O17  1  0.80399384  0.43919730  0.31761577  1
  O  O18  1  0.80076171  0.39186681  0.43902491  1
  O  O19  1  0.99461958  0.49045880  0.50281190  1
