# generated using pymatgen
data_Li3Ti2InO9
_symmetry_space_group_name_H-M   'P 1'
_cell_length_a   10.58914573
_cell_length_b   10.58914573
_cell_length_c   11.28230368
_cell_angle_alpha   90.00000000
_cell_angle_beta   90.00000000
_cell_angle_gamma   90.00000000
_symmetry_Int_Tables_number   1
_chemical_formula_structural   Li3Ti2InO9
_chemical_formula_sum   'Li3 Ti2 In1 O9'
_cell_volume   1265.08479413
_cell_formula_units_Z   1
loop_
 _symmetry_equiv_pos_site_id
 _symmetry_equiv_pos_as_xyz
  1  'x, y, z'
loop_
 _atom_site_type_symbol
 _atom_site_label
 _atom_site_symmetry_multiplicity
 _atom_site_fract_x
 _atom_site_fract_y
 _atom_site_fract_z
 _atom_site_occupancy
  Li  Li0  1  0.97170432  0.91406527  0.96438260  1
  Li  Li1  1  0.00122704  0.02140201  0.25185491  1
  Li  Li2  1  0.11495386  0.21090507  0.27470636  1
  Ti  Ti3  1  0.12133101  0.33578705  0.51503307  1
  Ti  Ti4  1  0.18956716  0.38778761  0.76005873  1
  O  O5  1  0.39489966  0.47131299  0.83774870  1
  O  O6  1  0.41386919  0.69998777  0.12794238  1
  O  O7  1  0.54549095  0.75092128  0.30956275  1
  O  O8  1  0.50217643  0.88423562  0.34006579  1
  O  O9  1  0.56292147  0.98189504  0.52913908  1
  O  O10  1  0.75435605  0.01661415  0.75932338  1
  O  O11  1  0.79841996  0.13251450  0.93694831  1
  O  O12  1  0.83972044  0.26448003  0.06508634  1
  O  O13  1  0.86834086  0.37406429  0.24715020  1
  In  In14  1  0.83708500  0.54993681  0.50214113  1
