# generated using pymatgen
data_Li6PS6
_symmetry_space_group_name_H-M   'P 1'
_cell_length_a   4.68887290
_cell_length_b   4.77774640
_cell_length_c   5.71371291
_cell_angle_alpha   90.00000000
_cell_angle_beta   90.00000000
_cell_angle_gamma   90.00000000
_symmetry_Int_Tables_number   1
_chemical_formula_structural   Li6PS6
_chemical_formula_sum   'Li6 P1 S6'
_cell_volume   128.00000000
_cell_formula_units_Z   1
loop_
 _symmetry_equiv_pos_site_id
 _symmetry_equiv_pos_as_xyz
  1  'x, y, z'
loop_
 _atom_site_type_symbol
 _atom_site_label
 _atom_site_symmetry_multiplicity
 _atom_site_fract_x
 _atom_site_fract_y
 _atom_site_fract_z
 _atom_site_occupancy
  Li  Li0  1  0.05715310  0.09197319  0.00842273  1
  Li  Li1  1  0.17260314  0.14011886  0.17441791  1
  Li  Li2  1  0.06084175  0.23806768  0.31215037  1
  Li  Li3  1  0.27673241  0.32882968  0.53506695  1
  Li  Li4  1  0.40458974  0.55117788  0.83673690  1
  Li  Li5  1  0.35571208  0.56508201  0.02632893  1
  P  P6  1  0.38825435  0.77806213  0.17465852  1
  S  S7  1  0.62185360  0.93833665  0.38130382  1
  S  S8  1  0.59627036  0.94955686  0.55995431  1
  S  S9  1  0.69634092  0.15037877  0.91205364  1
  S  S10  1  0.82021218  0.15880358  0.06171662  1
  S  S11  1  0.80453953  0.31893729  0.14226427  1
  S  S12  1  0.95134957  0.56049804  0.40384902  1
