# generated using pymatgen
data_Li6La2GaF6
_symmetry_space_group_name_H-M   'P 1'
_cell_length_a   11.57710565
_cell_length_b   11.57710565
_cell_length_c   12.16217479
_cell_angle_alpha   90.00000000
_cell_angle_beta   90.00000000
_cell_angle_gamma   90.00000000
_symmetry_Int_Tables_number   1
_chemical_formula_structural   Li6La2GaF6
_chemical_formula_sum   'Li6 La2 Ga1 F6'
_cell_volume   1630.08868932
_cell_formula_units_Z   1
loop_
 _symmetry_equiv_pos_site_id
 _symmetry_equiv_pos_as_xyz
  1  'x, y, z'
loop_
 _atom_site_type_symbol
 _atom_site_label
 _atom_site_symmetry_multiplicity
 _atom_site_fract_x
 _atom_site_fract_y
 _atom_site_fract_z
 _atom_site_occupancy
  Li  Li0  1  0.02395730  0.01620603  0.06014831  1
  Li  Li1  1  0.13231335  0.14260301  0.24652972  1
  Li  Li2  1  0.08941871  0.16691811  0.35824777  1
  Li  Li3  1  0.20077842  0.24077012  0.50428886  1
  Li  Li4  1  0.36642118  0.44656861  0.77245214  1
  Li  Li5  1  0.29911570  0.63378244  0.84434396  1
  Ga  Ga6  1  0.42277618  0.67401501  0.14234679  1
  F  F7  1  0.39623164  0.67897738  0.21291381  1
  F  F8  1  0.47838093  0.77936466  0.35741127  1
  F  F9  1  0.61757846  0.95543959  0.65269757  1
  F  F10  1  0.60415273  0.11896888  0.67717143  1
  F  F11  1  0.70054375  0.10721043  0.00870629  1
  F  F12  1  0.72595770  0.38752235  0.08287411  1
  La  La13  1  0.94691600  0.35159948  0.26492289  1
  La  La14  1  0.03220567  0.57223529  0.41457253  1
