# generated using pymatgen
data_Li6YTaS6
_symmetry_space_group_name_H-M   'P 1'
_cell_length_a   10.23226157
_cell_length_b   10.23226157
_cell_length_c   10.25236124
_cell_angle_alpha   90.00000000
_cell_angle_beta   90.00000000
_cell_angle_gamma   90.00000000
_symmetry_Int_Tables_number   1
_chemical_formula_structural   Li6YTaS6
_chemical_formula_sum   'Li6 Y1 Ta1 S6'
_cell_volume   1073.41378157
_cell_formula_units_Z   1
loop_
 _symmetry_equiv_pos_site_id
 _symmetry_equiv_pos_as_xyz
  1  'x, y, z'
loop_
 _atom_site_type_symbol
 _atom_site_label
 _atom_site_symmetry_multiplicity
 _atom_site_fract_x
 _atom_site_fract_y
 _atom_site_fract_z
 _atom_site_occupancy
  Li  Li0  1  0.08430262  0.03422299  0.93979852  1
  Li  Li1  1  0.99435100  0.21233113  0.14634961  1
  Li  Li2  1  0.16422906  0.30292060  0.27670717  1
  Li  Li3  1  0.23510602  0.25652996  0.50204451  1
  Li  Li4  1  0.19977979  0.37791199  0.82737013  1
  Li  Li5  1  0.43284503  0.66219973  0.84483735  1
  Ta  Ta6  1  0.51277659  0.74695385  0.10154042  1
  S  S7  1  0.46056235  0.85754892  0.31193315  1
  S  S8  1  0.50891671  0.91807550  0.47150564  1
  S  S9  1  0.61679589  0.00651977  0.71593525  1
  S  S10  1  0.79556210  0.10711562  0.95740933  1
  S  S11  1  0.81637333  0.25865710  0.96048507  1
  S  S12  1  0.85707219  0.31797607  0.20899188  1
  Y  Y13  1  0.98979204  0.59276348  0.40371343  1
