# generated using pymatgen
data_Li4Zr2InS7
_symmetry_space_group_name_H-M   'P 1'
_cell_length_a   13.42840729
_cell_length_b   13.42840729
_cell_length_c   14.74714681
_cell_angle_alpha   90.00000000
_cell_angle_beta   90.00000000
_cell_angle_gamma   90.00000000
_symmetry_Int_Tables_number   1
_chemical_formula_structural   Li4Zr2InS7
_chemical_formula_sum   'Li4 Zr2 In1 S7'
_cell_volume   2659.23681257
_cell_formula_units_Z   1
loop_
 _symmetry_equiv_pos_site_id
 _symmetry_equiv_pos_as_xyz
  1  'x, y, z'
loop_
 _atom_site_type_symbol
 _atom_site_label
 _atom_site_symmetry_multiplicity
 _atom_site_fract_x
 _atom_site_fract_y
 _atom_site_fract_z
 _atom_site_occupancy
  Li  Li0  1  0.08323702  0.92625598  0.91793187  1
  Li  Li1  1  0.10527265  0.13689847  0.26621560  1
  Li  Li2  1  0.22437467  0.17096296  0.41351400  1
  Li  Li3  1  0.29017147  0.34128524  0.56452100  1
  Zr  Zr4  1  0.21647242  0.55409325  0.68870613  1
  Zr  Zr5  1  0.34103656  0.51775402  0.88507161  1
  S  S6  1  0.51239998  0.70005751  0.13704186  1
  S  S7  1  0.40013653  0.75143781  0.35501854  1
  S  S8  1  0.50513805  0.97624276  0.41737735  1
  S  S9  1  0.74166090  0.11729179  0.73282253  1
  S  S10  1  0.74411910  0.14567461  0.84692785  1
  S  S11  1  0.74459848  0.20195055  0.11830247  1
  S  S12  1  0.77556414  0.40590303  0.23032504  1
  In  In13  1  0.86524744  0.50976718  0.52265181  1
