# generated using pymatgen
data_Li2AlO4
_symmetry_space_group_name_H-M   'P 1'
_cell_length_a   7.51605628
_cell_length_b   7.51605628
_cell_length_c   6.26721811
_cell_angle_alpha   90.00000000
_cell_angle_beta   90.00000000
_cell_angle_gamma   120.00000000
_symmetry_Int_Tables_number   1
_chemical_formula_structural   Li2AlO4
_chemical_formula_sum   'Li2 Al1 O4'
_cell_volume   306.60941610
_cell_formula_units_Z   1
loop_
 _symmetry_equiv_pos_site_id
 _symmetry_equiv_pos_as_xyz
  1  'x, y, z'
loop_
 _atom_site_type_symbol
 _atom_site_label
 _atom_site_symmetry_multiplicity
 _atom_site_fract_x
 _atom_site_fract_y
 _atom_site_fract_z
 _atom_site_occupancy
  Li  Li0  1  0.00258147  0.02112597  0.03562517  1
  Li  Li1  1  0.11128351  0.23524888  0.31914786  1
  Al  Al2  1  0.23717269  0.52709326  0.70753336  1
  O  O3  1  0.38420204  0.78376741  0.17421330  1
  O  O4  1  0.56723131  0.83482023  0.50862245  1
  O  O5  1  0.68761041  0.08233150  0.83739852  1
  O  O6  1  0.83637528  0.38526928  0.18405793  1
