# generated using pymatgen
data_Li2AlO4
_symmetry_space_group_name_H-M   'P 1'
_cell_length_a   5.19970448
_cell_length_b   5.19970448
_cell_length_c   6.96969867
_cell_angle_alpha   90.00000000
_cell_angle_beta   90.00000000
_cell_angle_gamma   120.00000000
_symmetry_Int_Tables_number   1
_chemical_formula_structural   Li2AlO4
_chemical_formula_sum   'Li2 Al1 O4'
_cell_volume   163.19316218
_cell_formula_units_Z   1
loop_
 _symmetry_equiv_pos_site_id
 _symmetry_equiv_pos_as_xyz
  1  'x, y, z'
loop_
 _atom_site_type_symbol
 _atom_site_label
 _atom_site_symmetry_multiplicity
 _atom_site_fract_x
 _atom_site_fract_y
 _atom_site_fract_z
 _atom_site_occupancy
  Li  Li0  1  0.94079690  0.04003881  0.93159477  1
  Li  Li1  1  0.16004003  0.18250845  0.28844567  1
  Al  Al2  1  0.30393152  0.39430901  0.67168888  1
  O  O3  1  0.39066910  0.67343065  0.04725751  1
  O  O4  1  0.50604446  0.84018841  0.58476780  1
  O  O5  1  0.80633656  0.17024168  0.96469169  1
  O  O6  1  0.81399634  0.36653713  0.17100559  1
