# generated using pymatgen
data_LiYAl3F7
_symmetry_space_group_name_H-M   'P 1'
_cell_length_a   14.02703927
_cell_length_b   14.02703927
_cell_length_c   13.81556654
_cell_angle_alpha   90.00000000
_cell_angle_beta   90.00000000
_cell_angle_gamma   90.00000000
_symmetry_Int_Tables_number   1
_chemical_formula_structural   LiYAl3F7
_chemical_formula_sum   'Li1 Y1 Al3 F7'
_cell_volume   2718.32090167
_cell_formula_units_Z   1
loop_
 _symmetry_equiv_pos_site_id
 _symmetry_equiv_pos_as_xyz
  1  'x, y, z'
loop_
 _atom_site_type_symbol
 _atom_site_label
 _atom_site_symmetry_multiplicity
 _atom_site_fract_x
 _atom_site_fract_y
 _atom_site_fract_z
 _atom_site_occupancy
  Li  Li0  1  0.97534638  0.95143441  0.01433859  1
  Al  Al1  1  0.08313271  0.11789934  0.28432755  1
  Al  Al2  1  0.16596880  0.19520068  0.46915247  1
  Al  Al3  1  0.17447435  0.32777049  0.74592889  1
  F  F4  1  0.25180367  0.50874388  0.83944055  1
  F  F5  1  0.37041893  0.71791984  0.00330960  1
  F  F6  1  0.47960742  0.77702337  0.37886562  1
  F  F7  1  0.55943626  0.94072859  0.43883765  1
  F  F8  1  0.70492589  0.13009264  0.76933887  1
  F  F9  1  0.77156203  0.27732613  0.04158867  1
  F  F10  1  0.77381314  0.41339410  0.20018287  1
  Y  Y11  1  0.84714170  0.55055257  0.38958145  1
