# generated using pymatgen
data_Li5LaGaCl8
_symmetry_space_group_name_H-M   'P 1'
_cell_length_a   14.85289898
_cell_length_b   14.85289898
_cell_length_c   15.46532807
_cell_angle_alpha   90.00000000
_cell_angle_beta   90.00000000
_cell_angle_gamma   90.00000000
_symmetry_Int_Tables_number   1
_chemical_formula_structural   Li5LaGaCl8
_chemical_formula_sum   'Li5 La1 Ga1 Cl8'
_cell_volume   3411.78449986
_cell_formula_units_Z   1
loop_
 _symmetry_equiv_pos_site_id
 _symmetry_equiv_pos_as_xyz
  1  'x, y, z'
loop_
 _atom_site_type_symbol
 _atom_site_label
 _atom_site_symmetry_multiplicity
 _atom_site_fract_x
 _atom_site_fract_y
 _atom_site_fract_z
 _atom_site_occupancy
  Li  Li0  1  0.90720682  0.01148214  0.06100690  1
  Li  Li1  1  0.13252349  0.13539888  0.22961462  1
  Li  Li2  1  0.06263086  0.11958034  0.33717349  1
  Li  Li3  1  0.19564062  0.23801056  0.54984371  1
  Li  Li4  1  0.23292497  0.47415360  0.65310260  1
  Ga  Ga5  1  0.26580447  0.54965211  0.79040543  1
  Cl  Cl6  1  0.34374054  0.63249700  0.05076551  1
  Cl  Cl7  1  0.44361495  0.79554359  0.14891815  1
  Cl  Cl8  1  0.62942904  0.78769468  0.47881581  1
  Cl  Cl9  1  0.60790761  0.95699845  0.50999608  1
  Cl  Cl10  1  0.64342455  0.04102044  0.70086100  1
  Cl  Cl11  1  0.65758672  0.26575430  0.01805070  1
  Cl  Cl12  1  0.88109397  0.29320723  0.18994222  1
  Cl  Cl13  1  0.88513498  0.46366865  0.36837572  1
  La  La14  1  0.01205128  0.54032052  0.37475380  1
