# generated using pymatgen
data_Li3Nb2S9
_symmetry_space_group_name_H-M   'P 1'
_cell_length_a   14.96090023
_cell_length_b   14.96090023
_cell_length_c   14.57546939
_cell_angle_alpha   90.00000000
_cell_angle_beta   90.00000000
_cell_angle_gamma   90.00000000
_symmetry_Int_Tables_number   1
_chemical_formula_structural   Li3Nb2S9
_chemical_formula_sum   'Li3 Nb2 S9'
_cell_volume   3262.40597074
_cell_formula_units_Z   1
loop_
 _symmetry_equiv_pos_site_id
 _symmetry_equiv_pos_as_xyz
  1  'x, y, z'
loop_
 _atom_site_type_symbol
 _atom_site_label
 _atom_site_symmetry_multiplicity
 _atom_site_fract_x
 _atom_site_fract_y
 _atom_site_fract_z
 _atom_site_occupancy
  Li  Li0  1  0.07450238  0.99315858  0.09273262  1
  Li  Li1  1  0.07329812  0.10663211  0.25494829  1
  Li  Li2  1  0.23642325  0.25003308  0.37195678  1
  Nb  Nb3  1  0.27588795  0.34841225  0.58832516  1
  Nb  Nb4  1  0.33169342  0.44673314  0.79777131  1
  S  S5  1  0.30313487  0.57764793  0.02898369  1
  S  S6  1  0.35615539  0.78288099  0.06045945  1
  S  S7  1  0.53771815  0.83264273  0.22157527  1
  S  S8  1  0.49037938  0.96765806  0.57566968  1
  S  S9  1  0.64633070  0.97551528  0.70389555  1
  S  S10  1  0.63486567  0.24595332  0.94253323  1
  S  S11  1  0.84484972  0.35678117  0.15619416  1
  S  S12  1  0.76644717  0.29512568  0.19726893  1
  S  S13  1  0.01195830  0.49733050  0.40891522  1
