# generated using pymatgen
data_LiTiO6
_symmetry_space_group_name_H-M   'P 1'
_cell_length_a   10.10111897
_cell_length_b   10.10111897
_cell_length_c   10.10111897
_cell_angle_alpha   90.00000000
_cell_angle_beta   90.00000000
_cell_angle_gamma   90.00000000
_symmetry_Int_Tables_number   1
_chemical_formula_structural   LiTiO6
_chemical_formula_sum   'Li1 Ti1 O6'
_cell_volume   1030.64347510
_cell_formula_units_Z   1
loop_
 _symmetry_equiv_pos_site_id
 _symmetry_equiv_pos_as_xyz
  1  'x, y, z'
loop_
 _atom_site_type_symbol
 _atom_site_label
 _atom_site_symmetry_multiplicity
 _atom_site_fract_x
 _atom_site_fract_y
 _atom_site_fract_z
 _atom_site_occupancy
  Li  Li0  1  0.94332851  0.04765203  0.92245722  1
  Ti  Ti1  1  0.15673259  0.11711822  0.31225399  1
  O  O2  1  0.21614001  0.45236590  0.74938836  1
  O  O3  1  0.42614913  0.62528038  0.05469812  1
  O  O4  1  0.55030743  0.74206364  0.23804199  1
  O  O5  1  0.60227293  0.92968651  0.59186171  1
  O  O6  1  0.65356840  0.15691450  0.95507311  1
  O  O7  1  0.88197050  0.33231640  0.28292707  1
