# generated using pymatgen
data_Li5La2(GaCl2)3
_symmetry_space_group_name_H-M   'P 1'
_cell_length_a   10.72230987
_cell_length_b   10.72230987
_cell_length_c   11.09125938
_cell_angle_alpha   90.00000000
_cell_angle_beta   90.00000000
_cell_angle_gamma   90.00000000
_symmetry_Int_Tables_number   1
_chemical_formula_structural   Li5La2(GaCl2)3
_chemical_formula_sum   'Li5 La2 Ga3 Cl6'
_cell_volume   1275.13912062
_cell_formula_units_Z   1
loop_
 _symmetry_equiv_pos_site_id
 _symmetry_equiv_pos_as_xyz
  1  'x, y, z'
loop_
 _atom_site_type_symbol
 _atom_site_label
 _atom_site_symmetry_multiplicity
 _atom_site_fract_x
 _atom_site_fract_y
 _atom_site_fract_z
 _atom_site_occupancy
  Li  Li0  1  0.92917351  0.97175276  0.01879788  1
  Li  Li1  1  0.04591012  0.16699351  0.07246984  1
  Li  Li2  1  0.06419146  0.15459521  0.31746261  1
  Li  Li3  1  0.15061857  0.27083945  0.47380072  1
  Li  Li4  1  0.33126505  0.44343384  0.62240490  1
  Ga  Ga5  1  0.39171331  0.55989390  0.76884162  1
  Ga  Ga6  1  0.40154591  0.69891226  0.02223973  1
  Ga  Ga7  1  0.43270698  0.62754607  0.13979605  1
  Cl  Cl8  1  0.43662660  0.78780239  0.35853957  1
  Cl  Cl9  1  0.49926311  0.93789859  0.51506423  1
  Cl  Cl10  1  0.68050995  0.02924457  0.53984265  1
  Cl  Cl11  1  0.67947934  0.12927159  0.79008393  1
  Cl  Cl12  1  0.74970138  0.28426589  0.94727208  1
  Cl  Cl13  1  0.86845781  0.30140022  0.14661117  1
  La  La14  1  0.94580438  0.39995820  0.37444668  1
  La  La15  1  0.91178631  0.52386289  0.51550971  1
