# generated using pymatgen
data_KLiLa2Al2(SiO)3
_symmetry_space_group_name_H-M   'P 1'
_cell_length_a   12.34070621
_cell_length_b   11.72264790
_cell_length_c   13.88386858
_cell_angle_alpha   90.00000000
_cell_angle_beta   90.00000000
_cell_angle_gamma   90.00000000
_symmetry_Int_Tables_number   1
_chemical_formula_structural   KLiLa2Al2(SiO)3
_chemical_formula_sum   'K1 Li1 La2 Al2 Si3 O3'
_cell_volume   2008.52031344
_cell_formula_units_Z   1
loop_
 _symmetry_equiv_pos_site_id
 _symmetry_equiv_pos_as_xyz
  1  'x, y, z'
loop_
 _atom_site_type_symbol
 _atom_site_label
 _atom_site_symmetry_multiplicity
 _atom_site_fract_x
 _atom_site_fract_y
 _atom_site_fract_z
 _atom_site_occupancy
  Li  Li0  1  0.12500000  0.00000000  0.25000000  1
  La  La1  1  0.00000000  0.00000000  0.00000000  1
  La  La2  1  0.37500000  0.00000000  0.25000000  1
  Al  Al3  1  0.25000000  0.25000000  0.25000000  1
  Al  Al4  1  0.00000000  0.25000000  0.12500000  1
  Si  Si5  1  0.92536648  0.23407586  0.98753570  1
  Si  Si6  1  0.81480277  0.34093807  0.55796451  1
  Si  Si7  1  0.88419527  0.55064460  0.57208552  1
  O  O8  1  0.40475193  0.74930435  0.07375759  1
  O  O9  1  0.89765076  0.05578936  0.88014659  1
  O  O10  1  0.33574624  0.15017327  0.83520871  1
  K  K11  1  0.19396392  0.01442759  0.63569599  1
