# generated using pymatgen
data_Li3YCl
_symmetry_space_group_name_H-M   'P 1'
_cell_length_a   3.91197115
_cell_length_b   3.58778087
_cell_length_c   6.09948009
_cell_angle_alpha   97.25811244
_cell_angle_beta   107.84429836
_cell_angle_gamma   102.68819355
_symmetry_Int_Tables_number   1
_chemical_formula_structural   Li3YCl
_chemical_formula_sum   'Li3 Y1 Cl1'
_cell_volume   77.75202090
_cell_formula_units_Z   1
loop_
 _symmetry_equiv_pos_site_id
 _symmetry_equiv_pos_as_xyz
  1  'x, y, z'
loop_
 _atom_site_type_symbol
 _atom_site_label
 _atom_site_symmetry_multiplicity
 _atom_site_fract_x
 _atom_site_fract_y
 _atom_site_fract_z
 _atom_site_occupancy
  Li  Li0  1  0.00000000  0.00000000  0.00000000  1
  Li  Li1  1  0.33300000  0.66700000  0.25000000  1
  Li  Li2  1  0.66700000  0.33300000  0.50000000  1
  Y  Y3  1  0.00000000  0.00000000  0.75000000  1
  Cl  Cl4  1  0.11773087  0.82807804  0.39473648  1
