# generated using pymatgen
data_Li3Y(N2O3)2
_symmetry_space_group_name_H-M   'P 1'
_cell_length_a   8.29642162
_cell_length_b   7.28631232
_cell_length_c   9.61101503
_cell_angle_alpha   90.00000000
_cell_angle_beta   90.00000000
_cell_angle_gamma   90.00000000
_symmetry_Int_Tables_number   1
_chemical_formula_structural   Li3Y(N2O3)2
_chemical_formula_sum   'Li3 Y1 N4 O6'
_cell_volume   580.98892517
_cell_formula_units_Z   1
loop_
 _symmetry_equiv_pos_site_id
 _symmetry_equiv_pos_as_xyz
  1  'x, y, z'
loop_
 _atom_site_type_symbol
 _atom_site_label
 _atom_site_symmetry_multiplicity
 _atom_site_fract_x
 _atom_site_fract_y
 _atom_site_fract_z
 _atom_site_occupancy
  Li  Li0  1  0.00000000  0.00000000  0.00000000  1
  Li  Li1  1  0.50000000  0.50000000  0.50000000  1
  Li  Li2  1  0.25000000  0.25000000  0.25000000  1
  Y  Y3  1  0.75000000  0.25000000  0.00000000  1
  O  O4  1  0.25000000  0.75000000  0.50000000  1
  O  O5  1  0.47500212  0.77532918  0.66648392  1
  O  O6  1  0.52363400  0.55683253  0.65721768  1
  O  O7  1  0.40897120  0.81967337  0.85131277  1
  O  O8  1  0.17874309  0.20162286  0.74412842  1
  O  O9  1  0.34701369  0.39314660  0.48219048  1
  N  N10  1  0.03403944  0.95258407  0.49279605  1
  N  N11  1  0.17804474  0.44475671  0.41846614  1
  N  N12  1  0.37697598  0.21427725  0.30723785  1
  N  N13  1  0.13173337  0.24229606  0.98048647  1
