# generated using pymatgen
data_Li3Ti3Br6NO5
_symmetry_space_group_name_H-M   'P 1'
_cell_length_a   4.15034074
_cell_length_b   4.13928034
_cell_length_c   3.71355753
_cell_angle_alpha   86.99245171
_cell_angle_beta   85.00484158
_cell_angle_gamma   93.50658103
_symmetry_Int_Tables_number   1
_chemical_formula_structural   Li3Ti3Br6NO5
_chemical_formula_sum   'Li3 Ti3 Br6 N1 O5'
_cell_volume   63.32825504
_cell_formula_units_Z   1
loop_
 _symmetry_equiv_pos_site_id
 _symmetry_equiv_pos_as_xyz
  1  'x, y, z'
loop_
 _atom_site_type_symbol
 _atom_site_label
 _atom_site_symmetry_multiplicity
 _atom_site_fract_x
 _atom_site_fract_y
 _atom_site_fract_z
 _atom_site_occupancy
  Li  Li0  1  0.00000000  0.00000000  0.00000000  1
  Li  Li1  1  0.50000000  0.50000000  0.50000000  1
  Li  Li2  1  0.50000000  0.50000000  0.00000000  1
  Ti  Ti3  1  0.50000000  0.00000000  0.50000000  1
  Ti  Ti4  1  0.00000000  0.50000000  0.50000000  1
  Ti  Ti5  1  0.12450133  0.04950795  0.85869598  1
  N  N6  1  0.26136731  0.61478598  0.26381252  1
  O  O7  1  0.30335455  0.09665525  0.19747827  1
  O  O8  1  0.81318198  0.00561666  0.52384824  1
  O  O9  1  0.28235422  0.03987120  0.42027906  1
  O  O10  1  0.77447591  0.23271869  0.51164033  1
  O  O11  1  0.45607558  0.20426745  0.31128681  1
  Br  Br12  1  0.18631432  0.92725746  0.32944266  1
  Br  Br13  1  0.76181727  0.13138387  0.76646700  1
  Br  Br14  1  0.45742334  0.73918161  0.91571461  1
  Br  Br15  1  0.99334590  0.68596910  0.18062067  1
  Br  Br16  1  0.63866168  0.67812500  0.23493525  1
  Br  Br17  1  0.39599627  0.16824123  0.09227883  1
