# generated using pymatgen
data_Li2TiI2
_symmetry_space_group_name_H-M   'P 1'
_cell_length_a   3.42771050
_cell_length_b   3.26991729
_cell_length_c   6.44659947
_cell_angle_alpha   93.95718345
_cell_angle_beta   106.81427125
_cell_angle_gamma   116.81010159
_symmetry_Int_Tables_number   1
_chemical_formula_structural   Li2TiI2
_chemical_formula_sum   'Li4 Ti2 I4'
_cell_volume   60.02523332
_cell_formula_units_Z   2
loop_
 _symmetry_equiv_pos_site_id
 _symmetry_equiv_pos_as_xyz
  1  'x, y, z'
loop_
 _atom_site_type_symbol
 _atom_site_label
 _atom_site_symmetry_multiplicity
 _atom_site_fract_x
 _atom_site_fract_y
 _atom_site_fract_z
 _atom_site_occupancy
  Li  Li0  1  0.00000000  0.00000000  0.00000000  1
  Li  Li1  1  0.33300000  0.66700000  0.25000000  1
  Li  Li2  1  0.66700000  0.33300000  0.50000000  1
  Li  Li3  1  0.00000000  0.00000000  0.75000000  1
  Ti  Ti4  1  0.48528681  0.71225632  0.37818664  1
  Ti  Ti5  1  0.15151614  0.34130154  0.48559609  1
  I  I6  1  0.57519282  0.89582240  0.50028285  1
  I  I7  1  0.33780145  0.48463411  0.58788981  1
  I  I8  1  0.41637801  0.61794061  0.46541618  1
  I  I9  1  0.03275657  0.21872741  0.85384661  1
