# generated using pymatgen
data_Li3NiAs4
_symmetry_space_group_name_H-M   'P 1'
_cell_length_a   3.84536208
_cell_length_b   4.13730185
_cell_length_c   5.68878289
_cell_angle_alpha   113.13505445
_cell_angle_beta   99.92501665
_cell_angle_gamma   119.08216684
_symmetry_Int_Tables_number   1
_chemical_formula_structural   Li3NiAs4
_chemical_formula_sum   'Li3 Ni1 As4'
_cell_volume   64.87605299
_cell_formula_units_Z   1
loop_
 _symmetry_equiv_pos_site_id
 _symmetry_equiv_pos_as_xyz
  1  'x, y, z'
loop_
 _atom_site_type_symbol
 _atom_site_label
 _atom_site_symmetry_multiplicity
 _atom_site_fract_x
 _atom_site_fract_y
 _atom_site_fract_z
 _atom_site_occupancy
  Li  Li0  1  0.00000000  0.00000000  0.00000000  1
  Li  Li1  1  0.33300000  0.66700000  0.25000000  1
  Li  Li2  1  0.66700000  0.33300000  0.50000000  1
  Ni  Ni3  1  0.00000000  0.00000000  0.75000000  1
  As  As4  1  0.75057794  0.70537088  0.03854521  1
  As  As5  1  0.81266019  0.91329500  0.19713198  1
  As  As6  1  0.53311368  0.32729946  0.88942301  1
  As  As7  1  0.75623024  0.27636267  0.96081217  1
