# generated using pymatgen
data_Li6LuV3Te4P2OF4
_symmetry_space_group_name_H-M   'P 1'
_cell_length_a   4.40930660
_cell_length_b   5.12299176
_cell_length_c   3.88857525
_cell_angle_alpha   90.51195742
_cell_angle_beta   88.32511415
_cell_angle_gamma   89.91385933
_symmetry_Int_Tables_number   1
_chemical_formula_structural   Li6LuV3Te4P2OF4
_chemical_formula_sum   'Li6 Lu1 V3 Te4 P2 O1 F4'
_cell_volume   87.79724028
_cell_formula_units_Z   1
loop_
 _symmetry_equiv_pos_site_id
 _symmetry_equiv_pos_as_xyz
  1  'x, y, z'
loop_
 _atom_site_type_symbol
 _atom_site_label
 _atom_site_symmetry_multiplicity
 _atom_site_fract_x
 _atom_site_fract_y
 _atom_site_fract_z
 _atom_site_occupancy
  Li  Li0  1  0.00000000  0.00000000  0.00000000  1
  Li  Li1  1  0.50000000  0.50000000  0.50000000  1
  Li  Li2  1  0.50000000  0.50000000  0.00000000  1
  Li  Li3  1  0.50000000  0.00000000  0.50000000  1
  Li  Li4  1  0.00000000  0.50000000  0.50000000  1
  Li  Li5  1  0.50868552  0.90698592  0.94163834  1
  V  V6  1  0.38167385  0.16101591  0.69966680  1
  V  V7  1  0.84765322  0.67346237  0.15988444  1
  V  V8  1  0.68805593  0.91073754  0.10514518  1
  Te  Te9  1  0.99519488  0.95426127  0.19486947  1
  Te  Te10  1  0.46085620  0.60408412  0.44448377  1
  Te  Te11  1  0.85835275  0.02591966  0.57875409  1
  Te  Te12  1  0.26395581  0.12009377  0.96010590  1
  P  P13  1  0.13711473  0.03805530  0.16228715  1
  P  P14  1  0.27182770  0.16459963  0.25413490  1
  F  F15  1  0.81719587  0.17628845  0.81681664  1
  F  F16  1  0.71887475  0.78129265  0.96794707  1
  F  F17  1  0.51896502  0.59624128  0.65765749  1
  F  F18  1  0.94336008  0.98309618  0.97489886  1
  O  O19  1  0.25714478  0.24575641  0.31382344  1
  Lu  Lu20  1  0.36178963  0.52046674  0.90966490  1
