# generated using pymatgen
data_Li3FeO2
_symmetry_space_group_name_H-M   'P 1'
_cell_length_a   3.10002137
_cell_length_b   2.66096348
_cell_length_c   6.23542257
_cell_angle_alpha   99.30704558
_cell_angle_beta   115.61109474
_cell_angle_gamma   115.55080778
_symmetry_Int_Tables_number   1
_chemical_formula_structural   Li3FeO2
_chemical_formula_sum   'Li6 Fe2 O4'
_cell_volume   37.82097672
_cell_formula_units_Z   2
loop_
 _symmetry_equiv_pos_site_id
 _symmetry_equiv_pos_as_xyz
  1  'x, y, z'
loop_
 _atom_site_type_symbol
 _atom_site_label
 _atom_site_symmetry_multiplicity
 _atom_site_fract_x
 _atom_site_fract_y
 _atom_site_fract_z
 _atom_site_occupancy
  Li  Li0  1  0.00000000  0.00000000  0.00000000  1
  Li  Li1  1  0.33300000  0.66700000  0.25000000  1
  Li  Li2  1  0.66700000  0.33300000  0.50000000  1
  Li  Li3  1  0.00000000  0.00000000  0.75000000  1
  Li  Li4  1  0.98178954  0.86207864  0.32653792  1
  Li  Li5  1  0.05650678  0.16031095  0.45689356  1
  Fe  Fe6  1  0.65100231  0.64096050  0.87548745  1
  Fe  Fe7  1  0.72300212  0.21455494  0.42711807  1
  O  O8  1  0.07758487  0.32003367  0.33903441  1
  O  O9  1  0.04661993  0.74840400  0.04094016  1
  O  O10  1  0.43506257  0.01299767  0.50219480  1
  O  O11  1  0.68774691  0.58175821  0.53119290  1
