# generated using pymatgen
data_Li5Ti2S4(O2F)2
_symmetry_space_group_name_H-M   'P 1'
_cell_length_a   3.73641570
_cell_length_b   3.91403199
_cell_length_c   4.37746133
_cell_angle_alpha   89.63044810
_cell_angle_beta   90.31302124
_cell_angle_gamma   90.76277766
_symmetry_Int_Tables_number   1
_chemical_formula_structural   Li5Ti2S4(O2F)2
_chemical_formula_sum   'Li5 Ti2 S4 O4 F2'
_cell_volume   64.01003654
_cell_formula_units_Z   1
loop_
 _symmetry_equiv_pos_site_id
 _symmetry_equiv_pos_as_xyz
  1  'x, y, z'
loop_
 _atom_site_type_symbol
 _atom_site_label
 _atom_site_symmetry_multiplicity
 _atom_site_fract_x
 _atom_site_fract_y
 _atom_site_fract_z
 _atom_site_occupancy
  Li  Li0  1  0.00000000  0.00000000  0.00000000  1
  Li  Li1  1  0.50000000  0.50000000  0.50000000  1
  Li  Li2  1  0.50000000  0.50000000  0.00000000  1
  Li  Li3  1  0.50000000  0.00000000  0.50000000  1
  Li  Li4  1  0.00000000  0.50000000  0.50000000  1
  Ti  Ti5  1  0.84252857  0.90465033  0.06428908  1
  Ti  Ti6  1  0.16895104  0.35104780  0.36289053  1
  O  O7  1  0.68242635  0.94532840  0.18883274  1
  O  O8  1  0.51685497  0.86320757  0.78899676  1
  O  O9  1  0.34637564  0.73370209  0.42003322  1
  O  O10  1  0.80351984  0.17178495  0.22752062  1
  F  F11  1  0.63433526  0.00695852  0.47591479  1
  F  F12  1  0.57470105  0.27672853  0.95602718  1
  S  S13  1  0.51000521  0.16930393  0.79730914  1
  S  S14  1  0.53454858  0.07656158  0.41433374  1
  S  S15  1  0.46097317  0.61064986  0.16992150  1
  S  S16  1  0.38661100  0.36766862  0.25605473  1
