# generated using pymatgen
data_Li4Ti3P2(BrN3)2
_symmetry_space_group_name_H-M   'P 1'
_cell_length_a   8.62910121
_cell_length_b   7.43687311
_cell_length_c   8.48264694
_cell_angle_alpha   90.00000000
_cell_angle_beta   90.00000000
_cell_angle_gamma   90.00000000
_symmetry_Int_Tables_number   1
_chemical_formula_structural   Li4Ti3P2(BrN3)2
_chemical_formula_sum   'Li4 Ti3 P2 Br2 N6'
_cell_volume   544.36140385
_cell_formula_units_Z   1
loop_
 _symmetry_equiv_pos_site_id
 _symmetry_equiv_pos_as_xyz
  1  'x, y, z'
loop_
 _atom_site_type_symbol
 _atom_site_label
 _atom_site_symmetry_multiplicity
 _atom_site_fract_x
 _atom_site_fract_y
 _atom_site_fract_z
 _atom_site_occupancy
  Li  Li0  1  0.00000000  0.00000000  0.00000000  1
  Li  Li1  1  0.50000000  0.50000000  0.50000000  1
  Li  Li2  1  0.25000000  0.25000000  0.25000000  1
  Li  Li3  1  0.75000000  0.25000000  0.00000000  1
  Ti  Ti4  1  0.25000000  0.75000000  0.50000000  1
  Ti  Ti5  1  0.32642888  0.24466295  0.43677456  1
  Ti  Ti6  1  0.74243433  0.12115928  0.18158971  1
  P  P7  1  0.79737747  0.55005437  0.69539641  1
  P  P8  1  0.80085838  0.22433533  0.21501564  1
  N  N9  1  0.27810590  0.87156282  0.97737816  1
  N  N10  1  0.60807989  0.91196122  0.80085831  1
  N  N11  1  0.15474911  0.95453431  0.39006265  1
  N  N12  1  0.52004787  0.69362792  0.24069913  1
  N  N13  1  0.06528093  0.24894865  0.32899766  1
  N  N14  1  0.93415920  0.10198415  0.78685545  1
  Br  Br15  1  0.37942447  0.01499397  0.87001965  1
  Br  Br16  1  0.18823935  0.78895952  0.25472224  1
