# generated using pymatgen
data_Li3Ca2Ti(As3O)2
_symmetry_space_group_name_H-M   'P 1'
_cell_length_a   7.55861810
_cell_length_b   7.68648406
_cell_length_c   7.52822040
_cell_angle_alpha   90.00000000
_cell_angle_beta   90.00000000
_cell_angle_gamma   90.00000000
_symmetry_Int_Tables_number   1
_chemical_formula_structural   Li3Ca2Ti(As3O)2
_chemical_formula_sum   'Li3 Ca2 Ti1 As6 O2'
_cell_volume   437.38356431
_cell_formula_units_Z   1
loop_
 _symmetry_equiv_pos_site_id
 _symmetry_equiv_pos_as_xyz
  1  'x, y, z'
loop_
 _atom_site_type_symbol
 _atom_site_label
 _atom_site_symmetry_multiplicity
 _atom_site_fract_x
 _atom_site_fract_y
 _atom_site_fract_z
 _atom_site_occupancy
  Li  Li0  1  0.12500000  0.12500000  0.12500000  1
  Li  Li1  1  0.50000000  0.50000000  0.50000000  1
  Li  Li2  1  0.25000000  0.25000000  0.25000000  1
  Ti  Ti3  1  0.75000000  0.75000000  0.75000000  1
  Ca  Ca4  1  0.53332815  0.73167228  0.06431734  1
  Ca  Ca5  1  0.61304008  0.48008121  0.85706358  1
  O  O6  1  0.39689027  0.26539034  0.67914984  1
  O  O7  1  0.62086968  0.66692067  0.74866883  1
  As  As8  1  0.97713554  0.09231207  0.58754176  1
  As  As9  1  0.53672306  0.58924713  0.19998923  1
  As  As10  1  0.46215903  0.98725458  0.66632999  1
  As  As11  1  0.55895227  0.89826735  0.90281653  1
  As  As12  1  0.69226615  0.18140427  0.54203152  1
  As  As13  1  0.83142285  0.63489009  0.21925511  1
