# generated using pymatgen
data_LiLaAlP2(I2Cl)2
_symmetry_space_group_name_H-M   'P 1'
_cell_length_a   12.28427115
_cell_length_b   11.00747878
_cell_length_c   13.80292212
_cell_angle_alpha   90.00000000
_cell_angle_beta   90.00000000
_cell_angle_gamma   90.00000000
_symmetry_Int_Tables_number   1
_chemical_formula_structural   LiLaAlP2(I2Cl)2
_chemical_formula_sum   'Li1 La1 Al1 P2 I4 Cl2'
_cell_volume   1866.41531065
_cell_formula_units_Z   1
loop_
 _symmetry_equiv_pos_site_id
 _symmetry_equiv_pos_as_xyz
  1  'x, y, z'
loop_
 _atom_site_type_symbol
 _atom_site_label
 _atom_site_symmetry_multiplicity
 _atom_site_fract_x
 _atom_site_fract_y
 _atom_site_fract_z
 _atom_site_occupancy
  Li  Li0  1  0.12500000  0.00000000  0.25000000  1
  La  La1  1  0.00000000  0.00000000  0.00000000  1
  Al  Al2  1  0.37500000  0.00000000  0.25000000  1
  P  P3  1  0.25000000  0.25000000  0.25000000  1
  P  P4  1  0.00000000  0.25000000  0.12500000  1
  Cl  Cl5  1  0.98472205  0.22074340  0.83165404  1
  Cl  Cl6  1  0.20362996  0.27538891  0.44351338  1
  I  I7  1  0.34159652  0.99439393  0.74536574  1
  I  I8  1  0.35537815  0.03180755  0.41896260  1
  I  I9  1  0.30542670  0.55921560  0.14464760  1
  I  I10  1  0.80144875  0.62163447  0.42913120  1
