# generated using pymatgen
data_Li4Fe2O3
_symmetry_space_group_name_H-M   'P 1'
_cell_length_a   3.00023353
_cell_length_b   3.48681532
_cell_length_c   5.13912241
_cell_angle_alpha   112.12900399
_cell_angle_beta   100.55700063
_cell_angle_gamma   116.24603594
_symmetry_Int_Tables_number   1
_chemical_formula_structural   Li4Fe2O3
_chemical_formula_sum   'Li4 Fe2 O3'
_cell_volume   40.51541319
_cell_formula_units_Z   1
loop_
 _symmetry_equiv_pos_site_id
 _symmetry_equiv_pos_as_xyz
  1  'x, y, z'
loop_
 _atom_site_type_symbol
 _atom_site_label
 _atom_site_symmetry_multiplicity
 _atom_site_fract_x
 _atom_site_fract_y
 _atom_site_fract_z
 _atom_site_occupancy
  Li  Li0  1  0.00000000  0.00000000  0.00000000  1
  Li  Li1  1  0.33300000  0.66700000  0.25000000  1
  Li  Li2  1  0.66700000  0.33300000  0.50000000  1
  Li  Li3  1  0.00000000  0.00000000  0.75000000  1
  Fe  Fe4  1  0.26544239  0.13981994  0.05543620  1
  Fe  Fe5  1  0.72244937  0.25543707  0.84764101  1
  O  O6  1  0.04083027  0.56515610  0.32345948  1
  O  O7  1  0.65958063  0.93293160  0.81826528  1
  O  O8  1  0.25867682  0.80002730  0.31481031  1
