# generated using pymatgen
data_Li2Ti3As2S2O3F4
_symmetry_space_group_name_H-M   'P 1'
_cell_length_a   3.74393610
_cell_length_b   3.20601803
_cell_length_c   4.06242918
_cell_angle_alpha   94.71190339
_cell_angle_beta   91.73553455
_cell_angle_gamma   92.51544022
_symmetry_Int_Tables_number   1
_chemical_formula_structural   Li2Ti3As2S2O3F4
_chemical_formula_sum   'Li2 Ti3 As2 S2 O3 F4'
_cell_volume   48.52209212
_cell_formula_units_Z   1
loop_
 _symmetry_equiv_pos_site_id
 _symmetry_equiv_pos_as_xyz
  1  'x, y, z'
loop_
 _atom_site_type_symbol
 _atom_site_label
 _atom_site_symmetry_multiplicity
 _atom_site_fract_x
 _atom_site_fract_y
 _atom_site_fract_z
 _atom_site_occupancy
  Li  Li0  1  0.00000000  0.00000000  0.00000000  1
  Li  Li1  1  0.50000000  0.50000000  0.50000000  1
  Ti  Ti2  1  0.50000000  0.50000000  0.00000000  1
  Ti  Ti3  1  0.50000000  0.00000000  0.50000000  1
  Ti  Ti4  1  0.00000000  0.50000000  0.50000000  1
  F  F5  1  0.75580544  0.75483331  0.62902676  1
  F  F6  1  0.50878306  0.06869462  0.94314151  1
  F  F7  1  0.58626170  0.01310762  0.14724190  1
  F  F8  1  0.40072079  0.03865712  0.56752101  1
  S  S9  1  0.54169142  0.99850076  0.08437415  1
  S  S10  1  0.43817745  0.88888967  0.13493467  1
  As  As11  1  0.20987226  0.44601582  0.45451370  1
  As  As12  1  0.04817795  0.85387224  0.02063944  1
  O  O13  1  0.99620222  0.12720559  0.81151959  1
  O  O14  1  0.85632456  0.71765500  0.71612077  1
  O  O15  1  0.15776459  0.42820488  0.02667764  1
