# generated using pymatgen
data_Li2HoZn3W2C2O3
_symmetry_space_group_name_H-M   'P 1'
_cell_length_a   12.79975847
_cell_length_b   10.76756584
_cell_length_c   14.01164961
_cell_angle_alpha   90.00000000
_cell_angle_beta   90.00000000
_cell_angle_gamma   90.00000000
_symmetry_Int_Tables_number   1
_chemical_formula_structural   Li2HoZn3W2C2O3
_chemical_formula_sum   'Li2 Ho1 Zn3 W2 C2 O3'
_cell_volume   1931.11696445
_cell_formula_units_Z   1
loop_
 _symmetry_equiv_pos_site_id
 _symmetry_equiv_pos_as_xyz
  1  'x, y, z'
loop_
 _atom_site_type_symbol
 _atom_site_label
 _atom_site_symmetry_multiplicity
 _atom_site_fract_x
 _atom_site_fract_y
 _atom_site_fract_z
 _atom_site_occupancy
  Li  Li0  1  0.12500000  0.00000000  0.25000000  1
  Li  Li1  1  0.00000000  0.00000000  0.00000000  1
  W  W2  1  0.37500000  0.00000000  0.25000000  1
  W  W3  1  0.25000000  0.25000000  0.25000000  1
  Zn  Zn4  1  0.00000000  0.25000000  0.12500000  1
  Zn  Zn5  1  0.39521425  0.64093433  0.69433631  1
  Zn  Zn6  1  0.87575899  0.12923874  0.49836828  1
  C  C7  1  0.29604897  0.16911625  0.02594063  1
  C  C8  1  0.97844238  0.38590820  0.33654074  1
  O  O9  1  0.51532661  0.42404147  0.79970217  1
  O  O10  1  0.48192392  0.33853448  0.92758627  1
  O  O11  1  0.22097297  0.38946879  0.32642074  1
  Ho  Ho12  1  0.82337522  0.02861966  0.36996052  1
