# generated using pymatgen
data_Li4AlSb4Br3O
_symmetry_space_group_name_H-M   'P 1'
_cell_length_a   7.72903569
_cell_length_b   7.43256387
_cell_length_c   7.64157754
_cell_angle_alpha   90.00000000
_cell_angle_beta   90.00000000
_cell_angle_gamma   90.00000000
_symmetry_Int_Tables_number   1
_chemical_formula_structural   Li4AlSb4Br3O
_chemical_formula_sum   'Li4 Al1 Sb4 Br3 O1'
_cell_volume   438.98227718
_cell_formula_units_Z   1
loop_
 _symmetry_equiv_pos_site_id
 _symmetry_equiv_pos_as_xyz
  1  'x, y, z'
loop_
 _atom_site_type_symbol
 _atom_site_label
 _atom_site_symmetry_multiplicity
 _atom_site_fract_x
 _atom_site_fract_y
 _atom_site_fract_z
 _atom_site_occupancy
  Li  Li0  1  0.12500000  0.12500000  0.12500000  1
  Li  Li1  1  0.50000000  0.50000000  0.50000000  1
  Li  Li2  1  0.25000000  0.25000000  0.25000000  1
  Li  Li3  1  0.75000000  0.75000000  0.75000000  1
  Al  Al4  1  0.99326619  0.20420065  0.35249745  1
  O  O5  1  0.00685410  0.25180539  0.25997485  1
  Br  Br6  1  0.30897392  0.49354276  0.91322738  1
  Br  Br7  1  0.28054073  0.93455540  0.75730541  1
  Br  Br8  1  0.26147763  0.48394745  0.15306726  1
  Sb  Sb9  1  0.55830557  0.86808366  0.31556544  1
  Sb  Sb10  1  0.31346468  0.37291991  0.80849962  1
  Sb  Sb11  1  0.09977622  0.85930573  0.49346194  1
  Sb  Sb12  1  0.24744179  0.06725249  0.03242160  1
