# generated using pymatgen
data_LiTi3Si3Ni2O
_symmetry_space_group_name_H-M   'P 1'
_cell_length_a   12.36316115
_cell_length_b   13.20193586
_cell_length_c   14.17278309
_cell_angle_alpha   90.00000000
_cell_angle_beta   90.00000000
_cell_angle_gamma   90.00000000
_symmetry_Int_Tables_number   1
_chemical_formula_structural   LiTi3Si3Ni2O
_chemical_formula_sum   'Li1 Ti3 Si3 Ni2 O1'
_cell_volume   2313.24849772
_cell_formula_units_Z   1
loop_
 _symmetry_equiv_pos_site_id
 _symmetry_equiv_pos_as_xyz
  1  'x, y, z'
loop_
 _atom_site_type_symbol
 _atom_site_label
 _atom_site_symmetry_multiplicity
 _atom_site_fract_x
 _atom_site_fract_y
 _atom_site_fract_z
 _atom_site_occupancy
  Li  Li0  1  0.12500000  0.00000000  0.25000000  1
  Ni  Ni1  1  0.00000000  0.00000000  0.00000000  1
  Ni  Ni2  1  0.37500000  0.00000000  0.25000000  1
  Ti  Ti3  1  0.25000000  0.25000000  0.25000000  1
  Ti  Ti4  1  0.00000000  0.25000000  0.12500000  1
  Ti  Ti5  1  0.01294223  0.39079848  0.30712138  1
  Si  Si6  1  0.34174883  0.58869763  0.88965592  1
  Si  Si7  1  0.11774109  0.54514550  0.55359078  1
  Si  Si8  1  0.22849928  0.68735836  0.45353752  1
  O  O9  1  0.72099715  0.91137663  0.21144706  1
