# generated using pymatgen
data_Li2Al(BrO)3
_symmetry_space_group_name_H-M   'P 1'
_cell_length_a   7.54751542
_cell_length_b   6.77930802
_cell_length_c   8.31371059
_cell_angle_alpha   90.00000000
_cell_angle_beta   90.00000000
_cell_angle_gamma   90.00000000
_symmetry_Int_Tables_number   1
_chemical_formula_structural   Li2Al(BrO)3
_chemical_formula_sum   'Li2 Al1 Br3 O3'
_cell_volume   425.38706296
_cell_formula_units_Z   1
loop_
 _symmetry_equiv_pos_site_id
 _symmetry_equiv_pos_as_xyz
  1  'x, y, z'
loop_
 _atom_site_type_symbol
 _atom_site_label
 _atom_site_symmetry_multiplicity
 _atom_site_fract_x
 _atom_site_fract_y
 _atom_site_fract_z
 _atom_site_occupancy
  Li  Li0  1  0.12500000  0.12500000  0.12500000  1
  Li  Li1  1  0.50000000  0.50000000  0.50000000  1
  Al  Al2  1  0.25000000  0.25000000  0.25000000  1
  Br  Br3  1  0.75000000  0.75000000  0.75000000  1
  Br  Br4  1  0.27716792  0.76089047  0.76990701  1
  Br  Br5  1  0.63253281  0.41712203  0.35047136  1
  O  O6  1  0.61027520  0.54340046  0.34904875  1
  O  O7  1  0.45507828  0.74879013  0.60539576  1
  O  O8  1  0.74037593  0.69256620  0.04908240  1
