# generated using pymatgen
data_Li3ZrP2F5
_symmetry_space_group_name_H-M   'P 1'
_cell_length_a   7.72805925
_cell_length_b   8.80777797
_cell_length_c   8.96321412
_cell_angle_alpha   90.00000000
_cell_angle_beta   90.00000000
_cell_angle_gamma   90.00000000
_symmetry_Int_Tables_number   1
_chemical_formula_structural   Li3ZrP2F5
_chemical_formula_sum   'Li3 Zr1 P2 F5'
_cell_volume   610.09936451
_cell_formula_units_Z   1
loop_
 _symmetry_equiv_pos_site_id
 _symmetry_equiv_pos_as_xyz
  1  'x, y, z'
loop_
 _atom_site_type_symbol
 _atom_site_label
 _atom_site_symmetry_multiplicity
 _atom_site_fract_x
 _atom_site_fract_y
 _atom_site_fract_z
 _atom_site_occupancy
  Li  Li0  1  0.12500000  0.12500000  0.12500000  1
  Li  Li1  1  0.50000000  0.50000000  0.50000000  1
  Li  Li2  1  0.25000000  0.25000000  0.25000000  1
  Zr  Zr3  1  0.75000000  0.75000000  0.75000000  1
  F  F4  1  0.95887356  0.04480441  0.90735610  1
  F  F5  1  0.64674601  0.50818622  0.29091872  1
  F  F6  1  0.97433532  0.93946468  0.82967004  1
  F  F7  1  0.52010878  0.06560604  0.11173385  1
  F  F8  1  0.75451163  0.27686589  0.34919796  1
  P  P9  1  0.52614313  0.11236646  0.03419248  1
  P  P10  1  0.23569405  0.87471524  0.86298101  1
