# generated using pymatgen
data_Li2Al2O5
_symmetry_space_group_name_H-M   'P 1'
_cell_length_a   7.92736366
_cell_length_b   7.77897987
_cell_length_c   9.37370338
_cell_angle_alpha   90.00000000
_cell_angle_beta   90.00000000
_cell_angle_gamma   90.00000000
_symmetry_Int_Tables_number   1
_chemical_formula_structural   Li2Al2O5
_chemical_formula_sum   'Li2 Al2 O5'
_cell_volume   578.04631434
_cell_formula_units_Z   1
loop_
 _symmetry_equiv_pos_site_id
 _symmetry_equiv_pos_as_xyz
  1  'x, y, z'
loop_
 _atom_site_type_symbol
 _atom_site_label
 _atom_site_symmetry_multiplicity
 _atom_site_fract_x
 _atom_site_fract_y
 _atom_site_fract_z
 _atom_site_occupancy
  Li  Li0  1  0.12500000  0.12500000  0.12500000  1
  Li  Li1  1  0.50000000  0.50000000  0.50000000  1
  Al  Al2  1  0.25000000  0.25000000  0.25000000  1
  Al  Al3  1  0.75000000  0.75000000  0.75000000  1
  O  O4  1  0.48684968  0.54187724  0.93347195  1
  O  O5  1  0.06054150  0.58088413  0.19982522  1
  O  O6  1  0.42276428  0.23022515  0.47227341  1
  O  O7  1  0.28996542  0.35582013  0.48767765  1
  O  O8  1  0.16777900  0.13043020  0.83509083  1
