# generated using pymatgen
data_Li5TaTiCo2As2O
_symmetry_space_group_name_H-M   'P 1'
_cell_length_a   7.85961533
_cell_length_b   7.81140120
_cell_length_c   8.15628256
_cell_angle_alpha   90.00000000
_cell_angle_beta   90.00000000
_cell_angle_gamma   90.00000000
_symmetry_Int_Tables_number   1
_chemical_formula_structural   Li5TaTiCo2As2O
_chemical_formula_sum   'Li5 Ta1 Ti1 Co2 As2 O1'
_cell_volume   500.75177560
_cell_formula_units_Z   1
loop_
 _symmetry_equiv_pos_site_id
 _symmetry_equiv_pos_as_xyz
  1  'x, y, z'
loop_
 _atom_site_type_symbol
 _atom_site_label
 _atom_site_symmetry_multiplicity
 _atom_site_fract_x
 _atom_site_fract_y
 _atom_site_fract_z
 _atom_site_occupancy
  Li  Li0  1  0.12500000  0.12500000  0.12500000  1
  Li  Li1  1  0.50000000  0.50000000  0.50000000  1
  Li  Li2  1  0.25000000  0.25000000  0.25000000  1
  Li  Li3  1  0.75000000  0.75000000  0.75000000  1
  Li  Li4  1  0.61265974  0.24763979  0.36847825  1
  Co  Co5  1  0.21656614  0.71667520  0.36157447  1
  Co  Co6  1  0.77789141  0.39621826  0.34010730  1
  Ta  Ta7  1  0.27327367  0.19415305  0.14334021  1
  O  O8  1  0.00584341  0.66609673  0.14775106  1
  As  As9  1  0.53324195  0.70383240  0.89852712  1
  As  As10  1  0.94190506  0.40167037  0.49537481  1
  Ti  Ti11  1  0.67038467  0.30636324  0.45081234  1
