# generated using pymatgen
data_Li3Ti2O4
_symmetry_space_group_name_H-M   'P 1'
_cell_length_a   3.49381983
_cell_length_b   3.94386251
_cell_length_c   5.16344274
_cell_angle_alpha   96.15444953
_cell_angle_beta   94.30014572
_cell_angle_gamma   112.14834814
_symmetry_Int_Tables_number   1
_chemical_formula_structural   Li3Ti2O4
_chemical_formula_sum   'Li3 Ti2 O4'
_cell_volume   65.00160189
_cell_formula_units_Z   1
loop_
 _symmetry_equiv_pos_site_id
 _symmetry_equiv_pos_as_xyz
  1  'x, y, z'
loop_
 _atom_site_type_symbol
 _atom_site_label
 _atom_site_symmetry_multiplicity
 _atom_site_fract_x
 _atom_site_fract_y
 _atom_site_fract_z
 _atom_site_occupancy
  Li  Li0  1  0.00000000  0.00000000  0.00000000  1
  Li  Li1  1  0.33300000  0.66700000  0.25000000  1
  Li  Li2  1  0.66700000  0.33300000  0.50000000  1
  Ti  Ti3  1  0.00000000  0.00000000  0.75000000  1
  Ti  Ti4  1  0.04494170  0.09939552  0.62679763  1
  O  O5  1  0.45472449  0.79716310  0.93493464  1
  O  O6  1  0.83832151  0.58703471  0.61241283  1
  O  O7  1  0.95780207  0.26339916  0.62169555  1
  O  O8  1  0.74617935  0.70980083  0.01820386  1
