# generated using pymatgen
data_Li3TiO5
_symmetry_space_group_name_H-M   'P 1'
_cell_length_a   4.26800229
_cell_length_b   4.18693576
_cell_length_c   4.49484459
_cell_angle_alpha   93.38516101
_cell_angle_beta   88.79662242
_cell_angle_gamma   85.56118030
_symmetry_Int_Tables_number   1
_chemical_formula_structural   Li3TiO5
_chemical_formula_sum   'Li3 Ti1 O5'
_cell_volume   79.91516205
_cell_formula_units_Z   1
loop_
 _symmetry_equiv_pos_site_id
 _symmetry_equiv_pos_as_xyz
  1  'x, y, z'
loop_
 _atom_site_type_symbol
 _atom_site_label
 _atom_site_symmetry_multiplicity
 _atom_site_fract_x
 _atom_site_fract_y
 _atom_site_fract_z
 _atom_site_occupancy
  Li  Li0  1  0.00000000  0.00000000  0.00000000  1
  Li  Li1  1  0.50000000  0.50000000  0.50000000  1
  Li  Li2  1  0.50000000  0.50000000  0.00000000  1
  Ti  Ti3  1  0.50000000  0.00000000  0.50000000  1
  O  O4  1  0.00000000  0.50000000  0.50000000  1
  O  O5  1  0.00795908  0.15091408  0.49292794  1
  O  O6  1  0.84186621  0.48189534  0.17532137  1
  O  O7  1  0.44013338  0.40902290  0.48870563  1
  O  O8  1  0.37139457  0.36599262  0.18169278  1
