# generated using pymatgen
data_Li2Al3P(WO)2
_symmetry_space_group_name_H-M   'P 1'
_cell_length_a   12.79412919
_cell_length_b   10.46541113
_cell_length_c   11.66231403
_cell_angle_alpha   90.00000000
_cell_angle_beta   90.00000000
_cell_angle_gamma   90.00000000
_symmetry_Int_Tables_number   1
_chemical_formula_structural   Li2Al3P(WO)2
_chemical_formula_sum   'Li2 Al3 P1 W2 O2'
_cell_volume   1561.53512275
_cell_formula_units_Z   1
loop_
 _symmetry_equiv_pos_site_id
 _symmetry_equiv_pos_as_xyz
  1  'x, y, z'
loop_
 _atom_site_type_symbol
 _atom_site_label
 _atom_site_symmetry_multiplicity
 _atom_site_fract_x
 _atom_site_fract_y
 _atom_site_fract_z
 _atom_site_occupancy
  Li  Li0  1  0.12500000  0.00000000  0.25000000  1
  Li  Li1  1  0.00000000  0.00000000  0.00000000  1
  W  W2  1  0.37500000  0.00000000  0.25000000  1
  W  W3  1  0.25000000  0.25000000  0.25000000  1
  Al  Al4  1  0.00000000  0.25000000  0.12500000  1
  Al  Al5  1  0.32710788  0.94509129  0.35744775  1
  Al  Al6  1  0.68366186  0.68336362  0.44079857  1
  P  P7  1  0.50291616  0.75221336  0.73340139  1
  O  O8  1  0.75176770  0.82487876  0.98152565  1
  O  O9  1  0.02751673  0.94970532  0.93966282  1
