# generated using pymatgen
data_Li3Ti(P2O)2
_symmetry_space_group_name_H-M   'P 1'
_cell_length_a   4.06629384
_cell_length_b   3.71930358
_cell_length_c   4.15912376
_cell_angle_alpha   91.45399992
_cell_angle_beta   91.94147707
_cell_angle_gamma   88.32510798
_symmetry_Int_Tables_number   1
_chemical_formula_structural   Li3Ti(P2O)2
_chemical_formula_sum   'Li3 Ti1 P4 O2'
_cell_volume   62.81998908
_cell_formula_units_Z   1
loop_
 _symmetry_equiv_pos_site_id
 _symmetry_equiv_pos_as_xyz
  1  'x, y, z'
loop_
 _atom_site_type_symbol
 _atom_site_label
 _atom_site_symmetry_multiplicity
 _atom_site_fract_x
 _atom_site_fract_y
 _atom_site_fract_z
 _atom_site_occupancy
  Li  Li0  1  0.00000000  0.00000000  0.00000000  1
  Li  Li1  1  0.50000000  0.50000000  0.50000000  1
  Li  Li2  1  0.50000000  0.50000000  0.00000000  1
  Ti  Ti3  1  0.50000000  0.00000000  0.50000000  1
  P  P4  1  0.00000000  0.50000000  0.50000000  1
  P  P5  1  0.84339833  0.03087879  0.63832738  1
  P  P6  1  0.61723558  0.95188520  0.38533713  1
  P  P7  1  0.37149303  0.76533429  0.26755905  1
  O  O8  1  0.05521972  0.13620621  0.66221236  1
  O  O9  1  0.52257876  0.48677639  0.68236224  1
