# generated using pymatgen
data_Li6LaAl2C2(BrF)2
_symmetry_space_group_name_H-M   'P 1'
_cell_length_a   12.43648677
_cell_length_b   10.20683334
_cell_length_c   12.11824986
_cell_angle_alpha   90.00000000
_cell_angle_beta   90.00000000
_cell_angle_gamma   90.00000000
_symmetry_Int_Tables_number   1
_chemical_formula_structural   Li6LaAl2C2(BrF)2
_chemical_formula_sum   'Li6 La1 Al2 C2 Br2 F2'
_cell_volume   1538.25607374
_cell_formula_units_Z   1
loop_
 _symmetry_equiv_pos_site_id
 _symmetry_equiv_pos_as_xyz
  1  'x, y, z'
loop_
 _atom_site_type_symbol
 _atom_site_label
 _atom_site_symmetry_multiplicity
 _atom_site_fract_x
 _atom_site_fract_y
 _atom_site_fract_z
 _atom_site_occupancy
  Li  Li0  1  0.12500000  0.00000000  0.25000000  1
  Li  Li1  1  0.00000000  0.00000000  0.00000000  1
  Li  Li2  1  0.37500000  0.00000000  0.25000000  1
  Li  Li3  1  0.25000000  0.25000000  0.25000000  1
  Li  Li4  1  0.00000000  0.25000000  0.12500000  1
  Li  Li5  1  0.28113208  0.80725937  0.68132727  1
  La  La6  1  0.51034204  0.41280762  0.56166541  1
  Al  Al7  1  0.92843038  0.11408927  0.07688802  1
  Al  Al8  1  0.31753692  0.23933242  0.00938204  1
  C  C9  1  0.30642544  0.28265987  0.12908707  1
  C  C10  1  0.78340235  0.02429960  0.67082104  1
  F  F11  1  0.49885813  0.93742542  0.23597860  1
  F  F12  1  0.39097345  0.57194082  0.41500059  1
  Br  Br13  1  0.80720380  0.70050434  0.36324876  1
  Br  Br14  1  0.51462198  0.63882963  0.40635579  1
