# generated using pymatgen
data_Li3Cu2(P4O)2
_symmetry_space_group_name_H-M   'P 1'
_cell_length_a   8.10973361
_cell_length_b   8.61330069
_cell_length_c   8.50871210
_cell_angle_alpha   90.00000000
_cell_angle_beta   90.00000000
_cell_angle_gamma   90.00000000
_symmetry_Int_Tables_number   1
_chemical_formula_structural   Li3Cu2(P4O)2
_chemical_formula_sum   'Li3 Cu2 P8 O2'
_cell_volume   594.34693356
_cell_formula_units_Z   1
loop_
 _symmetry_equiv_pos_site_id
 _symmetry_equiv_pos_as_xyz
  1  'x, y, z'
loop_
 _atom_site_type_symbol
 _atom_site_label
 _atom_site_symmetry_multiplicity
 _atom_site_fract_x
 _atom_site_fract_y
 _atom_site_fract_z
 _atom_site_occupancy
  Li  Li0  1  0.00000000  0.00000000  0.00000000  1
  Li  Li1  1  0.50000000  0.50000000  0.50000000  1
  Li  Li2  1  0.25000000  0.25000000  0.25000000  1
  Cu  Cu3  1  0.75000000  0.25000000  0.00000000  1
  Cu  Cu4  1  0.25000000  0.75000000  0.50000000  1
  P  P5  1  0.03368832  0.37458401  0.91697475  1
  P  P6  1  0.11097831  0.39515067  0.36482419  1
  P  P7  1  0.71910213  0.82045920  0.27667727  1
  P  P8  1  0.85761982  0.54464554  0.97334369  1
  P  P9  1  0.51675933  0.69344708  0.06362801  1
  P  P10  1  0.80177174  0.03467386  0.22235115  1
  P  P11  1  0.91659880  0.31267368  0.13422391  1
  P  P12  1  0.45254970  0.37709011  0.33220846  1
  O  O13  1  0.66675092  0.45772702  0.68599235  1
  O  O14  1  0.13570450  0.56077496  0.16020501  1
