# generated using pymatgen
data_LiMn2(O2F3)2
_symmetry_space_group_name_H-M   'P 1'
_cell_length_a   8.01823252
_cell_length_b   7.28216651
_cell_length_c   7.49108637
_cell_angle_alpha   90.00000000
_cell_angle_beta   90.00000000
_cell_angle_gamma   90.00000000
_symmetry_Int_Tables_number   1
_chemical_formula_structural   LiMn2(O2F3)2
_chemical_formula_sum   'Li1 Mn2 O4 F6'
_cell_volume   437.40531468
_cell_formula_units_Z   1
loop_
 _symmetry_equiv_pos_site_id
 _symmetry_equiv_pos_as_xyz
  1  'x, y, z'
loop_
 _atom_site_type_symbol
 _atom_site_label
 _atom_site_symmetry_multiplicity
 _atom_site_fract_x
 _atom_site_fract_y
 _atom_site_fract_z
 _atom_site_occupancy
  Li  Li0  1  0.00000000  0.00000000  0.00000000  1
  Mn  Mn1  1  0.50000000  0.50000000  0.50000000  1
  Mn  Mn2  1  0.25000000  0.25000000  0.25000000  1
  F  F3  1  0.75000000  0.25000000  0.00000000  1
  F  F4  1  0.25000000  0.75000000  0.50000000  1
  F  F5  1  0.71289941  0.44536868  0.40358411  1
  F  F6  1  0.42015758  0.37153543  0.01264057  1
  F  F7  1  0.23498315  0.75567384  0.55385442  1
  F  F8  1  0.57236431  0.97790147  0.28604774  1
  O  O9  1  0.36021356  0.98875207  0.71628429  1
  O  O10  1  0.02391195  0.55847845  0.23430779  1
  O  O11  1  0.55327471  0.43420345  0.95561966  1
  O  O12  1  0.00022549  0.80234099  0.52011569  1
