# generated using pymatgen
data_LiCa2AsSeS
_symmetry_space_group_name_H-M   'P 1'
_cell_length_a   8.41345185
_cell_length_b   9.60426048
_cell_length_c   9.61468691
_cell_angle_alpha   90.00000000
_cell_angle_beta   90.00000000
_cell_angle_gamma   90.00000000
_symmetry_Int_Tables_number   1
_chemical_formula_structural   LiCa2AsSeS
_chemical_formula_sum   'Li1 Ca2 As1 Se1 S1'
_cell_volume   776.91461295
_cell_formula_units_Z   1
loop_
 _symmetry_equiv_pos_site_id
 _symmetry_equiv_pos_as_xyz
  1  'x, y, z'
loop_
 _atom_site_type_symbol
 _atom_site_label
 _atom_site_symmetry_multiplicity
 _atom_site_fract_x
 _atom_site_fract_y
 _atom_site_fract_z
 _atom_site_occupancy
  Li  Li0  1  0.12500000  0.12500000  0.12500000  1
  Ca  Ca1  1  0.50000000  0.50000000  0.50000000  1
  Ca  Ca2  1  0.25000000  0.25000000  0.25000000  1
  S  S3  1  0.75000000  0.75000000  0.75000000  1
  As  As4  1  0.03149188  0.27240251  0.03938229  1
  Se  Se5  1  0.67184163  0.65334526  0.78959537  1
