# generated using pymatgen
data_Li3Al2As5I6
_symmetry_space_group_name_H-M   'P 1'
_cell_length_a   7.60317323
_cell_length_b   7.84355656
_cell_length_c   8.58514188
_cell_angle_alpha   90.00000000
_cell_angle_beta   90.00000000
_cell_angle_gamma   90.00000000
_symmetry_Int_Tables_number   1
_chemical_formula_structural   Li3Al2As5I6
_chemical_formula_sum   'Li3 Al2 As5 I6'
_cell_volume   511.98282779
_cell_formula_units_Z   1
loop_
 _symmetry_equiv_pos_site_id
 _symmetry_equiv_pos_as_xyz
  1  'x, y, z'
loop_
 _atom_site_type_symbol
 _atom_site_label
 _atom_site_symmetry_multiplicity
 _atom_site_fract_x
 _atom_site_fract_y
 _atom_site_fract_z
 _atom_site_occupancy
  Li  Li0  1  0.12500000  0.12500000  0.12500000  1
  Li  Li1  1  0.50000000  0.50000000  0.50000000  1
  Li  Li2  1  0.25000000  0.25000000  0.25000000  1
  Al  Al3  1  0.75000000  0.75000000  0.75000000  1
  Al  Al4  1  0.90603229  0.27548184  0.63250278  1
  I  I5  1  0.65148435  0.01144520  0.89348490  1
  I  I6  1  0.51428168  0.91896197  0.14660645  1
  I  I7  1  0.95052760  0.11072580  0.01055834  1
  I  I8  1  0.21856904  0.87142434  0.67861910  1
  I  I9  1  0.90437055  0.05736779  0.36845464  1
  I  I10  1  0.57378620  0.43525653  0.49483004  1
  As  As11  1  0.68349385  0.94645654  0.47674797  1
  As  As12  1  0.67629329  0.00823627  0.35764733  1
  As  As13  1  0.11336490  0.75498543  0.65615224  1
  As  As14  1  0.51274387  0.24198786  0.34690311  1
  As  As15  1  0.84494065  0.01011634  0.54928481  1
