# generated using pymatgen
data_Li2MgV2Se2SCl3
_symmetry_space_group_name_H-M   'P 1'
_cell_length_a   7.54686936
_cell_length_b   7.43948331
_cell_length_c   8.66834444
_cell_angle_alpha   90.00000000
_cell_angle_beta   90.00000000
_cell_angle_gamma   90.00000000
_symmetry_Int_Tables_number   1
_chemical_formula_structural   Li2MgV2Se2SCl3
_chemical_formula_sum   'Li2 Mg1 V2 Se2 S1 Cl3'
_cell_volume   486.68254010
_cell_formula_units_Z   1
loop_
 _symmetry_equiv_pos_site_id
 _symmetry_equiv_pos_as_xyz
  1  'x, y, z'
loop_
 _atom_site_type_symbol
 _atom_site_label
 _atom_site_symmetry_multiplicity
 _atom_site_fract_x
 _atom_site_fract_y
 _atom_site_fract_z
 _atom_site_occupancy
  Li  Li0  1  0.12500000  0.12500000  0.12500000  1
  Li  Li1  1  0.50000000  0.50000000  0.50000000  1
  V  V2  1  0.25000000  0.25000000  0.25000000  1
  V  V3  1  0.75000000  0.75000000  0.75000000  1
  S  S4  1  0.25506790  0.07485782  0.39761126  1
  Cl  Cl5  1  0.82782028  0.83221629  0.99179859  1
  Cl  Cl6  1  0.33560488  0.14898251  0.39898345  1
  Cl  Cl7  1  0.46971492  0.90358925  0.18662311  1
  Se  Se8  1  0.77465771  0.72750630  0.32740731  1
  Se  Se9  1  0.07559195  0.30194463  0.71434324  1
  Mg  Mg10  1  0.09794185  0.20391240  0.71622082  1
