# generated using pymatgen
data_LiCrAs6OF3
_symmetry_space_group_name_H-M   'P 1'
_cell_length_a   4.08208996
_cell_length_b   4.01754644
_cell_length_c   4.77862836
_cell_angle_alpha   88.86905223
_cell_angle_beta   86.60399830
_cell_angle_gamma   88.42504936
_symmetry_Int_Tables_number   1
_chemical_formula_structural   LiCrAs6OF3
_chemical_formula_sum   'Li1 Cr1 As6 O1 F3'
_cell_volume   78.18938559
_cell_formula_units_Z   1
loop_
 _symmetry_equiv_pos_site_id
 _symmetry_equiv_pos_as_xyz
  1  'x, y, z'
loop_
 _atom_site_type_symbol
 _atom_site_label
 _atom_site_symmetry_multiplicity
 _atom_site_fract_x
 _atom_site_fract_y
 _atom_site_fract_z
 _atom_site_occupancy
  Li  Li0  1  0.00000000  0.00000000  0.00000000  1
  Cr  Cr1  1  0.50000000  0.50000000  0.50000000  1
  As  As2  1  0.50000000  0.50000000  0.00000000  1
  As  As3  1  0.50000000  0.00000000  0.50000000  1
  As  As4  1  0.00000000  0.50000000  0.50000000  1
  As  As5  1  0.93442763  0.83723318  0.74293858  1
  As  As6  1  0.12012151  0.81970956  0.91205633  1
  As  As7  1  0.89911410  0.77813715  0.68041213  1
  F  F8  1  0.05079821  0.26874573  0.79325754  1
  F  F9  1  0.55240641  0.48668110  0.22431893  1
  F  F10  1  0.90717826  0.39353772  0.64701299  1
  O  O11  1  0.73255440  0.13487380  0.98296117  1
