# generated using pymatgen
data_Li2VCu2Si2Br
_symmetry_space_group_name_H-M   'P 1'
_cell_length_a   12.63692096
_cell_length_b   11.29360628
_cell_length_c   11.43123786
_cell_angle_alpha   90.00000000
_cell_angle_beta   90.00000000
_cell_angle_gamma   90.00000000
_symmetry_Int_Tables_number   1
_chemical_formula_structural   Li2VCu2Si2Br
_chemical_formula_sum   'Li2 V1 Cu2 Si2 Br1'
_cell_volume   1631.42522867
_cell_formula_units_Z   1
loop_
 _symmetry_equiv_pos_site_id
 _symmetry_equiv_pos_as_xyz
  1  'x, y, z'
loop_
 _atom_site_type_symbol
 _atom_site_label
 _atom_site_symmetry_multiplicity
 _atom_site_fract_x
 _atom_site_fract_y
 _atom_site_fract_z
 _atom_site_occupancy
  Li  Li0  1  0.12500000  0.00000000  0.25000000  1
  Li  Li1  1  0.00000000  0.00000000  0.00000000  1
  Cu  Cu2  1  0.37500000  0.00000000  0.25000000  1
  Cu  Cu3  1  0.25000000  0.25000000  0.25000000  1
  V  V4  1  0.00000000  0.25000000  0.12500000  1
  Si  Si5  1  0.43205741  0.51077126  0.64147429  1
  Si  Si6  1  0.68347242  0.95609203  0.29062738  1
  Br  Br7  1  0.28003001  0.65201756  0.72511788  1
