# generated using pymatgen
data_Li3LaF
_symmetry_space_group_name_H-M   'P 1'
_cell_length_a   3.28000741
_cell_length_b   3.30622421
_cell_length_c   5.10633308
_cell_angle_alpha   116.59432366
_cell_angle_beta   114.86992644
_cell_angle_gamma   118.67685750
_symmetry_Int_Tables_number   1
_chemical_formula_structural   Li3LaF
_chemical_formula_sum   'Li6 La2 F2'
_cell_volume   25.48193201
_cell_formula_units_Z   2
loop_
 _symmetry_equiv_pos_site_id
 _symmetry_equiv_pos_as_xyz
  1  'x, y, z'
loop_
 _atom_site_type_symbol
 _atom_site_label
 _atom_site_symmetry_multiplicity
 _atom_site_fract_x
 _atom_site_fract_y
 _atom_site_fract_z
 _atom_site_occupancy
  Li  Li0  1  0.00000000  0.00000000  0.00000000  1
  Li  Li1  1  0.33300000  0.66700000  0.25000000  1
  Li  Li2  1  0.66700000  0.33300000  0.50000000  1
  Li  Li3  1  0.00000000  0.00000000  0.75000000  1
  Li  Li4  1  0.10979947  0.00723707  0.52046149  1
  Li  Li5  1  0.24746049  0.70398445  0.62651033  1
  La  La6  1  0.96997563  0.14488561  0.24302490  1
  La  La7  1  0.52499589  0.18101028  0.88199869  1
  F  F8  1  0.05685210  0.06097905  0.25098259  1
  F  F9  1  0.74250381  0.54907178  0.83206301  1
