# generated using pymatgen
data_Li2Zr3P5Se3O
_symmetry_space_group_name_H-M   'P 1'
_cell_length_a   3.67484628
_cell_length_b   4.11770136
_cell_length_c   3.71125556
_cell_angle_alpha   86.23742100
_cell_angle_beta   94.14386560
_cell_angle_gamma   89.48334884
_symmetry_Int_Tables_number   1
_chemical_formula_structural   Li2Zr3P5Se3O
_chemical_formula_sum   'Li2 Zr3 P5 Se3 O1'
_cell_volume   55.88553628
_cell_formula_units_Z   1
loop_
 _symmetry_equiv_pos_site_id
 _symmetry_equiv_pos_as_xyz
  1  'x, y, z'
loop_
 _atom_site_type_symbol
 _atom_site_label
 _atom_site_symmetry_multiplicity
 _atom_site_fract_x
 _atom_site_fract_y
 _atom_site_fract_z
 _atom_site_occupancy
  Li  Li0  1  0.00000000  0.00000000  0.00000000  1
  Li  Li1  1  0.50000000  0.50000000  0.50000000  1
  Zr  Zr2  1  0.50000000  0.50000000  0.00000000  1
  Zr  Zr3  1  0.50000000  0.00000000  0.50000000  1
  Zr  Zr4  1  0.00000000  0.50000000  0.50000000  1
  Se  Se5  1  0.99754151  0.86395090  0.02877300  1
  Se  Se6  1  0.30716693  0.86454688  0.63396959  1
  Se  Se7  1  0.72879424  0.83481974  0.80621106  1
  P  P8  1  0.78354681  0.02844880  0.81507585  1
  P  P9  1  0.22938160  0.11551745  0.62227232  1
  P  P10  1  0.96734280  0.05849773  0.63093487  1
  P  P11  1  0.28205978  0.22913052  0.57548365  1
  P  P12  1  0.53724070  0.15363331  0.04589059  1
  O  O13  1  0.65497209  0.24150040  0.09032811  1
