# generated using pymatgen
data_Li2CaV2P3O2F
_symmetry_space_group_name_H-M   'P 1'
_cell_length_a   8.84729639
_cell_length_b   9.37126851
_cell_length_c   10.04253527
_cell_angle_alpha   90.00000000
_cell_angle_beta   90.00000000
_cell_angle_gamma   90.00000000
_symmetry_Int_Tables_number   1
_chemical_formula_structural   Li2CaV2P3O2F
_chemical_formula_sum   'Li2 Ca1 V2 P3 O2 F1'
_cell_volume   832.63051693
_cell_formula_units_Z   1
loop_
 _symmetry_equiv_pos_site_id
 _symmetry_equiv_pos_as_xyz
  1  'x, y, z'
loop_
 _atom_site_type_symbol
 _atom_site_label
 _atom_site_symmetry_multiplicity
 _atom_site_fract_x
 _atom_site_fract_y
 _atom_site_fract_z
 _atom_site_occupancy
  Li  Li0  1  0.00000000  0.00000000  0.00000000  1
  Li  Li1  1  0.50000000  0.50000000  0.50000000  1
  V  V2  1  0.25000000  0.25000000  0.25000000  1
  V  V3  1  0.75000000  0.25000000  0.00000000  1
  Ca  Ca4  1  0.25000000  0.75000000  0.50000000  1
  P  P5  1  0.43261580  0.68848602  0.98503444  1
  P  P6  1  0.40613681  0.63141170  0.95557493  1
  P  P7  1  0.19688749  0.82941994  0.27255127  1
  O  O8  1  0.15927468  0.10666442  0.94538882  1
  O  O9  1  0.27105491  0.37193774  0.05671900  1
  F  F10  1  0.52887533  0.07685603  0.84894912  1
