# generated using pymatgen
data_Li4Ni2As6O7
_symmetry_space_group_name_H-M   'P 1'
_cell_length_a   8.31382661
_cell_length_b   8.17082894
_cell_length_c   9.64881384
_cell_angle_alpha   90.00000000
_cell_angle_beta   90.00000000
_cell_angle_gamma   90.00000000
_symmetry_Int_Tables_number   1
_chemical_formula_structural   Li4Ni2As6O7
_chemical_formula_sum   'Li4 Ni2 As6 O7'
_cell_volume   655.45217486
_cell_formula_units_Z   1
loop_
 _symmetry_equiv_pos_site_id
 _symmetry_equiv_pos_as_xyz
  1  'x, y, z'
loop_
 _atom_site_type_symbol
 _atom_site_label
 _atom_site_symmetry_multiplicity
 _atom_site_fract_x
 _atom_site_fract_y
 _atom_site_fract_z
 _atom_site_occupancy
  Li  Li0  1  0.00000000  0.00000000  0.00000000  1
  Li  Li1  1  0.50000000  0.50000000  0.50000000  1
  Li  Li2  1  0.25000000  0.25000000  0.25000000  1
  Li  Li3  1  0.75000000  0.25000000  0.00000000  1
  Ni  Ni4  1  0.25000000  0.75000000  0.50000000  1
  Ni  Ni5  1  0.49392920  0.60862086  0.39091288  1
  O  O6  1  0.73197005  0.31294430  0.50061493  1
  O  O7  1  0.60113812  0.24133394  0.36827498  1
  O  O8  1  0.80022973  0.74612339  0.54430477  1
  O  O9  1  0.37552775  0.53774217  0.86617246  1
  O  O10  1  0.11327738  0.50688870  0.23157213  1
  O  O11  1  0.22298799  0.96255792  0.35214013  1
  O  O12  1  0.79256157  0.95426239  0.73195697  1
  As  As13  1  0.03278545  0.51713483  0.34037322  1
  As  As14  1  0.35610826  0.54402302  0.89594660  1
  As  As15  1  0.36230872  0.64051055  0.14606381  1
  As  As16  1  0.68460028  0.84823299  0.99391203  1
  As  As17  1  0.61038121  0.27155737  0.95436378  1
  As  As18  1  0.89804055  0.13630016  0.39008497  1
