# generated using pymatgen
data_Li4Al3Te6N5
_symmetry_space_group_name_H-M   'P 1'
_cell_length_a   8.28021960
_cell_length_b   9.22800262
_cell_length_c   9.42668767
_cell_angle_alpha   90.00000000
_cell_angle_beta   90.00000000
_cell_angle_gamma   90.00000000
_symmetry_Int_Tables_number   1
_chemical_formula_structural   Li4Al3Te6N5
_chemical_formula_sum   'Li4 Al3 Te6 N5'
_cell_volume   720.29215057
_cell_formula_units_Z   1
loop_
 _symmetry_equiv_pos_site_id
 _symmetry_equiv_pos_as_xyz
  1  'x, y, z'
loop_
 _atom_site_type_symbol
 _atom_site_label
 _atom_site_symmetry_multiplicity
 _atom_site_fract_x
 _atom_site_fract_y
 _atom_site_fract_z
 _atom_site_occupancy
  Li  Li0  1  0.12500000  0.12500000  0.12500000  1
  Li  Li1  1  0.50000000  0.50000000  0.50000000  1
  Li  Li2  1  0.25000000  0.25000000  0.25000000  1
  Li  Li3  1  0.75000000  0.75000000  0.75000000  1
  Al  Al4  1  0.61254902  0.79113048  0.76642075  1
  Al  Al5  1  0.58767239  0.54865572  0.62162357  1
  Al  Al6  1  0.50898096  0.34622059  0.73370879  1
  Te  Te7  1  0.22686671  0.90710209  0.98057118  1
  Te  Te8  1  0.79768771  0.29812370  0.64608394  1
  Te  Te9  1  0.22766223  0.88700340  0.54877293  1
  Te  Te10  1  0.31134548  0.12254116  0.91457591  1
  Te  Te11  1  0.30918319  0.29693866  0.16186230  1
  Te  Te12  1  0.01706155  0.76766897  0.15551264  1
  N  N13  1  0.63630637  0.97976018  0.02029176  1
  N  N14  1  0.97388919  0.16753411  0.34772721  1
  N  N15  1  0.42276052  0.21123424  0.55594258  1
  N  N16  1  0.09248285  0.27930182  0.36260158  1
  N  N17  1  0.50494955  0.37636585  0.08683593  1
