# generated using pymatgen
data_Li5PrY2O5
_symmetry_space_group_name_H-M   'P 1'
_cell_length_a   4.08941050
_cell_length_b   4.75738092
_cell_length_c   3.52353415
_cell_angle_alpha   92.52876042
_cell_angle_beta   89.78124270
_cell_angle_gamma   88.26752423
_symmetry_Int_Tables_number   1
_chemical_formula_structural   Li5PrY2O5
_chemical_formula_sum   'Li5 Pr1 Y2 O5'
_cell_volume   68.45097673
_cell_formula_units_Z   1
loop_
 _symmetry_equiv_pos_site_id
 _symmetry_equiv_pos_as_xyz
  1  'x, y, z'
loop_
 _atom_site_type_symbol
 _atom_site_label
 _atom_site_symmetry_multiplicity
 _atom_site_fract_x
 _atom_site_fract_y
 _atom_site_fract_z
 _atom_site_occupancy
  Li  Li0  1  0.00000000  0.00000000  0.00000000  1
  Li  Li1  1  0.50000000  0.50000000  0.50000000  1
  Li  Li2  1  0.50000000  0.50000000  0.00000000  1
  Li  Li3  1  0.50000000  0.00000000  0.50000000  1
  Li  Li4  1  0.00000000  0.50000000  0.50000000  1
  Y  Y5  1  0.26199068  0.93553716  0.93038440  1
  Y  Y6  1  0.93812527  0.12333740  0.04008969  1
  O  O7  1  0.50532992  0.83391488  0.81232533  1
  O  O8  1  0.54835498  0.70701644  0.43819334  1
  O  O9  1  0.33811215  0.53228964  0.47579042  1
  O  O10  1  0.03276336  0.48224953  0.43569897  1
  O  O11  1  0.92619564  0.65070496  0.28291825  1
  Pr  Pr12  1  0.48099890  0.55116312  0.76969566  1
