# generated using pymatgen
data_LiAlO2
_symmetry_space_group_name_H-M   'P 1'
_cell_length_a   8.39892288
_cell_length_b   6.89039608
_cell_length_c   7.47439101
_cell_angle_alpha   90.00000000
_cell_angle_beta   90.00000000
_cell_angle_gamma   90.00000000
_symmetry_Int_Tables_number   1
_chemical_formula_structural   LiAlO2
_chemical_formula_sum   'Li2 Al2 O4'
_cell_volume   432.55724849
_cell_formula_units_Z   2
loop_
 _symmetry_equiv_pos_site_id
 _symmetry_equiv_pos_as_xyz
  1  'x, y, z'
loop_
 _atom_site_type_symbol
 _atom_site_label
 _atom_site_symmetry_multiplicity
 _atom_site_fract_x
 _atom_site_fract_y
 _atom_site_fract_z
 _atom_site_occupancy
  Li  Li0  1  0.12500000  0.12500000  0.12500000  1
  Li  Li1  1  0.50000000  0.50000000  0.50000000  1
  Al  Al2  1  0.25000000  0.25000000  0.25000000  1
  Al  Al3  1  0.75000000  0.75000000  0.75000000  1
  O  O4  1  0.97198486  0.48148498  0.91975876  1
  O  O5  1  0.05635232  0.24314216  0.09569614  1
  O  O6  1  0.03710745  0.35910463  0.50582019  1
  O  O7  1  0.10131500  0.66280854  0.70373040  1
