# generated using pymatgen
data_Li5Te3WSe3
_symmetry_space_group_name_H-M   'P 1'
_cell_length_a   7.62212779
_cell_length_b   7.63578772
_cell_length_c   7.74295077
_cell_angle_alpha   90.00000000
_cell_angle_beta   90.00000000
_cell_angle_gamma   90.00000000
_symmetry_Int_Tables_number   1
_chemical_formula_structural   Li5Te3WSe3
_chemical_formula_sum   'Li5 Te3 W1 Se3'
_cell_volume   450.64708944
_cell_formula_units_Z   1
loop_
 _symmetry_equiv_pos_site_id
 _symmetry_equiv_pos_as_xyz
  1  'x, y, z'
loop_
 _atom_site_type_symbol
 _atom_site_label
 _atom_site_symmetry_multiplicity
 _atom_site_fract_x
 _atom_site_fract_y
 _atom_site_fract_z
 _atom_site_occupancy
  Li  Li0  1  0.12500000  0.12500000  0.12500000  1
  Li  Li1  1  0.50000000  0.50000000  0.50000000  1
  Li  Li2  1  0.25000000  0.25000000  0.25000000  1
  Li  Li3  1  0.75000000  0.75000000  0.75000000  1
  Li  Li4  1  0.56871677  0.09337987  0.22986465  1
  W  W5  1  0.55137540  0.55238583  0.92777123  1
  Te  Te6  1  0.86270296  0.88716878  0.55874746  1
  Te  Te7  1  0.96342654  0.06868516  0.15981212  1
  Te  Te8  1  0.82158498  0.57943436  0.87615275  1
  Se  Se9  1  0.33735575  0.46022094  0.13372654  1
  Se  Se10  1  0.29042674  0.93877688  0.35676588  1
  Se  Se11  1  0.75030635  0.02200958  0.04452512  1
