# generated using pymatgen
data_Rb2Li4Nb3Co3As4S
_symmetry_space_group_name_H-M   'P 1'
_cell_length_a   12.48480985
_cell_length_b   11.40653633
_cell_length_c   10.26626181
_cell_angle_alpha   90.00000000
_cell_angle_beta   90.00000000
_cell_angle_gamma   90.00000000
_symmetry_Int_Tables_number   1
_chemical_formula_structural   Rb2Li4Nb3Co3As4S
_chemical_formula_sum   'Rb2 Li4 Nb3 Co3 As4 S1'
_cell_volume   1462.00229999
_cell_formula_units_Z   1
loop_
 _symmetry_equiv_pos_site_id
 _symmetry_equiv_pos_as_xyz
  1  'x, y, z'
loop_
 _atom_site_type_symbol
 _atom_site_label
 _atom_site_symmetry_multiplicity
 _atom_site_fract_x
 _atom_site_fract_y
 _atom_site_fract_z
 _atom_site_occupancy
  Li  Li0  1  0.12500000  0.00000000  0.25000000  1
  Li  Li1  1  0.00000000  0.00000000  0.00000000  1
  Li  Li2  1  0.37500000  0.00000000  0.25000000  1
  Li  Li3  1  0.25000000  0.25000000  0.25000000  1
  Co  Co4  1  0.00000000  0.25000000  0.12500000  1
  Co  Co5  1  0.53808428  0.66622858  0.23866657  1
  Co  Co6  1  0.07777729  0.61611183  0.70687651  1
  Nb  Nb7  1  0.54498622  0.02757797  0.27860818  1
  Nb  Nb8  1  0.69573738  0.95326486  0.81612793  1
  Nb  Nb9  1  0.23446857  0.73376127  0.03509059  1
  Rb  Rb10  1  0.26312436  0.12429850  0.67759743  1
  Rb  Rb11  1  0.85921110  0.44514508  0.63905072  1
  As  As12  1  0.55050280  0.17038682  0.99888038  1
  As  As13  1  0.85955977  0.28938988  0.25937625  1
  As  As14  1  0.34584176  0.01134733  0.69174883  1
  As  As15  1  0.39883302  0.80431190  0.58231276  1
  S  S16  1  0.41631506  0.47036850  0.50234571  1
