# generated using pymatgen
data_Li2Mn3(SbP)4
_symmetry_space_group_name_H-M   'P 1'
_cell_length_a   7.57736925
_cell_length_b   8.26034177
_cell_length_c   7.54707920
_cell_angle_alpha   90.00000000
_cell_angle_beta   90.00000000
_cell_angle_gamma   90.00000000
_symmetry_Int_Tables_number   1
_chemical_formula_structural   Li2Mn3(SbP)4
_chemical_formula_sum   'Li2 Mn3 Sb4 P4'
_cell_volume   472.38421297
_cell_formula_units_Z   1
loop_
 _symmetry_equiv_pos_site_id
 _symmetry_equiv_pos_as_xyz
  1  'x, y, z'
loop_
 _atom_site_type_symbol
 _atom_site_label
 _atom_site_symmetry_multiplicity
 _atom_site_fract_x
 _atom_site_fract_y
 _atom_site_fract_z
 _atom_site_occupancy
  Li  Li0  1  0.12500000  0.12500000  0.12500000  1
  Li  Li1  1  0.50000000  0.50000000  0.50000000  1
  Mn  Mn2  1  0.25000000  0.25000000  0.25000000  1
  Mn  Mn3  1  0.75000000  0.75000000  0.75000000  1
  Mn  Mn4  1  0.27528135  0.63043317  0.71735827  1
  P  P5  1  0.35811228  0.74847060  0.65836863  1
  P  P6  1  0.30002623  0.48661450  0.35703747  1
  P  P7  1  0.23728042  0.55090775  0.17381220  1
  P  P8  1  0.94657119  0.91064380  0.15175284  1
  Sb  Sb9  1  0.51753513  0.98990188  0.86917472  1
  Sb  Sb10  1  0.74397327  0.36682389  0.81518138  1
  Sb  Sb11  1  0.09431639  0.53492582  0.72776573  1
  Sb  Sb12  1  0.72712184  0.42681830  0.58360343  1
