# generated using pymatgen
data_LiTi3As3Se4BrN4
_symmetry_space_group_name_H-M   'P 1'
_cell_length_a   3.78752264
_cell_length_b   3.09268601
_cell_length_c   3.90866497
_cell_angle_alpha   88.69887932
_cell_angle_beta   90.11191764
_cell_angle_gamma   88.93383836
_symmetry_Int_Tables_number   1
_chemical_formula_structural   LiTi3As3Se4BrN4
_chemical_formula_sum   'Li1 Ti3 As3 Se4 Br1 N4'
_cell_volume   45.76475091
_cell_formula_units_Z   1
loop_
 _symmetry_equiv_pos_site_id
 _symmetry_equiv_pos_as_xyz
  1  'x, y, z'
loop_
 _atom_site_type_symbol
 _atom_site_label
 _atom_site_symmetry_multiplicity
 _atom_site_fract_x
 _atom_site_fract_y
 _atom_site_fract_z
 _atom_site_occupancy
  Li  Li0  1  0.00000000  0.00000000  0.00000000  1
  Ti  Ti1  1  0.50000000  0.50000000  0.50000000  1
  Ti  Ti2  1  0.50000000  0.50000000  0.00000000  1
  Ti  Ti3  1  0.50000000  0.00000000  0.50000000  1
  Se  Se4  1  0.00000000  0.50000000  0.50000000  1
  Se  Se5  1  0.90521095  0.01321023  0.77409857  1
  Se  Se6  1  0.39220707  0.95607626  0.19762104  1
  Se  Se7  1  0.28992609  0.68640730  0.04692786  1
  As  As8  1  0.32111316  0.10016686  0.98744570  1
  As  As9  1  0.09660967  0.48149842  0.84642415  1
  As  As10  1  0.11544589  0.88237756  0.97536370  1
  Br  Br11  1  0.09214950  0.89965503  0.93783449  1
  N  N12  1  0.81873496  0.58794737  0.76841719  1
  N  N13  1  0.45638648  0.87252179  0.88415661  1
  N  N14  1  0.02812521  0.40349849  0.25130470  1
  N  N15  1  0.20242071  0.73005869  0.57686254  1
