# generated using pymatgen
data_LiAl3Sb4Te4O3
_symmetry_space_group_name_H-M   'P 1'
_cell_length_a   7.60432712
_cell_length_b   8.99622603
_cell_length_c   8.80735631
_cell_angle_alpha   90.00000000
_cell_angle_beta   90.00000000
_cell_angle_gamma   90.00000000
_symmetry_Int_Tables_number   1
_chemical_formula_structural   LiAl3Sb4Te4O3
_chemical_formula_sum   'Li1 Al3 Sb4 Te4 O3'
_cell_volume   602.51340769
_cell_formula_units_Z   1
loop_
 _symmetry_equiv_pos_site_id
 _symmetry_equiv_pos_as_xyz
  1  'x, y, z'
loop_
 _atom_site_type_symbol
 _atom_site_label
 _atom_site_symmetry_multiplicity
 _atom_site_fract_x
 _atom_site_fract_y
 _atom_site_fract_z
 _atom_site_occupancy
  Li  Li0  1  0.12500000  0.12500000  0.12500000  1
  Al  Al1  1  0.50000000  0.50000000  0.50000000  1
  Al  Al2  1  0.25000000  0.25000000  0.25000000  1
  Al  Al3  1  0.75000000  0.75000000  0.75000000  1
  O  O4  1  0.82799355  0.50021256  0.03507288  1
  O  O5  1  0.68746926  0.94823475  0.17746254  1
  O  O6  1  0.26774478  0.80394005  0.82869102  1
  Te  Te7  1  0.70132981  0.00516040  0.39522190  1
  Te  Te8  1  0.64541873  0.41254726  0.92981427  1
  Te  Te9  1  0.37967560  0.73515064  0.12356632  1
  Te  Te10  1  0.20905876  0.98636461  0.74258753  1
  Sb  Sb11  1  0.44664865  0.20396763  0.78639358  1
  Sb  Sb12  1  0.22984499  0.53503755  0.67171734  1
  Sb  Sb13  1  0.83019611  0.93785533  0.70376347  1
  Sb  Sb14  1  0.05184641  0.26026165  0.99976190  1
