# generated using pymatgen
data_Li5Sc2Al3SiBr
_symmetry_space_group_name_H-M   'P 1'
_cell_length_a   12.74622594
_cell_length_b   11.88387550
_cell_length_c   14.13386422
_cell_angle_alpha   90.00000000
_cell_angle_beta   90.00000000
_cell_angle_gamma   90.00000000
_symmetry_Int_Tables_number   1
_chemical_formula_structural   Li5Sc2Al3SiBr
_chemical_formula_sum   'Li5 Sc2 Al3 Si1 Br1'
_cell_volume   2140.92089579
_cell_formula_units_Z   1
loop_
 _symmetry_equiv_pos_site_id
 _symmetry_equiv_pos_as_xyz
  1  'x, y, z'
loop_
 _atom_site_type_symbol
 _atom_site_label
 _atom_site_symmetry_multiplicity
 _atom_site_fract_x
 _atom_site_fract_y
 _atom_site_fract_z
 _atom_site_occupancy
  Li  Li0  1  0.12500000  0.00000000  0.25000000  1
  Li  Li1  1  0.00000000  0.00000000  0.00000000  1
  Li  Li2  1  0.37500000  0.00000000  0.25000000  1
  Li  Li3  1  0.25000000  0.25000000  0.25000000  1
  Li  Li4  1  0.00000000  0.25000000  0.12500000  1
  Sc  Sc5  1  0.51680356  0.47033105  0.94344063  1
  Sc  Sc6  1  0.93553504  0.83004855  0.07062656  1
  Al  Al7  1  0.02200926  0.25379318  0.11459771  1
  Al  Al8  1  0.00285778  0.49670841  0.82638519  1
  Al  Al9  1  0.59391623  0.49957174  0.57109342  1
  Si  Si10  1  0.36652126  0.55765074  0.22935174  1
  Br  Br11  1  0.85955317  0.57465208  0.64762688  1
