# generated using pymatgen
data_Li2LaSe4(I2O)2
_symmetry_space_group_name_H-M   'P 1'
_cell_length_a   4.39545158
_cell_length_b   4.80104279
_cell_length_c   4.01224613
_cell_angle_alpha   93.41486737
_cell_angle_beta   94.27461950
_cell_angle_gamma   87.75844554
_symmetry_Int_Tables_number   1
_chemical_formula_structural   Li2LaSe4(I2O)2
_chemical_formula_sum   'Li2 La1 Se4 I4 O2'
_cell_volume   84.23283895
_cell_formula_units_Z   1
loop_
 _symmetry_equiv_pos_site_id
 _symmetry_equiv_pos_as_xyz
  1  'x, y, z'
loop_
 _atom_site_type_symbol
 _atom_site_label
 _atom_site_symmetry_multiplicity
 _atom_site_fract_x
 _atom_site_fract_y
 _atom_site_fract_z
 _atom_site_occupancy
  Li  Li0  1  0.00000000  0.00000000  0.00000000  1
  Li  Li1  1  0.50000000  0.50000000  0.50000000  1
  La  La2  1  0.50000000  0.50000000  0.00000000  1
  O  O3  1  0.50000000  0.00000000  0.50000000  1
  O  O4  1  0.00000000  0.50000000  0.50000000  1
  Se  Se5  1  0.74536282  0.04784806  0.22684867  1
  Se  Se6  1  0.31464900  0.65071359  0.15878604  1
  Se  Se7  1  0.63917976  0.70186282  0.58709880  1
  Se  Se8  1  0.20281545  0.53661313  0.81548823  1
  I  I9  1  0.98158281  0.87160073  0.83017435  1
  I  I10  1  0.51515570  0.72281486  0.15776170  1
  I  I11  1  0.65814491  0.49291167  0.11306823  1
  I  I12  1  0.47482741  0.65344643  0.97874927  1
