# generated using pymatgen
data_Li3TiTe2Se4IBr5
_symmetry_space_group_name_H-M   'P 1'
_cell_length_a   8.16332338
_cell_length_b   7.71765427
_cell_length_c   7.40906277
_cell_angle_alpha   90.00000000
_cell_angle_beta   90.00000000
_cell_angle_gamma   90.00000000
_symmetry_Int_Tables_number   1
_chemical_formula_structural   Li3TiTe2Se4IBr5
_chemical_formula_sum   'Li3 Ti1 Te2 Se4 I1 Br5'
_cell_volume   466.78360621
_cell_formula_units_Z   1
loop_
 _symmetry_equiv_pos_site_id
 _symmetry_equiv_pos_as_xyz
  1  'x, y, z'
loop_
 _atom_site_type_symbol
 _atom_site_label
 _atom_site_symmetry_multiplicity
 _atom_site_fract_x
 _atom_site_fract_y
 _atom_site_fract_z
 _atom_site_occupancy
  Li  Li0  1  0.00000000  0.00000000  0.00000000  1
  Li  Li1  1  0.50000000  0.50000000  0.50000000  1
  Li  Li2  1  0.25000000  0.25000000  0.25000000  1
  Ti  Ti3  1  0.75000000  0.25000000  0.00000000  1
  I  I4  1  0.25000000  0.75000000  0.50000000  1
  Se  Se5  1  0.83230872  0.19842378  0.35365226  1
  Se  Se6  1  0.51588273  0.26014366  0.32104444  1
  Se  Se7  1  0.89400781  0.01984688  0.70025253  1
  Se  Se8  1  0.05774945  0.43117752  0.50998796  1
  Br  Br9  1  0.98009256  0.72666366  0.79089687  1
  Br  Br10  1  0.64968468  0.03211741  0.24387730  1
  Br  Br11  1  0.28188540  0.87700888  0.55527102  1
  Br  Br12  1  0.64504986  0.40525203  0.30610125  1
  Br  Br13  1  0.41214002  0.60487200  0.76113126  1
  Te  Te14  1  0.71207327  0.48996062  0.03213179  1
  Te  Te15  1  0.29266993  0.33591750  0.10767590  1
