# generated using pymatgen
data_Li5Fe2S2O3
_symmetry_space_group_name_H-M   'P 1'
_cell_length_a   8.90165915
_cell_length_b   10.17441983
_cell_length_c   7.59261076
_cell_angle_alpha   90.00000000
_cell_angle_beta   90.00000000
_cell_angle_gamma   90.00000000
_symmetry_Int_Tables_number   1
_chemical_formula_structural   Li5Fe2S2O3
_chemical_formula_sum   'Li5 Fe2 S2 O3'
_cell_volume   687.65681442
_cell_formula_units_Z   1
loop_
 _symmetry_equiv_pos_site_id
 _symmetry_equiv_pos_as_xyz
  1  'x, y, z'
loop_
 _atom_site_type_symbol
 _atom_site_label
 _atom_site_symmetry_multiplicity
 _atom_site_fract_x
 _atom_site_fract_y
 _atom_site_fract_z
 _atom_site_occupancy
  Li  Li0  1  0.00000000  0.00000000  0.00000000  1
  Li  Li1  1  0.50000000  0.50000000  0.50000000  1
  Li  Li2  1  0.25000000  0.25000000  0.25000000  1
  Li  Li3  1  0.75000000  0.25000000  0.00000000  1
  Li  Li4  1  0.25000000  0.75000000  0.50000000  1
  Fe  Fe5  1  0.80450683  0.67542570  0.44229499  1
  Fe  Fe6  1  0.73498213  0.86028327  0.29894494  1
  S  S7  1  0.58442326  0.45111466  0.55167400  1
  S  S8  1  0.22301830  0.34967205  0.12829825  1
  O  O9  1  0.00679681  0.30792138  0.49471149  1
  O  O10  1  0.92986464  0.09061067  0.63064810  1
  O  O11  1  0.69276232  0.13368645  0.65675783  1
