# generated using pymatgen
data_Li2(ScI2)3
_symmetry_space_group_name_H-M   'P 1'
_cell_length_a   3.06976120
_cell_length_b   3.43644334
_cell_length_c   6.56689606
_cell_angle_alpha   93.39765490
_cell_angle_beta   114.47245715
_cell_angle_gamma   101.58230486
_symmetry_Int_Tables_number   1
_chemical_formula_structural   Li2(ScI2)3
_chemical_formula_sum   'Li2 Sc3 I6'
_cell_volume   60.97385367
_cell_formula_units_Z   1
loop_
 _symmetry_equiv_pos_site_id
 _symmetry_equiv_pos_as_xyz
  1  'x, y, z'
loop_
 _atom_site_type_symbol
 _atom_site_label
 _atom_site_symmetry_multiplicity
 _atom_site_fract_x
 _atom_site_fract_y
 _atom_site_fract_z
 _atom_site_occupancy
  Li  Li0  1  0.00000000  0.00000000  0.00000000  1
  Li  Li1  1  0.33300000  0.66700000  0.25000000  1
  Sc  Sc2  1  0.66700000  0.33300000  0.50000000  1
  Sc  Sc3  1  0.00000000  0.00000000  0.75000000  1
  Sc  Sc4  1  0.96537169  0.74708812  0.01269842  1
  I  I5  1  0.01968896  0.60218446  0.53706245  1
  I  I6  1  0.85795341  0.49292399  0.27379667  1
  I  I7  1  0.78712999  0.33265278  0.20163617  1
  I  I8  1  0.35447148  0.01754323  0.67041003  1
  I  I9  1  0.10519813  0.99328328  0.62425157  1
  I  I10  1  0.66852664  0.97752335  0.29442984  1
