# generated using pymatgen
data_Li3TaSb2Se4O
_symmetry_space_group_name_H-M   'P 1'
_cell_length_a   8.49163105
_cell_length_b   8.09823681
_cell_length_c   6.98717104
_cell_angle_alpha   90.00000000
_cell_angle_beta   90.00000000
_cell_angle_gamma   90.00000000
_symmetry_Int_Tables_number   1
_chemical_formula_structural   Li3TaSb2Se4O
_chemical_formula_sum   'Li3 Ta1 Sb2 Se4 O1'
_cell_volume   480.48846183
_cell_formula_units_Z   1
loop_
 _symmetry_equiv_pos_site_id
 _symmetry_equiv_pos_as_xyz
  1  'x, y, z'
loop_
 _atom_site_type_symbol
 _atom_site_label
 _atom_site_symmetry_multiplicity
 _atom_site_fract_x
 _atom_site_fract_y
 _atom_site_fract_z
 _atom_site_occupancy
  Li  Li0  1  0.00000000  0.00000000  0.00000000  1
  Li  Li1  1  0.50000000  0.50000000  0.50000000  1
  Li  Li2  1  0.25000000  0.25000000  0.25000000  1
  Ta  Ta3  1  0.75000000  0.25000000  0.00000000  1
  Se  Se4  1  0.25000000  0.75000000  0.50000000  1
  Se  Se5  1  0.33774448  0.46267804  0.62766094  1
  Se  Se6  1  0.03679117  0.32072432  0.34904317  1
  Se  Se7  1  0.92674553  0.93867036  0.41575917  1
  Sb  Sb8  1  0.84960600  0.76148160  0.78552846  1
  Sb  Sb9  1  0.61660026  0.72428468  0.58256109  1
  O  O10  1  0.09596421  0.12590536  0.71157682  1
