# generated using pymatgen
data_Li6Al2O3F5
_symmetry_space_group_name_H-M   'P 1'
_cell_length_a   8.04697859
_cell_length_b   8.25910446
_cell_length_c   9.18563463
_cell_angle_alpha   90.00000000
_cell_angle_beta   90.00000000
_cell_angle_gamma   90.00000000
_symmetry_Int_Tables_number   1
_chemical_formula_structural   Li6Al2O3F5
_chemical_formula_sum   'Li6 Al2 O3 F5'
_cell_volume   610.48496362
_cell_formula_units_Z   1
loop_
 _symmetry_equiv_pos_site_id
 _symmetry_equiv_pos_as_xyz
  1  'x, y, z'
loop_
 _atom_site_type_symbol
 _atom_site_label
 _atom_site_symmetry_multiplicity
 _atom_site_fract_x
 _atom_site_fract_y
 _atom_site_fract_z
 _atom_site_occupancy
  Li  Li0  1  0.12500000  0.12500000  0.12500000  1
  Li  Li1  1  0.50000000  0.50000000  0.50000000  1
  Li  Li2  1  0.25000000  0.25000000  0.25000000  1
  Li  Li3  1  0.75000000  0.75000000  0.75000000  1
  Li  Li4  1  0.47043724  0.51398353  0.78053801  1
  Li  Li5  1  0.04152614  0.26634525  0.09903822  1
  Al  Al6  1  0.07751040  0.99760282  0.01229632  1
  Al  Al7  1  0.59858828  0.21346913  0.72303632  1
  O  O8  1  0.89846112  0.16023858  0.13943780  1
  O  O9  1  0.84148272  0.47669770  0.34568886  1
  O  O10  1  0.28919167  0.01300398  0.94562879  1
  F  F11  1  0.17707372  0.49950699  0.08486049  1
  F  F12  1  0.03797870  0.13296398  0.16098723  1
  F  F13  1  0.56564280  0.39665041  0.07094744  1
  F  F14  1  0.57754805  0.45203794  0.22832473  1
  F  F15  1  0.67431471  0.55698664  0.13846386  1
