# generated using pymatgen
data_LiYMg2Mn2(SiSb2)2
_symmetry_space_group_name_H-M   'P 1'
_cell_length_a   12.04462699
_cell_length_b   11.85237870
_cell_length_c   10.52668525
_cell_angle_alpha   90.00000000
_cell_angle_beta   90.00000000
_cell_angle_gamma   90.00000000
_symmetry_Int_Tables_number   1
_chemical_formula_structural   LiYMg2Mn2(SiSb2)2
_chemical_formula_sum   'Li1 Y1 Mg2 Mn2 Si2 Sb4'
_cell_volume   1502.76306249
_cell_formula_units_Z   1
loop_
 _symmetry_equiv_pos_site_id
 _symmetry_equiv_pos_as_xyz
  1  'x, y, z'
loop_
 _atom_site_type_symbol
 _atom_site_label
 _atom_site_symmetry_multiplicity
 _atom_site_fract_x
 _atom_site_fract_y
 _atom_site_fract_z
 _atom_site_occupancy
  Li  Li0  1  0.12500000  0.00000000  0.25000000  1
  Mg  Mg1  1  0.00000000  0.00000000  0.00000000  1
  Mg  Mg2  1  0.37500000  0.00000000  0.25000000  1
  Mn  Mn3  1  0.25000000  0.25000000  0.25000000  1
  Mn  Mn4  1  0.00000000  0.25000000  0.12500000  1
  Y  Y5  1  0.22452129  0.90024908  0.07431312  1
  Si  Si6  1  0.07139430  0.49224291  0.88958077  1
  Si  Si7  1  0.09629147  0.52102726  0.44273745  1
  Sb  Sb8  1  0.70315776  0.79870181  0.68100385  1
  Sb  Sb9  1  0.01691160  0.02365470  0.03440160  1
  Sb  Sb10  1  0.45359417  0.38303368  0.88209637  1
  Sb  Sb11  1  0.50829110  0.22586559  0.54646330  1
