# generated using pymatgen
data_Li3Ti2S3
_symmetry_space_group_name_H-M   'P 1'
_cell_length_a   3.22929393
_cell_length_b   3.37807254
_cell_length_c   5.23861873
_cell_angle_alpha   98.80592354
_cell_angle_beta   95.49773170
_cell_angle_gamma   109.00365412
_symmetry_Int_Tables_number   1
_chemical_formula_structural   Li3Ti2S3
_chemical_formula_sum   'Li3 Ti2 S3'
_cell_volume   52.74265884
_cell_formula_units_Z   1
loop_
 _symmetry_equiv_pos_site_id
 _symmetry_equiv_pos_as_xyz
  1  'x, y, z'
loop_
 _atom_site_type_symbol
 _atom_site_label
 _atom_site_symmetry_multiplicity
 _atom_site_fract_x
 _atom_site_fract_y
 _atom_site_fract_z
 _atom_site_occupancy
  Li  Li0  1  0.00000000  0.00000000  0.00000000  1
  Li  Li1  1  0.33300000  0.66700000  0.25000000  1
  Li  Li2  1  0.66700000  0.33300000  0.50000000  1
  Ti  Ti3  1  0.00000000  0.00000000  0.75000000  1
  Ti  Ti4  1  0.41850955  0.31903497  0.23372041  1
  S  S5  1  0.12786993  0.50448221  0.34685472  1
  S  S6  1  0.39754565  0.21288498  0.36991462  1
  S  S7  1  0.27875595  0.45776487  0.60231866  1
