# generated using pymatgen
data_SrLi3Ti2(Te3O)2
_symmetry_space_group_name_H-M   'P 1'
_cell_length_a   4.46977425
_cell_length_b   4.03295964
_cell_length_c   4.15931307
_cell_angle_alpha   87.56274562
_cell_angle_beta   90.78179353
_cell_angle_gamma   93.22698338
_symmetry_Int_Tables_number   1
_chemical_formula_structural   SrLi3Ti2(Te3O)2
_chemical_formula_sum   'Sr1 Li3 Ti2 Te6 O2'
_cell_volume   74.78615876
_cell_formula_units_Z   1
loop_
 _symmetry_equiv_pos_site_id
 _symmetry_equiv_pos_as_xyz
  1  'x, y, z'
loop_
 _atom_site_type_symbol
 _atom_site_label
 _atom_site_symmetry_multiplicity
 _atom_site_fract_x
 _atom_site_fract_y
 _atom_site_fract_z
 _atom_site_occupancy
  Li  Li0  1  0.00000000  0.00000000  0.00000000  1
  Li  Li1  1  0.50000000  0.50000000  0.50000000  1
  Li  Li2  1  0.50000000  0.50000000  0.00000000  1
  Ti  Ti3  1  0.50000000  0.00000000  0.50000000  1
  Ti  Ti4  1  0.00000000  0.50000000  0.50000000  1
  O  O5  1  0.72404865  0.57134577  0.18401601  1
  O  O6  1  0.63608301  0.30153913  0.78925350  1
  Te  Te7  1  0.08878248  0.25224498  0.35213936  1
  Te  Te8  1  0.34530482  0.89344555  0.96860168  1
  Te  Te9  1  0.90434159  0.17781383  0.41711502  1
  Te  Te10  1  0.44014359  0.28943905  0.13719892  1
  Te  Te11  1  0.15139570  0.73629094  0.00576417  1
  Te  Te12  1  0.19900224  0.36179328  0.82684503  1
  Sr  Sr13  1  0.81157244  0.34576340  0.38361317  1
