# generated using pymatgen
data_Li5Ca3Te(AsN)3
_symmetry_space_group_name_H-M   'P 1'
_cell_length_a   8.79845463
_cell_length_b   7.85683985
_cell_length_c   7.26418552
_cell_angle_alpha   90.00000000
_cell_angle_beta   90.00000000
_cell_angle_gamma   90.00000000
_symmetry_Int_Tables_number   1
_chemical_formula_structural   Li5Ca3Te(AsN)3
_chemical_formula_sum   'Li5 Ca3 Te1 As3 N3'
_cell_volume   502.15897234
_cell_formula_units_Z   1
loop_
 _symmetry_equiv_pos_site_id
 _symmetry_equiv_pos_as_xyz
  1  'x, y, z'
loop_
 _atom_site_type_symbol
 _atom_site_label
 _atom_site_symmetry_multiplicity
 _atom_site_fract_x
 _atom_site_fract_y
 _atom_site_fract_z
 _atom_site_occupancy
  Li  Li0  1  0.00000000  0.00000000  0.00000000  1
  Li  Li1  1  0.50000000  0.50000000  0.50000000  1
  Li  Li2  1  0.25000000  0.25000000  0.25000000  1
  Li  Li3  1  0.75000000  0.25000000  0.00000000  1
  Li  Li4  1  0.25000000  0.75000000  0.50000000  1
  Ca  Ca5  1  0.67649885  0.55592153  0.72479446  1
  Ca  Ca6  1  0.51096496  0.14455361  0.45486739  1
  Ca  Ca7  1  0.19593554  0.00311380  0.14696804  1
  N  N8  1  0.53919396  0.75771450  0.31774378  1
  N  N9  1  0.43549789  0.28678107  0.44695713  1
  N  N10  1  0.18161846  0.56498688  0.21747522  1
  As  As11  1  0.93574250  0.12931232  0.41516067  1
  As  As12  1  0.55754682  0.27271939  0.96595211  1
  As  As13  1  0.25786037  0.88201245  0.34284825  1
  Te  Te14  1  0.04586868  0.14735325  0.57766782  1
