# generated using pymatgen
data_LiAl2(Br2Cl)2
_symmetry_space_group_name_H-M   'P 1'
_cell_length_a   7.57561983
_cell_length_b   6.24911579
_cell_length_c   8.91480117
_cell_angle_alpha   90.00000000
_cell_angle_beta   90.00000000
_cell_angle_gamma   90.00000000
_symmetry_Int_Tables_number   1
_chemical_formula_structural   LiAl2(Br2Cl)2
_chemical_formula_sum   'Li1 Al2 Br4 Cl2'
_cell_volume   422.03493799
_cell_formula_units_Z   1
loop_
 _symmetry_equiv_pos_site_id
 _symmetry_equiv_pos_as_xyz
  1  'x, y, z'
loop_
 _atom_site_type_symbol
 _atom_site_label
 _atom_site_symmetry_multiplicity
 _atom_site_fract_x
 _atom_site_fract_y
 _atom_site_fract_z
 _atom_site_occupancy
  Li  Li0  1  0.12500000  0.12500000  0.12500000  1
  Al  Al1  1  0.50000000  0.50000000  0.50000000  1
  Al  Al2  1  0.25000000  0.25000000  0.25000000  1
  Br  Br3  1  0.75000000  0.75000000  0.75000000  1
  Br  Br4  1  0.62921863  0.79912041  0.24538841  1
  Br  Br5  1  0.42206645  0.14289345  0.52468088  1
  Br  Br6  1  0.60497987  0.11905885  0.34803357  1
  Cl  Cl7  1  0.66751721  0.61122928  0.05330504  1
  Cl  Cl8  1  0.47816529  0.84857769  0.01704643  1
