# generated using pymatgen
data_Li2Nb2Al2As(OF2)3
_symmetry_space_group_name_H-M   'P 1'
_cell_length_a   8.83444709
_cell_length_b   9.21224732
_cell_length_c   8.60491216
_cell_angle_alpha   90.00000000
_cell_angle_beta   90.00000000
_cell_angle_gamma   90.00000000
_symmetry_Int_Tables_number   1
_chemical_formula_structural   Li2Nb2Al2As(OF2)3
_chemical_formula_sum   'Li2 Nb2 Al2 As1 O3 F6'
_cell_volume   700.31173626
_cell_formula_units_Z   1
loop_
 _symmetry_equiv_pos_site_id
 _symmetry_equiv_pos_as_xyz
  1  'x, y, z'
loop_
 _atom_site_type_symbol
 _atom_site_label
 _atom_site_symmetry_multiplicity
 _atom_site_fract_x
 _atom_site_fract_y
 _atom_site_fract_z
 _atom_site_occupancy
  Li  Li0  1  0.00000000  0.00000000  0.00000000  1
  Li  Li1  1  0.50000000  0.50000000  0.50000000  1
  Nb  Nb2  1  0.25000000  0.25000000  0.25000000  1
  Nb  Nb3  1  0.75000000  0.25000000  0.00000000  1
  Al  Al4  1  0.25000000  0.75000000  0.50000000  1
  Al  Al5  1  0.77562218  0.91098267  0.46929628  1
  F  F6  1  0.51189178  0.20761029  0.52313330  1
  F  F7  1  0.22559979  0.84984282  0.58646380  1
  F  F8  1  0.24146790  0.86051464  0.10076288  1
  F  F9  1  0.91541946  0.02562722  0.94534421  1
  F  F10  1  0.27577601  0.66616190  0.68612894  1
  F  F11  1  0.09236478  0.04271061  0.03212148  1
  As  As12  1  0.56271313  0.15870043  0.06789943  1
  O  O13  1  0.57681311  0.02194003  0.84704470  1
  O  O14  1  0.57342554  0.19561030  0.27664612  1
  O  O15  1  0.28581882  0.68871591  0.93441594  1
