# generated using pymatgen
data_LiLa2Si3(MoO2)3
_symmetry_space_group_name_H-M   'P 1'
_cell_length_a   12.17262182
_cell_length_b   10.94897770
_cell_length_c   11.95567648
_cell_angle_alpha   90.00000000
_cell_angle_beta   90.00000000
_cell_angle_gamma   90.00000000
_symmetry_Int_Tables_number   1
_chemical_formula_structural   LiLa2Si3(MoO2)3
_chemical_formula_sum   'Li1 La2 Si3 Mo3 O6'
_cell_volume   1593.42583823
_cell_formula_units_Z   1
loop_
 _symmetry_equiv_pos_site_id
 _symmetry_equiv_pos_as_xyz
  1  'x, y, z'
loop_
 _atom_site_type_symbol
 _atom_site_label
 _atom_site_symmetry_multiplicity
 _atom_site_fract_x
 _atom_site_fract_y
 _atom_site_fract_z
 _atom_site_occupancy
  Li  Li0  1  0.12500000  0.00000000  0.25000000  1
  La  La1  1  0.00000000  0.00000000  0.00000000  1
  La  La2  1  0.37500000  0.00000000  0.25000000  1
  Mo  Mo3  1  0.25000000  0.25000000  0.25000000  1
  Mo  Mo4  1  0.00000000  0.25000000  0.12500000  1
  Mo  Mo5  1  0.56942238  0.38704467  0.59861952  1
  Si  Si6  1  0.91152138  0.58156020  0.90431231  1
  Si  Si7  1  0.64499056  0.80459521  0.11604050  1
  Si  Si8  1  0.55258593  0.20216585  0.11572056  1
  O  O9  1  0.91711683  0.06218246  0.30258865  1
  O  O10  1  0.50387278  0.09380213  0.36536699  1
  O  O11  1  0.30205316  0.52137581  0.14209080  1
  O  O12  1  0.21672406  0.62227306  0.37745415  1
  O  O13  1  0.69390987  0.68371605  0.08180038  1
  O  O14  1  0.31223357  0.94892230  0.40292146  1
