# generated using pymatgen
data_LiSmAl3Sb3PBr4
_symmetry_space_group_name_H-M   'P 1'
_cell_length_a   8.05042718
_cell_length_b   7.61922195
_cell_length_c   7.93170505
_cell_angle_alpha   90.00000000
_cell_angle_beta   90.00000000
_cell_angle_gamma   90.00000000
_symmetry_Int_Tables_number   1
_chemical_formula_structural   LiSmAl3Sb3PBr4
_chemical_formula_sum   'Li1 Sm1 Al3 Sb3 P1 Br4'
_cell_volume   486.51485675
_cell_formula_units_Z   1
loop_
 _symmetry_equiv_pos_site_id
 _symmetry_equiv_pos_as_xyz
  1  'x, y, z'
loop_
 _atom_site_type_symbol
 _atom_site_label
 _atom_site_symmetry_multiplicity
 _atom_site_fract_x
 _atom_site_fract_y
 _atom_site_fract_z
 _atom_site_occupancy
  Li  Li0  1  0.12500000  0.12500000  0.12500000  1
  Al  Al1  1  0.50000000  0.50000000  0.50000000  1
  Al  Al2  1  0.25000000  0.25000000  0.25000000  1
  Al  Al3  1  0.75000000  0.75000000  0.75000000  1
  Sb  Sb4  1  0.47334985  0.96533752  0.56091136  1
  Sb  Sb5  1  0.66245626  0.83220066  0.27166549  1
  Sb  Sb6  1  0.47649165  0.83571099  0.29699804  1
  Br  Br7  1  0.08022295  0.41014180  0.91531703  1
  Br  Br8  1  0.13162025  0.03849125  0.56971896  1
  Br  Br9  1  0.46345378  0.47774696  0.14014018  1
  Br  Br10  1  0.66890945  0.41878287  0.94606854  1
  P  P11  1  0.19520972  0.76035763  0.09450747  1
  Sm  Sm12  1  0.65346121  0.59372324  0.64651105  1
