# generated using pymatgen
data_Li2NiSb(As2O)2
_symmetry_space_group_name_H-M   'P 1'
_cell_length_a   4.36747261
_cell_length_b   4.47019256
_cell_length_c   4.30499760
_cell_angle_alpha   94.30610109
_cell_angle_beta   88.72725386
_cell_angle_gamma   85.91397309
_symmetry_Int_Tables_number   1
_chemical_formula_structural   Li2NiSb(As2O)2
_chemical_formula_sum   'Li2 Ni1 Sb1 As4 O2'
_cell_volume   83.56598698
_cell_formula_units_Z   1
loop_
 _symmetry_equiv_pos_site_id
 _symmetry_equiv_pos_as_xyz
  1  'x, y, z'
loop_
 _atom_site_type_symbol
 _atom_site_label
 _atom_site_symmetry_multiplicity
 _atom_site_fract_x
 _atom_site_fract_y
 _atom_site_fract_z
 _atom_site_occupancy
  Li  Li0  1  0.00000000  0.00000000  0.00000000  1
  Li  Li1  1  0.50000000  0.50000000  0.50000000  1
  Ni  Ni2  1  0.50000000  0.50000000  0.00000000  1
  As  As3  1  0.50000000  0.00000000  0.50000000  1
  As  As4  1  0.00000000  0.50000000  0.50000000  1
  As  As5  1  0.30930468  0.40492744  0.00899824  1
  As  As6  1  0.66941472  0.68878949  0.74008297  1
  O  O7  1  0.47585396  0.01026425  0.07603310  1
  O  O8  1  0.47944257  0.62847799  0.25335723  1
  Sb  Sb9  1  0.16144226  0.97788682  0.54541997  1
