# generated using pymatgen
data_Li6CaSnS6
_symmetry_space_group_name_H-M   'P 1'
_cell_length_a   3.74528304
_cell_length_b   4.13491556
_cell_length_c   6.28703479
_cell_angle_alpha   104.05140007
_cell_angle_beta   118.31066602
_cell_angle_gamma   102.48455049
_symmetry_Int_Tables_number   1
_chemical_formula_structural   Li6CaSnS6
_chemical_formula_sum   'Li6 Ca1 Sn1 S6'
_cell_volume   76.64086454
_cell_formula_units_Z   1
loop_
 _symmetry_equiv_pos_site_id
 _symmetry_equiv_pos_as_xyz
  1  'x, y, z'
loop_
 _atom_site_type_symbol
 _atom_site_label
 _atom_site_symmetry_multiplicity
 _atom_site_fract_x
 _atom_site_fract_y
 _atom_site_fract_z
 _atom_site_occupancy
  Li  Li0  1  0.00000000  0.00000000  0.00000000  1
  Li  Li1  1  0.33300000  0.66700000  0.25000000  1
  Li  Li2  1  0.66700000  0.33300000  0.50000000  1
  Li  Li3  1  0.00000000  0.00000000  0.75000000  1
  Li  Li4  1  0.70497870  0.99965484  0.81045251  1
  Li  Li5  1  0.95634381  0.02204097  0.32529626  1
  Ca  Ca6  1  0.18690712  0.43645261  0.75277796  1
  S  S7  1  0.83650693  0.33726807  0.78460773  1
  S  S8  1  0.75682629  0.09113578  0.12876398  1
  S  S9  1  0.48266230  0.81352995  0.47413154  1
  S  S10  1  0.45797835  0.73519005  0.55492962  1
  S  S11  1  0.32252271  0.48495463  0.93096293  1
  S  S12  1  0.02315335  0.42071518  0.53416793  1
  Sn  Sn13  1  0.23628058  0.94387266  0.67412516  1
