# generated using pymatgen
data_Li2Ni2NO8
_symmetry_space_group_name_H-M   'P 1'
_cell_length_a   4.04205278
_cell_length_b   4.56039829
_cell_length_c   4.46287513
_cell_angle_alpha   88.27506333
_cell_angle_beta   88.04620301
_cell_angle_gamma   89.59735455
_symmetry_Int_Tables_number   1
_chemical_formula_structural   Li2Ni2NO8
_chemical_formula_sum   'Li2 Ni2 N1 O8'
_cell_volume   82.17926568
_cell_formula_units_Z   1
loop_
 _symmetry_equiv_pos_site_id
 _symmetry_equiv_pos_as_xyz
  1  'x, y, z'
loop_
 _atom_site_type_symbol
 _atom_site_label
 _atom_site_symmetry_multiplicity
 _atom_site_fract_x
 _atom_site_fract_y
 _atom_site_fract_z
 _atom_site_occupancy
  Li  Li0  1  0.00000000  0.00000000  0.00000000  1
  Li  Li1  1  0.50000000  0.50000000  0.50000000  1
  Ni  Ni2  1  0.50000000  0.50000000  0.00000000  1
  Ni  Ni3  1  0.50000000  0.00000000  0.50000000  1
  O  O4  1  0.00000000  0.50000000  0.50000000  1
  O  O5  1  0.34500565  0.62561726  0.33180436  1
  O  O6  1  0.29915720  0.56042904  0.72599269  1
  O  O7  1  0.60164877  0.46021221  0.26833704  1
  O  O8  1  0.50160852  0.61919467  0.10901068  1
  O  O9  1  0.25192864  0.34881804  0.00296862  1
  O  O10  1  0.23075097  0.54248957  0.16975428  1
  O  O11  1  0.57217809  0.64483043  0.35287021  1
  N  N12  1  0.47467215  0.73491814  0.21249017  1
