# generated using pymatgen
data_Li2TiBr
_symmetry_space_group_name_H-M   'P 1'
_cell_length_a   3.07401364
_cell_length_b   3.51875438
_cell_length_c   6.38713276
_cell_angle_alpha   103.40340321
_cell_angle_beta   98.32385625
_cell_angle_gamma   106.59687186
_symmetry_Int_Tables_number   1
_chemical_formula_structural   Li2TiBr
_chemical_formula_sum   'Li2 Ti1 Br1'
_cell_volume   62.73487896
_cell_formula_units_Z   1
loop_
 _symmetry_equiv_pos_site_id
 _symmetry_equiv_pos_as_xyz
  1  'x, y, z'
loop_
 _atom_site_type_symbol
 _atom_site_label
 _atom_site_symmetry_multiplicity
 _atom_site_fract_x
 _atom_site_fract_y
 _atom_site_fract_z
 _atom_site_occupancy
  Li  Li0  1  0.00000000  0.00000000  0.00000000  1
  Li  Li1  1  0.33300000  0.66700000  0.25000000  1
  Ti  Ti2  1  0.66700000  0.33300000  0.50000000  1
  Br  Br3  1  0.00000000  0.00000000  0.75000000  1
