# generated using pymatgen
data_Li6LaZnCuCO3
_symmetry_space_group_name_H-M   'P 1'
_cell_length_a   12.11176345
_cell_length_b   10.78401340
_cell_length_c   13.04374926
_cell_angle_alpha   90.00000000
_cell_angle_beta   90.00000000
_cell_angle_gamma   90.00000000
_symmetry_Int_Tables_number   1
_chemical_formula_structural   Li6LaZnCuCO3
_chemical_formula_sum   'Li6 La1 Zn1 Cu1 C1 O3'
_cell_volume   1703.68869160
_cell_formula_units_Z   1
loop_
 _symmetry_equiv_pos_site_id
 _symmetry_equiv_pos_as_xyz
  1  'x, y, z'
loop_
 _atom_site_type_symbol
 _atom_site_label
 _atom_site_symmetry_multiplicity
 _atom_site_fract_x
 _atom_site_fract_y
 _atom_site_fract_z
 _atom_site_occupancy
  Li  Li0  1  0.12500000  0.00000000  0.25000000  1
  Li  Li1  1  0.00000000  0.00000000  0.00000000  1
  Li  Li2  1  0.37500000  0.00000000  0.25000000  1
  Li  Li3  1  0.25000000  0.25000000  0.25000000  1
  Li  Li4  1  0.00000000  0.25000000  0.12500000  1
  Li  Li5  1  0.28916563  0.03339459  0.41669942  1
  La  La6  1  0.37167684  0.28916403  0.70927075  1
  Zn  Zn7  1  0.94923207  0.39140852  0.35708909  1
  Cu  Cu8  1  0.48359277  0.57063857  0.86490332  1
  C  C9  1  0.52418624  0.92873333  0.70214185  1
  O  O10  1  0.39585342  0.41000043  0.18599694  1
  O  O11  1  0.96100754  0.66720163  0.63171007  1
  O  O12  1  0.62527430  0.55409892  0.78444812  1
