# generated using pymatgen
data_LiMo2P3OF4
_symmetry_space_group_name_H-M   'P 1'
_cell_length_a   4.37027406
_cell_length_b   3.94257844
_cell_length_c   4.38002483
_cell_angle_alpha   90.25021025
_cell_angle_beta   85.87012343
_cell_angle_gamma   88.32615995
_symmetry_Int_Tables_number   1
_chemical_formula_structural   LiMo2P3OF4
_chemical_formula_sum   'Li1 Mo2 P3 O1 F4'
_cell_volume   75.23880986
_cell_formula_units_Z   1
loop_
 _symmetry_equiv_pos_site_id
 _symmetry_equiv_pos_as_xyz
  1  'x, y, z'
loop_
 _atom_site_type_symbol
 _atom_site_label
 _atom_site_symmetry_multiplicity
 _atom_site_fract_x
 _atom_site_fract_y
 _atom_site_fract_z
 _atom_site_occupancy
  Li  Li0  1  0.00000000  0.00000000  0.00000000  1
  Mo  Mo1  1  0.50000000  0.50000000  0.50000000  1
  Mo  Mo2  1  0.50000000  0.50000000  0.00000000  1
  F  F3  1  0.50000000  0.00000000  0.50000000  1
  F  F4  1  0.00000000  0.50000000  0.50000000  1
  F  F5  1  0.61924098  0.81041989  0.09443730  1
  F  F6  1  0.03139701  0.90484921  0.28267382  1
  P  P7  1  0.91672619  0.12627309  0.42517383  1
  P  P8  1  0.98515231  0.02459609  0.99725523  1
  P  P9  1  0.97946916  0.61458800  0.42788966  1
  O  O10  1  0.45419964  0.59666698  0.87365315  1
