# generated using pymatgen
data_Li3V2Te3Cl4O
_symmetry_space_group_name_H-M   'P 1'
_cell_length_a   8.66819619
_cell_length_b   8.11761737
_cell_length_c   6.93508887
_cell_angle_alpha   90.00000000
_cell_angle_beta   90.00000000
_cell_angle_gamma   90.00000000
_symmetry_Int_Tables_number   1
_chemical_formula_structural   Li3V2Te3Cl4O
_chemical_formula_sum   'Li3 V2 Te3 Cl4 O1'
_cell_volume   487.98822102
_cell_formula_units_Z   1
loop_
 _symmetry_equiv_pos_site_id
 _symmetry_equiv_pos_as_xyz
  1  'x, y, z'
loop_
 _atom_site_type_symbol
 _atom_site_label
 _atom_site_symmetry_multiplicity
 _atom_site_fract_x
 _atom_site_fract_y
 _atom_site_fract_z
 _atom_site_occupancy
  Li  Li0  1  0.00000000  0.00000000  0.00000000  1
  Li  Li1  1  0.50000000  0.50000000  0.50000000  1
  Li  Li2  1  0.25000000  0.25000000  0.25000000  1
  V  V3  1  0.75000000  0.25000000  0.00000000  1
  V  V4  1  0.25000000  0.75000000  0.50000000  1
  Te  Te5  1  0.22411354  0.04832403  0.41397875  1
  Te  Te6  1  0.11102171  0.68816989  0.52185770  1
  Te  Te7  1  0.77157510  0.88772732  0.98290973  1
  Cl  Cl8  1  0.99021204  0.06679879  0.81801369  1
  Cl  Cl9  1  0.07660852  0.77327996  0.40852830  1
  Cl  Cl10  1  0.54438542  0.90385079  0.84435019  1
  Cl  Cl11  1  0.81115543  0.26804409  0.41377236  1
  O  O12  1  0.31774314  0.94665315  0.69433001  1
