# generated using pymatgen
data_Li4MgI4
_symmetry_space_group_name_H-M   'P 1'
_cell_length_a   3.23960164
_cell_length_b   2.79517373
_cell_length_c   6.39859246
_cell_angle_alpha   106.42604145
_cell_angle_beta   94.38007230
_cell_angle_gamma   109.75756119
_symmetry_Int_Tables_number   1
_chemical_formula_structural   Li4MgI4
_chemical_formula_sum   'Li4 Mg1 I4'
_cell_volume   51.34656695
_cell_formula_units_Z   1
loop_
 _symmetry_equiv_pos_site_id
 _symmetry_equiv_pos_as_xyz
  1  'x, y, z'
loop_
 _atom_site_type_symbol
 _atom_site_label
 _atom_site_symmetry_multiplicity
 _atom_site_fract_x
 _atom_site_fract_y
 _atom_site_fract_z
 _atom_site_occupancy
  Li  Li0  1  0.00000000  0.00000000  0.00000000  1
  Li  Li1  1  0.33300000  0.66700000  0.25000000  1
  Li  Li2  1  0.66700000  0.33300000  0.50000000  1
  Li  Li3  1  0.00000000  0.00000000  0.75000000  1
  Mg  Mg4  1  0.87967662  0.37449425  0.90204372  1
  I  I5  1  0.86953512  0.82191579  0.69207326  1
  I  I6  1  0.96652270  0.28155741  0.06355437  1
  I  I7  1  0.96787781  0.76183750  0.38710977  1
  I  I8  1  0.59109723  0.42001237  0.84586827  1
