# generated using pymatgen
data_LiWO
_symmetry_space_group_name_H-M   'P 1'
_cell_length_a   3.31896497
_cell_length_b   3.07748215
_cell_length_c   6.94080405
_cell_angle_alpha   112.86969588
_cell_angle_beta   107.08624248
_cell_angle_gamma   98.28190107
_symmetry_Int_Tables_number   1
_chemical_formula_structural   LiWO
_chemical_formula_sum   'Li3 W3 O3'
_cell_volume   59.69375393
_cell_formula_units_Z   3
loop_
 _symmetry_equiv_pos_site_id
 _symmetry_equiv_pos_as_xyz
  1  'x, y, z'
loop_
 _atom_site_type_symbol
 _atom_site_label
 _atom_site_symmetry_multiplicity
 _atom_site_fract_x
 _atom_site_fract_y
 _atom_site_fract_z
 _atom_site_occupancy
  Li  Li0  1  0.00000000  0.00000000  0.00000000  1
  Li  Li1  1  0.33300000  0.66700000  0.25000000  1
  Li  Li2  1  0.66700000  0.33300000  0.50000000  1
  W  W3  1  0.00000000  0.00000000  0.75000000  1
  W  W4  1  0.80321798  0.22109079  0.67200798  1
  W  W5  1  0.55731757  0.29852725  0.37021419  1
  O  O6  1  0.99533459  0.93680468  0.14533493  1
  O  O7  1  0.80725081  0.89575293  0.39081429  1
  O  O8  1  0.41191418  0.34345362  0.10132300  1
