# generated using pymatgen
data_Li6Ca2La2SiI4N
_symmetry_space_group_name_H-M   'P 1'
_cell_length_a   12.94107615
_cell_length_b   12.35423350
_cell_length_c   11.75366178
_cell_angle_alpha   90.00000000
_cell_angle_beta   90.00000000
_cell_angle_gamma   90.00000000
_symmetry_Int_Tables_number   1
_chemical_formula_structural   Li6Ca2La2SiI4N
_chemical_formula_sum   'Li6 Ca2 La2 Si1 I4 N1'
_cell_volume   1879.14108500
_cell_formula_units_Z   1
loop_
 _symmetry_equiv_pos_site_id
 _symmetry_equiv_pos_as_xyz
  1  'x, y, z'
loop_
 _atom_site_type_symbol
 _atom_site_label
 _atom_site_symmetry_multiplicity
 _atom_site_fract_x
 _atom_site_fract_y
 _atom_site_fract_z
 _atom_site_occupancy
  Li  Li0  1  0.12500000  0.00000000  0.25000000  1
  Li  Li1  1  0.00000000  0.00000000  0.00000000  1
  Li  Li2  1  0.37500000  0.00000000  0.25000000  1
  Li  Li3  1  0.25000000  0.25000000  0.25000000  1
  Li  Li4  1  0.00000000  0.25000000  0.12500000  1
  Li  Li5  1  0.36228688  0.01555375  0.38522905  1
  La  La6  1  0.28993364  0.48073887  0.61083478  1
  La  La7  1  0.60085647  0.28033528  0.83628150  1
  Ca  Ca8  1  0.98141904  0.47434817  0.63343692  1
  Ca  Ca9  1  0.73962204  0.22524418  0.85940593  1
  Si  Si10  1  0.15338852  0.93895765  0.23099629  1
  I  I11  1  0.17870866  0.90411034  0.18283435  1
  I  I12  1  0.55391669  0.42283336  0.81355462  1
  I  I13  1  0.73133554  0.57888859  0.19031035  1
  I  I14  1  0.25454569  0.07556814  0.92687345  1
  N  N15  1  0.27459109  0.00311021  0.73434633  1
