# generated using pymatgen
data_Li4TiClO4
_symmetry_space_group_name_H-M   'P 1'
_cell_length_a   4.12476800
_cell_length_b   3.50618022
_cell_length_c   3.52923966
_cell_angle_alpha   92.30531037
_cell_angle_beta   88.59183042
_cell_angle_gamma   87.42908893
_symmetry_Int_Tables_number   1
_chemical_formula_structural   Li4TiClO4
_chemical_formula_sum   'Li4 Ti1 Cl1 O4'
_cell_volume   50.93006468
_cell_formula_units_Z   1
loop_
 _symmetry_equiv_pos_site_id
 _symmetry_equiv_pos_as_xyz
  1  'x, y, z'
loop_
 _atom_site_type_symbol
 _atom_site_label
 _atom_site_symmetry_multiplicity
 _atom_site_fract_x
 _atom_site_fract_y
 _atom_site_fract_z
 _atom_site_occupancy
  Li  Li0  1  0.00000000  0.00000000  0.00000000  1
  Li  Li1  1  0.50000000  0.50000000  0.50000000  1
  Li  Li2  1  0.50000000  0.50000000  0.00000000  1
  Li  Li3  1  0.50000000  0.00000000  0.50000000  1
  Ti  Ti4  1  0.00000000  0.50000000  0.50000000  1
  Cl  Cl5  1  0.57255230  0.52654921  0.66525771  1
  O  O6  1  0.15046156  0.05413192  0.10255180  1
  O  O7  1  0.21125635  0.27761726  0.71132935  1
  O  O8  1  0.68079551  0.34119038  0.57370608  1
  O  O9  1  0.73386104  0.76779470  0.75929921  1
