# generated using pymatgen
data_LiTi3PO3
_symmetry_space_group_name_H-M   'P 1'
_cell_length_a   8.76060418
_cell_length_b   8.14622484
_cell_length_c   9.79247388
_cell_angle_alpha   90.00000000
_cell_angle_beta   90.00000000
_cell_angle_gamma   90.00000000
_symmetry_Int_Tables_number   1
_chemical_formula_structural   LiTi3PO3
_chemical_formula_sum   'Li1 Ti3 P1 O3'
_cell_volume   698.84823618
_cell_formula_units_Z   1
loop_
 _symmetry_equiv_pos_site_id
 _symmetry_equiv_pos_as_xyz
  1  'x, y, z'
loop_
 _atom_site_type_symbol
 _atom_site_label
 _atom_site_symmetry_multiplicity
 _atom_site_fract_x
 _atom_site_fract_y
 _atom_site_fract_z
 _atom_site_occupancy
  Li  Li0  1  0.00000000  0.00000000  0.00000000  1
  Ti  Ti1  1  0.50000000  0.50000000  0.50000000  1
  Ti  Ti2  1  0.25000000  0.25000000  0.25000000  1
  Ti  Ti3  1  0.75000000  0.25000000  0.00000000  1
  P  P4  1  0.25000000  0.75000000  0.50000000  1
  O  O5  1  0.40710600  0.47299648  0.35924538  1
  O  O6  1  0.85901122  0.77823603  0.28171367  1
  O  O7  1  0.17880283  0.37237022  0.37009135  1
