# generated using pymatgen
data_LiAl3Br5O3
_symmetry_space_group_name_H-M   'P 1'
_cell_length_a   7.75695792
_cell_length_b   6.83847263
_cell_length_c   6.78982401
_cell_angle_alpha   90.00000000
_cell_angle_beta   90.00000000
_cell_angle_gamma   90.00000000
_symmetry_Int_Tables_number   1
_chemical_formula_structural   LiAl3Br5O3
_chemical_formula_sum   'Li1 Al3 Br5 O3'
_cell_volume   360.17126927
_cell_formula_units_Z   1
loop_
 _symmetry_equiv_pos_site_id
 _symmetry_equiv_pos_as_xyz
  1  'x, y, z'
loop_
 _atom_site_type_symbol
 _atom_site_label
 _atom_site_symmetry_multiplicity
 _atom_site_fract_x
 _atom_site_fract_y
 _atom_site_fract_z
 _atom_site_occupancy
  Li  Li0  1  0.12500000  0.12500000  0.12500000  1
  Al  Al1  1  0.50000000  0.50000000  0.50000000  1
  Al  Al2  1  0.25000000  0.25000000  0.25000000  1
  Al  Al3  1  0.75000000  0.75000000  0.75000000  1
  O  O4  1  0.66086750  0.60385947  0.63311377  1
  O  O5  1  0.93653635  0.24767837  0.78987127  1
  O  O6  1  0.66706278  0.53678045  0.09963013  1
  Br  Br7  1  0.71623690  0.48402675  0.67552745  1
  Br  Br8  1  0.73273038  0.09693768  0.06105826  1
  Br  Br9  1  0.55138042  0.49796264  0.13642823  1
  Br  Br10  1  0.81845238  0.87992804  0.03035307  1
  Br  Br11  1  0.04620936  0.27044916  0.96403303  1
