# generated using pymatgen
data_Li6TbAl2SbO3
_symmetry_space_group_name_H-M   'P 1'
_cell_length_a   8.52071348
_cell_length_b   7.11282066
_cell_length_c   7.70111165
_cell_angle_alpha   90.00000000
_cell_angle_beta   90.00000000
_cell_angle_gamma   90.00000000
_symmetry_Int_Tables_number   1
_chemical_formula_structural   Li6TbAl2SbO3
_chemical_formula_sum   'Li6 Tb1 Al2 Sb1 O3'
_cell_volume   466.73593595
_cell_formula_units_Z   1
loop_
 _symmetry_equiv_pos_site_id
 _symmetry_equiv_pos_as_xyz
  1  'x, y, z'
loop_
 _atom_site_type_symbol
 _atom_site_label
 _atom_site_symmetry_multiplicity
 _atom_site_fract_x
 _atom_site_fract_y
 _atom_site_fract_z
 _atom_site_occupancy
  Li  Li0  1  0.00000000  0.00000000  0.00000000  1
  Li  Li1  1  0.50000000  0.50000000  0.50000000  1
  Li  Li2  1  0.25000000  0.25000000  0.25000000  1
  Li  Li3  1  0.75000000  0.25000000  0.00000000  1
  Li  Li4  1  0.25000000  0.75000000  0.50000000  1
  Li  Li5  1  0.88077545  0.00268232  0.65835823  1
  Al  Al6  1  0.17160979  0.76085685  0.53902775  1
  Al  Al7  1  0.46793370  0.35316893  0.75508111  1
  Sb  Sb8  1  0.56622599  0.86309681  0.16068526  1
  O  O9  1  0.89871444  0.80988842  0.23689696  1
  O  O10  1  0.87948987  0.07477581  0.82781509  1
  O  O11  1  0.71098694  0.24552661  0.02229736  1
  Tb  Tb12  1  0.92398301  0.40360766  0.57829483  1
