# generated using pymatgen
data_Li4TiO
_symmetry_space_group_name_H-M   'P 1'
_cell_length_a   3.32164596
_cell_length_b   3.23245703
_cell_length_c   6.91534002
_cell_angle_alpha   104.20430093
_cell_angle_beta   108.32097205
_cell_angle_gamma   93.28813498
_symmetry_Int_Tables_number   1
_chemical_formula_structural   Li4TiO
_chemical_formula_sum   'Li4 Ti1 O1'
_cell_volume   67.59821324
_cell_formula_units_Z   1
loop_
 _symmetry_equiv_pos_site_id
 _symmetry_equiv_pos_as_xyz
  1  'x, y, z'
loop_
 _atom_site_type_symbol
 _atom_site_label
 _atom_site_symmetry_multiplicity
 _atom_site_fract_x
 _atom_site_fract_y
 _atom_site_fract_z
 _atom_site_occupancy
  Li  Li0  1  0.00000000  0.00000000  0.00000000  1
  Li  Li1  1  0.33300000  0.66700000  0.25000000  1
  Li  Li2  1  0.66700000  0.33300000  0.50000000  1
  Li  Li3  1  0.00000000  0.00000000  0.75000000  1
  Ti  Ti4  1  0.99637248  0.94353086  0.77596009  1
  O  O5  1  0.50411605  0.27276739  0.36280684  1
