# generated using pymatgen
data_Li3TiP4N3O4
_symmetry_space_group_name_H-M   'P 1'
_cell_length_a   8.90487837
_cell_length_b   7.81626359
_cell_length_c   7.54189122
_cell_angle_alpha   90.00000000
_cell_angle_beta   90.00000000
_cell_angle_gamma   90.00000000
_symmetry_Int_Tables_number   1
_chemical_formula_structural   Li3TiP4N3O4
_chemical_formula_sum   'Li3 Ti1 P4 N3 O4'
_cell_volume   524.93732398
_cell_formula_units_Z   1
loop_
 _symmetry_equiv_pos_site_id
 _symmetry_equiv_pos_as_xyz
  1  'x, y, z'
loop_
 _atom_site_type_symbol
 _atom_site_label
 _atom_site_symmetry_multiplicity
 _atom_site_fract_x
 _atom_site_fract_y
 _atom_site_fract_z
 _atom_site_occupancy
  Li  Li0  1  0.00000000  0.00000000  0.00000000  1
  Li  Li1  1  0.50000000  0.50000000  0.50000000  1
  Li  Li2  1  0.25000000  0.25000000  0.25000000  1
  Ti  Ti3  1  0.75000000  0.25000000  0.00000000  1
  N  N4  1  0.25000000  0.75000000  0.50000000  1
  N  N5  1  0.12537763  0.25614713  0.63132763  1
  N  N6  1  0.26292718  0.42404823  0.60613548  1
  P  P7  1  0.82414529  0.99364448  0.53921000  1
  P  P8  1  0.57478476  0.63817986  0.61740337  1
  P  P9  1  0.13962941  0.83407726  0.11173824  1
  P  P10  1  0.99925554  0.46664052  0.50813544  1
  O  O11  1  0.32336870  0.40148196  0.21658491  1
  O  O12  1  0.71245679  0.75371537  0.49703269  1
  O  O13  1  0.50946425  0.53251389  0.56873818  1
  O  O14  1  0.55424418  0.74479068  0.87159751  1
