# generated using pymatgen
data_Li2EuCu2N
_symmetry_space_group_name_H-M   'P 1'
_cell_length_a   3.99244735
_cell_length_b   4.17361321
_cell_length_c   5.93639050
_cell_angle_alpha   101.32272081
_cell_angle_beta   93.84842320
_cell_angle_gamma   114.25458141
_symmetry_Int_Tables_number   1
_chemical_formula_structural   Li2EuCu2N
_chemical_formula_sum   'Li2 Eu1 Cu2 N1'
_cell_volume   87.21439978
_cell_formula_units_Z   1
loop_
 _symmetry_equiv_pos_site_id
 _symmetry_equiv_pos_as_xyz
  1  'x, y, z'
loop_
 _atom_site_type_symbol
 _atom_site_label
 _atom_site_symmetry_multiplicity
 _atom_site_fract_x
 _atom_site_fract_y
 _atom_site_fract_z
 _atom_site_occupancy
  Li  Li0  1  0.00000000  0.00000000  0.00000000  1
  Li  Li1  1  0.33300000  0.66700000  0.25000000  1
  Cu  Cu2  1  0.66700000  0.33300000  0.50000000  1
  Cu  Cu3  1  0.00000000  0.00000000  0.75000000  1
  N  N4  1  0.51009756  0.95855404  0.80715424  1
  Eu  Eu5  1  0.93140478  0.98364131  0.28395137  1
