# generated using pymatgen
data_Li3LuTi2P4Br3
_symmetry_space_group_name_H-M   'P 1'
_cell_length_a   8.36512407
_cell_length_b   7.30392143
_cell_length_c   9.74140470
_cell_angle_alpha   90.00000000
_cell_angle_beta   90.00000000
_cell_angle_gamma   90.00000000
_symmetry_Int_Tables_number   1
_chemical_formula_structural   Li3LuTi2P4Br3
_chemical_formula_sum   'Li3 Lu1 Ti2 P4 Br3'
_cell_volume   595.18238042
_cell_formula_units_Z   1
loop_
 _symmetry_equiv_pos_site_id
 _symmetry_equiv_pos_as_xyz
  1  'x, y, z'
loop_
 _atom_site_type_symbol
 _atom_site_label
 _atom_site_symmetry_multiplicity
 _atom_site_fract_x
 _atom_site_fract_y
 _atom_site_fract_z
 _atom_site_occupancy
  Li  Li0  1  0.00000000  0.00000000  0.00000000  1
  Li  Li1  1  0.50000000  0.50000000  0.50000000  1
  Li  Li2  1  0.25000000  0.25000000  0.25000000  1
  Ti  Ti3  1  0.75000000  0.25000000  0.00000000  1
  Ti  Ti4  1  0.25000000  0.75000000  0.50000000  1
  P  P5  1  0.06127284  0.61358182  0.88657994  1
  P  P6  1  0.08233199  0.42038208  0.02989821  1
  P  P7  1  0.81040280  0.93503851  0.14355418  1
  P  P8  1  0.43769799  0.39151198  0.15352004  1
  Br  Br9  1  0.06592680  0.59806838  0.36957426  1
  Br  Br10  1  0.70374895  0.17769806  0.01184833  1
  Br  Br11  1  0.31522759  0.01415208  0.91187358  1
  Lu  Lu12  1  0.82660276  0.28988618  0.32323290  1
