# generated using pymatgen
data_Li4LaZrGaCO6
_symmetry_space_group_name_H-M   'P 1'
_cell_length_a   12.97784447
_cell_length_b   15.18248135
_cell_length_c   12.26766189
_cell_angle_alpha   90.00000000
_cell_angle_beta   90.00000000
_cell_angle_gamma   90.00000000
_symmetry_Int_Tables_number   1
_chemical_formula_structural   Li4LaZrGaCO6
_chemical_formula_sum   'Li4 La1 Zr1 Ga1 C1 O6'
_cell_volume   2417.16957405
_cell_formula_units_Z   1
loop_
 _symmetry_equiv_pos_site_id
 _symmetry_equiv_pos_as_xyz
  1  'x, y, z'
loop_
 _atom_site_type_symbol
 _atom_site_label
 _atom_site_symmetry_multiplicity
 _atom_site_fract_x
 _atom_site_fract_y
 _atom_site_fract_z
 _atom_site_occupancy
  Li  Li0  1  0.12500000  0.00000000  0.25000000  1
  Li  Li1  1  0.00000000  0.00000000  0.00000000  1
  Li  Li2  1  0.37500000  0.00000000  0.25000000  1
  Li  Li3  1  0.25000000  0.25000000  0.25000000  1
  La  La4  1  0.00000000  0.25000000  0.12500000  1
  Zr  Zr5  1  0.85058175  0.69193315  0.37779452  1
  C  C6  1  0.85064222  0.18745249  0.53586299  1
  O  O7  1  0.56125229  0.04444893  0.24577397  1
  O  O8  1  0.18317985  0.66854651  0.79056006  1
  O  O9  1  0.82042087  0.59720385  0.38606068  1
  O  O10  1  0.92812138  0.48567267  0.50112226  1
  O  O11  1  0.54937348  0.16709200  0.66432673  1
  O  O12  1  0.90603148  0.86606559  0.59766408  1
  Ga  Ga13  1  0.02768711  0.49636297  0.37012225  1
