# generated using pymatgen
data_Li3Ti2P2Se3O
_symmetry_space_group_name_H-M   'P 1'
_cell_length_a   8.51708393
_cell_length_b   9.33875239
_cell_length_c   9.28331379
_cell_angle_alpha   90.00000000
_cell_angle_beta   90.00000000
_cell_angle_gamma   90.00000000
_symmetry_Int_Tables_number   1
_chemical_formula_structural   Li3Ti2P2Se3O
_chemical_formula_sum   'Li3 Ti2 P2 Se3 O1'
_cell_volume   738.38491957
_cell_formula_units_Z   1
loop_
 _symmetry_equiv_pos_site_id
 _symmetry_equiv_pos_as_xyz
  1  'x, y, z'
loop_
 _atom_site_type_symbol
 _atom_site_label
 _atom_site_symmetry_multiplicity
 _atom_site_fract_x
 _atom_site_fract_y
 _atom_site_fract_z
 _atom_site_occupancy
  Li  Li0  1  0.00000000  0.00000000  0.00000000  1
  Li  Li1  1  0.50000000  0.50000000  0.50000000  1
  Li  Li2  1  0.25000000  0.25000000  0.25000000  1
  Ti  Ti3  1  0.75000000  0.25000000  0.00000000  1
  Ti  Ti4  1  0.25000000  0.75000000  0.50000000  1
  P  P5  1  0.17456073  0.44739045  0.46622641  1
  P  P6  1  0.87626383  0.23997423  0.32092182  1
  O  O7  1  0.01927807  0.96819100  0.86230369  1
  Se  Se8  1  0.87797938  0.73364329  0.98719102  1
  Se  Se9  1  0.75073330  0.23498894  0.35807674  1
  Se  Se10  1  0.83183460  0.84391243  0.31633546  1
