# generated using pymatgen
data_Li4LaN
_symmetry_space_group_name_H-M   'P 1'
_cell_length_a   3.53051520
_cell_length_b   3.71807015
_cell_length_c   5.38903079
_cell_angle_alpha   116.77009717
_cell_angle_beta   113.51696318
_cell_angle_gamma   100.40589313
_symmetry_Int_Tables_number   1
_chemical_formula_structural   Li4LaN
_chemical_formula_sum   'Li4 La1 N1'
_cell_volume   52.00078090
_cell_formula_units_Z   1
loop_
 _symmetry_equiv_pos_site_id
 _symmetry_equiv_pos_as_xyz
  1  'x, y, z'
loop_
 _atom_site_type_symbol
 _atom_site_label
 _atom_site_symmetry_multiplicity
 _atom_site_fract_x
 _atom_site_fract_y
 _atom_site_fract_z
 _atom_site_occupancy
  Li  Li0  1  0.00000000  0.00000000  0.00000000  1
  Li  Li1  1  0.33300000  0.66700000  0.25000000  1
  Li  Li2  1  0.66700000  0.33300000  0.50000000  1
  Li  Li3  1  0.00000000  0.00000000  0.75000000  1
  La  La4  1  0.40020638  0.06839995  0.60755144  1
  N  N5  1  0.04376736  0.67380940  0.14124672  1
