# generated using pymatgen
data_LiTi2Se5O
_symmetry_space_group_name_H-M   'P 1'
_cell_length_a   8.06128544
_cell_length_b   8.77049404
_cell_length_c   7.47587264
_cell_angle_alpha   90.00000000
_cell_angle_beta   90.00000000
_cell_angle_gamma   90.00000000
_symmetry_Int_Tables_number   1
_chemical_formula_structural   LiTi2Se5O
_chemical_formula_sum   'Li1 Ti2 Se5 O1'
_cell_volume   528.55507997
_cell_formula_units_Z   1
loop_
 _symmetry_equiv_pos_site_id
 _symmetry_equiv_pos_as_xyz
  1  'x, y, z'
loop_
 _atom_site_type_symbol
 _atom_site_label
 _atom_site_symmetry_multiplicity
 _atom_site_fract_x
 _atom_site_fract_y
 _atom_site_fract_z
 _atom_site_occupancy
  Li  Li0  1  0.12500000  0.12500000  0.12500000  1
  Ti  Ti1  1  0.50000000  0.50000000  0.50000000  1
  Ti  Ti2  1  0.25000000  0.25000000  0.25000000  1
  Se  Se3  1  0.75000000  0.75000000  0.75000000  1
  Se  Se4  1  0.95824739  0.45584045  0.72619567  1
  Se  Se5  1  0.08168496  0.76311275  0.69068369  1
  Se  Se6  1  0.60328031  0.97645296  0.31073133  1
  Se  Se7  1  0.63571399  0.51182785  0.51517519  1
  O  O8  1  0.58594551  0.25719182  0.29124276  1
