# generated using pymatgen
data_Sr2Li2MgPW3
_symmetry_space_group_name_H-M   'P 1'
_cell_length_a   12.21572328
_cell_length_b   13.37039226
_cell_length_c   10.02582725
_cell_angle_alpha   90.00000000
_cell_angle_beta   90.00000000
_cell_angle_gamma   90.00000000
_symmetry_Int_Tables_number   1
_chemical_formula_structural   Sr2Li2MgPW3
_chemical_formula_sum   'Sr2 Li2 Mg1 P1 W3'
_cell_volume   1637.50845808
_cell_formula_units_Z   1
loop_
 _symmetry_equiv_pos_site_id
 _symmetry_equiv_pos_as_xyz
  1  'x, y, z'
loop_
 _atom_site_type_symbol
 _atom_site_label
 _atom_site_symmetry_multiplicity
 _atom_site_fract_x
 _atom_site_fract_y
 _atom_site_fract_z
 _atom_site_occupancy
  Li  Li0  1  0.12500000  0.00000000  0.25000000  1
  Li  Li1  1  0.00000000  0.00000000  0.00000000  1
  W  W2  1  0.37500000  0.00000000  0.25000000  1
  W  W3  1  0.25000000  0.25000000  0.25000000  1
  W  W4  1  0.00000000  0.25000000  0.12500000  1
  Mg  Mg5  1  0.96256356  0.99666865  0.81824014  1
  Sr  Sr6  1  0.26453436  0.59580805  0.57873654  1
  Sr  Sr7  1  0.14900363  0.05377942  0.87116764  1
  P  P8  1  0.52197934  0.31254135  0.64417083  1
