# generated using pymatgen
data_Li3La2Ta3Si3O2
_symmetry_space_group_name_H-M   'P 1'
_cell_length_a   12.28471246
_cell_length_b   12.69363279
_cell_length_c   14.25837242
_cell_angle_alpha   90.00000000
_cell_angle_beta   90.00000000
_cell_angle_gamma   90.00000000
_symmetry_Int_Tables_number   1
_chemical_formula_structural   Li3La2Ta3Si3O2
_chemical_formula_sum   'Li3 La2 Ta3 Si3 O2'
_cell_volume   2223.41678749
_cell_formula_units_Z   1
loop_
 _symmetry_equiv_pos_site_id
 _symmetry_equiv_pos_as_xyz
  1  'x, y, z'
loop_
 _atom_site_type_symbol
 _atom_site_label
 _atom_site_symmetry_multiplicity
 _atom_site_fract_x
 _atom_site_fract_y
 _atom_site_fract_z
 _atom_site_occupancy
  Li  Li0  1  0.12500000  0.00000000  0.25000000  1
  Li  Li1  1  0.00000000  0.00000000  0.00000000  1
  Li  Li2  1  0.37500000  0.00000000  0.25000000  1
  La  La3  1  0.25000000  0.25000000  0.25000000  1
  La  La4  1  0.00000000  0.25000000  0.12500000  1
  Ta  Ta5  1  0.37054486  0.21640875  0.36015059  1
  Ta  Ta6  1  0.24253415  0.27854239  0.50008189  1
  Ta  Ta7  1  0.97984931  0.45064806  0.90341353  1
  Si  Si8  1  0.43265637  0.19252248  0.26161111  1
  Si  Si9  1  0.89641585  0.38644255  0.42573570  1
  Si  Si10  1  0.04569135  0.29293025  0.17320741  1
  O  O11  1  0.65241578  0.14432279  0.06818868  1
  O  O12  1  0.15862049  0.23574102  0.70225998  1
