# generated using pymatgen
data_LiAl2Te3O
_symmetry_space_group_name_H-M   'P 1'
_cell_length_a   8.42461663
_cell_length_b   10.10571216
_cell_length_c   6.79081723
_cell_angle_alpha   90.00000000
_cell_angle_beta   90.00000000
_cell_angle_gamma   90.00000000
_symmetry_Int_Tables_number   1
_chemical_formula_structural   LiAl2Te3O
_chemical_formula_sum   'Li1 Al2 Te3 O1'
_cell_volume   578.14811340
_cell_formula_units_Z   1
loop_
 _symmetry_equiv_pos_site_id
 _symmetry_equiv_pos_as_xyz
  1  'x, y, z'
loop_
 _atom_site_type_symbol
 _atom_site_label
 _atom_site_symmetry_multiplicity
 _atom_site_fract_x
 _atom_site_fract_y
 _atom_site_fract_z
 _atom_site_occupancy
  Li  Li0  1  0.12500000  0.12500000  0.12500000  1
  Al  Al1  1  0.50000000  0.50000000  0.50000000  1
  Al  Al2  1  0.25000000  0.25000000  0.25000000  1
  Te  Te3  1  0.75000000  0.75000000  0.75000000  1
  Te  Te4  1  0.22872692  0.61881557  0.07268908  1
  Te  Te5  1  0.83536507  0.82553481  0.10320735  1
  O  O6  1  0.93277983  0.50460090  0.34652328  1
