# generated using pymatgen
data_Li2La2Se7
_symmetry_space_group_name_H-M   'P 1'
_cell_length_a   8.10325481
_cell_length_b   7.44728424
_cell_length_c   6.67890564
_cell_angle_alpha   90.00000000
_cell_angle_beta   90.00000000
_cell_angle_gamma   90.00000000
_symmetry_Int_Tables_number   1
_chemical_formula_structural   Li2La2Se7
_chemical_formula_sum   'Li2 La2 Se7'
_cell_volume   403.05353351
_cell_formula_units_Z   1
loop_
 _symmetry_equiv_pos_site_id
 _symmetry_equiv_pos_as_xyz
  1  'x, y, z'
loop_
 _atom_site_type_symbol
 _atom_site_label
 _atom_site_symmetry_multiplicity
 _atom_site_fract_x
 _atom_site_fract_y
 _atom_site_fract_z
 _atom_site_occupancy
  Li  Li0  1  0.12500000  0.12500000  0.12500000  1
  Li  Li1  1  0.50000000  0.50000000  0.50000000  1
  La  La2  1  0.25000000  0.25000000  0.25000000  1
  La  La3  1  0.75000000  0.75000000  0.75000000  1
  Se  Se4  1  0.38681519  0.36361964  0.99363936  1
  Se  Se5  1  0.34213922  0.01214223  0.51238644  1
  Se  Se6  1  0.75740952  0.36297670  0.94968249  1
  Se  Se7  1  0.86089500  0.83306645  0.50856458  1
  Se  Se8  1  0.77277433  0.94980566  0.15354769  1
  Se  Se9  1  0.04750360  0.34695029  0.70395652  1
  Se  Se10  1  0.21279910  0.23889300  0.94096630  1
