# generated using pymatgen
data_Li6VAs3S3O
_symmetry_space_group_name_H-M   'P 1'
_cell_length_a   4.25512296
_cell_length_b   4.30655313
_cell_length_c   4.83893075
_cell_angle_alpha   87.95221206
_cell_angle_beta   87.19285769
_cell_angle_gamma   93.13545777
_symmetry_Int_Tables_number   1
_chemical_formula_structural   Li6VAs3S3O
_chemical_formula_sum   'Li6 V1 As3 S3 O1'
_cell_volume   88.36838023
_cell_formula_units_Z   1
loop_
 _symmetry_equiv_pos_site_id
 _symmetry_equiv_pos_as_xyz
  1  'x, y, z'
loop_
 _atom_site_type_symbol
 _atom_site_label
 _atom_site_symmetry_multiplicity
 _atom_site_fract_x
 _atom_site_fract_y
 _atom_site_fract_z
 _atom_site_occupancy
  Li  Li0  1  0.00000000  0.00000000  0.00000000  1
  Li  Li1  1  0.50000000  0.50000000  0.50000000  1
  Li  Li2  1  0.50000000  0.50000000  0.00000000  1
  Li  Li3  1  0.50000000  0.00000000  0.50000000  1
  Li  Li4  1  0.00000000  0.50000000  0.50000000  1
  Li  Li5  1  0.82761749  0.83475901  0.75205503  1
  V  V6  1  0.69079548  0.24793571  0.70150095  1
  S  S7  1  0.62189638  0.96055366  0.60153882  1
  S  S8  1  0.87895114  0.21728952  0.36171330  1
  S  S9  1  0.87223669  0.72015532  0.99515894  1
  As  As10  1  0.22185870  0.75238896  0.61422704  1
  As  As11  1  0.35358922  0.85019371  0.47178324  1
  As  As12  1  0.41306666  0.60168241  0.97695924  1
  O  O13  1  0.79565082  0.25468116  0.76956014  1
