# generated using pymatgen
data_Li2Ti3P2ClO2
_symmetry_space_group_name_H-M   'P 1'
_cell_length_a   8.25547055
_cell_length_b   8.42303292
_cell_length_c   8.52968927
_cell_angle_alpha   90.00000000
_cell_angle_beta   90.00000000
_cell_angle_gamma   90.00000000
_symmetry_Int_Tables_number   1
_chemical_formula_structural   Li2Ti3P2ClO2
_chemical_formula_sum   'Li2 Ti3 P2 Cl1 O2'
_cell_volume   593.12132810
_cell_formula_units_Z   1
loop_
 _symmetry_equiv_pos_site_id
 _symmetry_equiv_pos_as_xyz
  1  'x, y, z'
loop_
 _atom_site_type_symbol
 _atom_site_label
 _atom_site_symmetry_multiplicity
 _atom_site_fract_x
 _atom_site_fract_y
 _atom_site_fract_z
 _atom_site_occupancy
  Li  Li0  1  0.00000000  0.00000000  0.00000000  1
  Li  Li1  1  0.50000000  0.50000000  0.50000000  1
  Ti  Ti2  1  0.25000000  0.25000000  0.25000000  1
  Ti  Ti3  1  0.75000000  0.25000000  0.00000000  1
  Ti  Ti4  1  0.25000000  0.75000000  0.50000000  1
  P  P5  1  0.88575041  0.13143319  0.00433895  1
  P  P6  1  0.22026159  0.15786461  0.63211812  1
  Cl  Cl7  1  0.99541222  0.98669564  0.49636753  1
  O  O8  1  0.57765037  0.67241993  0.01933324  1
  O  O9  1  0.32340382  0.56018426  0.18071366  1
