# generated using pymatgen
data_Li2TaSb6(SO)3
_symmetry_space_group_name_H-M   'P 1'
_cell_length_a   7.99809661
_cell_length_b   8.06216728
_cell_length_c   9.07113708
_cell_angle_alpha   90.00000000
_cell_angle_beta   90.00000000
_cell_angle_gamma   90.00000000
_symmetry_Int_Tables_number   1
_chemical_formula_structural   Li2TaSb6(SO)3
_chemical_formula_sum   'Li2 Ta1 Sb6 S3 O3'
_cell_volume   584.92499525
_cell_formula_units_Z   1
loop_
 _symmetry_equiv_pos_site_id
 _symmetry_equiv_pos_as_xyz
  1  'x, y, z'
loop_
 _atom_site_type_symbol
 _atom_site_label
 _atom_site_symmetry_multiplicity
 _atom_site_fract_x
 _atom_site_fract_y
 _atom_site_fract_z
 _atom_site_occupancy
  Li  Li0  1  0.12500000  0.12500000  0.12500000  1
  Li  Li1  1  0.50000000  0.50000000  0.50000000  1
  Ta  Ta2  1  0.25000000  0.25000000  0.25000000  1
  O  O3  1  0.75000000  0.75000000  0.75000000  1
  O  O4  1  0.70158678  0.22984286  0.25287733  1
  O  O5  1  0.32286812  0.99335320  0.84233636  1
  S  S6  1  0.88180518  0.38128573  0.19429274  1
  S  S7  1  0.42715383  0.40753223  0.49044742  1
  S  S8  1  0.76999338  0.19742758  0.69840284  1
  Sb  Sb9  1  0.16174129  0.29426778  0.17505285  1
  Sb  Sb10  1  0.95575946  0.22971253  0.70996158  1
  Sb  Sb11  1  0.27233495  0.16758053  0.58532113  1
  Sb  Sb12  1  0.14726531  0.31425145  0.17275484  1
  Sb  Sb13  1  0.45002554  0.23693775  0.89593661  1
  Sb  Sb14  1  0.76705759  0.55856642  0.67347546  1
