# generated using pymatgen
data_LiCa2La2P2SO2
_symmetry_space_group_name_H-M   'P 1'
_cell_length_a   8.96940911
_cell_length_b   7.42274907
_cell_length_c   9.49382172
_cell_angle_alpha   90.00000000
_cell_angle_beta   90.00000000
_cell_angle_gamma   90.00000000
_symmetry_Int_Tables_number   1
_chemical_formula_structural   LiCa2La2P2SO2
_chemical_formula_sum   'Li1 Ca2 La2 P2 S1 O2'
_cell_volume   632.07655895
_cell_formula_units_Z   1
loop_
 _symmetry_equiv_pos_site_id
 _symmetry_equiv_pos_as_xyz
  1  'x, y, z'
loop_
 _atom_site_type_symbol
 _atom_site_label
 _atom_site_symmetry_multiplicity
 _atom_site_fract_x
 _atom_site_fract_y
 _atom_site_fract_z
 _atom_site_occupancy
  Li  Li0  1  0.00000000  0.00000000  0.00000000  1
  Ca  Ca1  1  0.50000000  0.50000000  0.50000000  1
  Ca  Ca2  1  0.25000000  0.25000000  0.25000000  1
  La  La3  1  0.75000000  0.25000000  0.00000000  1
  La  La4  1  0.25000000  0.75000000  0.50000000  1
  P  P5  1  0.56016424  0.08262355  0.12364066  1
  P  P6  1  0.05883180  0.69607516  0.31557205  1
  S  S7  1  0.35862113  0.04485449  0.28422229  1
  O  O8  1  0.48555726  0.42475369  0.85521437  1
  O  O9  1  0.18098609  0.56062083  0.31338102  1
