# generated using pymatgen
data_Li2Ta2S3(ClO)2
_symmetry_space_group_name_H-M   'P 1'
_cell_length_a   8.68702087
_cell_length_b   8.64671283
_cell_length_c   9.34172230
_cell_angle_alpha   90.00000000
_cell_angle_beta   90.00000000
_cell_angle_gamma   90.00000000
_symmetry_Int_Tables_number   1
_chemical_formula_structural   Li2Ta2S3(ClO)2
_chemical_formula_sum   'Li2 Ta2 S3 Cl2 O2'
_cell_volume   701.69576259
_cell_formula_units_Z   1
loop_
 _symmetry_equiv_pos_site_id
 _symmetry_equiv_pos_as_xyz
  1  'x, y, z'
loop_
 _atom_site_type_symbol
 _atom_site_label
 _atom_site_symmetry_multiplicity
 _atom_site_fract_x
 _atom_site_fract_y
 _atom_site_fract_z
 _atom_site_occupancy
  Li  Li0  1  0.00000000  0.00000000  0.00000000  1
  Li  Li1  1  0.50000000  0.50000000  0.50000000  1
  Ta  Ta2  1  0.25000000  0.25000000  0.25000000  1
  Ta  Ta3  1  0.75000000  0.25000000  0.00000000  1
  Cl  Cl4  1  0.25000000  0.75000000  0.50000000  1
  Cl  Cl5  1  0.10190083  0.40868204  0.31284796  1
  O  O6  1  0.71863390  0.45236474  0.73440431  1
  O  O7  1  0.14660866  0.02308944  0.44078173  1
  S  S8  1  0.61733936  0.68586749  0.92012054  1
  S  S9  1  0.92294054  0.14773217  0.22875790  1
  S  S10  1  0.34551565  0.22928279  0.52258964  1
