# generated using pymatgen
data_Li3Sc(PO)3
_symmetry_space_group_name_H-M   'P 1'
_cell_length_a   8.10365563
_cell_length_b   6.62031191
_cell_length_c   8.87599799
_cell_angle_alpha   90.00000000
_cell_angle_beta   90.00000000
_cell_angle_gamma   90.00000000
_symmetry_Int_Tables_number   1
_chemical_formula_structural   Li3Sc(PO)3
_chemical_formula_sum   'Li3 Sc1 P3 O3'
_cell_volume   476.18600063
_cell_formula_units_Z   1
loop_
 _symmetry_equiv_pos_site_id
 _symmetry_equiv_pos_as_xyz
  1  'x, y, z'
loop_
 _atom_site_type_symbol
 _atom_site_label
 _atom_site_symmetry_multiplicity
 _atom_site_fract_x
 _atom_site_fract_y
 _atom_site_fract_z
 _atom_site_occupancy
  Li  Li0  1  0.12500000  0.12500000  0.12500000  1
  Li  Li1  1  0.50000000  0.50000000  0.50000000  1
  Li  Li2  1  0.25000000  0.25000000  0.25000000  1
  Sc  Sc3  1  0.75000000  0.75000000  0.75000000  1
  P  P4  1  0.93806738  0.04899049  0.87074233  1
  P  P5  1  0.12080099  0.11867341  0.67062954  1
  P  P6  1  0.25308134  0.82113981  0.98475313  1
  O  O7  1  0.73032615  0.83163570  0.49802378  1
  O  O8  1  0.10625890  0.90311796  0.01992683  1
  O  O9  1  0.95440700  0.27958009  0.31015834  1
