# generated using pymatgen
data_Li(NiO3)2
_symmetry_space_group_name_H-M   'P 1'
_cell_length_a   8.15786335
_cell_length_b   7.75302396
_cell_length_c   8.21082982
_cell_angle_alpha   90.00000000
_cell_angle_beta   90.00000000
_cell_angle_gamma   90.00000000
_symmetry_Int_Tables_number   1
_chemical_formula_structural   Li(NiO3)2
_chemical_formula_sum   'Li1 Ni2 O6'
_cell_volume   519.31946760
_cell_formula_units_Z   1
loop_
 _symmetry_equiv_pos_site_id
 _symmetry_equiv_pos_as_xyz
  1  'x, y, z'
loop_
 _atom_site_type_symbol
 _atom_site_label
 _atom_site_symmetry_multiplicity
 _atom_site_fract_x
 _atom_site_fract_y
 _atom_site_fract_z
 _atom_site_occupancy
  Li  Li0  1  0.12500000  0.12500000  0.12500000  1
  Ni  Ni1  1  0.50000000  0.50000000  0.50000000  1
  Ni  Ni2  1  0.25000000  0.25000000  0.25000000  1
  O  O3  1  0.75000000  0.75000000  0.75000000  1
  O  O4  1  0.34446827  0.70184619  0.28369311  1
  O  O5  1  0.62137158  0.44453476  0.93704868  1
  O  O6  1  0.99297541  0.21002883  0.14661448  1
  O  O7  1  0.85654213  0.78607629  0.93311299  1
  O  O8  1  0.05863212  0.97257940  0.89816642  1
