# generated using pymatgen
data_BaLi4Ti2P4(N4O)2
_symmetry_space_group_name_H-M   'P 1'
_cell_length_a   4.13372193
_cell_length_b   3.85614065
_cell_length_c   4.94965632
_cell_angle_alpha   93.91474298
_cell_angle_beta   92.14944902
_cell_angle_gamma   93.29048408
_symmetry_Int_Tables_number   1
_chemical_formula_structural   BaLi4Ti2P4(N4O)2
_chemical_formula_sum   'Ba1 Li4 Ti2 P4 N8 O2'
_cell_volume   78.51671921
_cell_formula_units_Z   1
loop_
 _symmetry_equiv_pos_site_id
 _symmetry_equiv_pos_as_xyz
  1  'x, y, z'
loop_
 _atom_site_type_symbol
 _atom_site_label
 _atom_site_symmetry_multiplicity
 _atom_site_fract_x
 _atom_site_fract_y
 _atom_site_fract_z
 _atom_site_occupancy
  Li  Li0  1  0.00000000  0.00000000  0.00000000  1
  Li  Li1  1  0.50000000  0.50000000  0.50000000  1
  Li  Li2  1  0.50000000  0.50000000  0.00000000  1
  Li  Li3  1  0.50000000  0.00000000  0.50000000  1
  Ti  Ti4  1  0.00000000  0.50000000  0.50000000  1
  Ti  Ti5  1  0.72368841  0.84154932  0.58406823  1
  O  O6  1  0.35201760  0.40710362  0.62000048  1
  O  O7  1  0.43757715  0.49042275  0.24537536  1
  P  P8  1  0.79165245  0.35649443  0.54536829  1
  P  P9  1  0.42461260  0.95926120  0.11273719  1
  P  P10  1  0.51495826  0.49050752  0.20846056  1
  P  P11  1  0.70444218  0.08037273  0.41421865  1
  N  N12  1  0.39651827  0.60927637  0.49710268  1
  N  N13  1  0.39763128  0.67250881  0.07051656  1
  N  N14  1  0.18028919  0.92537117  0.28260147  1
  N  N15  1  0.28430834  0.52089849  0.66406619  1
  N  N16  1  0.20985261  0.89530166  0.12827085  1
  N  N17  1  0.50616286  0.66294103  0.05131445  1
  N  N18  1  0.57644546  0.72070518  0.34030941  1
  N  N19  1  0.01083698  0.48680037  0.71367744  1
  Ba  Ba20  1  0.62701960  0.53969600  0.13205132  1
