# generated using pymatgen
data_LiAlS5O3
_symmetry_space_group_name_H-M   'P 1'
_cell_length_a   8.23548168
_cell_length_b   7.59705496
_cell_length_c   7.93609731
_cell_angle_alpha   90.00000000
_cell_angle_beta   90.00000000
_cell_angle_gamma   90.00000000
_symmetry_Int_Tables_number   1
_chemical_formula_structural   LiAlS5O3
_chemical_formula_sum   'Li1 Al1 S5 O3'
_cell_volume   496.52515784
_cell_formula_units_Z   1
loop_
 _symmetry_equiv_pos_site_id
 _symmetry_equiv_pos_as_xyz
  1  'x, y, z'
loop_
 _atom_site_type_symbol
 _atom_site_label
 _atom_site_symmetry_multiplicity
 _atom_site_fract_x
 _atom_site_fract_y
 _atom_site_fract_z
 _atom_site_occupancy
  Li  Li0  1  0.12500000  0.12500000  0.12500000  1
  Al  Al1  1  0.50000000  0.50000000  0.50000000  1
  O  O2  1  0.25000000  0.25000000  0.25000000  1
  O  O3  1  0.75000000  0.75000000  0.75000000  1
  O  O4  1  0.69433240  0.87867946  0.95377247  1
  S  S5  1  0.14034576  0.23186585  0.38058612  1
  S  S6  1  0.00037094  0.97959983  0.33484967  1
  S  S7  1  0.44446947  0.93791029  0.50885491  1
  S  S8  1  0.48582618  0.64530022  0.08126252  1
  S  S9  1  0.48898220  0.16170159  0.89821259  1
