# generated using pymatgen
data_Li4CeCr3Sb4
_symmetry_space_group_name_H-M   'P 1'
_cell_length_a   3.96345363
_cell_length_b   3.94111914
_cell_length_c   6.68601167
_cell_angle_alpha   96.40077859
_cell_angle_beta   115.87542947
_cell_angle_gamma   90.93087274
_symmetry_Int_Tables_number   1
_chemical_formula_structural   Li4CeCr3Sb4
_chemical_formula_sum   'Li4 Ce1 Cr3 Sb4'
_cell_volume   93.13592353
_cell_formula_units_Z   1
loop_
 _symmetry_equiv_pos_site_id
 _symmetry_equiv_pos_as_xyz
  1  'x, y, z'
loop_
 _atom_site_type_symbol
 _atom_site_label
 _atom_site_symmetry_multiplicity
 _atom_site_fract_x
 _atom_site_fract_y
 _atom_site_fract_z
 _atom_site_occupancy
  Li  Li0  1  0.00000000  0.00000000  0.00000000  1
  Li  Li1  1  0.33300000  0.66700000  0.25000000  1
  Li  Li2  1  0.66700000  0.33300000  0.50000000  1
  Li  Li3  1  0.00000000  0.00000000  0.75000000  1
  Cr  Cr4  1  0.10937260  0.82346194  0.69900753  1
  Cr  Cr5  1  0.90863032  0.78907974  0.19009551  1
  Cr  Cr6  1  0.54520102  0.15165588  0.95579269  1
  Sb  Sb7  1  0.72672093  0.44930091  0.95221731  1
  Sb  Sb8  1  0.43706155  0.63238799  0.76023028  1
  Sb  Sb9  1  0.05908673  0.77636862  0.08530362  1
  Sb  Sb10  1  0.07765443  0.62246008  0.33298891  1
  Ce  Ce11  1  0.37065257  0.09667977  0.86140346  1
