# generated using pymatgen
data_Li3Al2SiMoO2
_symmetry_space_group_name_H-M   'P 1'
_cell_length_a   12.51130193
_cell_length_b   10.72589398
_cell_length_c   10.41123359
_cell_angle_alpha   90.00000000
_cell_angle_beta   90.00000000
_cell_angle_gamma   90.00000000
_symmetry_Int_Tables_number   1
_chemical_formula_structural   Li3Al2SiMoO2
_chemical_formula_sum   'Li3 Al2 Si1 Mo1 O2'
_cell_volume   1397.13443080
_cell_formula_units_Z   1
loop_
 _symmetry_equiv_pos_site_id
 _symmetry_equiv_pos_as_xyz
  1  'x, y, z'
loop_
 _atom_site_type_symbol
 _atom_site_label
 _atom_site_symmetry_multiplicity
 _atom_site_fract_x
 _atom_site_fract_y
 _atom_site_fract_z
 _atom_site_occupancy
  Li  Li0  1  0.12500000  0.00000000  0.25000000  1
  Li  Li1  1  0.00000000  0.00000000  0.00000000  1
  Li  Li2  1  0.37500000  0.00000000  0.25000000  1
  Mo  Mo3  1  0.25000000  0.25000000  0.25000000  1
  Al  Al4  1  0.00000000  0.25000000  0.12500000  1
  Al  Al5  1  0.27580190  0.48600856  0.18755888  1
  Si  Si6  1  0.43916772  0.48960609  0.82167381  1
  O  O7  1  0.48417259  0.07940375  0.19315362  1
  O  O8  1  0.81628922  0.11032915  0.39179950  1
