# generated using pymatgen
data_Li2Nb2ClO2F3
_symmetry_space_group_name_H-M   'P 1'
_cell_length_a   7.92760373
_cell_length_b   6.90778793
_cell_length_c   8.62713954
_cell_angle_alpha   90.00000000
_cell_angle_beta   90.00000000
_cell_angle_gamma   90.00000000
_symmetry_Int_Tables_number   1
_chemical_formula_structural   Li2Nb2ClO2F3
_chemical_formula_sum   'Li2 Nb2 Cl1 O2 F3'
_cell_volume   472.44118695
_cell_formula_units_Z   1
loop_
 _symmetry_equiv_pos_site_id
 _symmetry_equiv_pos_as_xyz
  1  'x, y, z'
loop_
 _atom_site_type_symbol
 _atom_site_label
 _atom_site_symmetry_multiplicity
 _atom_site_fract_x
 _atom_site_fract_y
 _atom_site_fract_z
 _atom_site_occupancy
  Li  Li0  1  0.12500000  0.12500000  0.12500000  1
  Li  Li1  1  0.50000000  0.50000000  0.50000000  1
  Nb  Nb2  1  0.25000000  0.25000000  0.25000000  1
  Nb  Nb3  1  0.75000000  0.75000000  0.75000000  1
  F  F4  1  0.60912697  0.17573953  0.99149368  1
  F  F5  1  0.35898324  0.30567211  0.84997344  1
  F  F6  1  0.70442909  0.10111203  0.49483158  1
  O  O7  1  0.41767004  0.24006915  0.75048755  1
  O  O8  1  0.44991405  0.67599293  0.56752345  1
  Cl  Cl9  1  0.50173550  0.58146604  0.35394714  1
