# generated using pymatgen
data_Li4Al2Zn2SiO
_symmetry_space_group_name_H-M   'P 1'
_cell_length_a   12.04507025
_cell_length_b   11.61097645
_cell_length_c   11.08257810
_cell_angle_alpha   90.00000000
_cell_angle_beta   90.00000000
_cell_angle_gamma   90.00000000
_symmetry_Int_Tables_number   1
_chemical_formula_structural   Li4Al2Zn2SiO
_chemical_formula_sum   'Li4 Al2 Zn2 Si1 O1'
_cell_volume   1549.95426037
_cell_formula_units_Z   1
loop_
 _symmetry_equiv_pos_site_id
 _symmetry_equiv_pos_as_xyz
  1  'x, y, z'
loop_
 _atom_site_type_symbol
 _atom_site_label
 _atom_site_symmetry_multiplicity
 _atom_site_fract_x
 _atom_site_fract_y
 _atom_site_fract_z
 _atom_site_occupancy
  Li  Li0  1  0.12500000  0.00000000  0.25000000  1
  Li  Li1  1  0.00000000  0.00000000  0.00000000  1
  Li  Li2  1  0.37500000  0.00000000  0.25000000  1
  Li  Li3  1  0.25000000  0.25000000  0.25000000  1
  Zn  Zn4  1  0.00000000  0.25000000  0.12500000  1
  Zn  Zn5  1  0.04124508  0.42938694  0.55014412  1
  Al  Al6  1  0.39208417  0.48283357  0.23352467  1
  Al  Al7  1  0.97179892  0.69879194  0.63197498  1
  Si  Si8  1  0.20795447  0.25155841  0.42650470  1
  O  O9  1  0.88902370  0.24273509  0.14903581  1
