# generated using pymatgen
data_Li3VPO3
_symmetry_space_group_name_H-M   'P 1'
_cell_length_a   8.09641547
_cell_length_b   8.78011047
_cell_length_c   6.99998702
_cell_angle_alpha   90.00000000
_cell_angle_beta   90.00000000
_cell_angle_gamma   90.00000000
_symmetry_Int_Tables_number   1
_chemical_formula_structural   Li3VPO3
_chemical_formula_sum   'Li3 V1 P1 O3'
_cell_volume   497.61103298
_cell_formula_units_Z   1
loop_
 _symmetry_equiv_pos_site_id
 _symmetry_equiv_pos_as_xyz
  1  'x, y, z'
loop_
 _atom_site_type_symbol
 _atom_site_label
 _atom_site_symmetry_multiplicity
 _atom_site_fract_x
 _atom_site_fract_y
 _atom_site_fract_z
 _atom_site_occupancy
  Li  Li0  1  0.12500000  0.12500000  0.12500000  1
  Li  Li1  1  0.50000000  0.50000000  0.50000000  1
  Li  Li2  1  0.25000000  0.25000000  0.25000000  1
  V  V3  1  0.75000000  0.75000000  0.75000000  1
  O  O4  1  0.28602064  0.65824241  0.46732855  1
  O  O5  1  0.77304578  0.42107315  0.27620497  1
  O  O6  1  0.20769625  0.57827041  0.58076646  1
  P  P7  1  0.07643389  0.50790450  0.10833183  1
