# generated using pymatgen
data_Li2NbP2O3
_symmetry_space_group_name_H-M   'P 1'
_cell_length_a   8.02496889
_cell_length_b   7.76954777
_cell_length_c   6.95887595
_cell_angle_alpha   90.00000000
_cell_angle_beta   90.00000000
_cell_angle_gamma   90.00000000
_symmetry_Int_Tables_number   1
_chemical_formula_structural   Li2NbP2O3
_chemical_formula_sum   'Li2 Nb1 P2 O3'
_cell_volume   433.88855426
_cell_formula_units_Z   1
loop_
 _symmetry_equiv_pos_site_id
 _symmetry_equiv_pos_as_xyz
  1  'x, y, z'
loop_
 _atom_site_type_symbol
 _atom_site_label
 _atom_site_symmetry_multiplicity
 _atom_site_fract_x
 _atom_site_fract_y
 _atom_site_fract_z
 _atom_site_occupancy
  Li  Li0  1  0.12500000  0.12500000  0.12500000  1
  Li  Li1  1  0.50000000  0.50000000  0.50000000  1
  Nb  Nb2  1  0.25000000  0.25000000  0.25000000  1
  O  O3  1  0.75000000  0.75000000  0.75000000  1
  O  O4  1  0.98258690  0.98741113  0.90444406  1
  O  O5  1  0.13783728  0.14763868  0.38865091  1
  P  P6  1  0.42781682  0.54848551  0.95611368  1
  P  P7  1  0.15138377  0.71219952  0.63686188  1
