# generated using pymatgen
data_Li5LaMg3PbO
_symmetry_space_group_name_H-M   'P 1'
_cell_length_a   12.37481093
_cell_length_b   11.74039172
_cell_length_c   10.77230469
_cell_angle_alpha   90.00000000
_cell_angle_beta   90.00000000
_cell_angle_gamma   90.00000000
_symmetry_Int_Tables_number   1
_chemical_formula_structural   Li5LaMg3PbO
_chemical_formula_sum   'Li5 La1 Mg3 Pb1 O1'
_cell_volume   1565.05566256
_cell_formula_units_Z   1
loop_
 _symmetry_equiv_pos_site_id
 _symmetry_equiv_pos_as_xyz
  1  'x, y, z'
loop_
 _atom_site_type_symbol
 _atom_site_label
 _atom_site_symmetry_multiplicity
 _atom_site_fract_x
 _atom_site_fract_y
 _atom_site_fract_z
 _atom_site_occupancy
  Li  Li0  1  0.12500000  0.00000000  0.25000000  1
  Li  Li1  1  0.00000000  0.00000000  0.00000000  1
  Li  Li2  1  0.37500000  0.00000000  0.25000000  1
  Li  Li3  1  0.25000000  0.25000000  0.25000000  1
  Li  Li4  1  0.00000000  0.25000000  0.12500000  1
  La  La5  1  0.11254673  0.32210777  0.78379784  1
  Mg  Mg6  1  0.65150161  0.72753147  0.16355533  1
  Mg  Mg7  1  0.46058922  0.96893754  0.49298662  1
  Mg  Mg8  1  0.93121600  0.33952854  0.99132755  1
  Pb  Pb9  1  0.97439053  0.90970107  0.58913957  1
  O  O10  1  0.91846897  0.72728785  0.96748343  1
