# generated using pymatgen
data_Li2CrS6Br2O3
_symmetry_space_group_name_H-M   'P 1'
_cell_length_a   8.85280653
_cell_length_b   10.47940258
_cell_length_c   9.65290838
_cell_angle_alpha   90.00000000
_cell_angle_beta   90.00000000
_cell_angle_gamma   90.00000000
_symmetry_Int_Tables_number   1
_chemical_formula_structural   Li2CrS6Br2O3
_chemical_formula_sum   'Li2 Cr1 S6 Br2 O3'
_cell_volume   895.52080963
_cell_formula_units_Z   1
loop_
 _symmetry_equiv_pos_site_id
 _symmetry_equiv_pos_as_xyz
  1  'x, y, z'
loop_
 _atom_site_type_symbol
 _atom_site_label
 _atom_site_symmetry_multiplicity
 _atom_site_fract_x
 _atom_site_fract_y
 _atom_site_fract_z
 _atom_site_occupancy
  Li  Li0  1  0.00000000  0.00000000  0.00000000  1
  Li  Li1  1  0.50000000  0.50000000  0.50000000  1
  Cr  Cr2  1  0.25000000  0.25000000  0.25000000  1
  S  S3  1  0.75000000  0.25000000  0.00000000  1
  S  S4  1  0.25000000  0.75000000  0.50000000  1
  S  S5  1  0.86803785  0.32438888  0.44518698  1
  S  S6  1  0.76378729  0.36825405  0.66269615  1
  S  S7  1  0.71044587  0.51297117  0.28107371  1
  S  S8  1  0.35800984  0.77181026  0.89563642  1
  Br  Br9  1  0.82295857  0.18056590  0.18004595  1
  Br  Br10  1  0.22489268  0.51657532  0.47241955  1
  O  O11  1  0.60620329  0.68357687  0.21881962  1
  O  O12  1  0.51188785  0.08618663  0.93265820  1
  O  O13  1  0.81646688  0.12977499  0.89935024  1
