# generated using pymatgen
data_Li2Ti3Sb3TeAs2(ICl2)2
_symmetry_space_group_name_H-M   'P 1'
_cell_length_a   4.34013073
_cell_length_b   3.72027065
_cell_length_c   4.57922848
_cell_angle_alpha   87.13588085
_cell_angle_beta   89.10699666
_cell_angle_gamma   93.24558518
_symmetry_Int_Tables_number   1
_chemical_formula_structural   Li2Ti3Sb3TeAs2(ICl2)2
_chemical_formula_sum   'Li2 Ti3 Sb3 Te1 As2 I2 Cl4'
_cell_volume   73.71495472
_cell_formula_units_Z   1
loop_
 _symmetry_equiv_pos_site_id
 _symmetry_equiv_pos_as_xyz
  1  'x, y, z'
loop_
 _atom_site_type_symbol
 _atom_site_label
 _atom_site_symmetry_multiplicity
 _atom_site_fract_x
 _atom_site_fract_y
 _atom_site_fract_z
 _atom_site_occupancy
  Li  Li0  1  0.00000000  0.00000000  0.00000000  1
  Li  Li1  1  0.50000000  0.50000000  0.50000000  1
  Ti  Ti2  1  0.50000000  0.50000000  0.00000000  1
  Ti  Ti3  1  0.50000000  0.00000000  0.50000000  1
  Ti  Ti4  1  0.00000000  0.50000000  0.50000000  1
  Te  Te5  1  0.28204056  0.94859667  0.26202399  1
  Sb  Sb6  1  0.75253938  0.65133875  0.09717939  1
  Sb  Sb7  1  0.13242019  0.55163726  0.48104507  1
  Sb  Sb8  1  0.91008706  0.79039067  0.13517065  1
  As  As9  1  0.08650502  0.77656839  0.51494201  1
  As  As10  1  0.61044357  0.60653795  0.72153867  1
  I  I11  1  0.95680256  0.72576305  0.09250026  1
  I  I12  1  0.69678427  0.67236690  0.58715888  1
  Cl  Cl13  1  0.04165774  0.79364836  0.32873536  1
  Cl  Cl14  1  0.68370182  0.54952113  0.99272824  1
  Cl  Cl15  1  0.30793644  0.94685574  0.80814160  1
  Cl  Cl16  1  0.61446789  0.50328024  0.47670312  1
