# generated using pymatgen
data_Li2TaAs3O2
_symmetry_space_group_name_H-M   'P 1'
_cell_length_a   7.73608296
_cell_length_b   7.23049658
_cell_length_c   8.73501337
_cell_angle_alpha   90.00000000
_cell_angle_beta   90.00000000
_cell_angle_gamma   90.00000000
_symmetry_Int_Tables_number   1
_chemical_formula_structural   Li2TaAs3O2
_chemical_formula_sum   'Li2 Ta1 As3 O2'
_cell_volume   488.59927478
_cell_formula_units_Z   1
loop_
 _symmetry_equiv_pos_site_id
 _symmetry_equiv_pos_as_xyz
  1  'x, y, z'
loop_
 _atom_site_type_symbol
 _atom_site_label
 _atom_site_symmetry_multiplicity
 _atom_site_fract_x
 _atom_site_fract_y
 _atom_site_fract_z
 _atom_site_occupancy
  Li  Li0  1  0.12500000  0.12500000  0.12500000  1
  Li  Li1  1  0.50000000  0.50000000  0.50000000  1
  Ta  Ta2  1  0.25000000  0.25000000  0.25000000  1
  O  O3  1  0.75000000  0.75000000  0.75000000  1
  O  O4  1  0.66198711  0.72602153  0.08269479  1
  As  As5  1  0.87910603  0.02441601  0.82742168  1
  As  As6  1  0.33169435  0.60976125  0.50134575  1
  As  As7  1  0.43254796  0.20670747  0.59691932  1
