# generated using pymatgen
data_Li2Ti2As2S4(ClO)3
_symmetry_space_group_name_H-M   'P 1'
_cell_length_a   4.05392383
_cell_length_b   4.14305390
_cell_length_c   3.81316521
_cell_angle_alpha   85.16239144
_cell_angle_beta   90.66881645
_cell_angle_gamma   88.18510094
_symmetry_Int_Tables_number   1
_chemical_formula_structural   Li2Ti2As2S4(ClO)3
_chemical_formula_sum   'Li2 Ti2 As2 S4 Cl3 O3'
_cell_volume   63.77771979
_cell_formula_units_Z   1
loop_
 _symmetry_equiv_pos_site_id
 _symmetry_equiv_pos_as_xyz
  1  'x, y, z'
loop_
 _atom_site_type_symbol
 _atom_site_label
 _atom_site_symmetry_multiplicity
 _atom_site_fract_x
 _atom_site_fract_y
 _atom_site_fract_z
 _atom_site_occupancy
  Li  Li0  1  0.00000000  0.00000000  0.00000000  1
  Li  Li1  1  0.50000000  0.50000000  0.50000000  1
  Ti  Ti2  1  0.50000000  0.50000000  0.00000000  1
  Ti  Ti3  1  0.50000000  0.00000000  0.50000000  1
  S  S4  1  0.00000000  0.50000000  0.50000000  1
  S  S5  1  0.53309810  0.58965803  0.07057273  1
  S  S6  1  0.54534466  0.45555819  0.58029665  1
  S  S7  1  0.48406237  0.85823581  0.56932685  1
  As  As8  1  0.81348896  0.09914061  0.73296711  1
  As  As9  1  0.65790251  0.10607165  0.41054579  1
  O  O10  1  0.92585844  0.62519227  0.73286067  1
  O  O11  1  0.59790831  0.70418794  0.37433378  1
  O  O12  1  0.77700207  0.82896193  0.49899824  1
  Cl  Cl13  1  0.89581210  0.89019350  0.18897702  1
  Cl  Cl14  1  0.49385724  0.52799449  0.81725781  1
  Cl  Cl15  1  0.68713762  0.99145030  0.52524740  1
