# generated using pymatgen
data_Li6Ti3Sb3F4
_symmetry_space_group_name_H-M   'P 1'
_cell_length_a   3.24402372
_cell_length_b   3.42180029
_cell_length_c   5.23273244
_cell_angle_alpha   94.41015681
_cell_angle_beta   101.23834607
_cell_angle_gamma   118.92261364
_symmetry_Int_Tables_number   1
_chemical_formula_structural   Li6Ti3Sb3F4
_chemical_formula_sum   'Li6 Ti3 Sb3 F4'
_cell_volume   48.86476684
_cell_formula_units_Z   1
loop_
 _symmetry_equiv_pos_site_id
 _symmetry_equiv_pos_as_xyz
  1  'x, y, z'
loop_
 _atom_site_type_symbol
 _atom_site_label
 _atom_site_symmetry_multiplicity
 _atom_site_fract_x
 _atom_site_fract_y
 _atom_site_fract_z
 _atom_site_occupancy
  Li  Li0  1  0.00000000  0.00000000  0.00000000  1
  Li  Li1  1  0.33300000  0.66700000  0.25000000  1
  Li  Li2  1  0.66700000  0.33300000  0.50000000  1
  Li  Li3  1  0.00000000  0.00000000  0.75000000  1
  Li  Li4  1  0.10062915  0.87943723  0.30327129  1
  Li  Li5  1  0.67356245  0.47881206  0.40178872  1
  Ti  Ti6  1  0.86786092  0.04728089  0.95080908  1
  Ti  Ti7  1  0.85385897  0.60462968  0.93970464  1
  Ti  Ti8  1  0.16852257  0.66743655  0.88874540  1
  F  F9  1  0.28682124  0.68278924  0.57408288  1
  F  F10  1  0.92270865  0.45337011  0.70859533  1
  F  F11  1  0.82834730  0.29437974  0.00152019  1
  F  F12  1  0.26599075  0.12111791  0.19398933  1
  Sb  Sb13  1  0.30882952  0.86056354  0.85918039  1
  Sb  Sb14  1  0.11723661  0.24429349  0.07859266  1
  Sb  Sb15  1  0.58043458  0.66140138  0.17160702  1
