# generated using pymatgen
data_Li3Al2Si3NiN2O3
_symmetry_space_group_name_H-M   'P 1'
_cell_length_a   12.16663138
_cell_length_b   10.25631479
_cell_length_c   12.10551599
_cell_angle_alpha   90.00000000
_cell_angle_beta   90.00000000
_cell_angle_gamma   90.00000000
_symmetry_Int_Tables_number   1
_chemical_formula_structural   Li3Al2Si3NiN2O3
_chemical_formula_sum   'Li3 Al2 Si3 Ni1 N2 O3'
_cell_volume   1510.58440803
_cell_formula_units_Z   1
loop_
 _symmetry_equiv_pos_site_id
 _symmetry_equiv_pos_as_xyz
  1  'x, y, z'
loop_
 _atom_site_type_symbol
 _atom_site_label
 _atom_site_symmetry_multiplicity
 _atom_site_fract_x
 _atom_site_fract_y
 _atom_site_fract_z
 _atom_site_occupancy
  Li  Li0  1  0.12500000  0.00000000  0.25000000  1
  Li  Li1  1  0.00000000  0.00000000  0.00000000  1
  Li  Li2  1  0.37500000  0.00000000  0.25000000  1
  Ni  Ni3  1  0.25000000  0.25000000  0.25000000  1
  Al  Al4  1  0.00000000  0.25000000  0.12500000  1
  Al  Al5  1  0.83466098  0.93006892  0.60965256  1
  Si  Si6  1  0.76014857  0.52051652  0.37236571  1
  Si  Si7  1  0.24302622  0.18922914  0.21207218  1
  Si  Si8  1  0.08531650  0.02822490  0.78906987  1
  O  O9  1  0.29559555  0.91281755  0.21331443  1
  O  O10  1  0.67997860  0.57522181  0.67718517  1
  O  O11  1  0.72988154  0.04360799  0.29692546  1
  N  N12  1  0.19800407  0.51349216  0.36942383  1
  N  N13  1  0.97534921  0.71515686  0.51277863  1
