# generated using pymatgen
data_Li2ZrS2
_symmetry_space_group_name_H-M   'P 1'
_cell_length_a   3.60840255
_cell_length_b   4.27488117
_cell_length_c   6.67064558
_cell_angle_alpha   100.22959949
_cell_angle_beta   116.05495621
_cell_angle_gamma   90.90319013
_symmetry_Int_Tables_number   1
_chemical_formula_structural   Li2ZrS2
_chemical_formula_sum   'Li2 Zr1 S2'
_cell_volume   90.45824105
_cell_formula_units_Z   1
loop_
 _symmetry_equiv_pos_site_id
 _symmetry_equiv_pos_as_xyz
  1  'x, y, z'
loop_
 _atom_site_type_symbol
 _atom_site_label
 _atom_site_symmetry_multiplicity
 _atom_site_fract_x
 _atom_site_fract_y
 _atom_site_fract_z
 _atom_site_occupancy
  Li  Li0  1  0.00000000  0.00000000  0.00000000  1
  Li  Li1  1  0.33300000  0.66700000  0.25000000  1
  Zr  Zr2  1  0.66700000  0.33300000  0.50000000  1
  S  S3  1  0.00000000  0.00000000  0.75000000  1
  S  S4  1  0.91655740  0.21403403  0.89078443  1
