# generated using pymatgen
data_Li7HoTi3O
_symmetry_space_group_name_H-M   'P 1'
_cell_length_a   3.03611761
_cell_length_b   3.15599511
_cell_length_c   5.71022566
_cell_angle_alpha   91.60911236
_cell_angle_beta   115.13489712
_cell_angle_gamma   119.55297468
_symmetry_Int_Tables_number   1
_chemical_formula_structural   Li7HoTi3O
_chemical_formula_sum   'Li7 Ho1 Ti3 O1'
_cell_volume   41.08229875
_cell_formula_units_Z   1
loop_
 _symmetry_equiv_pos_site_id
 _symmetry_equiv_pos_as_xyz
  1  'x, y, z'
loop_
 _atom_site_type_symbol
 _atom_site_label
 _atom_site_symmetry_multiplicity
 _atom_site_fract_x
 _atom_site_fract_y
 _atom_site_fract_z
 _atom_site_occupancy
  Li  Li0  1  0.00000000  0.00000000  0.00000000  1
  Li  Li1  1  0.33300000  0.66700000  0.25000000  1
  Li  Li2  1  0.66700000  0.33300000  0.50000000  1
  Li  Li3  1  0.00000000  0.00000000  0.75000000  1
  Li  Li4  1  0.28637732  0.70413984  0.67195042  1
  Li  Li5  1  0.40698273  0.91059372  0.99720520  1
  Li  Li6  1  0.88594463  0.52676679  0.63534344  1
  Ti  Ti7  1  0.95404362  0.20395247  0.47898985  1
  Ti  Ti8  1  0.97439185  0.73612354  0.24342898  1
  Ti  Ti9  1  0.60014593  0.77209199  0.24666203  1
  O  O10  1  0.76458592  0.28888186  0.18966063  1
  Ho  Ho11  1  0.97710309  0.79250252  0.39222085  1
