# generated using pymatgen
data_Li6Zn(O2F)2
_symmetry_space_group_name_H-M   'P 1'
_cell_length_a   3.91328666
_cell_length_b   4.02139669
_cell_length_c   3.37726443
_cell_angle_alpha   88.76530275
_cell_angle_beta   91.71021523
_cell_angle_gamma   87.65619683
_symmetry_Int_Tables_number   1
_chemical_formula_structural   Li6Zn(O2F)2
_chemical_formula_sum   'Li6 Zn1 O4 F2'
_cell_volume   53.06568659
_cell_formula_units_Z   1
loop_
 _symmetry_equiv_pos_site_id
 _symmetry_equiv_pos_as_xyz
  1  'x, y, z'
loop_
 _atom_site_type_symbol
 _atom_site_label
 _atom_site_symmetry_multiplicity
 _atom_site_fract_x
 _atom_site_fract_y
 _atom_site_fract_z
 _atom_site_occupancy
  Li  Li0  1  0.00000000  0.00000000  0.00000000  1
  Li  Li1  1  0.50000000  0.50000000  0.50000000  1
  Li  Li2  1  0.50000000  0.50000000  0.00000000  1
  Li  Li3  1  0.50000000  0.00000000  0.50000000  1
  Li  Li4  1  0.00000000  0.50000000  0.50000000  1
  Li  Li5  1  0.90327379  0.42283836  0.36412232  1
  Zn  Zn6  1  0.52868713  0.04566527  0.57611825  1
  O  O7  1  0.14919107  0.09686888  0.12128900  1
  O  O8  1  0.44918709  0.11316647  0.35021466  1
  O  O9  1  0.95675238  0.63132922  0.11814303  1
  O  O10  1  0.40223088  0.31596950  0.88849868  1
  F  F11  1  0.02427289  0.41834721  0.62744022  1
  F  F12  1  0.86069203  0.62498341  0.78107389  1
