# generated using pymatgen
data_Li2Cu3(ClO)2
_symmetry_space_group_name_H-M   'P 1'
_cell_length_a   3.34255782
_cell_length_b   3.46161194
_cell_length_c   6.87858246
_cell_angle_alpha   106.88773977
_cell_angle_beta   94.08886225
_cell_angle_gamma   111.16497912
_symmetry_Int_Tables_number   1
_chemical_formula_structural   Li2Cu3(ClO)2
_chemical_formula_sum   'Li2 Cu3 Cl2 O2'
_cell_volume   69.62197524
_cell_formula_units_Z   1
loop_
 _symmetry_equiv_pos_site_id
 _symmetry_equiv_pos_as_xyz
  1  'x, y, z'
loop_
 _atom_site_type_symbol
 _atom_site_label
 _atom_site_symmetry_multiplicity
 _atom_site_fract_x
 _atom_site_fract_y
 _atom_site_fract_z
 _atom_site_occupancy
  Li  Li0  1  0.00000000  0.00000000  0.00000000  1
  Li  Li1  1  0.33300000  0.66700000  0.25000000  1
  Cu  Cu2  1  0.66700000  0.33300000  0.50000000  1
  Cu  Cu3  1  0.00000000  0.00000000  0.75000000  1
  Cu  Cu4  1  0.39077927  0.10132722  0.37389236  1
  Cl  Cl5  1  0.11024619  0.30457119  0.16424093  1
  Cl  Cl6  1  0.10258842  0.33860520  0.99464762  1
  O  O7  1  0.05878869  0.62799834  0.47493517  1
  O  O8  1  0.07204573  0.92770118  0.25495912  1
