# generated using pymatgen
data_Li5Zr2SbF4
_symmetry_space_group_name_H-M   'P 1'
_cell_length_a   8.31284651
_cell_length_b   9.36317004
_cell_length_c   7.64508862
_cell_angle_alpha   90.00000000
_cell_angle_beta   90.00000000
_cell_angle_gamma   90.00000000
_symmetry_Int_Tables_number   1
_chemical_formula_structural   Li5Zr2SbF4
_chemical_formula_sum   'Li5 Zr2 Sb1 F4'
_cell_volume   595.05237918
_cell_formula_units_Z   1
loop_
 _symmetry_equiv_pos_site_id
 _symmetry_equiv_pos_as_xyz
  1  'x, y, z'
loop_
 _atom_site_type_symbol
 _atom_site_label
 _atom_site_symmetry_multiplicity
 _atom_site_fract_x
 _atom_site_fract_y
 _atom_site_fract_z
 _atom_site_occupancy
  Li  Li0  1  0.12500000  0.12500000  0.12500000  1
  Li  Li1  1  0.50000000  0.50000000  0.50000000  1
  Li  Li2  1  0.25000000  0.25000000  0.25000000  1
  Li  Li3  1  0.75000000  0.75000000  0.75000000  1
  Li  Li4  1  0.81636660  0.63915950  0.15598569  1
  Zr  Zr5  1  0.95424385  0.26579669  0.02307787  1
  Zr  Zr6  1  0.89893681  0.19265608  0.64732642  1
  Sb  Sb7  1  0.83160990  0.84497528  0.45115254  1
  F  F8  1  0.60906516  0.44888955  0.57736515  1
  F  F9  1  0.25024146  0.69151775  0.64852759  1
  F  F10  1  0.43112036  0.19535893  0.95652135  1
  F  F11  1  0.37891995  0.37287745  0.99292170  1
