# generated using pymatgen
data_Li4ZrCr2(SiO)2
_symmetry_space_group_name_H-M   'P 1'
_cell_length_a   12.56256927
_cell_length_b   14.42333687
_cell_length_c   12.95050440
_cell_angle_alpha   90.00000000
_cell_angle_beta   90.00000000
_cell_angle_gamma   90.00000000
_symmetry_Int_Tables_number   1
_chemical_formula_structural   Li4ZrCr2(SiO)2
_chemical_formula_sum   'Li4 Zr1 Cr2 Si2 O2'
_cell_volume   2346.55587568
_cell_formula_units_Z   1
loop_
 _symmetry_equiv_pos_site_id
 _symmetry_equiv_pos_as_xyz
  1  'x, y, z'
loop_
 _atom_site_type_symbol
 _atom_site_label
 _atom_site_symmetry_multiplicity
 _atom_site_fract_x
 _atom_site_fract_y
 _atom_site_fract_z
 _atom_site_occupancy
  Li  Li0  1  0.12500000  0.00000000  0.25000000  1
  Li  Li1  1  0.00000000  0.00000000  0.00000000  1
  Li  Li2  1  0.37500000  0.00000000  0.25000000  1
  Li  Li3  1  0.25000000  0.25000000  0.25000000  1
  Cr  Cr4  1  0.00000000  0.25000000  0.12500000  1
  Cr  Cr5  1  0.04414866  0.53046452  0.22499827  1
  Zr  Zr6  1  0.87503118  0.64426575  0.15140632  1
  Si  Si7  1  0.40054561  0.91554631  0.04770887  1
  Si  Si8  1  0.66497703  0.82432038  0.10728912  1
  O  O9  1  0.34691331  0.67623182  0.95336623  1
  O  O10  1  0.05589012  0.05473680  0.98547491  1
