# generated using pymatgen
data_Li3YNb2I4O2F
_symmetry_space_group_name_H-M   'P 1'
_cell_length_a   3.96765709
_cell_length_b   3.43140397
_cell_length_c   3.87163586
_cell_angle_alpha   85.66446995
_cell_angle_beta   93.94525764
_cell_angle_gamma   85.06509894
_symmetry_Int_Tables_number   1
_chemical_formula_structural   Li3YNb2I4O2F
_chemical_formula_sum   'Li3 Y1 Nb2 I4 O2 F1'
_cell_volume   52.21456836
_cell_formula_units_Z   1
loop_
 _symmetry_equiv_pos_site_id
 _symmetry_equiv_pos_as_xyz
  1  'x, y, z'
loop_
 _atom_site_type_symbol
 _atom_site_label
 _atom_site_symmetry_multiplicity
 _atom_site_fract_x
 _atom_site_fract_y
 _atom_site_fract_z
 _atom_site_occupancy
  Li  Li0  1  0.00000000  0.00000000  0.00000000  1
  Li  Li1  1  0.50000000  0.50000000  0.50000000  1
  Li  Li2  1  0.50000000  0.50000000  0.00000000  1
  Y  Y3  1  0.50000000  0.00000000  0.50000000  1
  Nb  Nb4  1  0.00000000  0.50000000  0.50000000  1
  Nb  Nb5  1  0.00692256  0.56428841  0.12906143  1
  F  F6  1  0.60198863  0.01231252  0.28878579  1
  O  O7  1  0.43690487  0.27969269  0.30097162  1
  O  O8  1  0.32632625  0.03098447  0.09534267  1
  I  I9  1  0.30382967  0.48137441  0.61183530  1
  I  I10  1  0.21668832  0.06479618  0.93769595  1
  I  I11  1  0.97297536  0.74288524  0.93046032  1
  I  I12  1  0.09178073  0.86165763  0.82856715  1
