# generated using pymatgen
data_LiCa3I2
_symmetry_space_group_name_H-M   'P 1'
_cell_length_a   3.18214434
_cell_length_b   3.47518465
_cell_length_c   5.46932147
_cell_angle_alpha   92.19956836
_cell_angle_beta   105.91861534
_cell_angle_gamma   104.33614198
_symmetry_Int_Tables_number   1
_chemical_formula_structural   LiCa3I2
_chemical_formula_sum   'Li1 Ca3 I2'
_cell_volume   55.98419148
_cell_formula_units_Z   1
loop_
 _symmetry_equiv_pos_site_id
 _symmetry_equiv_pos_as_xyz
  1  'x, y, z'
loop_
 _atom_site_type_symbol
 _atom_site_label
 _atom_site_symmetry_multiplicity
 _atom_site_fract_x
 _atom_site_fract_y
 _atom_site_fract_z
 _atom_site_occupancy
  Li  Li0  1  0.00000000  0.00000000  0.00000000  1
  Ca  Ca1  1  0.33300000  0.66700000  0.25000000  1
  Ca  Ca2  1  0.66700000  0.33300000  0.50000000  1
  Ca  Ca3  1  0.00000000  0.00000000  0.75000000  1
  I  I4  1  0.63384046  0.78569541  0.43895125  1
  I  I5  1  0.50159207  0.27224892  0.32429820  1
