# generated using pymatgen
data_Li3NiTe2Se3S10
_symmetry_space_group_name_H-M   'P 1'
_cell_length_a   3.78308181
_cell_length_b   4.25224007
_cell_length_c   3.69221863
_cell_angle_alpha   85.15121230
_cell_angle_beta   93.41925920
_cell_angle_gamma   93.45507180
_symmetry_Int_Tables_number   1
_chemical_formula_structural   Li3NiTe2Se3S10
_chemical_formula_sum   'Li3 Ni1 Te2 Se3 S10'
_cell_volume   58.98609805
_cell_formula_units_Z   1
loop_
 _symmetry_equiv_pos_site_id
 _symmetry_equiv_pos_as_xyz
  1  'x, y, z'
loop_
 _atom_site_type_symbol
 _atom_site_label
 _atom_site_symmetry_multiplicity
 _atom_site_fract_x
 _atom_site_fract_y
 _atom_site_fract_z
 _atom_site_occupancy
  Li  Li0  1  0.00000000  0.00000000  0.00000000  1
  Li  Li1  1  0.50000000  0.50000000  0.50000000  1
  Li  Li2  1  0.50000000  0.50000000  0.00000000  1
  Ni  Ni3  1  0.50000000  0.00000000  0.50000000  1
  S  S4  1  0.00000000  0.50000000  0.50000000  1
  S  S5  1  0.37196934  0.57184985  0.57294298  1
  S  S6  1  0.86743351  0.21691269  0.79485816  1
  S  S7  1  0.82280409  0.47559529  0.65978416  1
  S  S8  1  0.69353152  0.86837243  0.75190663  1
  S  S9  1  0.29889584  0.79029403  0.61045208  1
  S  S10  1  0.71451889  0.26593559  0.65556524  1
  S  S11  1  0.33950798  0.56433352  0.85836416  1
  S  S12  1  0.23497947  0.79041521  0.83957336  1
  S  S13  1  0.88760315  0.91790299  0.96203386  1
  Te  Te14  1  0.13217249  0.53688014  0.47687393  1
  Te  Te15  1  0.82792316  0.69435261  0.54437702  1
  Se  Se16  1  0.61937710  0.50942991  0.99365594  1
  Se  Se17  1  0.42473701  0.68551855  0.48413237  1
  Se  Se18  1  0.98924057  0.28994386  0.79642893  1
