# generated using pymatgen
data_Li3ZnP2Br3O2
_symmetry_space_group_name_H-M   'P 1'
_cell_length_a   8.98655529
_cell_length_b   7.77579400
_cell_length_c   8.14671840
_cell_angle_alpha   90.00000000
_cell_angle_beta   90.00000000
_cell_angle_gamma   90.00000000
_symmetry_Int_Tables_number   1
_chemical_formula_structural   Li3ZnP2Br3O2
_chemical_formula_sum   'Li3 Zn1 P2 Br3 O2'
_cell_volume   569.27315238
_cell_formula_units_Z   1
loop_
 _symmetry_equiv_pos_site_id
 _symmetry_equiv_pos_as_xyz
  1  'x, y, z'
loop_
 _atom_site_type_symbol
 _atom_site_label
 _atom_site_symmetry_multiplicity
 _atom_site_fract_x
 _atom_site_fract_y
 _atom_site_fract_z
 _atom_site_occupancy
  Li  Li0  1  0.00000000  0.00000000  0.00000000  1
  Li  Li1  1  0.50000000  0.50000000  0.50000000  1
  Li  Li2  1  0.25000000  0.25000000  0.25000000  1
  Zn  Zn3  1  0.75000000  0.25000000  0.00000000  1
  P  P4  1  0.25000000  0.75000000  0.50000000  1
  P  P5  1  0.80957357  0.60944402  0.35303653  1
  Br  Br6  1  0.75461396  0.52366888  0.61520388  1
  Br  Br7  1  0.55351341  0.32262040  0.61350246  1
  Br  Br8  1  0.84694157  0.97018761  0.50490154  1
  O  O9  1  0.09593817  0.05386109  0.21814031  1
  O  O10  1  0.41823895  0.76412512  0.10108169  1
