# generated using pymatgen
data_LiTi3SnSb2
_symmetry_space_group_name_H-M   'P 1'
_cell_length_a   3.19787499
_cell_length_b   3.18187408
_cell_length_c   5.07869021
_cell_angle_alpha   118.79055473
_cell_angle_beta   98.73194255
_cell_angle_gamma   92.73092228
_symmetry_Int_Tables_number   1
_chemical_formula_structural   LiTi3SnSb2
_chemical_formula_sum   'Li1 Ti3 Sn1 Sb2'
_cell_volume   44.32684207
_cell_formula_units_Z   1
loop_
 _symmetry_equiv_pos_site_id
 _symmetry_equiv_pos_as_xyz
  1  'x, y, z'
loop_
 _atom_site_type_symbol
 _atom_site_label
 _atom_site_symmetry_multiplicity
 _atom_site_fract_x
 _atom_site_fract_y
 _atom_site_fract_z
 _atom_site_occupancy
  Li  Li0  1  0.00000000  0.00000000  0.00000000  1
  Ti  Ti1  1  0.33300000  0.66700000  0.25000000  1
  Ti  Ti2  1  0.66700000  0.33300000  0.50000000  1
  Ti  Ti3  1  0.00000000  0.00000000  0.75000000  1
  Sb  Sb4  1  0.00501174  0.16307171  0.33700320  1
  Sb  Sb5  1  0.96567865  0.52144336  0.87831465  1
  Sn  Sn6  1  0.55537251  0.47939825  0.19810757  1
