# generated using pymatgen
data_Li2Mg3TiSb5P5Cl3
_symmetry_space_group_name_H-M   'P 1'
_cell_length_a   8.07063266
_cell_length_b   8.66787604
_cell_length_c   8.07292288
_cell_angle_alpha   90.00000000
_cell_angle_beta   90.00000000
_cell_angle_gamma   90.00000000
_symmetry_Int_Tables_number   1
_chemical_formula_structural   Li2Mg3TiSb5P5Cl3
_chemical_formula_sum   'Li2 Mg3 Ti1 Sb5 P5 Cl3'
_cell_volume   564.74328553
_cell_formula_units_Z   1
loop_
 _symmetry_equiv_pos_site_id
 _symmetry_equiv_pos_as_xyz
  1  'x, y, z'
loop_
 _atom_site_type_symbol
 _atom_site_label
 _atom_site_symmetry_multiplicity
 _atom_site_fract_x
 _atom_site_fract_y
 _atom_site_fract_z
 _atom_site_occupancy
  Li  Li0  1  0.00000000  0.00000000  0.00000000  1
  Li  Li1  1  0.50000000  0.50000000  0.50000000  1
  Mg  Mg2  1  0.25000000  0.25000000  0.25000000  1
  Mg  Mg3  1  0.75000000  0.25000000  0.00000000  1
  Mg  Mg4  1  0.25000000  0.75000000  0.50000000  1
  Sb  Sb5  1  0.30284563  0.38523679  0.36774013  1
  Sb  Sb6  1  0.46260601  0.55960895  0.33676997  1
  Sb  Sb7  1  0.59516090  0.91300590  0.57925132  1
  Sb  Sb8  1  0.81910797  0.01897169  0.63758731  1
  Sb  Sb9  1  0.57464007  0.72101905  0.76005327  1
  Cl  Cl10  1  0.56181920  0.62861625  0.24160079  1
  Cl  Cl11  1  0.26043727  0.03823483  0.25839958  1
  Cl  Cl12  1  0.40007326  0.84562982  0.52768684  1
  P  P13  1  0.12261888  0.07726710  0.84600717  1
  P  P14  1  0.54468567  0.84480008  0.84256143  1
  P  P15  1  0.17460588  0.06964271  0.04961503  1
  P  P16  1  0.41932071  0.22412427  0.95694148  1
  P  P17  1  0.19994936  0.94863309  0.11298872  1
  Ti  Ti18  1  0.41553462  0.54837034  0.19642517  1
