# generated using pymatgen
data_Li3Ti3(PO2)2
_symmetry_space_group_name_H-M   'P 1'
_cell_length_a   4.32369774
_cell_length_b   5.16533476
_cell_length_c   4.82766933
_cell_angle_alpha   91.60399613
_cell_angle_beta   86.28255852
_cell_angle_gamma   93.00053883
_symmetry_Int_Tables_number   1
_chemical_formula_structural   Li3Ti3(PO2)2
_chemical_formula_sum   'Li3 Ti3 P2 O4'
_cell_volume   107.41091513
_cell_formula_units_Z   1
loop_
 _symmetry_equiv_pos_site_id
 _symmetry_equiv_pos_as_xyz
  1  'x, y, z'
loop_
 _atom_site_type_symbol
 _atom_site_label
 _atom_site_symmetry_multiplicity
 _atom_site_fract_x
 _atom_site_fract_y
 _atom_site_fract_z
 _atom_site_occupancy
  Li  Li0  1  0.00000000  0.00000000  0.00000000  1
  Li  Li1  1  0.50000000  0.50000000  0.50000000  1
  Li  Li2  1  0.50000000  0.50000000  0.00000000  1
  Ti  Ti3  1  0.50000000  0.00000000  0.50000000  1
  Ti  Ti4  1  0.00000000  0.50000000  0.50000000  1
  Ti  Ti5  1  0.49897283  0.18173770  0.86948007  1
  P  P6  1  0.27326549  0.40545375  0.45796276  1
  P  P7  1  0.75775975  0.45194748  0.64098184  1
  O  O8  1  0.20072143  0.86168369  0.30130130  1
  O  O9  1  0.16497856  0.34494732  0.89873699  1
  O  O10  1  0.29026682  0.74860577  0.05494047  1
  O  O11  1  0.25655607  0.92805282  0.12906028  1
