# generated using pymatgen
data_Li2La2Si3Ni2O3
_symmetry_space_group_name_H-M   'P 1'
_cell_length_a   12.35693533
_cell_length_b   10.61806628
_cell_length_c   13.90872049
_cell_angle_alpha   90.00000000
_cell_angle_beta   90.00000000
_cell_angle_gamma   90.00000000
_symmetry_Int_Tables_number   1
_chemical_formula_structural   Li2La2Si3Ni2O3
_chemical_formula_sum   'Li2 La2 Si3 Ni2 O3'
_cell_volume   1824.91812927
_cell_formula_units_Z   1
loop_
 _symmetry_equiv_pos_site_id
 _symmetry_equiv_pos_as_xyz
  1  'x, y, z'
loop_
 _atom_site_type_symbol
 _atom_site_label
 _atom_site_symmetry_multiplicity
 _atom_site_fract_x
 _atom_site_fract_y
 _atom_site_fract_z
 _atom_site_occupancy
  Li  Li0  1  0.12500000  0.00000000  0.25000000  1
  Li  Li1  1  0.00000000  0.00000000  0.00000000  1
  La  La2  1  0.37500000  0.00000000  0.25000000  1
  La  La3  1  0.25000000  0.25000000  0.25000000  1
  Ni  Ni4  1  0.00000000  0.25000000  0.12500000  1
  Ni  Ni5  1  0.49190278  0.92476466  0.72746933  1
  Si  Si6  1  0.26971627  0.70048764  0.56317690  1
  Si  Si7  1  0.88069252  0.14710630  0.36095791  1
  Si  Si8  1  0.86319100  0.93530076  0.61056055  1
  O  O9  1  0.08980634  0.82128657  0.91295171  1
  O  O10  1  0.63581104  0.31754228  0.97303230  1
  O  O11  1  0.26117411  0.82704478  0.80194448  1
