# generated using pymatgen
data_Li3Ti3I5O2
_symmetry_space_group_name_H-M   'P 1'
_cell_length_a   4.07057474
_cell_length_b   3.91705431
_cell_length_c   3.50800520
_cell_angle_alpha   88.81979565
_cell_angle_beta   85.92952623
_cell_angle_gamma   92.49358654
_symmetry_Int_Tables_number   1
_chemical_formula_structural   Li3Ti3I5O2
_chemical_formula_sum   'Li3 Ti3 I5 O2'
_cell_volume   55.72428828
_cell_formula_units_Z   1
loop_
 _symmetry_equiv_pos_site_id
 _symmetry_equiv_pos_as_xyz
  1  'x, y, z'
loop_
 _atom_site_type_symbol
 _atom_site_label
 _atom_site_symmetry_multiplicity
 _atom_site_fract_x
 _atom_site_fract_y
 _atom_site_fract_z
 _atom_site_occupancy
  Li  Li0  1  0.00000000  0.00000000  0.00000000  1
  Li  Li1  1  0.50000000  0.50000000  0.50000000  1
  Li  Li2  1  0.50000000  0.50000000  0.00000000  1
  Ti  Ti3  1  0.50000000  0.00000000  0.50000000  1
  Ti  Ti4  1  0.00000000  0.50000000  0.50000000  1
  Ti  Ti5  1  0.37871507  0.13367615  0.00021209  1
  O  O6  1  0.93921529  0.58920508  0.71701991  1
  O  O7  1  0.68647162  0.39997312  0.98794252  1
  I  I8  1  0.02062871  0.29133969  0.01098636  1
  I  I9  1  0.87450467  0.24752499  0.77301820  1
  I  I10  1  0.06507114  0.66252022  0.70811958  1
  I  I11  1  0.96704405  0.50181810  0.01128351  1
  I  I12  1  0.05946489  0.89582278  0.77983330  1
