# generated using pymatgen
data_Li2TiP4SeS4
_symmetry_space_group_name_H-M   'P 1'
_cell_length_a   8.54112311
_cell_length_b   6.90537783
_cell_length_c   10.23561381
_cell_angle_alpha   90.00000000
_cell_angle_beta   90.00000000
_cell_angle_gamma   90.00000000
_symmetry_Int_Tables_number   1
_chemical_formula_structural   Li2TiP4SeS4
_chemical_formula_sum   'Li2 Ti1 P4 Se1 S4'
_cell_volume   603.69324945
_cell_formula_units_Z   1
loop_
 _symmetry_equiv_pos_site_id
 _symmetry_equiv_pos_as_xyz
  1  'x, y, z'
loop_
 _atom_site_type_symbol
 _atom_site_label
 _atom_site_symmetry_multiplicity
 _atom_site_fract_x
 _atom_site_fract_y
 _atom_site_fract_z
 _atom_site_occupancy
  Li  Li0  1  0.00000000  0.00000000  0.00000000  1
  Li  Li1  1  0.50000000  0.50000000  0.50000000  1
  Ti  Ti2  1  0.25000000  0.25000000  0.25000000  1
  P  P3  1  0.75000000  0.25000000  0.00000000  1
  P  P4  1  0.25000000  0.75000000  0.50000000  1
  P  P5  1  0.18026549  0.16937602  0.17322666  1
  P  P6  1  0.60504690  0.98081149  0.27529136  1
  Se  Se7  1  0.11112382  0.96790930  0.44391080  1
  S  S8  1  0.06193333  0.13702753  0.45852989  1
  S  S9  1  0.00220956  0.34344968  0.22981364  1
  S  S10  1  0.46385368  0.29162088  0.30251498  1
  S  S11  1  0.70871792  0.67634243  0.67975912  1
