# generated using pymatgen
data_Li3TiSb4(Se2O)2
_symmetry_space_group_name_H-M   'P 1'
_cell_length_a   8.91883718
_cell_length_b   8.70773467
_cell_length_c   9.74824490
_cell_angle_alpha   90.00000000
_cell_angle_beta   90.00000000
_cell_angle_gamma   90.00000000
_symmetry_Int_Tables_number   1
_chemical_formula_structural   Li3TiSb4(Se2O)2
_chemical_formula_sum   'Li3 Ti1 Sb4 Se4 O2'
_cell_volume   757.07665417
_cell_formula_units_Z   1
loop_
 _symmetry_equiv_pos_site_id
 _symmetry_equiv_pos_as_xyz
  1  'x, y, z'
loop_
 _atom_site_type_symbol
 _atom_site_label
 _atom_site_symmetry_multiplicity
 _atom_site_fract_x
 _atom_site_fract_y
 _atom_site_fract_z
 _atom_site_occupancy
  Li  Li0  1  0.00000000  0.00000000  0.00000000  1
  Li  Li1  1  0.50000000  0.50000000  0.50000000  1
  Li  Li2  1  0.25000000  0.25000000  0.25000000  1
  Ti  Ti3  1  0.75000000  0.25000000  0.00000000  1
  Se  Se4  1  0.25000000  0.75000000  0.50000000  1
  Se  Se5  1  0.28301437  0.01203923  0.40437551  1
  Se  Se6  1  0.54445870  0.65753578  0.27971198  1
  Se  Se7  1  0.22148429  0.89687314  0.64882357  1
  O  O8  1  0.10687066  0.35760697  0.19601333  1
  O  O9  1  0.69559758  0.72805716  0.65008710  1
  Sb  Sb10  1  0.90732041  0.28696270  0.18126578  1
  Sb  Sb11  1  0.64524057  0.37629812  0.31202902  1
  Sb  Sb12  1  0.15155967  0.66715417  0.44741138  1
  Sb  Sb13  1  0.56522945  0.90818985  0.80800188  1
