# generated using pymatgen
data_Li3TeMo2SeS4O3
_symmetry_space_group_name_H-M   'P 1'
_cell_length_a   8.32599644
_cell_length_b   7.49387566
_cell_length_c   8.84674300
_cell_angle_alpha   90.00000000
_cell_angle_beta   90.00000000
_cell_angle_gamma   90.00000000
_symmetry_Int_Tables_number   1
_chemical_formula_structural   Li3TeMo2SeS4O3
_chemical_formula_sum   'Li3 Te1 Mo2 Se1 S4 O3'
_cell_volume   551.98352389
_cell_formula_units_Z   1
loop_
 _symmetry_equiv_pos_site_id
 _symmetry_equiv_pos_as_xyz
  1  'x, y, z'
loop_
 _atom_site_type_symbol
 _atom_site_label
 _atom_site_symmetry_multiplicity
 _atom_site_fract_x
 _atom_site_fract_y
 _atom_site_fract_z
 _atom_site_occupancy
  Li  Li0  1  0.00000000  0.00000000  0.00000000  1
  Li  Li1  1  0.50000000  0.50000000  0.50000000  1
  Li  Li2  1  0.25000000  0.25000000  0.25000000  1
  Mo  Mo3  1  0.75000000  0.25000000  0.00000000  1
  Mo  Mo4  1  0.25000000  0.75000000  0.50000000  1
  Se  Se5  1  0.85864756  0.25886350  0.80486129  1
  O  O6  1  0.60082387  0.44525833  0.16272130  1
  O  O7  1  0.41595662  0.64236413  0.00361091  1
  O  O8  1  0.78159645  0.41163444  0.20303505  1
  S  S9  1  0.74604672  0.81531287  0.91539255  1
  S  S10  1  0.56079297  0.54267800  0.81421245  1
  S  S11  1  0.73754262  0.58216228  0.22659034  1
  S  S12  1  0.58027721  0.15014967  0.15201373  1
  Te  Te13  1  0.88029225  0.50939964  0.96605329  1
