# generated using pymatgen
data_Li3Sc2As3PO3
_symmetry_space_group_name_H-M   'P 1'
_cell_length_a   8.99319411
_cell_length_b   10.00445959
_cell_length_c   10.26929411
_cell_angle_alpha   90.00000000
_cell_angle_beta   90.00000000
_cell_angle_gamma   90.00000000
_symmetry_Int_Tables_number   1
_chemical_formula_structural   Li3Sc2As3PO3
_chemical_formula_sum   'Li3 Sc2 As3 P1 O3'
_cell_volume   923.94941299
_cell_formula_units_Z   1
loop_
 _symmetry_equiv_pos_site_id
 _symmetry_equiv_pos_as_xyz
  1  'x, y, z'
loop_
 _atom_site_type_symbol
 _atom_site_label
 _atom_site_symmetry_multiplicity
 _atom_site_fract_x
 _atom_site_fract_y
 _atom_site_fract_z
 _atom_site_occupancy
  Li  Li0  1  0.00000000  0.00000000  0.00000000  1
  Li  Li1  1  0.50000000  0.50000000  0.50000000  1
  Li  Li2  1  0.25000000  0.25000000  0.25000000  1
  Sc  Sc3  1  0.75000000  0.25000000  0.00000000  1
  Sc  Sc4  1  0.25000000  0.75000000  0.50000000  1
  P  P5  1  0.28545554  0.54046550  0.09333344  1
  O  O6  1  0.79930973  0.35943661  0.44454180  1
  O  O7  1  0.70443928  0.15434851  0.57579152  1
  O  O8  1  0.76842620  0.19918347  0.29926459  1
  As  As9  1  0.80045610  0.46489258  0.55346031  1
  As  As10  1  0.37762067  0.48102253  0.64145538  1
  As  As11  1  0.80958240  0.42045716  0.26084774  1
