# generated using pymatgen
data_Li5Mn2F5
_symmetry_space_group_name_H-M   'P 1'
_cell_length_a   3.31794305
_cell_length_b   3.08758068
_cell_length_c   5.44407626
_cell_angle_alpha   116.19949284
_cell_angle_beta   115.74309347
_cell_angle_gamma   109.95349551
_symmetry_Int_Tables_number   1
_chemical_formula_structural   Li5Mn2F5
_chemical_formula_sum   'Li5 Mn2 F5'
_cell_volume   33.88296651
_cell_formula_units_Z   1
loop_
 _symmetry_equiv_pos_site_id
 _symmetry_equiv_pos_as_xyz
  1  'x, y, z'
loop_
 _atom_site_type_symbol
 _atom_site_label
 _atom_site_symmetry_multiplicity
 _atom_site_fract_x
 _atom_site_fract_y
 _atom_site_fract_z
 _atom_site_occupancy
  Li  Li0  1  0.00000000  0.00000000  0.00000000  1
  Li  Li1  1  0.33300000  0.66700000  0.25000000  1
  Li  Li2  1  0.66700000  0.33300000  0.50000000  1
  Li  Li3  1  0.00000000  0.00000000  0.75000000  1
  Li  Li4  1  0.17536068  0.90119952  0.38988039  1
  Mn  Mn5  1  0.45129386  0.52583875  0.15624347  1
  Mn  Mn6  1  0.53397608  0.70251776  0.39376176  1
  F  F7  1  0.67098131  0.56964810  0.61333046  1
  F  F8  1  0.01846656  0.50625976  0.35686996  1
  F  F9  1  0.16449888  0.40954914  0.67583745  1
  F  F10  1  0.73560345  0.23659273  0.50132374  1
  F  F11  1  0.12164217  0.46570195  0.72509948  1
