# generated using pymatgen
data_LiYSb5P2Se
_symmetry_space_group_name_H-M   'P 1'
_cell_length_a   8.28083528
_cell_length_b   8.01453015
_cell_length_c   7.00458866
_cell_angle_alpha   90.00000000
_cell_angle_beta   90.00000000
_cell_angle_gamma   90.00000000
_symmetry_Int_Tables_number   1
_chemical_formula_structural   LiYSb5P2Se
_chemical_formula_sum   'Li1 Y1 Sb5 P2 Se1'
_cell_volume   464.87356385
_cell_formula_units_Z   1
loop_
 _symmetry_equiv_pos_site_id
 _symmetry_equiv_pos_as_xyz
  1  'x, y, z'
loop_
 _atom_site_type_symbol
 _atom_site_label
 _atom_site_symmetry_multiplicity
 _atom_site_fract_x
 _atom_site_fract_y
 _atom_site_fract_z
 _atom_site_occupancy
  Li  Li0  1  0.00000000  0.00000000  0.00000000  1
  Y  Y1  1  0.50000000  0.50000000  0.50000000  1
  P  P2  1  0.25000000  0.25000000  0.25000000  1
  P  P3  1  0.75000000  0.25000000  0.00000000  1
  Se  Se4  1  0.25000000  0.75000000  0.50000000  1
  Sb  Sb5  1  0.61390740  0.52140073  0.66754517  1
  Sb  Sb6  1  0.82672973  0.85305823  0.79197491  1
  Sb  Sb7  1  0.39145634  0.51547026  0.84546119  1
  Sb  Sb8  1  0.39914067  0.26906899  0.37245078  1
  Sb  Sb9  1  0.70302084  0.54179253  0.37730389  1
