# generated using pymatgen
data_LiFe2W2SO7
_symmetry_space_group_name_H-M   'P 1'
_cell_length_a   3.51381072
_cell_length_b   3.64629972
_cell_length_c   3.73021489
_cell_angle_alpha   92.35781782
_cell_angle_beta   88.21449578
_cell_angle_gamma   85.94802091
_symmetry_Int_Tables_number   1
_chemical_formula_structural   LiFe2W2SO7
_chemical_formula_sum   'Li1 Fe2 W2 S1 O7'
_cell_volume   47.60537394
_cell_formula_units_Z   1
loop_
 _symmetry_equiv_pos_site_id
 _symmetry_equiv_pos_as_xyz
  1  'x, y, z'
loop_
 _atom_site_type_symbol
 _atom_site_label
 _atom_site_symmetry_multiplicity
 _atom_site_fract_x
 _atom_site_fract_y
 _atom_site_fract_z
 _atom_site_occupancy
  Li  Li0  1  0.00000000  0.00000000  0.00000000  1
  Fe  Fe1  1  0.50000000  0.50000000  0.50000000  1
  Fe  Fe2  1  0.50000000  0.50000000  0.00000000  1
  W  W3  1  0.50000000  0.00000000  0.50000000  1
  W  W4  1  0.00000000  0.50000000  0.50000000  1
  O  O5  1  0.32897651  0.74905766  0.38938885  1
  O  O6  1  0.20731293  0.71109986  0.56942905  1
  O  O7  1  0.54376613  0.27579572  0.67239126  1
  O  O8  1  0.79517344  0.33559924  0.07941973  1
  O  O9  1  0.47760707  0.78021058  0.69415855  1
  O  O10  1  0.50667817  0.97064220  0.60478559  1
  O  O11  1  0.48523461  0.08540707  0.62287550  1
  S  S12  1  0.96882467  0.94627170  0.72188289  1
