# generated using pymatgen
data_Li2AlSO
_symmetry_space_group_name_H-M   'P 1'
_cell_length_a   7.62922407
_cell_length_b   9.12786327
_cell_length_c   7.39974398
_cell_angle_alpha   90.00000000
_cell_angle_beta   90.00000000
_cell_angle_gamma   90.00000000
_symmetry_Int_Tables_number   1
_chemical_formula_structural   Li2AlSO
_chemical_formula_sum   'Li4 Al2 S2 O2'
_cell_volume   515.30717614
_cell_formula_units_Z   2
loop_
 _symmetry_equiv_pos_site_id
 _symmetry_equiv_pos_as_xyz
  1  'x, y, z'
loop_
 _atom_site_type_symbol
 _atom_site_label
 _atom_site_symmetry_multiplicity
 _atom_site_fract_x
 _atom_site_fract_y
 _atom_site_fract_z
 _atom_site_occupancy
  Li  Li0  1  0.12500000  0.12500000  0.12500000  1
  Li  Li1  1  0.50000000  0.50000000  0.50000000  1
  Li  Li2  1  0.25000000  0.25000000  0.25000000  1
  Li  Li3  1  0.75000000  0.75000000  0.75000000  1
  Al  Al4  1  0.24271966  0.44388656  0.83959297  1
  Al  Al5  1  0.50859085  0.04991337  0.30084119  1
  O  O6  1  0.33544218  0.62732006  0.25015747  1
  O  O7  1  0.80638660  0.36851131  0.44975832  1
  S  S8  1  0.45013324  0.98701433  0.33339439  1
  S  S9  1  0.36666875  0.56297245  0.22347689  1
