# generated using pymatgen
data_LiZr2O2
_symmetry_space_group_name_H-M   'P 1'
_cell_length_a   3.63475735
_cell_length_b   3.25114430
_cell_length_c   5.54880895
_cell_angle_alpha   109.61862625
_cell_angle_beta   91.85164470
_cell_angle_gamma   94.83309036
_symmetry_Int_Tables_number   1
_chemical_formula_structural   LiZr2O2
_chemical_formula_sum   'Li1 Zr2 O2'
_cell_volume   61.41641971
_cell_formula_units_Z   1
loop_
 _symmetry_equiv_pos_site_id
 _symmetry_equiv_pos_as_xyz
  1  'x, y, z'
loop_
 _atom_site_type_symbol
 _atom_site_label
 _atom_site_symmetry_multiplicity
 _atom_site_fract_x
 _atom_site_fract_y
 _atom_site_fract_z
 _atom_site_occupancy
  Li  Li0  1  0.00000000  0.00000000  0.00000000  1
  Zr  Zr1  1  0.33300000  0.66700000  0.25000000  1
  Zr  Zr2  1  0.66700000  0.33300000  0.50000000  1
  O  O3  1  0.00000000  0.00000000  0.75000000  1
  O  O4  1  0.82633252  0.28337245  0.37666533  1
