# generated using pymatgen
data_Li4CaO3
_symmetry_space_group_name_H-M   'P 1'
_cell_length_a   3.79479252
_cell_length_b   4.34521309
_cell_length_c   5.92891664
_cell_angle_alpha   100.11787328
_cell_angle_beta   113.52988262
_cell_angle_gamma   118.26083653
_symmetry_Int_Tables_number   1
_chemical_formula_structural   Li4CaO3
_chemical_formula_sum   'Li4 Ca1 O3'
_cell_volume   70.44040241
_cell_formula_units_Z   1
loop_
 _symmetry_equiv_pos_site_id
 _symmetry_equiv_pos_as_xyz
  1  'x, y, z'
loop_
 _atom_site_type_symbol
 _atom_site_label
 _atom_site_symmetry_multiplicity
 _atom_site_fract_x
 _atom_site_fract_y
 _atom_site_fract_z
 _atom_site_occupancy
  Li  Li0  1  0.00000000  0.00000000  0.00000000  1
  Li  Li1  1  0.33300000  0.66700000  0.25000000  1
  Li  Li2  1  0.66700000  0.33300000  0.50000000  1
  Li  Li3  1  0.00000000  0.00000000  0.75000000  1
  Ca  Ca4  1  0.69801914  0.65733342  0.81414512  1
  O  O5  1  0.46354523  0.40357387  0.27609142  1
  O  O6  1  0.20203132  0.16303210  0.12597375  1
  O  O7  1  0.81442544  0.73376237  0.15037948  1
