# generated using pymatgen
data_Li3ScZn2In2As3
_symmetry_space_group_name_H-M   'P 1'
_cell_length_a   12.00573338
_cell_length_b   12.73785673
_cell_length_c   10.26903606
_cell_angle_alpha   90.00000000
_cell_angle_beta   90.00000000
_cell_angle_gamma   90.00000000
_symmetry_Int_Tables_number   1
_chemical_formula_structural   Li3ScZn2In2As3
_chemical_formula_sum   'Li3 Sc1 Zn2 In2 As3'
_cell_volume   1570.41607846
_cell_formula_units_Z   1
loop_
 _symmetry_equiv_pos_site_id
 _symmetry_equiv_pos_as_xyz
  1  'x, y, z'
loop_
 _atom_site_type_symbol
 _atom_site_label
 _atom_site_symmetry_multiplicity
 _atom_site_fract_x
 _atom_site_fract_y
 _atom_site_fract_z
 _atom_site_occupancy
  Li  Li0  1  0.12500000  0.00000000  0.25000000  1
  Li  Li1  1  0.00000000  0.00000000  0.00000000  1
  Li  Li2  1  0.37500000  0.00000000  0.25000000  1
  Zn  Zn3  1  0.25000000  0.25000000  0.25000000  1
  Zn  Zn4  1  0.00000000  0.25000000  0.12500000  1
  Sc  Sc5  1  0.25377555  0.23110561  0.37585167  1
  In  In6  1  0.39806408  0.93768202  0.32684755  1
  In  In7  1  0.06941303  0.32266254  0.53679797  1
  As  As8  1  0.18025423  0.07462758  0.62538377  1
  As  As9  1  0.90788932  0.13030131  0.39351317  1
  As  As10  1  0.62308332  0.41963987  0.26444113  1
