# generated using pymatgen
data_Li5(FeO)2
_symmetry_space_group_name_H-M   'P 1'
_cell_length_a   3.56557549
_cell_length_b   3.41905216
_cell_length_c   6.64843804
_cell_angle_alpha   96.78213280
_cell_angle_beta   117.20472726
_cell_angle_gamma   96.95944769
_symmetry_Int_Tables_number   1
_chemical_formula_structural   Li5(FeO)2
_chemical_formula_sum   'Li5 Fe2 O2'
_cell_volume   70.15813141
_cell_formula_units_Z   1
loop_
 _symmetry_equiv_pos_site_id
 _symmetry_equiv_pos_as_xyz
  1  'x, y, z'
loop_
 _atom_site_type_symbol
 _atom_site_label
 _atom_site_symmetry_multiplicity
 _atom_site_fract_x
 _atom_site_fract_y
 _atom_site_fract_z
 _atom_site_occupancy
  Li  Li0  1  0.00000000  0.00000000  0.00000000  1
  Li  Li1  1  0.33300000  0.66700000  0.25000000  1
  Li  Li2  1  0.66700000  0.33300000  0.50000000  1
  Li  Li3  1  0.00000000  0.00000000  0.75000000  1
  Li  Li4  1  0.87029517  0.14248290  0.14526416  1
  Fe  Fe5  1  0.62303729  0.99281073  0.52926052  1
  Fe  Fe6  1  0.15510983  0.52040248  0.87657579  1
  O  O7  1  0.06236947  0.98753018  0.08502360  1
  O  O8  1  0.09658182  0.24294406  0.31590174  1
