# generated using pymatgen
data_Li2YZnSe4(OF)4
_symmetry_space_group_name_H-M   'P 1'
_cell_length_a   3.91044058
_cell_length_b   4.05133877
_cell_length_c   4.07596787
_cell_angle_alpha   91.66192307
_cell_angle_beta   93.37737897
_cell_angle_gamma   93.83431025
_symmetry_Int_Tables_number   1
_chemical_formula_structural   Li2YZnSe4(OF)4
_chemical_formula_sum   'Li2 Y1 Zn1 Se4 O4 F4'
_cell_volume   64.28197132
_cell_formula_units_Z   1
loop_
 _symmetry_equiv_pos_site_id
 _symmetry_equiv_pos_as_xyz
  1  'x, y, z'
loop_
 _atom_site_type_symbol
 _atom_site_label
 _atom_site_symmetry_multiplicity
 _atom_site_fract_x
 _atom_site_fract_y
 _atom_site_fract_z
 _atom_site_occupancy
  Li  Li0  1  0.00000000  0.00000000  0.00000000  1
  Li  Li1  1  0.50000000  0.50000000  0.50000000  1
  Zn  Zn2  1  0.50000000  0.50000000  0.00000000  1
  Y  Y3  1  0.50000000  0.00000000  0.50000000  1
  Se  Se4  1  0.00000000  0.50000000  0.50000000  1
  Se  Se5  1  0.49792230  0.39362503  0.41030308  1
  Se  Se6  1  0.17430570  0.24756761  0.00817630  1
  Se  Se7  1  0.79802527  0.79048565  0.81066717  1
  F  F8  1  0.63521868  0.55821694  0.85117978  1
  F  F9  1  0.47061954  0.54417238  0.31713807  1
  F  F10  1  0.96299779  0.16637136  0.12197240  1
  F  F11  1  0.52949560  0.85168625  0.60384749  1
  O  O12  1  0.69861999  0.97751921  0.60560037  1
  O  O13  1  0.15258597  0.87969455  0.50451674  1
  O  O14  1  0.86385104  0.18097381  0.07546529  1
  O  O15  1  0.02024090  0.41958003  0.78978884  1
