# generated using pymatgen
data_Li3Mg3I2O3F5
_symmetry_space_group_name_H-M   'P 1'
_cell_length_a   8.18060107
_cell_length_b   8.01338983
_cell_length_c   8.67211307
_cell_angle_alpha   90.00000000
_cell_angle_beta   90.00000000
_cell_angle_gamma   90.00000000
_symmetry_Int_Tables_number   1
_chemical_formula_structural   Li3Mg3I2O3F5
_chemical_formula_sum   'Li3 Mg3 I2 O3 F5'
_cell_volume   568.49469554
_cell_formula_units_Z   1
loop_
 _symmetry_equiv_pos_site_id
 _symmetry_equiv_pos_as_xyz
  1  'x, y, z'
loop_
 _atom_site_type_symbol
 _atom_site_label
 _atom_site_symmetry_multiplicity
 _atom_site_fract_x
 _atom_site_fract_y
 _atom_site_fract_z
 _atom_site_occupancy
  Li  Li0  1  0.00000000  0.00000000  0.00000000  1
  Li  Li1  1  0.50000000  0.50000000  0.50000000  1
  Li  Li2  1  0.25000000  0.25000000  0.25000000  1
  Mg  Mg3  1  0.75000000  0.25000000  0.00000000  1
  Mg  Mg4  1  0.25000000  0.75000000  0.50000000  1
  Mg  Mg5  1  0.98372839  0.30992344  0.00412532  1
  F  F6  1  0.60219090  0.19489027  0.27481773  1
  F  F7  1  0.11918902  0.15312320  0.68390293  1
  F  F8  1  0.74194751  0.74630859  0.44554052  1
  F  F9  1  0.82925180  0.50576715  0.32341158  1
  F  F10  1  0.97439045  0.42368611  0.20012777  1
  I  I11  1  0.58189281  0.11103600  0.17480342  1
  I  I12  1  0.62909580  0.83945476  0.22112609  1
  O  O13  1  0.80499987  0.33410856  0.66326356  1
  O  O14  1  0.20370675  0.34700875  0.32246196  1
  O  O15  1  0.04144221  0.77252554  0.25846330  1
