# generated using pymatgen
data_Li4Sb5W2S2I3
_symmetry_space_group_name_H-M   'P 1'
_cell_length_a   4.43989964
_cell_length_b   4.89928565
_cell_length_c   4.31446663
_cell_angle_alpha   89.93028577
_cell_angle_beta   90.95026310
_cell_angle_gamma   85.86436884
_symmetry_Int_Tables_number   1
_chemical_formula_structural   Li4Sb5W2S2I3
_chemical_formula_sum   'Li4 Sb5 W2 S2 I3'
_cell_volume   93.59221006
_cell_formula_units_Z   1
loop_
 _symmetry_equiv_pos_site_id
 _symmetry_equiv_pos_as_xyz
  1  'x, y, z'
loop_
 _atom_site_type_symbol
 _atom_site_label
 _atom_site_symmetry_multiplicity
 _atom_site_fract_x
 _atom_site_fract_y
 _atom_site_fract_z
 _atom_site_occupancy
  Li  Li0  1  0.00000000  0.00000000  0.00000000  1
  Li  Li1  1  0.50000000  0.50000000  0.50000000  1
  Li  Li2  1  0.50000000  0.50000000  0.00000000  1
  Li  Li3  1  0.50000000  0.00000000  0.50000000  1
  W  W4  1  0.00000000  0.50000000  0.50000000  1
  W  W5  1  0.19455081  0.78643947  0.10438505  1
  Sb  Sb6  1  0.81855785  0.77593028  0.70925968  1
  Sb  Sb7  1  0.03934358  0.43770497  0.46207765  1
  Sb  Sb8  1  0.02444491  0.58384097  0.94510723  1
  Sb  Sb9  1  0.63262328  0.39237395  0.42876782  1
  Sb  Sb10  1  0.10808795  0.83833659  0.12789427  1
  I  I11  1  0.03591935  0.92309940  0.33801397  1
  I  I12  1  0.82977859  0.21322905  0.52264076  1
  I  I13  1  0.57305637  0.68580492  0.74133403  1
  S  S14  1  0.32870792  0.73649852  0.54943117  1
  S  S15  1  0.71493926  0.44133031  0.70848060  1
