# generated using pymatgen
data_Li5LaCr2O2
_symmetry_space_group_name_H-M   'P 1'
_cell_length_a   3.12866465
_cell_length_b   3.45514949
_cell_length_c   6.01122896
_cell_angle_alpha   115.78809345
_cell_angle_beta   103.46530242
_cell_angle_gamma   96.29207619
_symmetry_Int_Tables_number   1
_chemical_formula_structural   Li5LaCr2O2
_chemical_formula_sum   'Li5 La1 Cr2 O2'
_cell_volume   55.22648307
_cell_formula_units_Z   1
loop_
 _symmetry_equiv_pos_site_id
 _symmetry_equiv_pos_as_xyz
  1  'x, y, z'
loop_
 _atom_site_type_symbol
 _atom_site_label
 _atom_site_symmetry_multiplicity
 _atom_site_fract_x
 _atom_site_fract_y
 _atom_site_fract_z
 _atom_site_occupancy
  Li  Li0  1  0.00000000  0.00000000  0.00000000  1
  Li  Li1  1  0.33300000  0.66700000  0.25000000  1
  Li  Li2  1  0.66700000  0.33300000  0.50000000  1
  Li  Li3  1  0.00000000  0.00000000  0.75000000  1
  Li  Li4  1  0.85336967  0.97738285  0.61420709  1
  Cr  Cr5  1  0.10679119  0.11105886  0.28277159  1
  Cr  Cr6  1  0.42069944  0.00998228  0.96739599  1
  O  O7  1  0.58300797  0.47907106  0.13896435  1
  O  O8  1  0.60212626  0.39598902  0.38346925  1
  La  La9  1  0.43412925  0.30831376  0.06713331  1
