# generated using pymatgen
data_Li3TiS
_symmetry_space_group_name_H-M   'P 1'
_cell_length_a   3.22626536
_cell_length_b   2.70241306
_cell_length_c   6.76567773
_cell_angle_alpha   105.03939410
_cell_angle_beta   106.48364990
_cell_angle_gamma   103.52952942
_symmetry_Int_Tables_number   1
_chemical_formula_structural   Li3TiS
_chemical_formula_sum   'Li6 Ti2 S2'
_cell_volume   51.52516872
_cell_formula_units_Z   2
loop_
 _symmetry_equiv_pos_site_id
 _symmetry_equiv_pos_as_xyz
  1  'x, y, z'
loop_
 _atom_site_type_symbol
 _atom_site_label
 _atom_site_symmetry_multiplicity
 _atom_site_fract_x
 _atom_site_fract_y
 _atom_site_fract_z
 _atom_site_occupancy
  Li  Li0  1  0.00000000  0.00000000  0.00000000  1
  Li  Li1  1  0.33300000  0.66700000  0.25000000  1
  Li  Li2  1  0.66700000  0.33300000  0.50000000  1
  Li  Li3  1  0.00000000  0.00000000  0.75000000  1
  Li  Li4  1  0.76471255  0.36493270  0.48667517  1
  Li  Li5  1  0.48891151  0.14335320  0.79019320  1
  Ti  Ti6  1  0.40808918  0.39036824  0.58811844  1
  Ti  Ti7  1  0.36859630  0.93049725  0.10660717  1
  S  S8  1  0.00234920  0.43036215  0.37537278  1
  S  S9  1  0.01056535  0.17705528  0.30331108  1
