# generated using pymatgen
data_Li2Al3Cr3PN
_symmetry_space_group_name_H-M   'P 1'
_cell_length_a   12.91249285
_cell_length_b   11.22693889
_cell_length_c   13.06144688
_cell_angle_alpha   90.00000000
_cell_angle_beta   90.00000000
_cell_angle_gamma   90.00000000
_symmetry_Int_Tables_number   1
_chemical_formula_structural   Li2Al3Cr3PN
_chemical_formula_sum   'Li2 Al3 Cr3 P1 N1'
_cell_volume   1893.48880225
_cell_formula_units_Z   1
loop_
 _symmetry_equiv_pos_site_id
 _symmetry_equiv_pos_as_xyz
  1  'x, y, z'
loop_
 _atom_site_type_symbol
 _atom_site_label
 _atom_site_symmetry_multiplicity
 _atom_site_fract_x
 _atom_site_fract_y
 _atom_site_fract_z
 _atom_site_occupancy
  Li  Li0  1  0.12500000  0.00000000  0.25000000  1
  Li  Li1  1  0.00000000  0.00000000  0.00000000  1
  Cr  Cr2  1  0.37500000  0.00000000  0.25000000  1
  Cr  Cr3  1  0.25000000  0.25000000  0.25000000  1
  Cr  Cr4  1  0.00000000  0.25000000  0.12500000  1
  Al  Al5  1  0.17321971  0.51655529  0.04209882  1
  Al  Al6  1  0.15656524  0.57185529  0.43092348  1
  Al  Al7  1  0.52472095  0.81844715  0.62389246  1
  P  P8  1  0.47445720  0.41824546  0.87145967  1
  N  N9  1  0.13721945  0.88680301  0.50836176  1
