# generated using pymatgen
data_Li6VNi2N5
_symmetry_space_group_name_H-M   'P 1'
_cell_length_a   3.54672020
_cell_length_b   2.90872257
_cell_length_c   5.38614039
_cell_angle_alpha   108.74619646
_cell_angle_beta   96.62756762
_cell_angle_gamma   111.74331852
_symmetry_Int_Tables_number   1
_chemical_formula_structural   Li6VNi2N5
_chemical_formula_sum   'Li6 V1 Ni2 N5'
_cell_volume   47.10592025
_cell_formula_units_Z   1
loop_
 _symmetry_equiv_pos_site_id
 _symmetry_equiv_pos_as_xyz
  1  'x, y, z'
loop_
 _atom_site_type_symbol
 _atom_site_label
 _atom_site_symmetry_multiplicity
 _atom_site_fract_x
 _atom_site_fract_y
 _atom_site_fract_z
 _atom_site_occupancy
  Li  Li0  1  0.00000000  0.00000000  0.00000000  1
  Li  Li1  1  0.33300000  0.66700000  0.25000000  1
  Li  Li2  1  0.66700000  0.33300000  0.50000000  1
  Li  Li3  1  0.00000000  0.00000000  0.75000000  1
  Li  Li4  1  0.21183402  0.00175372  0.02182203  1
  Li  Li5  1  0.84950477  0.75816550  0.24612842  1
  Ni  Ni6  1  0.26529028  0.54863936  0.39414455  1
  Ni  Ni7  1  0.78408818  0.65090888  0.41543226  1
  V  V8  1  0.27251129  0.78804230  0.01879487  1
  N  N9  1  0.96299059  0.74093537  0.17801003  1
  N  N10  1  0.62510927  0.68418787  0.48548298  1
  N  N11  1  0.63021683  0.00522123  0.38837743  1
  N  N12  1  0.32193499  0.88054174  0.87822153  1
  N  N13  1  0.01252062  0.84520979  0.32966490  1
