# generated using pymatgen
data_LiCr2I4N
_symmetry_space_group_name_H-M   'P 1'
_cell_length_a   8.09637562
_cell_length_b   7.72725429
_cell_length_c   6.73719820
_cell_angle_alpha   90.00000000
_cell_angle_beta   90.00000000
_cell_angle_gamma   90.00000000
_symmetry_Int_Tables_number   1
_chemical_formula_structural   LiCr2I4N
_chemical_formula_sum   'Li1 Cr2 I4 N1'
_cell_volume   421.49766827
_cell_formula_units_Z   1
loop_
 _symmetry_equiv_pos_site_id
 _symmetry_equiv_pos_as_xyz
  1  'x, y, z'
loop_
 _atom_site_type_symbol
 _atom_site_label
 _atom_site_symmetry_multiplicity
 _atom_site_fract_x
 _atom_site_fract_y
 _atom_site_fract_z
 _atom_site_occupancy
  Li  Li0  1  0.12500000  0.12500000  0.12500000  1
  Cr  Cr1  1  0.50000000  0.50000000  0.50000000  1
  Cr  Cr2  1  0.25000000  0.25000000  0.25000000  1
  I  I3  1  0.75000000  0.75000000  0.75000000  1
  I  I4  1  0.30077094  0.67366582  0.23081074  1
  I  I5  1  0.11787715  0.37241523  0.33925337  1
  I  I6  1  0.51901573  0.24962232  0.16243001  1
  N  N7  1  0.63831202  0.34231925  0.41711999  1
