# generated using pymatgen
data_Li6Ti2As4O3
_symmetry_space_group_name_H-M   'P 1'
_cell_length_a   3.95308129
_cell_length_b   3.78122354
_cell_length_c   3.64171686
_cell_angle_alpha   85.72446139
_cell_angle_beta   90.76113612
_cell_angle_gamma   93.13042614
_symmetry_Int_Tables_number   1
_chemical_formula_structural   Li6Ti2As4O3
_chemical_formula_sum   'Li6 Ti2 As4 O3'
_cell_volume   54.19969588
_cell_formula_units_Z   1
loop_
 _symmetry_equiv_pos_site_id
 _symmetry_equiv_pos_as_xyz
  1  'x, y, z'
loop_
 _atom_site_type_symbol
 _atom_site_label
 _atom_site_symmetry_multiplicity
 _atom_site_fract_x
 _atom_site_fract_y
 _atom_site_fract_z
 _atom_site_occupancy
  Li  Li0  1  0.00000000  0.00000000  0.00000000  1
  Li  Li1  1  0.50000000  0.50000000  0.50000000  1
  Li  Li2  1  0.50000000  0.50000000  0.00000000  1
  Li  Li3  1  0.50000000  0.00000000  0.50000000  1
  Li  Li4  1  0.00000000  0.50000000  0.50000000  1
  Li  Li5  1  0.00628112  0.21540985  0.15254012  1
  Ti  Ti6  1  0.04789675  0.70066997  0.86729909  1
  Ti  Ti7  1  0.15541124  0.13066720  0.68389882  1
  O  O8  1  0.38529428  0.19605860  0.67436618  1
  O  O9  1  0.20060942  0.48760829  0.44958673  1
  O  O10  1  0.36728819  0.70563943  0.55258108  1
  As  As11  1  0.27117662  0.28265950  0.87386048  1
  As  As12  1  0.34879919  0.13652670  0.19627111  1
  As  As13  1  0.58507212  0.00662866  0.67695072  1
  As  As14  1  0.26246466  0.09718701  0.07687690  1
