# generated using pymatgen
data_Li6Ti3FeTe2N4O3
_symmetry_space_group_name_H-M   'P 1'
_cell_length_a   4.44263668
_cell_length_b   4.49578015
_cell_length_c   4.29778528
_cell_angle_alpha   89.99858948
_cell_angle_beta   85.76965526
_cell_angle_gamma   85.32551526
_symmetry_Int_Tables_number   1
_chemical_formula_structural   Li6Ti3FeTe2N4O3
_chemical_formula_sum   'Li6 Ti3 Fe1 Te2 N4 O3'
_cell_volume   85.32001102
_cell_formula_units_Z   1
loop_
 _symmetry_equiv_pos_site_id
 _symmetry_equiv_pos_as_xyz
  1  'x, y, z'
loop_
 _atom_site_type_symbol
 _atom_site_label
 _atom_site_symmetry_multiplicity
 _atom_site_fract_x
 _atom_site_fract_y
 _atom_site_fract_z
 _atom_site_occupancy
  Li  Li0  1  0.00000000  0.00000000  0.00000000  1
  Li  Li1  1  0.50000000  0.50000000  0.50000000  1
  Li  Li2  1  0.50000000  0.50000000  0.00000000  1
  Li  Li3  1  0.50000000  0.00000000  0.50000000  1
  Li  Li4  1  0.00000000  0.50000000  0.50000000  1
  Li  Li5  1  0.02003299  0.53055552  0.78500213  1
  Ti  Ti6  1  0.57648010  0.74823967  0.28800377  1
  Ti  Ti7  1  0.11888296  0.93142725  0.51485380  1
  Ti  Ti8  1  0.13356830  0.06253324  0.98965474  1
  Te  Te9  1  0.76954526  0.51143964  0.03604342  1
  Te  Te10  1  0.85213654  0.13727197  0.70896964  1
  O  O11  1  0.40495837  0.58286409  0.04598564  1
  O  O12  1  0.85730907  0.56425151  0.85662124  1
  O  O13  1  0.65381470  0.16061650  0.28776678  1
  N  N14  1  0.06309549  0.62770198  0.76675198  1
  N  N15  1  0.55601451  0.44872952  0.19683692  1
  N  N16  1  0.40514776  0.61636041  0.51079890  1
  N  N17  1  0.85517891  0.05222779  0.21200609  1
  Fe  Fe18  1  0.17632667  0.08031267  0.59168312  1
