# generated using pymatgen
data_Li5Ti3(N3O)2
_symmetry_space_group_name_H-M   'P 1'
_cell_length_a   4.47745963
_cell_length_b   4.81346966
_cell_length_c   4.65720550
_cell_angle_alpha   85.95192004
_cell_angle_beta   93.56611574
_cell_angle_gamma   94.06157107
_symmetry_Int_Tables_number   1
_chemical_formula_structural   Li5Ti3(N3O)2
_chemical_formula_sum   'Li5 Ti3 N6 O2'
_cell_volume   99.70559976
_cell_formula_units_Z   1
loop_
 _symmetry_equiv_pos_site_id
 _symmetry_equiv_pos_as_xyz
  1  'x, y, z'
loop_
 _atom_site_type_symbol
 _atom_site_label
 _atom_site_symmetry_multiplicity
 _atom_site_fract_x
 _atom_site_fract_y
 _atom_site_fract_z
 _atom_site_occupancy
  Li  Li0  1  0.00000000  0.00000000  0.00000000  1
  Li  Li1  1  0.50000000  0.50000000  0.50000000  1
  Li  Li2  1  0.50000000  0.50000000  0.00000000  1
  Li  Li3  1  0.50000000  0.00000000  0.50000000  1
  Li  Li4  1  0.00000000  0.50000000  0.50000000  1
  Ti  Ti5  1  0.29192935  0.16839800  0.63762058  1
  Ti  Ti6  1  0.05725727  0.93975011  0.47931720  1
  Ti  Ti7  1  0.17360308  0.37352718  0.73284490  1
  N  N8  1  0.14876218  0.97428484  0.99720709  1
  N  N9  1  0.61395402  0.63477521  0.06594842  1
  N  N10  1  0.01294600  0.66377409  0.22660307  1
  N  N11  1  0.19538047  0.46387450  0.85306015  1
  N  N12  1  0.77079575  0.34847260  0.66187836  1
  N  N13  1  0.61608179  0.80745120  0.59567290  1
  O  O14  1  0.00128754  0.48050235  0.68551233  1
  O  O15  1  0.66503787  0.57317229  0.61009506  1
