# generated using pymatgen
data_Li2ScCuTe3Br2
_symmetry_space_group_name_H-M   'P 1'
_cell_length_a   8.44825389
_cell_length_b   8.19221313
_cell_length_c   7.38005968
_cell_angle_alpha   90.00000000
_cell_angle_beta   90.00000000
_cell_angle_gamma   90.00000000
_symmetry_Int_Tables_number   1
_chemical_formula_structural   Li2ScCuTe3Br2
_chemical_formula_sum   'Li2 Sc1 Cu1 Te3 Br2'
_cell_volume   510.77316642
_cell_formula_units_Z   1
loop_
 _symmetry_equiv_pos_site_id
 _symmetry_equiv_pos_as_xyz
  1  'x, y, z'
loop_
 _atom_site_type_symbol
 _atom_site_label
 _atom_site_symmetry_multiplicity
 _atom_site_fract_x
 _atom_site_fract_y
 _atom_site_fract_z
 _atom_site_occupancy
  Li  Li0  1  0.12500000  0.12500000  0.12500000  1
  Li  Li1  1  0.50000000  0.50000000  0.50000000  1
  Cu  Cu2  1  0.25000000  0.25000000  0.25000000  1
  Sc  Sc3  1  0.75000000  0.75000000  0.75000000  1
  Br  Br4  1  0.67947289  0.79633589  0.70264466  1
  Br  Br5  1  0.18273342  0.91264615  0.64898481  1
  Te  Te6  1  0.70841527  0.97606365  0.82581227  1
  Te  Te7  1  0.30158266  0.73709040  0.30105909  1
  Te  Te8  1  0.68870286  0.91429330  0.94926887  1
