# generated using pymatgen
data_Li3Mo3O4
_symmetry_space_group_name_H-M   'P 1'
_cell_length_a   8.18286628
_cell_length_b   7.55918422
_cell_length_c   8.54294217
_cell_angle_alpha   90.00000000
_cell_angle_beta   90.00000000
_cell_angle_gamma   90.00000000
_symmetry_Int_Tables_number   1
_chemical_formula_structural   Li3Mo3O4
_chemical_formula_sum   'Li3 Mo3 O4'
_cell_volume   528.43046810
_cell_formula_units_Z   1
loop_
 _symmetry_equiv_pos_site_id
 _symmetry_equiv_pos_as_xyz
  1  'x, y, z'
loop_
 _atom_site_type_symbol
 _atom_site_label
 _atom_site_symmetry_multiplicity
 _atom_site_fract_x
 _atom_site_fract_y
 _atom_site_fract_z
 _atom_site_occupancy
  Li  Li0  1  0.12500000  0.12500000  0.12500000  1
  Li  Li1  1  0.50000000  0.50000000  0.50000000  1
  Li  Li2  1  0.25000000  0.25000000  0.25000000  1
  Mo  Mo3  1  0.75000000  0.75000000  0.75000000  1
  Mo  Mo4  1  0.60477232  0.28864021  0.62617606  1
  Mo  Mo5  1  0.49937705  0.53309252  0.79089574  1
  O  O6  1  0.15977822  0.81736506  0.98126636  1
  O  O7  1  0.37070231  0.26948463  0.40884996  1
  O  O8  1  0.30667973  0.71092894  0.36188720  1
  O  O9  1  0.41301855  0.51250501  0.07287204  1
