# generated using pymatgen
data_LiScSe3Br2O3F2
_symmetry_space_group_name_H-M   'P 1'
_cell_length_a   7.76556912
_cell_length_b   9.01235379
_cell_length_c   8.76926605
_cell_angle_alpha   90.00000000
_cell_angle_beta   90.00000000
_cell_angle_gamma   90.00000000
_symmetry_Int_Tables_number   1
_chemical_formula_structural   LiScSe3Br2O3F2
_chemical_formula_sum   'Li1 Sc1 Se3 Br2 O3 F2'
_cell_volume   613.72634693
_cell_formula_units_Z   1
loop_
 _symmetry_equiv_pos_site_id
 _symmetry_equiv_pos_as_xyz
  1  'x, y, z'
loop_
 _atom_site_type_symbol
 _atom_site_label
 _atom_site_symmetry_multiplicity
 _atom_site_fract_x
 _atom_site_fract_y
 _atom_site_fract_z
 _atom_site_occupancy
  Li  Li0  1  0.12500000  0.12500000  0.12500000  1
  Sc  Sc1  1  0.50000000  0.50000000  0.50000000  1
  Se  Se2  1  0.25000000  0.25000000  0.25000000  1
  Se  Se3  1  0.75000000  0.75000000  0.75000000  1
  Se  Se4  1  0.35972207  0.17076746  0.64808660  1
  Br  Br5  1  0.25852898  0.56813802  0.33950635  1
  Br  Br6  1  0.07897648  0.07265146  0.89770103  1
  F  F7  1  0.04374190  0.50615227  0.64446655  1
  F  F8  1  0.43661383  0.13682094  0.86338633  1
  O  O9  1  0.33475937  0.56854439  0.80201025  1
  O  O10  1  0.29027588  0.70153517  0.67112452  1
  O  O11  1  0.91829669  0.02097802  0.95078968  1
