# generated using pymatgen
data_Li3Al2V2CrGa2O3
_symmetry_space_group_name_H-M   'P 1'
_cell_length_a   12.91290816
_cell_length_b   13.71437898
_cell_length_c   15.23678501
_cell_angle_alpha   90.00000000
_cell_angle_beta   90.00000000
_cell_angle_gamma   90.00000000
_symmetry_Int_Tables_number   1
_chemical_formula_structural   Li3Al2V2CrGa2O3
_chemical_formula_sum   'Li3 Al2 V2 Cr1 Ga2 O3'
_cell_volume   2698.32059614
_cell_formula_units_Z   1
loop_
 _symmetry_equiv_pos_site_id
 _symmetry_equiv_pos_as_xyz
  1  'x, y, z'
loop_
 _atom_site_type_symbol
 _atom_site_label
 _atom_site_symmetry_multiplicity
 _atom_site_fract_x
 _atom_site_fract_y
 _atom_site_fract_z
 _atom_site_occupancy
  Li  Li0  1  0.12500000  0.00000000  0.25000000  1
  Li  Li1  1  0.00000000  0.00000000  0.00000000  1
  Li  Li2  1  0.37500000  0.00000000  0.25000000  1
  Cr  Cr3  1  0.25000000  0.25000000  0.25000000  1
  V  V4  1  0.00000000  0.25000000  0.12500000  1
  V  V5  1  0.57260867  0.31258335  0.12528545  1
  Al  Al6  1  0.66639467  0.84116728  0.77835625  1
  Al  Al7  1  0.24927038  0.24451239  0.34335236  1
  Ga  Ga8  1  0.75665369  0.73613931  0.56932679  1
  Ga  Ga9  1  0.48110896  0.77203511  0.71588796  1
  O  O10  1  0.19845635  0.24277279  0.98653394  1
  O  O11  1  0.08280737  0.08541240  0.32915965  1
  O  O12  1  0.65497012  0.31714026  0.51540848  1
