# generated using pymatgen
data_Li3Zn2(Te3I2)2
_symmetry_space_group_name_H-M   'P 1'
_cell_length_a   8.29802579
_cell_length_b   9.42623501
_cell_length_c   7.27424470
_cell_angle_alpha   90.00000000
_cell_angle_beta   90.00000000
_cell_angle_gamma   90.00000000
_symmetry_Int_Tables_number   1
_chemical_formula_structural   Li3Zn2(Te3I2)2
_chemical_formula_sum   'Li3 Zn2 Te6 I4'
_cell_volume   568.98517320
_cell_formula_units_Z   1
loop_
 _symmetry_equiv_pos_site_id
 _symmetry_equiv_pos_as_xyz
  1  'x, y, z'
loop_
 _atom_site_type_symbol
 _atom_site_label
 _atom_site_symmetry_multiplicity
 _atom_site_fract_x
 _atom_site_fract_y
 _atom_site_fract_z
 _atom_site_occupancy
  Li  Li0  1  0.12500000  0.12500000  0.12500000  1
  Li  Li1  1  0.50000000  0.50000000  0.50000000  1
  Li  Li2  1  0.25000000  0.25000000  0.25000000  1
  Zn  Zn3  1  0.75000000  0.75000000  0.75000000  1
  Zn  Zn4  1  0.90502513  0.23724209  0.85761922  1
  I  I5  1  0.85521757  0.31392004  0.91283720  1
  I  I6  1  0.57174285  0.85541178  0.44278595  1
  I  I7  1  0.36850049  0.41334669  0.93598923  1
  I  I8  1  0.98393538  0.01849283  0.71990384  1
  Te  Te9  1  0.40808195  0.91261881  0.57408960  1
  Te  Te10  1  0.66863571  0.85127026  0.99832208  1
  Te  Te11  1  0.95974643  0.00343619  0.24956033  1
  Te  Te12  1  0.95890264  0.31471699  0.29855614  1
  Te  Te13  1  0.44261730  0.00462641  0.92764926  1
  Te  Te14  1  0.88759894  0.58896947  0.79791374  1
