# generated using pymatgen
data_Li2Ti3(TeI)2
_symmetry_space_group_name_H-M   'P 1'
_cell_length_a   3.38061879
_cell_length_b   2.94395720
_cell_length_c   6.59215937
_cell_angle_alpha   106.62518129
_cell_angle_beta   108.66460134
_cell_angle_gamma   98.26360040
_symmetry_Int_Tables_number   1
_chemical_formula_structural   Li2Ti3(TeI)2
_chemical_formula_sum   'Li2 Ti3 Te2 I2'
_cell_volume   57.52369251
_cell_formula_units_Z   1
loop_
 _symmetry_equiv_pos_site_id
 _symmetry_equiv_pos_as_xyz
  1  'x, y, z'
loop_
 _atom_site_type_symbol
 _atom_site_label
 _atom_site_symmetry_multiplicity
 _atom_site_fract_x
 _atom_site_fract_y
 _atom_site_fract_z
 _atom_site_occupancy
  Li  Li0  1  0.00000000  0.00000000  0.00000000  1
  Li  Li1  1  0.33300000  0.66700000  0.25000000  1
  Ti  Ti2  1  0.66700000  0.33300000  0.50000000  1
  Ti  Ti3  1  0.00000000  0.00000000  0.75000000  1
  Ti  Ti4  1  0.23794357  0.20805075  0.07926337  1
  I  I5  1  0.51770515  0.96485792  0.48378379  1
  I  I6  1  0.66363453  0.57700698  0.10485466  1
  Te  Te7  1  0.32075675  0.88279100  0.21110233  1
  Te  Te8  1  0.00469786  0.49911870  0.04353315  1
