# generated using pymatgen
data_Li4TiP4
_symmetry_space_group_name_H-M   'P 1'
_cell_length_a   3.29608196
_cell_length_b   3.66879064
_cell_length_c   6.24798333
_cell_angle_alpha   119.15526762
_cell_angle_beta   93.95707014
_cell_angle_gamma   119.73382816
_symmetry_Int_Tables_number   1
_chemical_formula_structural   Li4TiP4
_chemical_formula_sum   'Li4 Ti1 P4'
_cell_volume   52.26711062
_cell_formula_units_Z   1
loop_
 _symmetry_equiv_pos_site_id
 _symmetry_equiv_pos_as_xyz
  1  'x, y, z'
loop_
 _atom_site_type_symbol
 _atom_site_label
 _atom_site_symmetry_multiplicity
 _atom_site_fract_x
 _atom_site_fract_y
 _atom_site_fract_z
 _atom_site_occupancy
  Li  Li0  1  0.00000000  0.00000000  0.00000000  1
  Li  Li1  1  0.33300000  0.66700000  0.25000000  1
  Li  Li2  1  0.66700000  0.33300000  0.50000000  1
  Li  Li3  1  0.00000000  0.00000000  0.75000000  1
  Ti  Ti4  1  0.10544574  0.80471803  0.25151721  1
  P  P5  1  0.37118890  0.39645551  0.54446603  1
  P  P6  1  0.65524858  0.96697259  0.23482367  1
  P  P7  1  0.09966936  0.60338491  0.02597100  1
  P  P8  1  0.83636826  0.42007417  0.76271006  1
