# generated using pymatgen
data_Li2Cu2Sb4TeNO3
_symmetry_space_group_name_H-M   'P 1'
_cell_length_a   3.77187494
_cell_length_b   4.02529578
_cell_length_c   3.34123758
_cell_angle_alpha   88.17221828
_cell_angle_beta   86.46402568
_cell_angle_gamma   87.92038241
_symmetry_Int_Tables_number   1
_chemical_formula_structural   Li2Cu2Sb4TeNO3
_chemical_formula_sum   'Li2 Cu2 Sb4 Te1 N1 O3'
_cell_volume   50.57742071
_cell_formula_units_Z   1
loop_
 _symmetry_equiv_pos_site_id
 _symmetry_equiv_pos_as_xyz
  1  'x, y, z'
loop_
 _atom_site_type_symbol
 _atom_site_label
 _atom_site_symmetry_multiplicity
 _atom_site_fract_x
 _atom_site_fract_y
 _atom_site_fract_z
 _atom_site_occupancy
  Li  Li0  1  0.00000000  0.00000000  0.00000000  1
  Li  Li1  1  0.50000000  0.50000000  0.50000000  1
  Cu  Cu2  1  0.50000000  0.50000000  0.00000000  1
  Cu  Cu3  1  0.50000000  0.00000000  0.50000000  1
  Sb  Sb4  1  0.00000000  0.50000000  0.50000000  1
  Sb  Sb5  1  0.33567937  0.60893243  0.93276321  1
  Sb  Sb6  1  0.61014673  0.42802386  0.43500359  1
  Sb  Sb7  1  0.54965095  0.70522652  0.79507476  1
  O  O8  1  0.56776643  0.24901000  0.56959155  1
  O  O9  1  0.17725053  0.94041074  0.90280096  1
  O  O10  1  0.47667137  0.34468742  0.47044748  1
  Te  Te11  1  0.00628871  0.55893818  0.93537528  1
  N  N12  1  0.11574552  0.44586329  0.55732286  1
