# generated using pymatgen
data_Li2CaNi2P7I5
_symmetry_space_group_name_H-M   'P 1'
_cell_length_a   8.77206852
_cell_length_b   9.77374814
_cell_length_c   7.16079363
_cell_angle_alpha   90.00000000
_cell_angle_beta   90.00000000
_cell_angle_gamma   90.00000000
_symmetry_Int_Tables_number   1
_chemical_formula_structural   Li2CaNi2P7I5
_chemical_formula_sum   'Li2 Ca1 Ni2 P7 I5'
_cell_volume   613.93771936
_cell_formula_units_Z   1
loop_
 _symmetry_equiv_pos_site_id
 _symmetry_equiv_pos_as_xyz
  1  'x, y, z'
loop_
 _atom_site_type_symbol
 _atom_site_label
 _atom_site_symmetry_multiplicity
 _atom_site_fract_x
 _atom_site_fract_y
 _atom_site_fract_z
 _atom_site_occupancy
  Li  Li0  1  0.00000000  0.00000000  0.00000000  1
  Li  Li1  1  0.50000000  0.50000000  0.50000000  1
  Ni  Ni2  1  0.25000000  0.25000000  0.25000000  1
  Ni  Ni3  1  0.75000000  0.25000000  0.00000000  1
  Ca  Ca4  1  0.25000000  0.75000000  0.50000000  1
  P  P5  1  0.41832645  0.53995470  0.18697781  1
  P  P6  1  0.13669195  0.26253105  0.59613997  1
  P  P7  1  0.08342184  0.09141608  0.35953292  1
  P  P8  1  0.19065582  0.50216654  0.72202411  1
  P  P9  1  0.03340154  0.59287117  0.21939814  1
  P  P10  1  0.29557128  0.62264730  0.46978232  1
  P  P11  1  0.81139678  0.94273007  0.30067129  1
  I  I12  1  0.17865991  0.38554954  0.75823284  1
  I  I13  1  0.78928464  0.17230156  0.35610142  1
  I  I14  1  0.05570924  0.28112995  0.81349668  1
  I  I15  1  0.32520770  0.08720756  0.79616315  1
  I  I16  1  0.46234275  0.27799599  0.31675846  1
