# generated using pymatgen
data_Li2Y2Te4As
_symmetry_space_group_name_H-M   'P 1'
_cell_length_a   8.29122100
_cell_length_b   9.53046333
_cell_length_c   9.71997701
_cell_angle_alpha   90.00000000
_cell_angle_beta   90.00000000
_cell_angle_gamma   90.00000000
_symmetry_Int_Tables_number   1
_chemical_formula_structural   Li2Y2Te4As
_chemical_formula_sum   'Li2 Y2 Te4 As1'
_cell_volume   768.06459083
_cell_formula_units_Z   1
loop_
 _symmetry_equiv_pos_site_id
 _symmetry_equiv_pos_as_xyz
  1  'x, y, z'
loop_
 _atom_site_type_symbol
 _atom_site_label
 _atom_site_symmetry_multiplicity
 _atom_site_fract_x
 _atom_site_fract_y
 _atom_site_fract_z
 _atom_site_occupancy
  Li  Li0  1  0.12500000  0.12500000  0.12500000  1
  Li  Li1  1  0.50000000  0.50000000  0.50000000  1
  Y  Y2  1  0.25000000  0.25000000  0.25000000  1
  Y  Y3  1  0.75000000  0.75000000  0.75000000  1
  As  As4  1  0.82241947  0.26112477  0.15269677  1
  Te  Te5  1  0.01638811  0.00447044  0.48296755  1
  Te  Te6  1  0.01076930  0.73342535  0.75307892  1
  Te  Te7  1  0.32461923  0.90183308  0.07724155  1
  Te  Te8  1  0.27517059  0.69049513  0.14710358  1
