# generated using pymatgen
data_LiZrAs5O2
_symmetry_space_group_name_H-M   'P 1'
_cell_length_a   8.22887348
_cell_length_b   7.20706731
_cell_length_c   7.05117594
_cell_angle_alpha   90.00000000
_cell_angle_beta   90.00000000
_cell_angle_gamma   90.00000000
_symmetry_Int_Tables_number   1
_chemical_formula_structural   LiZrAs5O2
_chemical_formula_sum   'Li1 Zr1 As5 O2'
_cell_volume   418.17735815
_cell_formula_units_Z   1
loop_
 _symmetry_equiv_pos_site_id
 _symmetry_equiv_pos_as_xyz
  1  'x, y, z'
loop_
 _atom_site_type_symbol
 _atom_site_label
 _atom_site_symmetry_multiplicity
 _atom_site_fract_x
 _atom_site_fract_y
 _atom_site_fract_z
 _atom_site_occupancy
  Li  Li0  1  0.12500000  0.12500000  0.12500000  1
  Zr  Zr1  1  0.50000000  0.50000000  0.50000000  1
  As  As2  1  0.25000000  0.25000000  0.25000000  1
  As  As3  1  0.75000000  0.75000000  0.75000000  1
  As  As4  1  0.98732389  0.69847749  0.56308085  1
  As  As5  1  0.13616065  0.27294651  0.85823618  1
  As  As6  1  0.25811645  0.88743574  0.38230744  1
  O  O7  1  0.53220879  0.22891962  0.60161024  1
  O  O8  1  0.99372022  0.14121663  0.01389540  1
