# generated using pymatgen
data_Li3Al3As3SeO3
_symmetry_space_group_name_H-M   'P 1'
_cell_length_a   7.51897340
_cell_length_b   6.55453099
_cell_length_c   6.84129993
_cell_angle_alpha   90.00000000
_cell_angle_beta   90.00000000
_cell_angle_gamma   90.00000000
_symmetry_Int_Tables_number   1
_chemical_formula_structural   Li3Al3As3SeO3
_chemical_formula_sum   'Li3 Al3 As3 Se1 O3'
_cell_volume   337.16213902
_cell_formula_units_Z   1
loop_
 _symmetry_equiv_pos_site_id
 _symmetry_equiv_pos_as_xyz
  1  'x, y, z'
loop_
 _atom_site_type_symbol
 _atom_site_label
 _atom_site_symmetry_multiplicity
 _atom_site_fract_x
 _atom_site_fract_y
 _atom_site_fract_z
 _atom_site_occupancy
  Li  Li0  1  0.12500000  0.12500000  0.12500000  1
  Li  Li1  1  0.50000000  0.50000000  0.50000000  1
  Li  Li2  1  0.25000000  0.25000000  0.25000000  1
  Al  Al3  1  0.75000000  0.75000000  0.75000000  1
  Al  Al4  1  0.77625445  0.97380033  0.99686381  1
  Al  Al5  1  0.24121107  0.86851690  0.48227140  1
  As  As6  1  0.22156235  0.86007081  0.54864402  1
  As  As7  1  0.30933778  0.98357982  0.35294257  1
  As  As8  1  0.23355743  0.13576882  0.75928644  1
  O  O9  1  0.59532745  0.72585426  0.78233139  1
  O  O10  1  0.16454740  0.36554071  0.94853011  1
  O  O11  1  0.82928530  0.78630230  0.18430129  1
  Se  Se12  1  0.14847187  0.27109570  0.18232655  1
