# generated using pymatgen
data_Li2TiBrO4
_symmetry_space_group_name_H-M   'P 1'
_cell_length_a   3.50609983
_cell_length_b   4.17033017
_cell_length_c   3.97622971
_cell_angle_alpha   87.24450761
_cell_angle_beta   87.75869648
_cell_angle_gamma   85.25541574
_symmetry_Int_Tables_number   1
_chemical_formula_structural   Li2TiBrO4
_chemical_formula_sum   'Li2 Ti1 Br1 O4'
_cell_volume   57.83654772
_cell_formula_units_Z   1
loop_
 _symmetry_equiv_pos_site_id
 _symmetry_equiv_pos_as_xyz
  1  'x, y, z'
loop_
 _atom_site_type_symbol
 _atom_site_label
 _atom_site_symmetry_multiplicity
 _atom_site_fract_x
 _atom_site_fract_y
 _atom_site_fract_z
 _atom_site_occupancy
  Li  Li0  1  0.00000000  0.00000000  0.00000000  1
  Li  Li1  1  0.50000000  0.50000000  0.50000000  1
  Ti  Ti2  1  0.50000000  0.50000000  0.00000000  1
  O  O3  1  0.50000000  0.00000000  0.50000000  1
  O  O4  1  0.00000000  0.50000000  0.50000000  1
  O  O5  1  0.79206935  0.20802666  0.66741901  1
  O  O6  1  0.51066395  0.10684750  0.23489292  1
  Br  Br7  1  0.00301456  0.72004167  0.96861162  1
