# generated using pymatgen
data_Li5Zr3Sb2P4O3
_symmetry_space_group_name_H-M   'P 1'
_cell_length_a   7.56531225
_cell_length_b   6.78593591
_cell_length_c   6.65478799
_cell_angle_alpha   90.00000000
_cell_angle_beta   90.00000000
_cell_angle_gamma   90.00000000
_symmetry_Int_Tables_number   1
_chemical_formula_structural   Li5Zr3Sb2P4O3
_chemical_formula_sum   'Li5 Zr3 Sb2 P4 O3'
_cell_volume   341.64166951
_cell_formula_units_Z   1
loop_
 _symmetry_equiv_pos_site_id
 _symmetry_equiv_pos_as_xyz
  1  'x, y, z'
loop_
 _atom_site_type_symbol
 _atom_site_label
 _atom_site_symmetry_multiplicity
 _atom_site_fract_x
 _atom_site_fract_y
 _atom_site_fract_z
 _atom_site_occupancy
  Li  Li0  1  0.12500000  0.12500000  0.12500000  1
  Li  Li1  1  0.50000000  0.50000000  0.50000000  1
  Li  Li2  1  0.25000000  0.25000000  0.25000000  1
  Li  Li3  1  0.75000000  0.75000000  0.75000000  1
  Li  Li4  1  0.17373645  0.27554666  0.58713301  1
  Zr  Zr5  1  0.63895315  0.80416275  0.57800443  1
  Zr  Zr6  1  0.90971095  0.06741982  0.22050037  1
  Zr  Zr7  1  0.47009554  0.46498178  0.59276328  1
  Sb  Sb8  1  0.63000243  0.71549176  0.18014335  1
  Sb  Sb9  1  0.02853654  0.52058589  0.19062964  1
  P  P10  1  0.63659289  0.46022435  0.92935883  1
  P  P11  1  0.55411667  0.79634347  0.92925053  1
  P  P12  1  0.17370648  0.07746758  0.49035445  1
  P  P13  1  0.99396365  0.24631018  0.18751742  1
  O  O14  1  0.48392658  0.12030568  0.53031807  1
  O  O15  1  0.20428220  0.54083956  0.57944153  1
  O  O16  1  0.30025385  0.73740477  0.28355189  1
