# generated using pymatgen
data_Li(TiCl)3
_symmetry_space_group_name_H-M   'P 1'
_cell_length_a   3.52413129
_cell_length_b   2.88345964
_cell_length_c   5.11867439
_cell_angle_alpha   113.35243158
_cell_angle_beta   105.27013887
_cell_angle_gamma   95.73307153
_symmetry_Int_Tables_number   1
_chemical_formula_structural   Li(TiCl)3
_chemical_formula_sum   'Li1 Ti3 Cl3'
_cell_volume   44.82536740
_cell_formula_units_Z   1
loop_
 _symmetry_equiv_pos_site_id
 _symmetry_equiv_pos_as_xyz
  1  'x, y, z'
loop_
 _atom_site_type_symbol
 _atom_site_label
 _atom_site_symmetry_multiplicity
 _atom_site_fract_x
 _atom_site_fract_y
 _atom_site_fract_z
 _atom_site_occupancy
  Li  Li0  1  0.00000000  0.00000000  0.00000000  1
  Ti  Ti1  1  0.33300000  0.66700000  0.25000000  1
  Ti  Ti2  1  0.66700000  0.33300000  0.50000000  1
  Ti  Ti3  1  0.00000000  0.00000000  0.75000000  1
  Cl  Cl4  1  0.55058972  0.66391390  0.29299001  1
  Cl  Cl5  1  0.79456621  0.05200633  0.34148776  1
  Cl  Cl6  1  0.94169678  0.98508113  0.22726378  1
