# generated using pymatgen
data_Li5CaS(OF)3
_symmetry_space_group_name_H-M   'P 1'
_cell_length_a   7.51489323
_cell_length_b   8.67369139
_cell_length_c   8.08738018
_cell_angle_alpha   90.00000000
_cell_angle_beta   90.00000000
_cell_angle_gamma   90.00000000
_symmetry_Int_Tables_number   1
_chemical_formula_structural   Li5CaS(OF)3
_chemical_formula_sum   'Li5 Ca1 S1 O3 F3'
_cell_volume   527.15052111
_cell_formula_units_Z   1
loop_
 _symmetry_equiv_pos_site_id
 _symmetry_equiv_pos_as_xyz
  1  'x, y, z'
loop_
 _atom_site_type_symbol
 _atom_site_label
 _atom_site_symmetry_multiplicity
 _atom_site_fract_x
 _atom_site_fract_y
 _atom_site_fract_z
 _atom_site_occupancy
  Li  Li0  1  0.12500000  0.12500000  0.12500000  1
  Li  Li1  1  0.50000000  0.50000000  0.50000000  1
  Li  Li2  1  0.25000000  0.25000000  0.25000000  1
  Li  Li3  1  0.75000000  0.75000000  0.75000000  1
  Li  Li4  1  0.05006860  0.83624130  0.09196588  1
  Ca  Ca5  1  0.40119992  0.23353879  0.52110637  1
  F  F6  1  0.63315963  0.52105040  0.63675258  1
  F  F7  1  0.23787954  0.01754055  0.96586218  1
  F  F8  1  0.12861361  0.44465818  0.82203736  1
  O  O9  1  0.89163077  0.25104901  0.65295130  1
  O  O10  1  0.81550352  0.43803141  0.85989658  1
  O  O11  1  0.21824109  0.46409295  0.19141929  1
  S  S12  1  0.31050062  0.58355981  0.46303519  1
