# generated using pymatgen
data_Li5La3AlGa2Te2As
_symmetry_space_group_name_H-M   'P 1'
_cell_length_a   12.91925553
_cell_length_b   14.42327220
_cell_length_c   14.88067667
_cell_angle_alpha   90.00000000
_cell_angle_beta   90.00000000
_cell_angle_gamma   90.00000000
_symmetry_Int_Tables_number   1
_chemical_formula_structural   Li5La3AlGa2Te2As
_chemical_formula_sum   'Li5 La3 Al1 Ga2 Te2 As1'
_cell_volume   2772.83462280
_cell_formula_units_Z   1
loop_
 _symmetry_equiv_pos_site_id
 _symmetry_equiv_pos_as_xyz
  1  'x, y, z'
loop_
 _atom_site_type_symbol
 _atom_site_label
 _atom_site_symmetry_multiplicity
 _atom_site_fract_x
 _atom_site_fract_y
 _atom_site_fract_z
 _atom_site_occupancy
  Li  Li0  1  0.12500000  0.00000000  0.25000000  1
  Li  Li1  1  0.00000000  0.00000000  0.00000000  1
  Li  Li2  1  0.37500000  0.00000000  0.25000000  1
  Li  Li3  1  0.25000000  0.25000000  0.25000000  1
  Li  Li4  1  0.00000000  0.25000000  0.12500000  1
  La  La5  1  0.22841767  0.07860091  0.31437129  1
  La  La6  1  0.28951426  0.45415867  0.49847012  1
  La  La7  1  0.11179248  0.98264619  0.62299199  1
  Al  Al8  1  0.32483784  0.33410885  0.70213163  1
  Ga  Ga9  1  0.64080359  0.13566741  0.07461057  1
  Ga  Ga10  1  0.37765974  0.88723527  0.72869625  1
  As  As11  1  0.30267176  0.87157233  0.89698698  1
  Te  Te12  1  0.09167635  0.92917205  0.66065832  1
  Te  Te13  1  0.79493899  0.53802921  0.94603836  1
