# generated using pymatgen
data_LiNdSc3As3I4
_symmetry_space_group_name_H-M   'P 1'
_cell_length_a   8.46064199
_cell_length_b   9.38861344
_cell_length_c   8.77036470
_cell_angle_alpha   90.00000000
_cell_angle_beta   90.00000000
_cell_angle_gamma   90.00000000
_symmetry_Int_Tables_number   1
_chemical_formula_structural   LiNdSc3As3I4
_chemical_formula_sum   'Li1 Nd1 Sc3 As3 I4'
_cell_volume   696.66249252
_cell_formula_units_Z   1
loop_
 _symmetry_equiv_pos_site_id
 _symmetry_equiv_pos_as_xyz
  1  'x, y, z'
loop_
 _atom_site_type_symbol
 _atom_site_label
 _atom_site_symmetry_multiplicity
 _atom_site_fract_x
 _atom_site_fract_y
 _atom_site_fract_z
 _atom_site_occupancy
  Li  Li0  1  0.12500000  0.12500000  0.12500000  1
  Sc  Sc1  1  0.50000000  0.50000000  0.50000000  1
  Sc  Sc2  1  0.25000000  0.25000000  0.25000000  1
  Sc  Sc3  1  0.75000000  0.75000000  0.75000000  1
  As  As4  1  0.26549188  0.73736396  0.61758309  1
  As  As5  1  0.49859350  0.24706665  0.29124630  1
  As  As6  1  0.76842993  0.82987768  0.73687395  1
  I  I7  1  0.54469010  0.25967943  0.19732212  1
  I  I8  1  0.08467581  0.65403718  0.20443438  1
  I  I9  1  0.38879240  0.14411216  0.91168979  1
  I  I10  1  0.24139730  0.85324472  0.32800892  1
  Nd  Nd11  1  0.44782922  0.72124437  0.99002236  1
