# generated using pymatgen
data_Li3LuP2WS6I
_symmetry_space_group_name_H-M   'P 1'
_cell_length_a   8.80162657
_cell_length_b   9.44885644
_cell_length_c   8.49230915
_cell_angle_alpha   90.00000000
_cell_angle_beta   90.00000000
_cell_angle_gamma   90.00000000
_symmetry_Int_Tables_number   1
_chemical_formula_structural   Li3LuP2WS6I
_chemical_formula_sum   'Li3 Lu1 P2 W1 S6 I1'
_cell_volume   706.26548738
_cell_formula_units_Z   1
loop_
 _symmetry_equiv_pos_site_id
 _symmetry_equiv_pos_as_xyz
  1  'x, y, z'
loop_
 _atom_site_type_symbol
 _atom_site_label
 _atom_site_symmetry_multiplicity
 _atom_site_fract_x
 _atom_site_fract_y
 _atom_site_fract_z
 _atom_site_occupancy
  Li  Li0  1  0.00000000  0.00000000  0.00000000  1
  Li  Li1  1  0.50000000  0.50000000  0.50000000  1
  Li  Li2  1  0.25000000  0.25000000  0.25000000  1
  W  W3  1  0.75000000  0.25000000  0.00000000  1
  P  P4  1  0.25000000  0.75000000  0.50000000  1
  P  P5  1  0.09367796  0.17717204  0.69544067  1
  I  I6  1  0.72905095  0.42172384  0.75201788  1
  S  S7  1  0.40022708  0.00771136  0.04260717  1
  S  S8  1  0.88195246  0.99419030  0.27387161  1
  S  S9  1  0.51491517  0.87518984  0.62422748  1
  S  S10  1  0.39464183  0.06208315  0.24874970  1
  S  S11  1  0.57818029  0.53494401  0.87589574  1
  S  S12  1  0.34945860  0.04985208  0.71637544  1
  Lu  Lu13  1  0.18002593  0.59093362  0.86141928  1
