# generated using pymatgen
data_LiTiAs3O4
_symmetry_space_group_name_H-M   'P 1'
_cell_length_a   8.30874197
_cell_length_b   6.99940918
_cell_length_c   9.54170061
_cell_angle_alpha   90.00000000
_cell_angle_beta   90.00000000
_cell_angle_gamma   90.00000000
_symmetry_Int_Tables_number   1
_chemical_formula_structural   LiTiAs3O4
_chemical_formula_sum   'Li1 Ti1 As3 O4'
_cell_volume   554.90985827
_cell_formula_units_Z   1
loop_
 _symmetry_equiv_pos_site_id
 _symmetry_equiv_pos_as_xyz
  1  'x, y, z'
loop_
 _atom_site_type_symbol
 _atom_site_label
 _atom_site_symmetry_multiplicity
 _atom_site_fract_x
 _atom_site_fract_y
 _atom_site_fract_z
 _atom_site_occupancy
  Li  Li0  1  0.00000000  0.00000000  0.00000000  1
  Ti  Ti1  1  0.50000000  0.50000000  0.50000000  1
  As  As2  1  0.25000000  0.25000000  0.25000000  1
  As  As3  1  0.75000000  0.25000000  0.00000000  1
  As  As4  1  0.25000000  0.75000000  0.50000000  1
  O  O5  1  0.23957461  0.49843049  0.86570389  1
  O  O6  1  0.01337651  0.69743728  0.86704241  1
  O  O7  1  0.97410381  0.59906545  0.64898658  1
  O  O8  1  0.10747221  0.13924227  0.27768983  1
