# generated using pymatgen
data_Li2TiO
_symmetry_space_group_name_H-M   'P 1'
_cell_length_a   3.72370212
_cell_length_b   3.31018777
_cell_length_c   5.38465119
_cell_angle_alpha   105.44133058
_cell_angle_beta   104.47289851
_cell_angle_gamma   114.49233537
_symmetry_Int_Tables_number   1
_chemical_formula_structural   Li2TiO
_chemical_formula_sum   'Li4 Ti2 O2'
_cell_volume   53.08130851
_cell_formula_units_Z   2
loop_
 _symmetry_equiv_pos_site_id
 _symmetry_equiv_pos_as_xyz
  1  'x, y, z'
loop_
 _atom_site_type_symbol
 _atom_site_label
 _atom_site_symmetry_multiplicity
 _atom_site_fract_x
 _atom_site_fract_y
 _atom_site_fract_z
 _atom_site_occupancy
  Li  Li0  1  0.00000000  0.00000000  0.00000000  1
  Li  Li1  1  0.33300000  0.66700000  0.25000000  1
  Li  Li2  1  0.66700000  0.33300000  0.50000000  1
  Li  Li3  1  0.00000000  0.00000000  0.75000000  1
  Ti  Ti4  1  0.14705992  0.54929024  0.78706849  1
  Ti  Ti5  1  0.43043991  0.79858766  0.03839455  1
  O  O6  1  0.15941900  0.22481013  0.89842147  1
  O  O7  1  0.58743478  0.17083506  0.93784340  1
