# generated using pymatgen
data_Li4Sc3Cr2CO
_symmetry_space_group_name_H-M   'P 1'
_cell_length_a   12.91529556
_cell_length_b   13.82641152
_cell_length_c   15.45223775
_cell_angle_alpha   90.00000000
_cell_angle_beta   90.00000000
_cell_angle_gamma   90.00000000
_symmetry_Int_Tables_number   1
_chemical_formula_structural   Li4Sc3Cr2CO
_chemical_formula_sum   'Li4 Sc3 Cr2 C1 O1'
_cell_volume   2759.33995680
_cell_formula_units_Z   1
loop_
 _symmetry_equiv_pos_site_id
 _symmetry_equiv_pos_as_xyz
  1  'x, y, z'
loop_
 _atom_site_type_symbol
 _atom_site_label
 _atom_site_symmetry_multiplicity
 _atom_site_fract_x
 _atom_site_fract_y
 _atom_site_fract_z
 _atom_site_occupancy
  Li  Li0  1  0.12500000  0.00000000  0.25000000  1
  Li  Li1  1  0.00000000  0.00000000  0.00000000  1
  Li  Li2  1  0.37500000  0.00000000  0.25000000  1
  Li  Li3  1  0.25000000  0.25000000  0.25000000  1
  Sc  Sc4  1  0.00000000  0.25000000  0.12500000  1
  Sc  Sc5  1  0.31334726  0.92597233  0.20221502  1
  Sc  Sc6  1  0.54812830  0.08535466  0.22939068  1
  Cr  Cr7  1  0.13671654  0.65774761  0.61123384  1
  Cr  Cr8  1  0.05805161  0.32909697  0.50337174  1
  C  C9  1  0.60210925  0.74058630  0.83643311  1
  O  O10  1  0.27723742  0.32923518  0.40228266  1
