# generated using pymatgen
data_Li2VNiO5
_symmetry_space_group_name_H-M   'P 1'
_cell_length_a   8.21210541
_cell_length_b   9.58075787
_cell_length_c   7.85747397
_cell_angle_alpha   90.00000000
_cell_angle_beta   90.00000000
_cell_angle_gamma   90.00000000
_symmetry_Int_Tables_number   1
_chemical_formula_structural   Li2VNiO5
_chemical_formula_sum   'Li2 V1 Ni1 O5'
_cell_volume   618.21185730
_cell_formula_units_Z   1
loop_
 _symmetry_equiv_pos_site_id
 _symmetry_equiv_pos_as_xyz
  1  'x, y, z'
loop_
 _atom_site_type_symbol
 _atom_site_label
 _atom_site_symmetry_multiplicity
 _atom_site_fract_x
 _atom_site_fract_y
 _atom_site_fract_z
 _atom_site_occupancy
  Li  Li0  1  0.12500000  0.12500000  0.12500000  1
  Li  Li1  1  0.50000000  0.50000000  0.50000000  1
  V  V2  1  0.25000000  0.25000000  0.25000000  1
  O  O3  1  0.75000000  0.75000000  0.75000000  1
  O  O4  1  0.44046858  0.19092382  0.37588381  1
  O  O5  1  0.18126929  0.40090341  0.68845922  1
  O  O6  1  0.61656945  0.77711464  0.30694472  1
  O  O7  1  0.50303636  0.77812661  0.01307873  1
  Ni  Ni8  1  0.84519140  0.28018438  0.56411164  1
