# generated using pymatgen
data_LiTi3O5
_symmetry_space_group_name_H-M   'P 1'
_cell_length_a   3.58680740
_cell_length_b   3.96067270
_cell_length_c   3.50382571
_cell_angle_alpha   86.46678286
_cell_angle_beta   89.09500968
_cell_angle_gamma   89.34971881
_symmetry_Int_Tables_number   1
_chemical_formula_structural   LiTi3O5
_chemical_formula_sum   'Li1 Ti3 O5'
_cell_volume   49.67244978
_cell_formula_units_Z   1
loop_
 _symmetry_equiv_pos_site_id
 _symmetry_equiv_pos_as_xyz
  1  'x, y, z'
loop_
 _atom_site_type_symbol
 _atom_site_label
 _atom_site_symmetry_multiplicity
 _atom_site_fract_x
 _atom_site_fract_y
 _atom_site_fract_z
 _atom_site_occupancy
  Li  Li0  1  0.00000000  0.00000000  0.00000000  1
  Ti  Ti1  1  0.50000000  0.50000000  0.50000000  1
  Ti  Ti2  1  0.50000000  0.50000000  0.00000000  1
  Ti  Ti3  1  0.50000000  0.00000000  0.50000000  1
  O  O4  1  0.00000000  0.50000000  0.50000000  1
  O  O5  1  0.60116908  0.10080895  0.78930696  1
  O  O6  1  0.08408623  0.16140051  0.63226778  1
  O  O7  1  0.37781487  0.85266612  0.34985766  1
  O  O8  1  0.67348249  0.96981851  0.19948011  1
