# generated using pymatgen
data_Li2TiTe2Br5N3Cl
_symmetry_space_group_name_H-M   'P 1'
_cell_length_a   8.60050092
_cell_length_b   8.03799249
_cell_length_c   8.41346185
_cell_angle_alpha   90.00000000
_cell_angle_beta   90.00000000
_cell_angle_gamma   90.00000000
_symmetry_Int_Tables_number   1
_chemical_formula_structural   Li2TiTe2Br5N3Cl
_chemical_formula_sum   'Li2 Ti1 Te2 Br5 N3 Cl1'
_cell_volume   581.62902730
_cell_formula_units_Z   1
loop_
 _symmetry_equiv_pos_site_id
 _symmetry_equiv_pos_as_xyz
  1  'x, y, z'
loop_
 _atom_site_type_symbol
 _atom_site_label
 _atom_site_symmetry_multiplicity
 _atom_site_fract_x
 _atom_site_fract_y
 _atom_site_fract_z
 _atom_site_occupancy
  Li  Li0  1  0.00000000  0.00000000  0.00000000  1
  Li  Li1  1  0.50000000  0.50000000  0.50000000  1
  Ti  Ti2  1  0.25000000  0.25000000  0.25000000  1
  Br  Br3  1  0.75000000  0.25000000  0.00000000  1
  Br  Br4  1  0.25000000  0.75000000  0.50000000  1
  Br  Br5  1  0.71161178  0.73772643  0.51812786  1
  Br  Br6  1  0.92493064  0.82745282  0.07359520  1
  Br  Br7  1  0.61469048  0.13529220  0.79652116  1
  Cl  Cl8  1  0.63190828  0.08785064  0.92368630  1
  N  N9  1  0.43217289  0.88627520  0.89458165  1
  N  N10  1  0.19450580  0.23093963  0.58373880  1
  N  N11  1  0.92666617  0.87009501  0.68904535  1
  Te  Te12  1  0.10411066  0.08037814  0.62601164  1
  Te  Te13  1  0.94441123  0.89631047  0.97987090  1
