# generated using pymatgen
data_LiNbAl2Sb2O
_symmetry_space_group_name_H-M   'P 1'
_cell_length_a   8.42065211
_cell_length_b   7.99351498
_cell_length_c   7.62810757
_cell_angle_alpha   90.00000000
_cell_angle_beta   90.00000000
_cell_angle_gamma   90.00000000
_symmetry_Int_Tables_number   1
_chemical_formula_structural   LiNbAl2Sb2O
_chemical_formula_sum   'Li1 Nb1 Al2 Sb2 O1'
_cell_volume   513.45256429
_cell_formula_units_Z   1
loop_
 _symmetry_equiv_pos_site_id
 _symmetry_equiv_pos_as_xyz
  1  'x, y, z'
loop_
 _atom_site_type_symbol
 _atom_site_label
 _atom_site_symmetry_multiplicity
 _atom_site_fract_x
 _atom_site_fract_y
 _atom_site_fract_z
 _atom_site_occupancy
  Li  Li0  1  0.12500000  0.12500000  0.12500000  1
  Al  Al1  1  0.50000000  0.50000000  0.50000000  1
  Al  Al2  1  0.25000000  0.25000000  0.25000000  1
  Sb  Sb3  1  0.75000000  0.75000000  0.75000000  1
  Sb  Sb4  1  0.02510768  0.96281262  0.73449956  1
  O  O5  1  0.85148756  0.92784635  0.30730127  1
  Nb  Nb6  1  0.84464818  0.63335364  0.88417068  1
