# generated using pymatgen
data_Li3La2Al2Si3O
_symmetry_space_group_name_H-M   'P 1'
_cell_length_a   12.95935685
_cell_length_b   14.56037770
_cell_length_c   12.04808283
_cell_angle_alpha   90.00000000
_cell_angle_beta   90.00000000
_cell_angle_gamma   90.00000000
_symmetry_Int_Tables_number   1
_chemical_formula_structural   Li3La2Al2Si3O
_chemical_formula_sum   'Li3 La2 Al2 Si3 O1'
_cell_volume   2273.39046673
_cell_formula_units_Z   1
loop_
 _symmetry_equiv_pos_site_id
 _symmetry_equiv_pos_as_xyz
  1  'x, y, z'
loop_
 _atom_site_type_symbol
 _atom_site_label
 _atom_site_symmetry_multiplicity
 _atom_site_fract_x
 _atom_site_fract_y
 _atom_site_fract_z
 _atom_site_occupancy
  Li  Li0  1  0.12500000  0.00000000  0.25000000  1
  Li  Li1  1  0.00000000  0.00000000  0.00000000  1
  Li  Li2  1  0.37500000  0.00000000  0.25000000  1
  La  La3  1  0.25000000  0.25000000  0.25000000  1
  La  La4  1  0.00000000  0.25000000  0.12500000  1
  Al  Al5  1  0.91205877  0.50968415  0.71583146  1
  Al  Al6  1  0.19472166  0.68707121  0.41178344  1
  Si  Si7  1  0.17438542  0.06075132  0.38076066  1
  Si  Si8  1  0.50751315  0.59312359  0.38826207  1
  Si  Si9  1  0.23674106  0.57188319  0.48181123  1
  O  O10  1  0.37407895  0.85419647  0.25562107  1
