# generated using pymatgen
data_Li6CrO2
_symmetry_space_group_name_H-M   'P 1'
_cell_length_a   3.19336478
_cell_length_b   3.40299419
_cell_length_c   5.86392937
_cell_angle_alpha   118.39207753
_cell_angle_beta   119.91865782
_cell_angle_gamma   112.33521635
_symmetry_Int_Tables_number   1
_chemical_formula_structural   Li6CrO2
_chemical_formula_sum   'Li6 Cr1 O2'
_cell_volume   28.52989221
_cell_formula_units_Z   1
loop_
 _symmetry_equiv_pos_site_id
 _symmetry_equiv_pos_as_xyz
  1  'x, y, z'
loop_
 _atom_site_type_symbol
 _atom_site_label
 _atom_site_symmetry_multiplicity
 _atom_site_fract_x
 _atom_site_fract_y
 _atom_site_fract_z
 _atom_site_occupancy
  Li  Li0  1  0.00000000  0.00000000  0.00000000  1
  Li  Li1  1  0.33300000  0.66700000  0.25000000  1
  Li  Li2  1  0.66700000  0.33300000  0.50000000  1
  Li  Li3  1  0.00000000  0.00000000  0.75000000  1
  Li  Li4  1  0.37586368  0.87877976  0.67079946  1
  Li  Li5  1  0.26101796  0.04371518  0.29052116  1
  Cr  Cr6  1  0.66176305  0.68140230  0.37860255  1
  O  O7  1  0.79116056  0.88336015  0.25190053  1
  O  O8  1  0.15868742  0.37241605  0.38629642  1
