# generated using pymatgen
data_Li2Ti3Cl
_symmetry_space_group_name_H-M   'P 1'
_cell_length_a   3.08103716
_cell_length_b   3.15046519
_cell_length_c   6.47382045
_cell_angle_alpha   96.76082265
_cell_angle_beta   90.34683898
_cell_angle_gamma   101.49615468
_symmetry_Int_Tables_number   1
_chemical_formula_structural   Li2Ti3Cl
_chemical_formula_sum   'Li2 Ti3 Cl1'
_cell_volume   61.12241577
_cell_formula_units_Z   1
loop_
 _symmetry_equiv_pos_site_id
 _symmetry_equiv_pos_as_xyz
  1  'x, y, z'
loop_
 _atom_site_type_symbol
 _atom_site_label
 _atom_site_symmetry_multiplicity
 _atom_site_fract_x
 _atom_site_fract_y
 _atom_site_fract_z
 _atom_site_occupancy
  Li  Li0  1  0.00000000  0.00000000  0.00000000  1
  Li  Li1  1  0.33300000  0.66700000  0.25000000  1
  Ti  Ti2  1  0.66700000  0.33300000  0.50000000  1
  Ti  Ti3  1  0.00000000  0.00000000  0.75000000  1
  Ti  Ti4  1  0.78173673  0.76077524  0.42733773  1
  Cl  Cl5  1  0.54928953  0.92974229  0.72921404  1
