# generated using pymatgen
data_Li4TiTe4P2O
_symmetry_space_group_name_H-M   'P 1'
_cell_length_a   8.72382208
_cell_length_b   8.03927339
_cell_length_c   9.67253885
_cell_angle_alpha   90.00000000
_cell_angle_beta   90.00000000
_cell_angle_gamma   90.00000000
_symmetry_Int_Tables_number   1
_chemical_formula_structural   Li4TiTe4P2O
_chemical_formula_sum   'Li4 Ti1 Te4 P2 O1'
_cell_volume   678.36601167
_cell_formula_units_Z   1
loop_
 _symmetry_equiv_pos_site_id
 _symmetry_equiv_pos_as_xyz
  1  'x, y, z'
loop_
 _atom_site_type_symbol
 _atom_site_label
 _atom_site_symmetry_multiplicity
 _atom_site_fract_x
 _atom_site_fract_y
 _atom_site_fract_z
 _atom_site_occupancy
  Li  Li0  1  0.00000000  0.00000000  0.00000000  1
  Li  Li1  1  0.50000000  0.50000000  0.50000000  1
  Li  Li2  1  0.25000000  0.25000000  0.25000000  1
  Li  Li3  1  0.75000000  0.25000000  0.00000000  1
  Ti  Ti4  1  0.25000000  0.75000000  0.50000000  1
  P  P5  1  0.40698292  0.61522756  0.52485729  1
  P  P6  1  0.56853367  0.45722900  0.70053632  1
  Te  Te7  1  0.73322121  0.65753363  0.03247966  1
  Te  Te8  1  0.55039156  0.20868565  0.66549047  1
  Te  Te9  1  0.93211681  0.14193495  0.05291033  1
  Te  Te10  1  0.70757255  0.04542526  0.54517473  1
  O  O11  1  0.86884630  0.28448622  0.99550346  1
