# generated using pymatgen
data_Li3TiGaP8O3
_symmetry_space_group_name_H-M   'P 1'
_cell_length_a   8.55575622
_cell_length_b   10.22043822
_cell_length_c   8.44923570
_cell_angle_alpha   90.00000000
_cell_angle_beta   90.00000000
_cell_angle_gamma   90.00000000
_symmetry_Int_Tables_number   1
_chemical_formula_structural   Li3TiGaP8O3
_chemical_formula_sum   'Li3 Ti1 Ga1 P8 O3'
_cell_volume   738.83139991
_cell_formula_units_Z   1
loop_
 _symmetry_equiv_pos_site_id
 _symmetry_equiv_pos_as_xyz
  1  'x, y, z'
loop_
 _atom_site_type_symbol
 _atom_site_label
 _atom_site_symmetry_multiplicity
 _atom_site_fract_x
 _atom_site_fract_y
 _atom_site_fract_z
 _atom_site_occupancy
  Li  Li0  1  0.00000000  0.00000000  0.00000000  1
  Li  Li1  1  0.50000000  0.50000000  0.50000000  1
  Li  Li2  1  0.25000000  0.25000000  0.25000000  1
  Ti  Ti3  1  0.75000000  0.25000000  0.00000000  1
  P  P4  1  0.25000000  0.75000000  0.50000000  1
  P  P5  1  0.35556631  0.39324923  0.48868407  1
  P  P6  1  0.83156539  0.79385827  0.20967219  1
  P  P7  1  0.83789320  0.52644233  0.14812229  1
  P  P8  1  0.80811712  0.32367556  0.94910501  1
  P  P9  1  0.42353205  0.70911830  0.72190927  1
  P  P10  1  0.64046372  0.78149701  0.18638084  1
  P  P11  1  0.41238754  0.37854122  0.69084575  1
  O  O12  1  0.49907588  0.35114302  0.43943290  1
  O  O13  1  0.41627120  0.68487710  0.93286014  1
  O  O14  1  0.65064573  0.09391249  0.03599556  1
  Ga  Ga15  1  0.58975380  0.58657697  0.54434166  1
