# generated using pymatgen
data_LiTi3ClO2
_symmetry_space_group_name_H-M   'P 1'
_cell_length_a   4.21120197
_cell_length_b   4.29089282
_cell_length_c   4.63634242
_cell_angle_alpha   87.65556031
_cell_angle_beta   87.75314208
_cell_angle_gamma   91.67778869
_symmetry_Int_Tables_number   1
_chemical_formula_structural   LiTi3ClO2
_chemical_formula_sum   'Li1 Ti3 Cl1 O2'
_cell_volume   83.60335095
_cell_formula_units_Z   1
loop_
 _symmetry_equiv_pos_site_id
 _symmetry_equiv_pos_as_xyz
  1  'x, y, z'
loop_
 _atom_site_type_symbol
 _atom_site_label
 _atom_site_symmetry_multiplicity
 _atom_site_fract_x
 _atom_site_fract_y
 _atom_site_fract_z
 _atom_site_occupancy
  Li  Li0  1  0.00000000  0.00000000  0.00000000  1
  Ti  Ti1  1  0.50000000  0.50000000  0.50000000  1
  Ti  Ti2  1  0.50000000  0.50000000  0.00000000  1
  Ti  Ti3  1  0.50000000  0.00000000  0.50000000  1
  Cl  Cl4  1  0.00000000  0.50000000  0.50000000  1
  O  O5  1  0.24554049  0.35525150  0.29385494  1
  O  O6  1  0.51047316  0.26196733  0.23904628  1
