# generated using pymatgen
data_Li5CaCuTe4As5Br4Cl5
_symmetry_space_group_name_H-M   'P 1'
_cell_length_a   8.98606402
_cell_length_b   8.56764889
_cell_length_c   9.01374426
_cell_angle_alpha   90.00000000
_cell_angle_beta   90.00000000
_cell_angle_gamma   90.00000000
_symmetry_Int_Tables_number   1
_chemical_formula_structural   Li5CaCuTe4As5Br4Cl5
_chemical_formula_sum   'Li5 Ca1 Cu1 Te4 As5 Br4 Cl5'
_cell_volume   693.96313563
_cell_formula_units_Z   1
loop_
 _symmetry_equiv_pos_site_id
 _symmetry_equiv_pos_as_xyz
  1  'x, y, z'
loop_
 _atom_site_type_symbol
 _atom_site_label
 _atom_site_symmetry_multiplicity
 _atom_site_fract_x
 _atom_site_fract_y
 _atom_site_fract_z
 _atom_site_occupancy
  Li  Li0  1  0.00000000  0.00000000  0.00000000  1
  Li  Li1  1  0.50000000  0.50000000  0.50000000  1
  Li  Li2  1  0.25000000  0.25000000  0.25000000  1
  Li  Li3  1  0.75000000  0.25000000  0.00000000  1
  Li  Li4  1  0.25000000  0.75000000  0.50000000  1
  Ca  Ca5  1  0.56891043  0.37001621  0.87339812  1
  Cu  Cu6  1  0.37695911  0.61037003  0.86308875  1
  As  As7  1  0.55953095  0.99197885  0.51283435  1
  As  As8  1  0.01267919  0.22200926  0.22117767  1
  As  As9  1  0.56417285  0.67160204  0.67222548  1
  As  As10  1  0.39156005  0.90057138  0.40727628  1
  As  As11  1  0.44376427  0.45787902  0.84834637  1
  Br  Br12  1  0.70593794  0.28857694  0.97375078  1
  Br  Br13  1  0.16143334  0.17821237  0.78370456  1
  Br  Br14  1  0.72245905  0.39131315  0.23317738  1
  Br  Br15  1  0.20996900  0.57977743  0.82229930  1
  Te  Te16  1  0.54548866  0.52836134  0.78209097  1
  Te  Te17  1  0.69158123  0.30546620  0.71312000  1
  Te  Te18  1  0.99866909  0.36779766  0.74856483  1
  Te  Te19  1  0.51645365  0.32427012  0.71770173  1
  Cl  Cl20  1  0.50968196  0.57008797  0.18117461  1
  Cl  Cl21  1  0.74820105  0.64387171  0.91089859  1
  Cl  Cl22  1  0.41460672  0.25221469  0.64749595  1
  Cl  Cl23  1  0.32866974  0.68266177  0.87973665  1
  Cl  Cl24  1  0.26629372  0.50459931  0.05815760  1
