# generated using pymatgen
data_LiSb(WO)2
_symmetry_space_group_name_H-M   'P 1'
_cell_length_a   8.42693917
_cell_length_b   7.35223387
_cell_length_c   9.40975051
_cell_angle_alpha   90.00000000
_cell_angle_beta   90.00000000
_cell_angle_gamma   90.00000000
_symmetry_Int_Tables_number   1
_chemical_formula_structural   LiSb(WO)2
_chemical_formula_sum   'Li1 Sb1 W2 O2'
_cell_volume   582.99828983
_cell_formula_units_Z   1
loop_
 _symmetry_equiv_pos_site_id
 _symmetry_equiv_pos_as_xyz
  1  'x, y, z'
loop_
 _atom_site_type_symbol
 _atom_site_label
 _atom_site_symmetry_multiplicity
 _atom_site_fract_x
 _atom_site_fract_y
 _atom_site_fract_z
 _atom_site_occupancy
  Li  Li0  1  0.12500000  0.12500000  0.12500000  1
  W  W1  1  0.50000000  0.50000000  0.50000000  1
  W  W2  1  0.25000000  0.25000000  0.25000000  1
  Sb  Sb3  1  0.75000000  0.75000000  0.75000000  1
  O  O4  1  0.82121373  0.79256471  0.78972088  1
  O  O5  1  0.93571253  0.42751875  0.91802442  1
