# generated using pymatgen
data_Li3AlVZn2Si2O3
_symmetry_space_group_name_H-M   'P 1'
_cell_length_a   12.61651338
_cell_length_b   11.71343214
_cell_length_c   14.49202256
_cell_angle_alpha   90.00000000
_cell_angle_beta   90.00000000
_cell_angle_gamma   90.00000000
_symmetry_Int_Tables_number   1
_chemical_formula_structural   Li3AlVZn2Si2O3
_chemical_formula_sum   'Li3 Al1 V1 Zn2 Si2 O3'
_cell_volume   2141.66983610
_cell_formula_units_Z   1
loop_
 _symmetry_equiv_pos_site_id
 _symmetry_equiv_pos_as_xyz
  1  'x, y, z'
loop_
 _atom_site_type_symbol
 _atom_site_label
 _atom_site_symmetry_multiplicity
 _atom_site_fract_x
 _atom_site_fract_y
 _atom_site_fract_z
 _atom_site_occupancy
  Li  Li0  1  0.12500000  0.00000000  0.25000000  1
  Li  Li1  1  0.00000000  0.00000000  0.00000000  1
  Li  Li2  1  0.37500000  0.00000000  0.25000000  1
  V  V3  1  0.25000000  0.25000000  0.25000000  1
  Zn  Zn4  1  0.00000000  0.25000000  0.12500000  1
  Zn  Zn5  1  0.06806725  0.36596017  0.94590192  1
  Al  Al6  1  0.88410623  0.76547098  0.23839111  1
  Si  Si7  1  0.32968035  0.44956636  0.85420989  1
  Si  Si8  1  0.63901619  0.28472609  0.83931069  1
  O  O9  1  0.85688530  0.59332798  0.87995994  1
  O  O10  1  0.34129573  0.50541317  0.30751653  1
  O  O11  1  0.97898697  0.75740231  0.04304959  1
