# generated using pymatgen
data_LiAl3Cr2(GaO)2
_symmetry_space_group_name_H-M   'P 1'
_cell_length_a   12.07086291
_cell_length_b   14.45120006
_cell_length_c   10.26368293
_cell_angle_alpha   90.00000000
_cell_angle_beta   90.00000000
_cell_angle_gamma   90.00000000
_symmetry_Int_Tables_number   1
_chemical_formula_structural   LiAl3Cr2(GaO)2
_chemical_formula_sum   'Li1 Al3 Cr2 Ga2 O2'
_cell_volume   1790.38099242
_cell_formula_units_Z   1
loop_
 _symmetry_equiv_pos_site_id
 _symmetry_equiv_pos_as_xyz
  1  'x, y, z'
loop_
 _atom_site_type_symbol
 _atom_site_label
 _atom_site_symmetry_multiplicity
 _atom_site_fract_x
 _atom_site_fract_y
 _atom_site_fract_z
 _atom_site_occupancy
  Li  Li0  1  0.12500000  0.00000000  0.25000000  1
  Cr  Cr1  1  0.00000000  0.00000000  0.00000000  1
  Cr  Cr2  1  0.37500000  0.00000000  0.25000000  1
  Al  Al3  1  0.25000000  0.25000000  0.25000000  1
  Al  Al4  1  0.00000000  0.25000000  0.12500000  1
  Al  Al5  1  0.59543293  0.09059620  0.45937726  1
  Ga  Ga6  1  0.55989325  0.24505763  0.85459273  1
  Ga  Ga7  1  0.09921398  0.48355476  0.20550481  1
  O  O8  1  0.62651734  0.89979765  0.02515929  1
  O  O9  1  0.74529191  0.95433970  0.35158723  1
