# generated using pymatgen
data_LiAlO6
_symmetry_space_group_name_H-M   'P 1'
_cell_length_a   8.40075711
_cell_length_b   9.55198060
_cell_length_c   9.51558879
_cell_angle_alpha   90.00000000
_cell_angle_beta   90.00000000
_cell_angle_gamma   90.00000000
_symmetry_Int_Tables_number   1
_chemical_formula_structural   LiAlO6
_chemical_formula_sum   'Li1 Al1 O6'
_cell_volume   763.56766008
_cell_formula_units_Z   1
loop_
 _symmetry_equiv_pos_site_id
 _symmetry_equiv_pos_as_xyz
  1  'x, y, z'
loop_
 _atom_site_type_symbol
 _atom_site_label
 _atom_site_symmetry_multiplicity
 _atom_site_fract_x
 _atom_site_fract_y
 _atom_site_fract_z
 _atom_site_occupancy
  Li  Li0  1  0.12500000  0.12500000  0.12500000  1
  Al  Al1  1  0.50000000  0.50000000  0.50000000  1
  O  O2  1  0.25000000  0.25000000  0.25000000  1
  O  O3  1  0.75000000  0.75000000  0.75000000  1
  O  O4  1  0.93935311  0.92689540  0.44367618  1
  O  O5  1  0.07701046  0.66709945  0.30438275  1
  O  O6  1  0.75103802  0.01448604  0.99175867  1
  O  O7  1  0.77447783  0.01741748  0.95375784  1
