# generated using pymatgen
data_Li4Ca2O
_symmetry_space_group_name_H-M   'P 1'
_cell_length_a   3.30028065
_cell_length_b   3.11064851
_cell_length_c   5.34745117
_cell_angle_alpha   94.17841319
_cell_angle_beta   95.35635143
_cell_angle_gamma   98.90204287
_symmetry_Int_Tables_number   1
_chemical_formula_structural   Li4Ca2O
_chemical_formula_sum   'Li4 Ca2 O1'
_cell_volume   53.78577463
_cell_formula_units_Z   1
loop_
 _symmetry_equiv_pos_site_id
 _symmetry_equiv_pos_as_xyz
  1  'x, y, z'
loop_
 _atom_site_type_symbol
 _atom_site_label
 _atom_site_symmetry_multiplicity
 _atom_site_fract_x
 _atom_site_fract_y
 _atom_site_fract_z
 _atom_site_occupancy
  Li  Li0  1  0.00000000  0.00000000  0.00000000  1
  Li  Li1  1  0.33300000  0.66700000  0.25000000  1
  Li  Li2  1  0.66700000  0.33300000  0.50000000  1
  Li  Li3  1  0.00000000  0.00000000  0.75000000  1
  Ca  Ca4  1  0.55823065  0.23900253  0.35186321  1
  Ca  Ca5  1  0.78927090  0.00760480  0.53827888  1
  O  O6  1  0.83114156  0.82918948  0.43493377  1
