# generated using pymatgen
data_Li2AlP3O2F
_symmetry_space_group_name_H-M   'P 1'
_cell_length_a   8.95111583
_cell_length_b   9.11322649
_cell_length_c   7.26769667
_cell_angle_alpha   90.00000000
_cell_angle_beta   90.00000000
_cell_angle_gamma   90.00000000
_symmetry_Int_Tables_number   1
_chemical_formula_structural   Li2AlP3O2F
_chemical_formula_sum   'Li2 Al1 P3 O2 F1'
_cell_volume   592.85178782
_cell_formula_units_Z   1
loop_
 _symmetry_equiv_pos_site_id
 _symmetry_equiv_pos_as_xyz
  1  'x, y, z'
loop_
 _atom_site_type_symbol
 _atom_site_label
 _atom_site_symmetry_multiplicity
 _atom_site_fract_x
 _atom_site_fract_y
 _atom_site_fract_z
 _atom_site_occupancy
  Li  Li0  1  0.00000000  0.00000000  0.00000000  1
  Li  Li1  1  0.50000000  0.50000000  0.50000000  1
  Al  Al2  1  0.25000000  0.25000000  0.25000000  1
  P  P3  1  0.75000000  0.25000000  0.00000000  1
  P  P4  1  0.25000000  0.75000000  0.50000000  1
  P  P5  1  0.73016396  0.96744271  0.70096218  1
  F  F6  1  0.45875147  0.36925388  0.54131376  1
  O  O7  1  0.73084869  0.68534257  0.14191066  1
  O  O8  1  0.71426330  0.50186781  0.62163449  1
