# generated using pymatgen
data_LiLaP6BrO2
_symmetry_space_group_name_H-M   'P 1'
_cell_length_a   4.06249852
_cell_length_b   3.63662032
_cell_length_c   4.70518465
_cell_angle_alpha   93.18403512
_cell_angle_beta   91.94957363
_cell_angle_gamma   92.97088929
_symmetry_Int_Tables_number   1
_chemical_formula_structural   LiLaP6BrO2
_chemical_formula_sum   'Li1 La1 P6 Br1 O2'
_cell_volume   69.26522520
_cell_formula_units_Z   1
loop_
 _symmetry_equiv_pos_site_id
 _symmetry_equiv_pos_as_xyz
  1  'x, y, z'
loop_
 _atom_site_type_symbol
 _atom_site_label
 _atom_site_symmetry_multiplicity
 _atom_site_fract_x
 _atom_site_fract_y
 _atom_site_fract_z
 _atom_site_occupancy
  Li  Li0  1  0.00000000  0.00000000  0.00000000  1
  La  La1  1  0.50000000  0.50000000  0.50000000  1
  P  P2  1  0.50000000  0.50000000  0.00000000  1
  P  P3  1  0.50000000  0.00000000  0.50000000  1
  P  P4  1  0.00000000  0.50000000  0.50000000  1
  P  P5  1  0.91402227  0.85542679  0.05857254  1
  P  P6  1  0.01109615  0.18146125  0.88805028  1
  P  P7  1  0.94073300  0.61598251  0.34055936  1
  O  O8  1  0.29653462  0.40680891  0.33121180  1
  O  O9  1  0.31809250  0.33238376  0.94227613  1
  Br  Br10  1  0.24776300  0.90447119  0.61122817  1
