# generated using pymatgen
data_LiTiSeNOF6
_symmetry_space_group_name_H-M   'P 1'
_cell_length_a   3.77823339
_cell_length_b   3.17572842
_cell_length_c   4.53378179
_cell_angle_alpha   88.78070363
_cell_angle_beta   90.20571075
_cell_angle_gamma   86.06057224
_symmetry_Int_Tables_number   1
_chemical_formula_structural   LiTiSeNOF6
_chemical_formula_sum   'Li1 Ti1 Se1 N1 O1 F6'
_cell_volume   54.25771305
_cell_formula_units_Z   1
loop_
 _symmetry_equiv_pos_site_id
 _symmetry_equiv_pos_as_xyz
  1  'x, y, z'
loop_
 _atom_site_type_symbol
 _atom_site_label
 _atom_site_symmetry_multiplicity
 _atom_site_fract_x
 _atom_site_fract_y
 _atom_site_fract_z
 _atom_site_occupancy
  Li  Li0  1  0.00000000  0.00000000  0.00000000  1
  Ti  Ti1  1  0.50000000  0.50000000  0.50000000  1
  F  F2  1  0.50000000  0.50000000  0.00000000  1
  F  F3  1  0.50000000  0.00000000  0.50000000  1
  F  F4  1  0.00000000  0.50000000  0.50000000  1
  F  F5  1  0.33879631  0.03286643  0.90229811  1
  F  F6  1  0.17541653  0.71723759  0.78269187  1
  F  F7  1  0.61819301  0.53461346  0.52345253  1
  O  O8  1  0.24004406  0.94651412  0.82325435  1
  Se  Se9  1  0.10607713  0.46341265  0.43923854  1
  N  N10  1  0.53856655  0.93747297  0.74358292  1
