# generated using pymatgen
data_Li4Y2VPO4
_symmetry_space_group_name_H-M   'P 1'
_cell_length_a   8.09171039
_cell_length_b   9.16058286
_cell_length_c   6.51522166
_cell_angle_alpha   90.00000000
_cell_angle_beta   90.00000000
_cell_angle_gamma   90.00000000
_symmetry_Int_Tables_number   1
_chemical_formula_structural   Li4Y2VPO4
_chemical_formula_sum   'Li4 Y2 V1 P1 O4'
_cell_volume   482.93939470
_cell_formula_units_Z   1
loop_
 _symmetry_equiv_pos_site_id
 _symmetry_equiv_pos_as_xyz
  1  'x, y, z'
loop_
 _atom_site_type_symbol
 _atom_site_label
 _atom_site_symmetry_multiplicity
 _atom_site_fract_x
 _atom_site_fract_y
 _atom_site_fract_z
 _atom_site_occupancy
  Li  Li0  1  0.00000000  0.00000000  0.00000000  1
  Li  Li1  1  0.50000000  0.50000000  0.50000000  1
  Li  Li2  1  0.25000000  0.25000000  0.25000000  1
  Li  Li3  1  0.75000000  0.25000000  0.00000000  1
  Y  Y4  1  0.25000000  0.75000000  0.50000000  1
  Y  Y5  1  0.33377645  0.99667127  0.29503468  1
  P  P6  1  0.68441457  0.63853657  0.51543529  1
  O  O7  1  0.61298866  0.94974365  0.69715918  1
  O  O8  1  0.86095662  0.82442654  0.24326885  1
  O  O9  1  0.38749058  0.09601625  0.37306310  1
  O  O10  1  0.90260910  0.85028898  0.22227070  1
  V  V11  1  0.44290909  0.47665829  0.77879009  1
