# generated using pymatgen
data_LiCu2As6C
_symmetry_space_group_name_H-M   'P 1'
_cell_length_a   3.05520001
_cell_length_b   3.31100096
_cell_length_c   5.57520634
_cell_angle_alpha   104.24550555
_cell_angle_beta   110.15656975
_cell_angle_gamma   111.55162747
_symmetry_Int_Tables_number   1
_chemical_formula_structural   LiCu2As6C
_chemical_formula_sum   'Li1 Cu2 As6 C1'
_cell_volume   44.53155917
_cell_formula_units_Z   1
loop_
 _symmetry_equiv_pos_site_id
 _symmetry_equiv_pos_as_xyz
  1  'x, y, z'
loop_
 _atom_site_type_symbol
 _atom_site_label
 _atom_site_symmetry_multiplicity
 _atom_site_fract_x
 _atom_site_fract_y
 _atom_site_fract_z
 _atom_site_occupancy
  Li  Li0  1  0.00000000  0.00000000  0.00000000  1
  Cu  Cu1  1  0.33300000  0.66700000  0.25000000  1
  Cu  Cu2  1  0.66700000  0.33300000  0.50000000  1
  As  As3  1  0.00000000  0.00000000  0.75000000  1
  As  As4  1  0.57534334  0.26189360  0.93642725  1
  As  As5  1  0.99293970  0.45822867  0.39700153  1
  As  As6  1  0.09545618  0.81601131  0.37243560  1
  As  As7  1  0.72754542  0.51148026  0.08867326  1
  As  As8  1  0.78928120  0.55285189  0.75114309  1
  C  C9  1  0.25227474  0.41168713  0.77243161  1
