# generated using pymatgen
data_Li6CeY2Sb4Te6I5Cl
_symmetry_space_group_name_H-M   'P 1'
_cell_length_a   4.31688380
_cell_length_b   4.16645432
_cell_length_c   3.51871706
_cell_angle_alpha   94.12993590
_cell_angle_beta   93.77383215
_cell_angle_gamma   92.18420709
_symmetry_Int_Tables_number   1
_chemical_formula_structural   Li6CeY2Sb4Te6I5Cl
_chemical_formula_sum   'Li6 Ce1 Y2 Sb4 Te6 I5 Cl1'
_cell_volume   62.92836416
_cell_formula_units_Z   1
loop_
 _symmetry_equiv_pos_site_id
 _symmetry_equiv_pos_as_xyz
  1  'x, y, z'
loop_
 _atom_site_type_symbol
 _atom_site_label
 _atom_site_symmetry_multiplicity
 _atom_site_fract_x
 _atom_site_fract_y
 _atom_site_fract_z
 _atom_site_occupancy
  Li  Li0  1  0.00000000  0.00000000  0.00000000  1
  Li  Li1  1  0.50000000  0.50000000  0.50000000  1
  Li  Li2  1  0.50000000  0.50000000  0.00000000  1
  Li  Li3  1  0.50000000  0.00000000  0.50000000  1
  Li  Li4  1  0.00000000  0.50000000  0.50000000  1
  Li  Li5  1  0.05432169  0.59545386  0.10554296  1
  Y  Y6  1  0.67313704  0.19010291  0.08624560  1
  Y  Y7  1  0.36207661  0.95966516  0.82954693  1
  Te  Te8  1  0.44070949  0.07803113  0.04693419  1
  Te  Te9  1  0.69766261  0.47682035  0.82378554  1
  Te  Te10  1  0.34009248  0.23906631  0.84606712  1
  Te  Te11  1  0.00359319  0.00870144  0.28336931  1
  Te  Te12  1  0.73823983  0.33779732  0.39314649  1
  Te  Te13  1  0.73881621  0.77148873  0.35736841  1
  I  I14  1  0.08915286  0.07588561  0.31195808  1
  I  I15  1  0.78498036  0.67978937  0.12075758  1
  I  I16  1  0.26018230  0.78754788  0.91583820  1
  I  I17  1  0.88707204  0.80209918  0.94158069  1
  I  I18  1  0.92475519  0.87796219  0.25739061  1
  Sb  Sb19  1  0.71614730  0.12201197  0.87505616  1
  Sb  Sb20  1  0.16813984  0.26258074  0.50347569  1
  Sb  Sb21  1  0.80169664  0.17871711  0.28982558  1
  Sb  Sb22  1  0.19983724  0.05034019  0.73952713  1
  Cl  Cl23  1  0.11420939  0.45012914  0.99454140  1
  Ce  Ce24  1  0.59063251  0.59327646  0.34508626  1
