# generated using pymatgen
data_Li6La(N3O2)2
_symmetry_space_group_name_H-M   'P 1'
_cell_length_a   3.53235644
_cell_length_b   3.71741780
_cell_length_c   2.91095206
_cell_angle_alpha   93.20204256
_cell_angle_beta   92.33728431
_cell_angle_gamma   89.26681195
_symmetry_Int_Tables_number   1
_chemical_formula_structural   Li6La(N3O2)2
_chemical_formula_sum   'Li6 La1 N6 O4'
_cell_volume   38.13087680
_cell_formula_units_Z   1
loop_
 _symmetry_equiv_pos_site_id
 _symmetry_equiv_pos_as_xyz
  1  'x, y, z'
loop_
 _atom_site_type_symbol
 _atom_site_label
 _atom_site_symmetry_multiplicity
 _atom_site_fract_x
 _atom_site_fract_y
 _atom_site_fract_z
 _atom_site_occupancy
  Li  Li0  1  0.00000000  0.00000000  0.00000000  1
  Li  Li1  1  0.50000000  0.50000000  0.50000000  1
  Li  Li2  1  0.50000000  0.50000000  0.00000000  1
  Li  Li3  1  0.50000000  0.00000000  0.50000000  1
  Li  Li4  1  0.00000000  0.50000000  0.50000000  1
  Li  Li5  1  0.56145411  0.12144687  0.45700378  1
  La  La6  1  0.27886381  0.58538597  0.89571146  1
  N  N7  1  0.16615393  0.42815069  0.65850437  1
  N  N8  1  0.56856701  0.33509196  0.93923524  1
  N  N9  1  0.08586407  0.68402497  0.55860493  1
  N  N10  1  0.67143501  0.73962846  0.02852188  1
  N  N11  1  0.76437406  0.29601578  0.28172498  1
  N  N12  1  0.23361952  0.00397796  0.71959837  1
  O  O13  1  0.51112276  0.86086804  0.63018417  1
  O  O14  1  0.48626551  0.11248354  0.55414518  1
  O  O15  1  0.80514661  0.10356527  0.75221506  1
  O  O16  1  0.73921474  0.37708654  0.07166131  1
