# generated using pymatgen
data_Li2AlI
_symmetry_space_group_name_H-M   'P 1'
_cell_length_a   3.42890735
_cell_length_b   3.47194859
_cell_length_c   6.62227031
_cell_angle_alpha   96.60267551
_cell_angle_beta   108.87388985
_cell_angle_gamma   111.54542154
_symmetry_Int_Tables_number   1
_chemical_formula_structural   Li2AlI
_chemical_formula_sum   'Li6 Al3 I3'
_cell_volume   66.89407701
_cell_formula_units_Z   3
loop_
 _symmetry_equiv_pos_site_id
 _symmetry_equiv_pos_as_xyz
  1  'x, y, z'
loop_
 _atom_site_type_symbol
 _atom_site_label
 _atom_site_symmetry_multiplicity
 _atom_site_fract_x
 _atom_site_fract_y
 _atom_site_fract_z
 _atom_site_occupancy
  Li  Li0  1  0.00000000  0.00000000  0.00000000  1
  Li  Li1  1  0.33300000  0.66700000  0.25000000  1
  Li  Li2  1  0.66700000  0.33300000  0.50000000  1
  Li  Li3  1  0.00000000  0.00000000  0.75000000  1
  Li  Li4  1  0.02026173  0.71156321  0.72921702  1
  Li  Li5  1  0.62176100  0.88309374  0.61663569  1
  Al  Al6  1  0.28359110  0.46333132  0.84348978  1
  Al  Al7  1  0.87466803  0.86855946  0.65875035  1
  Al  Al8  1  0.00662052  0.54752372  0.10356527  1
  I  I9  1  0.17973645  0.30799948  0.50430873  1
  I  I10  1  0.89992561  0.09862088  0.86033747  1
  I  I11  1  0.67427986  0.40623121  0.68729687  1
