# generated using pymatgen
data_Li3Sc3AlSiAs4
_symmetry_space_group_name_H-M   'P 1'
_cell_length_a   12.35814949
_cell_length_b   10.58068184
_cell_length_c   13.06317668
_cell_angle_alpha   90.00000000
_cell_angle_beta   90.00000000
_cell_angle_gamma   90.00000000
_symmetry_Int_Tables_number   1
_chemical_formula_structural   Li3Sc3AlSiAs4
_chemical_formula_sum   'Li3 Sc3 Al1 Si1 As4'
_cell_volume   1708.11025556
_cell_formula_units_Z   1
loop_
 _symmetry_equiv_pos_site_id
 _symmetry_equiv_pos_as_xyz
  1  'x, y, z'
loop_
 _atom_site_type_symbol
 _atom_site_label
 _atom_site_symmetry_multiplicity
 _atom_site_fract_x
 _atom_site_fract_y
 _atom_site_fract_z
 _atom_site_occupancy
  Li  Li0  1  0.12500000  0.00000000  0.25000000  1
  Li  Li1  1  0.00000000  0.00000000  0.00000000  1
  Li  Li2  1  0.37500000  0.00000000  0.25000000  1
  Sc  Sc3  1  0.25000000  0.25000000  0.25000000  1
  Sc  Sc4  1  0.00000000  0.25000000  0.12500000  1
  Sc  Sc5  1  0.06701795  0.36345941  0.61001314  1
  Al  Al6  1  0.09610474  0.11532572  0.25505517  1
  Si  Si7  1  0.41445987  0.29265116  0.24410141  1
  As  As8  1  0.86950506  0.56465071  0.13989637  1
  As  As9  1  0.28917598  0.43616603  0.42318763  1
  As  As10  1  0.35950418  0.40028736  0.51456527  1
  As  As11  1  0.16200512  0.48899447  0.74380117  1
