# generated using pymatgen
data_Li3Sb2Te2Mo3Br8
_symmetry_space_group_name_H-M   'P 1'
_cell_length_a   8.59139852
_cell_length_b   6.99693178
_cell_length_c   8.58147566
_cell_angle_alpha   90.00000000
_cell_angle_beta   90.00000000
_cell_angle_gamma   90.00000000
_symmetry_Int_Tables_number   1
_chemical_formula_structural   Li3Sb2Te2Mo3Br8
_chemical_formula_sum   'Li3 Sb2 Te2 Mo3 Br8'
_cell_volume   515.86193108
_cell_formula_units_Z   1
loop_
 _symmetry_equiv_pos_site_id
 _symmetry_equiv_pos_as_xyz
  1  'x, y, z'
loop_
 _atom_site_type_symbol
 _atom_site_label
 _atom_site_symmetry_multiplicity
 _atom_site_fract_x
 _atom_site_fract_y
 _atom_site_fract_z
 _atom_site_occupancy
  Li  Li0  1  0.00000000  0.00000000  0.00000000  1
  Li  Li1  1  0.50000000  0.50000000  0.50000000  1
  Li  Li2  1  0.25000000  0.25000000  0.25000000  1
  Mo  Mo3  1  0.75000000  0.25000000  0.00000000  1
  Mo  Mo4  1  0.25000000  0.75000000  0.50000000  1
  Mo  Mo5  1  0.13401298  0.86004978  0.99455885  1
  Br  Br6  1  0.40395256  0.93583406  0.58515113  1
  Br  Br7  1  0.97948974  0.09872385  0.70029179  1
  Br  Br8  1  0.98676883  0.53954691  0.05826379  1
  Br  Br9  1  0.11480848  0.90332795  0.87921076  1
  Br  Br10  1  0.69914390  0.92875499  0.64667006  1
  Br  Br11  1  0.19660450  0.36342175  0.25772819  1
  Br  Br12  1  0.24074703  0.41587923  0.77160716  1
  Br  Br13  1  0.76321634  0.44178637  0.48063616  1
  Te  Te14  1  0.33795991  0.43531394  0.91198527  1
  Te  Te15  1  0.60584936  0.81685710  0.08787819  1
  Sb  Sb16  1  0.57563287  0.53459434  0.84592825  1
  Sb  Sb17  1  0.44208940  0.12280244  0.91462121  1
