# generated using pymatgen
data_Li6MnSbPO4
_symmetry_space_group_name_H-M   'P 1'
_cell_length_a   8.40161119
_cell_length_b   7.89197491
_cell_length_c   9.11529549
_cell_angle_alpha   90.00000000
_cell_angle_beta   90.00000000
_cell_angle_gamma   90.00000000
_symmetry_Int_Tables_number   1
_chemical_formula_structural   Li6MnSbPO4
_chemical_formula_sum   'Li6 Mn1 Sb1 P1 O4'
_cell_volume   604.39244554
_cell_formula_units_Z   1
loop_
 _symmetry_equiv_pos_site_id
 _symmetry_equiv_pos_as_xyz
  1  'x, y, z'
loop_
 _atom_site_type_symbol
 _atom_site_label
 _atom_site_symmetry_multiplicity
 _atom_site_fract_x
 _atom_site_fract_y
 _atom_site_fract_z
 _atom_site_occupancy
  Li  Li0  1  0.00000000  0.00000000  0.00000000  1
  Li  Li1  1  0.50000000  0.50000000  0.50000000  1
  Li  Li2  1  0.25000000  0.25000000  0.25000000  1
  Li  Li3  1  0.75000000  0.25000000  0.00000000  1
  Li  Li4  1  0.25000000  0.75000000  0.50000000  1
  Li  Li5  1  0.72545091  0.94386836  0.82479724  1
  Mn  Mn6  1  0.76612938  0.07646120  0.17442785  1
  P  P7  1  0.84725661  0.16761669  0.39033027  1
  O  O8  1  0.87027552  0.06739755  0.98053937  1
  O  O9  1  0.33829962  0.49924301  0.76405916  1
  O  O10  1  0.53378561  0.79656000  0.78314045  1
  O  O11  1  0.42438124  0.65703861  0.87617462  1
  Sb  Sb12  1  0.61733184  0.68968529  0.27758198  1
