# generated using pymatgen
data_Li3Al3(Se3I)2
_symmetry_space_group_name_H-M   'P 1'
_cell_length_a   8.08175462
_cell_length_b   7.48408349
_cell_length_c   9.65973972
_cell_angle_alpha   90.00000000
_cell_angle_beta   90.00000000
_cell_angle_gamma   90.00000000
_symmetry_Int_Tables_number   1
_chemical_formula_structural   Li3Al3(Se3I)2
_chemical_formula_sum   'Li3 Al3 Se6 I2'
_cell_volume   584.26478178
_cell_formula_units_Z   1
loop_
 _symmetry_equiv_pos_site_id
 _symmetry_equiv_pos_as_xyz
  1  'x, y, z'
loop_
 _atom_site_type_symbol
 _atom_site_label
 _atom_site_symmetry_multiplicity
 _atom_site_fract_x
 _atom_site_fract_y
 _atom_site_fract_z
 _atom_site_occupancy
  Li  Li0  1  0.12500000  0.12500000  0.12500000  1
  Li  Li1  1  0.50000000  0.50000000  0.50000000  1
  Li  Li2  1  0.25000000  0.25000000  0.25000000  1
  Al  Al3  1  0.75000000  0.75000000  0.75000000  1
  Al  Al4  1  0.55976451  0.51709690  0.82781032  1
  Al  Al5  1  0.79722160  0.80771781  0.92225714  1
  I  I6  1  0.46358600  0.24730604  0.06379133  1
  I  I7  1  0.23600314  0.59508540  0.55749963  1
  Se  Se8  1  0.75897943  0.35534003  0.38672713  1
  Se  Se9  1  0.51534870  0.62399383  0.12537858  1
  Se  Se10  1  0.90917062  0.36737115  0.08259761  1
  Se  Se11  1  0.28972476  0.73699301  0.82864321  1
  Se  Se12  1  0.70977172  0.65013439  0.43014606  1
  Se  Se13  1  0.23899984  0.71761981  0.98952967  1
