# generated using pymatgen
data_LiTi3I4Cl2O
_symmetry_space_group_name_H-M   'P 1'
_cell_length_a   4.15705400
_cell_length_b   4.57012558
_cell_length_c   3.60235120
_cell_angle_alpha   87.86837147
_cell_angle_beta   86.85380845
_cell_angle_gamma   85.39360423
_symmetry_Int_Tables_number   1
_chemical_formula_structural   LiTi3I4Cl2O
_chemical_formula_sum   'Li1 Ti3 I4 Cl2 O1'
_cell_volume   68.07754654
_cell_formula_units_Z   1
loop_
 _symmetry_equiv_pos_site_id
 _symmetry_equiv_pos_as_xyz
  1  'x, y, z'
loop_
 _atom_site_type_symbol
 _atom_site_label
 _atom_site_symmetry_multiplicity
 _atom_site_fract_x
 _atom_site_fract_y
 _atom_site_fract_z
 _atom_site_occupancy
  Li  Li0  1  0.00000000  0.00000000  0.00000000  1
  Ti  Ti1  1  0.50000000  0.50000000  0.50000000  1
  Ti  Ti2  1  0.50000000  0.50000000  0.00000000  1
  Ti  Ti3  1  0.50000000  0.00000000  0.50000000  1
  I  I4  1  0.00000000  0.50000000  0.50000000  1
  I  I5  1  0.57012907  0.68996062  0.17405913  1
  I  I6  1  0.90623957  0.30091239  0.89781363  1
  I  I7  1  0.64623882  0.71723395  0.94165150  1
  Cl  Cl8  1  0.38932575  0.68974670  0.19624923  1
  Cl  Cl9  1  0.19242413  0.44517939  0.68136105  1
  O  O10  1  0.74967478  0.97216756  0.42453036  1
