# generated using pymatgen
data_Li3Ti2Te2SeO3
_symmetry_space_group_name_H-M   'P 1'
_cell_length_a   4.06538584
_cell_length_b   3.69212396
_cell_length_c   3.88826362
_cell_angle_alpha   88.56770899
_cell_angle_beta   87.20069598
_cell_angle_gamma   92.91230289
_symmetry_Int_Tables_number   1
_chemical_formula_structural   Li3Ti2Te2SeO3
_chemical_formula_sum   'Li3 Ti2 Te2 Se1 O3'
_cell_volume   58.19546159
_cell_formula_units_Z   1
loop_
 _symmetry_equiv_pos_site_id
 _symmetry_equiv_pos_as_xyz
  1  'x, y, z'
loop_
 _atom_site_type_symbol
 _atom_site_label
 _atom_site_symmetry_multiplicity
 _atom_site_fract_x
 _atom_site_fract_y
 _atom_site_fract_z
 _atom_site_occupancy
  Li  Li0  1  0.00000000  0.00000000  0.00000000  1
  Li  Li1  1  0.50000000  0.50000000  0.50000000  1
  Li  Li2  1  0.50000000  0.50000000  0.00000000  1
  Ti  Ti3  1  0.50000000  0.00000000  0.50000000  1
  Ti  Ti4  1  0.00000000  0.50000000  0.50000000  1
  O  O5  1  0.06233112  0.70194237  0.76887757  1
  O  O6  1  0.96357551  0.41200621  0.11087243  1
  O  O7  1  0.24288154  0.95653977  0.00168444  1
  Se  Se8  1  0.92925793  0.76357010  0.02780819  1
  Te  Te9  1  0.09365506  0.01436198  0.39828193  1
  Te  Te10  1  0.27157286  0.36112812  0.21042907  1
