# generated using pymatgen
data_Li3AlPO3
_symmetry_space_group_name_H-M   'P 1'
_cell_length_a   8.35346373
_cell_length_b   8.18074747
_cell_length_c   8.37238679
_cell_angle_alpha   90.00000000
_cell_angle_beta   90.00000000
_cell_angle_gamma   90.00000000
_symmetry_Int_Tables_number   1
_chemical_formula_structural   Li3AlPO3
_chemical_formula_sum   'Li3 Al1 P1 O3'
_cell_volume   572.14862915
_cell_formula_units_Z   1
loop_
 _symmetry_equiv_pos_site_id
 _symmetry_equiv_pos_as_xyz
  1  'x, y, z'
loop_
 _atom_site_type_symbol
 _atom_site_label
 _atom_site_symmetry_multiplicity
 _atom_site_fract_x
 _atom_site_fract_y
 _atom_site_fract_z
 _atom_site_occupancy
  Li  Li0  1  0.12500000  0.12500000  0.12500000  1
  Li  Li1  1  0.50000000  0.50000000  0.50000000  1
  Li  Li2  1  0.25000000  0.25000000  0.25000000  1
  Al  Al3  1  0.75000000  0.75000000  0.75000000  1
  O  O4  1  0.03191836  0.17757251  0.88501053  1
  O  O5  1  0.48281302  0.27226737  0.61962387  1
  O  O6  1  0.26668659  0.31344182  0.03586526  1
  P  P7  1  0.02133293  0.21949387  0.46364481  1
