# generated using pymatgen
data_Li4Mg3SbTe2(BrO)3
_symmetry_space_group_name_H-M   'P 1'
_cell_length_a   8.96234395
_cell_length_b   8.38859559
_cell_length_c   8.48309058
_cell_angle_alpha   90.00000000
_cell_angle_beta   90.00000000
_cell_angle_gamma   90.00000000
_symmetry_Int_Tables_number   1
_chemical_formula_structural   Li4Mg3SbTe2(BrO)3
_chemical_formula_sum   'Li4 Mg3 Sb1 Te2 Br3 O3'
_cell_volume   637.77129571
_cell_formula_units_Z   1
loop_
 _symmetry_equiv_pos_site_id
 _symmetry_equiv_pos_as_xyz
  1  'x, y, z'
loop_
 _atom_site_type_symbol
 _atom_site_label
 _atom_site_symmetry_multiplicity
 _atom_site_fract_x
 _atom_site_fract_y
 _atom_site_fract_z
 _atom_site_occupancy
  Li  Li0  1  0.00000000  0.00000000  0.00000000  1
  Li  Li1  1  0.50000000  0.50000000  0.50000000  1
  Li  Li2  1  0.25000000  0.25000000  0.25000000  1
  Li  Li3  1  0.75000000  0.25000000  0.00000000  1
  Mg  Mg4  1  0.25000000  0.75000000  0.50000000  1
  Mg  Mg5  1  0.15462539  0.06702078  0.51107178  1
  Mg  Mg6  1  0.96745699  0.84376446  0.11066204  1
  Sb  Sb7  1  0.68249658  0.39891403  0.62225126  1
  O  O8  1  0.94442958  0.72177737  0.30647738  1
  O  O9  1  0.31313176  0.66690104  0.48010992  1
  O  O10  1  0.48426433  0.13956761  0.81466274  1
  Br  Br11  1  0.69424991  0.73422047  0.05408294  1
  Br  Br12  1  0.06928914  0.66234975  0.85018152  1
  Br  Br13  1  0.99034187  0.92826440  0.14530189  1
  Te  Te14  1  0.26013247  0.10471935  0.84058356  1
  Te  Te15  1  0.52071857  0.78529261  0.02614603  1
