# generated using pymatgen
data_Li2Ti3NCl4
_symmetry_space_group_name_H-M   'P 1'
_cell_length_a   3.86893958
_cell_length_b   4.24926071
_cell_length_c   6.81561437
_cell_angle_alpha   91.34459587
_cell_angle_beta   99.62895099
_cell_angle_gamma   104.68008045
_symmetry_Int_Tables_number   1
_chemical_formula_structural   Li2Ti3NCl4
_chemical_formula_sum   'Li2 Ti3 N1 Cl4'
_cell_volume   106.60972469
_cell_formula_units_Z   1
loop_
 _symmetry_equiv_pos_site_id
 _symmetry_equiv_pos_as_xyz
  1  'x, y, z'
loop_
 _atom_site_type_symbol
 _atom_site_label
 _atom_site_symmetry_multiplicity
 _atom_site_fract_x
 _atom_site_fract_y
 _atom_site_fract_z
 _atom_site_occupancy
  Li  Li0  1  0.00000000  0.00000000  0.00000000  1
  Li  Li1  1  0.33300000  0.66700000  0.25000000  1
  Ti  Ti2  1  0.66700000  0.33300000  0.50000000  1
  Ti  Ti3  1  0.00000000  0.00000000  0.75000000  1
  Ti  Ti4  1  0.29930306  0.28061303  0.89168710  1
  N  N5  1  0.63714933  0.09479920  0.69085158  1
  Cl  Cl6  1  0.08340870  0.26996886  0.51296117  1
  Cl  Cl7  1  0.91225515  0.29819506  0.49706811  1
  Cl  Cl8  1  0.75193956  0.12176728  0.48284885  1
  Cl  Cl9  1  0.13160212  0.03637831  0.81949809  1
