# generated using pymatgen
data_Li6Al2Br4Cl3
_symmetry_space_group_name_H-M   'P 1'
_cell_length_a   8.36243799
_cell_length_b   8.43777838
_cell_length_c   6.91745487
_cell_angle_alpha   90.00000000
_cell_angle_beta   90.00000000
_cell_angle_gamma   90.00000000
_symmetry_Int_Tables_number   1
_chemical_formula_structural   Li6Al2Br4Cl3
_chemical_formula_sum   'Li6 Al2 Br4 Cl3'
_cell_volume   488.09837227
_cell_formula_units_Z   1
loop_
 _symmetry_equiv_pos_site_id
 _symmetry_equiv_pos_as_xyz
  1  'x, y, z'
loop_
 _atom_site_type_symbol
 _atom_site_label
 _atom_site_symmetry_multiplicity
 _atom_site_fract_x
 _atom_site_fract_y
 _atom_site_fract_z
 _atom_site_occupancy
  Li  Li0  1  0.12500000  0.12500000  0.12500000  1
  Li  Li1  1  0.50000000  0.50000000  0.50000000  1
  Li  Li2  1  0.25000000  0.25000000  0.25000000  1
  Li  Li3  1  0.75000000  0.75000000  0.75000000  1
  Li  Li4  1  0.58895967  0.53385755  0.33365255  1
  Li  Li5  1  0.75787361  0.94129892  0.71697547  1
  Al  Al6  1  0.13368325  0.55768063  0.09741058  1
  Al  Al7  1  0.77016152  0.63937292  0.38423277  1
  Cl  Cl8  1  0.41401620  0.51697792  0.32083379  1
  Cl  Cl9  1  0.30962220  0.53882692  0.14727158  1
  Cl  Cl10  1  0.11366229  0.51919682  0.19899333  1
  Br  Br11  1  0.13310203  0.26068566  0.68807871  1
  Br  Br12  1  0.06953475  0.11267207  0.09093676  1
  Br  Br13  1  0.33865427  0.83340358  0.73071030  1
  Br  Br14  1  0.60851378  0.39301547  0.81418255  1
