# generated using pymatgen
data_LiZr2TeO3
_symmetry_space_group_name_H-M   'P 1'
_cell_length_a   3.54172858
_cell_length_b   3.78345857
_cell_length_c   6.97129763
_cell_angle_alpha   94.58685171
_cell_angle_beta   91.06457121
_cell_angle_gamma   102.44805131
_symmetry_Int_Tables_number   1
_chemical_formula_structural   LiZr2TeO3
_chemical_formula_sum   'Li1 Zr2 Te1 O3'
_cell_volume   90.86551961
_cell_formula_units_Z   1
loop_
 _symmetry_equiv_pos_site_id
 _symmetry_equiv_pos_as_xyz
  1  'x, y, z'
loop_
 _atom_site_type_symbol
 _atom_site_label
 _atom_site_symmetry_multiplicity
 _atom_site_fract_x
 _atom_site_fract_y
 _atom_site_fract_z
 _atom_site_occupancy
  Li  Li0  1  0.00000000  0.00000000  0.00000000  1
  Zr  Zr1  1  0.33300000  0.66700000  0.25000000  1
  Zr  Zr2  1  0.66700000  0.33300000  0.50000000  1
  O  O3  1  0.00000000  0.00000000  0.75000000  1
  O  O4  1  0.83392626  0.74100017  0.95718250  1
  O  O5  1  0.74991350  0.25059985  0.32185516  1
  Te  Te6  1  0.36500425  0.83474092  0.48872379  1
