# generated using pymatgen
data_Li4Sc2Te4S3
_symmetry_space_group_name_H-M   'P 1'
_cell_length_a   3.45859933
_cell_length_b   3.83867856
_cell_length_c   5.39507755
_cell_angle_alpha   102.44331512
_cell_angle_beta   112.25771330
_cell_angle_gamma   116.38711422
_symmetry_Int_Tables_number   1
_chemical_formula_structural   Li4Sc2Te4S3
_chemical_formula_sum   'Li4 Sc2 Te4 S3'
_cell_volume   52.63694901
_cell_formula_units_Z   1
loop_
 _symmetry_equiv_pos_site_id
 _symmetry_equiv_pos_as_xyz
  1  'x, y, z'
loop_
 _atom_site_type_symbol
 _atom_site_label
 _atom_site_symmetry_multiplicity
 _atom_site_fract_x
 _atom_site_fract_y
 _atom_site_fract_z
 _atom_site_occupancy
  Li  Li0  1  0.00000000  0.00000000  0.00000000  1
  Li  Li1  1  0.33300000  0.66700000  0.25000000  1
  Li  Li2  1  0.66700000  0.33300000  0.50000000  1
  Li  Li3  1  0.00000000  0.00000000  0.75000000  1
  Sc  Sc4  1  0.18775907  0.91196921  0.39845460  1
  Sc  Sc5  1  0.93563993  0.17297807  0.20045769  1
  S  S6  1  0.01607486  0.75845567  0.75063033  1
  S  S7  1  0.36515542  0.39920075  0.87277839  1
  S  S8  1  0.61662041  0.88564213  0.02647216  1
  Te  Te9  1  0.41765482  0.33405286  0.38240443  1
  Te  Te10  1  0.75057171  0.59461784  0.30966326  1
  Te  Te11  1  0.43438484  0.36043499  0.12688525  1
  Te  Te12  1  0.53383806  0.73869561  0.11428689  1
