# generated using pymatgen
data_KLi4CaAlTe3
_symmetry_space_group_name_H-M   'P 1'
_cell_length_a   12.28290783
_cell_length_b   14.35402728
_cell_length_c   10.60897562
_cell_angle_alpha   90.00000000
_cell_angle_beta   90.00000000
_cell_angle_gamma   90.00000000
_symmetry_Int_Tables_number   1
_chemical_formula_structural   KLi4CaAlTe3
_chemical_formula_sum   'K1 Li4 Ca1 Al1 Te3'
_cell_volume   1870.45994170
_cell_formula_units_Z   1
loop_
 _symmetry_equiv_pos_site_id
 _symmetry_equiv_pos_as_xyz
  1  'x, y, z'
loop_
 _atom_site_type_symbol
 _atom_site_label
 _atom_site_symmetry_multiplicity
 _atom_site_fract_x
 _atom_site_fract_y
 _atom_site_fract_z
 _atom_site_occupancy
  Li  Li0  1  0.12500000  0.00000000  0.25000000  1
  Li  Li1  1  0.00000000  0.00000000  0.00000000  1
  Li  Li2  1  0.37500000  0.00000000  0.25000000  1
  Li  Li3  1  0.25000000  0.25000000  0.25000000  1
  Ca  Ca4  1  0.00000000  0.25000000  0.12500000  1
  Al  Al5  1  0.88454082  0.87607494  0.65952715  1
  K  K6  1  0.75955984  0.29152414  0.91668763  1
  Te  Te7  1  0.91438719  0.75761568  0.20753837  1
  Te  Te8  1  0.02601837  0.61810250  0.30584862  1
  Te  Te9  1  0.81355540  0.12950977  0.55952832  1
