# generated using pymatgen
data_Li6Ti2S8O3
_symmetry_space_group_name_H-M   'P 1'
_cell_length_a   3.97171522
_cell_length_b   3.86399692
_cell_length_c   3.89275605
_cell_angle_alpha   92.96027014
_cell_angle_beta   89.96331697
_cell_angle_gamma   85.10371528
_symmetry_Int_Tables_number   1
_chemical_formula_structural   Li6Ti2S8O3
_chemical_formula_sum   'Li6 Ti2 S8 O3'
_cell_volume   59.44274338
_cell_formula_units_Z   1
loop_
 _symmetry_equiv_pos_site_id
 _symmetry_equiv_pos_as_xyz
  1  'x, y, z'
loop_
 _atom_site_type_symbol
 _atom_site_label
 _atom_site_symmetry_multiplicity
 _atom_site_fract_x
 _atom_site_fract_y
 _atom_site_fract_z
 _atom_site_occupancy
  Li  Li0  1  0.00000000  0.00000000  0.00000000  1
  Li  Li1  1  0.50000000  0.50000000  0.50000000  1
  Li  Li2  1  0.50000000  0.50000000  0.00000000  1
  Li  Li3  1  0.50000000  0.00000000  0.50000000  1
  Li  Li4  1  0.00000000  0.50000000  0.50000000  1
  Li  Li5  1  0.83675281  0.69755701  0.74989835  1
  Ti  Ti6  1  0.32239505  0.99807631  0.03840928  1
  Ti  Ti7  1  0.46342036  0.42240882  0.88939890  1
  S  S8  1  0.67441326  0.73190442  0.46759525  1
  S  S9  1  0.31351810  0.54302441  0.03884645  1
  S  S10  1  0.91219471  0.58826661  0.08053612  1
  S  S11  1  0.60151978  0.54319340  0.07692017  1
  S  S12  1  0.32912929  0.83059649  0.76438066  1
  S  S13  1  0.25990385  0.39247170  0.07179204  1
  S  S14  1  0.03195439  0.31055203  0.26720579  1
  S  S15  1  0.08431242  0.07866610  0.20683651  1
  O  O16  1  0.56960704  0.82046795  0.69427811  1
  O  O17  1  0.34886181  0.74608558  0.81019890  1
  O  O18  1  0.53045393  0.75974546  0.39808432  1
