# generated using pymatgen
data_Li4Y2AsP2I2O
_symmetry_space_group_name_H-M   'P 1'
_cell_length_a   8.04014346
_cell_length_b   8.11173905
_cell_length_c   9.16795857
_cell_angle_alpha   90.00000000
_cell_angle_beta   90.00000000
_cell_angle_gamma   90.00000000
_symmetry_Int_Tables_number   1
_chemical_formula_structural   Li4Y2AsP2I2O
_chemical_formula_sum   'Li4 Y2 As1 P2 I2 O1'
_cell_volume   597.93009293
_cell_formula_units_Z   1
loop_
 _symmetry_equiv_pos_site_id
 _symmetry_equiv_pos_as_xyz
  1  'x, y, z'
loop_
 _atom_site_type_symbol
 _atom_site_label
 _atom_site_symmetry_multiplicity
 _atom_site_fract_x
 _atom_site_fract_y
 _atom_site_fract_z
 _atom_site_occupancy
  Li  Li0  1  0.00000000  0.00000000  0.00000000  1
  Li  Li1  1  0.50000000  0.50000000  0.50000000  1
  Li  Li2  1  0.25000000  0.25000000  0.25000000  1
  Li  Li3  1  0.75000000  0.25000000  0.00000000  1
  Y  Y4  1  0.25000000  0.75000000  0.50000000  1
  Y  Y5  1  0.64113882  0.38305738  0.83901801  1
  O  O6  1  0.14737536  0.13239208  0.76152387  1
  P  P7  1  0.05492358  0.61566751  0.05614949  1
  P  P8  1  0.23823976  0.60272127  0.64607155  1
  As  As9  1  0.38586346  0.81806592  0.48059149  1
  I  I10  1  0.86100620  0.60503132  0.18284039  1
  I  I11  1  0.59188778  0.55423955  0.97334031  1
