# generated using pymatgen
data_Li3AlGe(TeBr2)2
_symmetry_space_group_name_H-M   'P 1'
_cell_length_a   8.42121658
_cell_length_b   9.84627830
_cell_length_c   8.58865235
_cell_angle_alpha   90.00000000
_cell_angle_beta   90.00000000
_cell_angle_gamma   90.00000000
_symmetry_Int_Tables_number   1
_chemical_formula_structural   Li3AlGe(TeBr2)2
_chemical_formula_sum   'Li3 Al1 Ge1 Te2 Br4'
_cell_volume   712.15080072
_cell_formula_units_Z   1
loop_
 _symmetry_equiv_pos_site_id
 _symmetry_equiv_pos_as_xyz
  1  'x, y, z'
loop_
 _atom_site_type_symbol
 _atom_site_label
 _atom_site_symmetry_multiplicity
 _atom_site_fract_x
 _atom_site_fract_y
 _atom_site_fract_z
 _atom_site_occupancy
  Li  Li0  1  0.12500000  0.12500000  0.12500000  1
  Li  Li1  1  0.50000000  0.50000000  0.50000000  1
  Li  Li2  1  0.25000000  0.25000000  0.25000000  1
  Al  Al3  1  0.75000000  0.75000000  0.75000000  1
  Br  Br4  1  0.56038649  0.93185316  0.96999553  1
  Br  Br5  1  0.44489651  0.15473101  0.91686926  1
  Br  Br6  1  0.05654160  0.64104841  0.16671318  1
  Br  Br7  1  0.90330429  0.96285738  0.54369781  1
  Te  Te8  1  0.79837374  0.31022768  0.69887075  1
  Te  Te9  1  0.96345195  0.03158424  0.64755246  1
  Ge  Ge10  1  0.44205992  0.15703190  0.24518023  1
