# generated using pymatgen
data_Li2TiO
_symmetry_space_group_name_H-M   'P 1'
_cell_length_a   3.51467292
_cell_length_b   3.24376671
_cell_length_c   5.66499149
_cell_angle_alpha   114.40066004
_cell_angle_beta   97.55567238
_cell_angle_gamma   100.66938117
_symmetry_Int_Tables_number   1
_chemical_formula_structural   Li2TiO
_chemical_formula_sum   'Li4 Ti2 O2'
_cell_volume   56.21725463
_cell_formula_units_Z   2
loop_
 _symmetry_equiv_pos_site_id
 _symmetry_equiv_pos_as_xyz
  1  'x, y, z'
loop_
 _atom_site_type_symbol
 _atom_site_label
 _atom_site_symmetry_multiplicity
 _atom_site_fract_x
 _atom_site_fract_y
 _atom_site_fract_z
 _atom_site_occupancy
  Li  Li0  1  0.00000000  0.00000000  0.00000000  1
  Li  Li1  1  0.33300000  0.66700000  0.25000000  1
  Li  Li2  1  0.66700000  0.33300000  0.50000000  1
  Li  Li3  1  0.00000000  0.00000000  0.75000000  1
  Ti  Ti4  1  0.37708795  0.72687443  0.34672880  1
  Ti  Ti5  1  0.65675086  0.18133779  0.76433458  1
  O  O6  1  0.87840926  0.57938155  0.56641099  1
  O  O7  1  0.27233504  0.60204961  0.09901075  1
