# generated using pymatgen
data_Li2NiI5O
_symmetry_space_group_name_H-M   'P 1'
_cell_length_a   8.37030132
_cell_length_b   8.05815127
_cell_length_c   9.47432717
_cell_angle_alpha   90.00000000
_cell_angle_beta   90.00000000
_cell_angle_gamma   90.00000000
_symmetry_Int_Tables_number   1
_chemical_formula_structural   Li2NiI5O
_chemical_formula_sum   'Li2 Ni1 I5 O1'
_cell_volume   639.03535493
_cell_formula_units_Z   1
loop_
 _symmetry_equiv_pos_site_id
 _symmetry_equiv_pos_as_xyz
  1  'x, y, z'
loop_
 _atom_site_type_symbol
 _atom_site_label
 _atom_site_symmetry_multiplicity
 _atom_site_fract_x
 _atom_site_fract_y
 _atom_site_fract_z
 _atom_site_occupancy
  Li  Li0  1  0.12500000  0.12500000  0.12500000  1
  Li  Li1  1  0.50000000  0.50000000  0.50000000  1
  Ni  Ni2  1  0.25000000  0.25000000  0.25000000  1
  I  I3  1  0.75000000  0.75000000  0.75000000  1
  I  I4  1  0.55472504  0.15626542  0.90544685  1
  I  I5  1  0.91832748  0.18318383  0.49821241  1
  I  I6  1  0.55555877  0.32611758  0.27935597  1
  I  I7  1  0.99106602  0.75898656  0.06179217  1
  O  O8  1  0.28343004  0.29804843  0.73822649  1
