# generated using pymatgen
data_Li5Ca(MnN2)2
_symmetry_space_group_name_H-M   'P 1'
_cell_length_a   3.11281578
_cell_length_b   3.24619049
_cell_length_c   5.98650305
_cell_angle_alpha   119.20910976
_cell_angle_beta   106.47810657
_cell_angle_gamma   102.16867363
_symmetry_Int_Tables_number   1
_chemical_formula_structural   Li5Ca(MnN2)2
_chemical_formula_sum   'Li5 Ca1 Mn2 N4'
_cell_volume   46.01449807
_cell_formula_units_Z   1
loop_
 _symmetry_equiv_pos_site_id
 _symmetry_equiv_pos_as_xyz
  1  'x, y, z'
loop_
 _atom_site_type_symbol
 _atom_site_label
 _atom_site_symmetry_multiplicity
 _atom_site_fract_x
 _atom_site_fract_y
 _atom_site_fract_z
 _atom_site_occupancy
  Li  Li0  1  0.00000000  0.00000000  0.00000000  1
  Li  Li1  1  0.33300000  0.66700000  0.25000000  1
  Li  Li2  1  0.66700000  0.33300000  0.50000000  1
  Li  Li3  1  0.00000000  0.00000000  0.75000000  1
  Li  Li4  1  0.55079672  0.16655165  0.74090125  1
  Mn  Mn5  1  0.90810609  0.25186006  0.68482495  1
  Mn  Mn6  1  0.06366254  0.92334434  0.57859876  1
  Ca  Ca7  1  0.22622404  0.85897379  0.54399518  1
  N  N8  1  0.51748558  0.66070199  0.90875963  1
  N  N9  1  0.62423438  0.85576250  0.26255585  1
  N  N10  1  0.88253088  0.06687230  0.12552957  1
  N  N11  1  0.52196611  0.73244628  0.18957504  1
