# generated using pymatgen
data_LiCu3As2PI3
_symmetry_space_group_name_H-M   'P 1'
_cell_length_a   8.11159496
_cell_length_b   8.14687969
_cell_length_c   7.24897969
_cell_angle_alpha   90.00000000
_cell_angle_beta   90.00000000
_cell_angle_gamma   90.00000000
_symmetry_Int_Tables_number   1
_chemical_formula_structural   LiCu3As2PI3
_chemical_formula_sum   'Li1 Cu3 As2 P1 I3'
_cell_volume   479.04293796
_cell_formula_units_Z   1
loop_
 _symmetry_equiv_pos_site_id
 _symmetry_equiv_pos_as_xyz
  1  'x, y, z'
loop_
 _atom_site_type_symbol
 _atom_site_label
 _atom_site_symmetry_multiplicity
 _atom_site_fract_x
 _atom_site_fract_y
 _atom_site_fract_z
 _atom_site_occupancy
  Li  Li0  1  0.00000000  0.00000000  0.00000000  1
  Cu  Cu1  1  0.50000000  0.50000000  0.50000000  1
  Cu  Cu2  1  0.25000000  0.25000000  0.25000000  1
  Cu  Cu3  1  0.75000000  0.25000000  0.00000000  1
  P  P4  1  0.25000000  0.75000000  0.50000000  1
  I  I5  1  0.48804470  0.96691254  0.59277549  1
  I  I6  1  0.45187804  0.91274341  0.62542537  1
  I  I7  1  0.08398682  0.49608924  0.77330484  1
  As  As8  1  0.71055794  0.03672797  0.39371059  1
  As  As9  1  0.85482943  0.83274248  0.19083011  1
