# generated using pymatgen
data_Li6VCu2O
_symmetry_space_group_name_H-M   'P 1'
_cell_length_a   3.49885297
_cell_length_b   3.18830569
_cell_length_c   6.99476404
_cell_angle_alpha   112.88632607
_cell_angle_beta   92.74275648
_cell_angle_gamma   111.04978469
_symmetry_Int_Tables_number   1
_chemical_formula_structural   Li6VCu2O
_chemical_formula_sum   'Li6 V1 Cu2 O1'
_cell_volume   65.47439534
_cell_formula_units_Z   1
loop_
 _symmetry_equiv_pos_site_id
 _symmetry_equiv_pos_as_xyz
  1  'x, y, z'
loop_
 _atom_site_type_symbol
 _atom_site_label
 _atom_site_symmetry_multiplicity
 _atom_site_fract_x
 _atom_site_fract_y
 _atom_site_fract_z
 _atom_site_occupancy
  Li  Li0  1  0.00000000  0.00000000  0.00000000  1
  Li  Li1  1  0.33300000  0.66700000  0.25000000  1
  Li  Li2  1  0.66700000  0.33300000  0.50000000  1
  Li  Li3  1  0.00000000  0.00000000  0.75000000  1
  Li  Li4  1  0.90133089  0.14984959  0.11384348  1
  Li  Li5  1  0.98681110  0.55236216  0.58831991  1
  Cu  Cu6  1  0.96302495  0.04337308  0.50109225  1
  Cu  Cu7  1  0.65301356  0.19976393  0.56836200  1
  O  O8  1  0.48337973  0.95095853  0.34358724  1
  V  V9  1  0.19091498  0.93412925  0.45577185  1
