# generated using pymatgen
data_Li6FeAs2O3
_symmetry_space_group_name_H-M   'P 1'
_cell_length_a   7.71638185
_cell_length_b   6.38700611
_cell_length_c   7.16692646
_cell_angle_alpha   90.00000000
_cell_angle_beta   90.00000000
_cell_angle_gamma   90.00000000
_symmetry_Int_Tables_number   1
_chemical_formula_structural   Li6FeAs2O3
_chemical_formula_sum   'Li6 Fe1 As2 O3'
_cell_volume   353.21894628
_cell_formula_units_Z   1
loop_
 _symmetry_equiv_pos_site_id
 _symmetry_equiv_pos_as_xyz
  1  'x, y, z'
loop_
 _atom_site_type_symbol
 _atom_site_label
 _atom_site_symmetry_multiplicity
 _atom_site_fract_x
 _atom_site_fract_y
 _atom_site_fract_z
 _atom_site_occupancy
  Li  Li0  1  0.12500000  0.12500000  0.12500000  1
  Li  Li1  1  0.50000000  0.50000000  0.50000000  1
  Li  Li2  1  0.25000000  0.25000000  0.25000000  1
  Li  Li3  1  0.75000000  0.75000000  0.75000000  1
  Li  Li4  1  0.73339457  0.85931712  0.72684265  1
  Li  Li5  1  0.47106669  0.77651596  0.33269447  1
  Fe  Fe6  1  0.16168545  0.73634558  0.77276786  1
  As  As7  1  0.59174707  0.62875391  0.60553899  1
  As  As8  1  0.69948051  0.77582507  0.48957477  1
  O  O9  1  0.78143409  0.87735757  0.35174028  1
  O  O10  1  0.08961769  0.35910078  0.70084999  1
  O  O11  1  0.84398457  0.70741135  0.30694967  1
