# generated using pymatgen
data_Li5Ti3O2
_symmetry_space_group_name_H-M   'P 1'
_cell_length_a   3.29686006
_cell_length_b   3.17944348
_cell_length_c   5.81282684
_cell_angle_alpha   97.20521593
_cell_angle_beta   105.06900669
_cell_angle_gamma   98.42935202
_symmetry_Int_Tables_number   1
_chemical_formula_structural   Li5Ti3O2
_chemical_formula_sum   'Li5 Ti3 O2'
_cell_volume   57.34097600
_cell_formula_units_Z   1
loop_
 _symmetry_equiv_pos_site_id
 _symmetry_equiv_pos_as_xyz
  1  'x, y, z'
loop_
 _atom_site_type_symbol
 _atom_site_label
 _atom_site_symmetry_multiplicity
 _atom_site_fract_x
 _atom_site_fract_y
 _atom_site_fract_z
 _atom_site_occupancy
  Li  Li0  1  0.00000000  0.00000000  0.00000000  1
  Li  Li1  1  0.33300000  0.66700000  0.25000000  1
  Li  Li2  1  0.66700000  0.33300000  0.50000000  1
  Li  Li3  1  0.00000000  0.00000000  0.75000000  1
  Li  Li4  1  0.01809128  0.31601161  0.64537145  1
  Ti  Ti5  1  0.46289913  0.52007901  0.66953522  1
  Ti  Ti6  1  0.37949599  0.31466967  0.63983389  1
  Ti  Ti7  1  0.92625412  0.86251044  0.99503616  1
  O  O8  1  0.57786522  0.93610716  0.38183752  1
  O  O9  1  0.27268937  0.23393527  0.39223532  1
