# generated using pymatgen
data_Li5Ti2P2Br5O3
_symmetry_space_group_name_H-M   'P 1'
_cell_length_a   8.66429611
_cell_length_b   7.24514907
_cell_length_c   9.15492448
_cell_angle_alpha   90.00000000
_cell_angle_beta   90.00000000
_cell_angle_gamma   90.00000000
_symmetry_Int_Tables_number   1
_chemical_formula_structural   Li5Ti2P2Br5O3
_chemical_formula_sum   'Li5 Ti2 P2 Br5 O3'
_cell_volume   574.69230031
_cell_formula_units_Z   1
loop_
 _symmetry_equiv_pos_site_id
 _symmetry_equiv_pos_as_xyz
  1  'x, y, z'
loop_
 _atom_site_type_symbol
 _atom_site_label
 _atom_site_symmetry_multiplicity
 _atom_site_fract_x
 _atom_site_fract_y
 _atom_site_fract_z
 _atom_site_occupancy
  Li  Li0  1  0.00000000  0.00000000  0.00000000  1
  Li  Li1  1  0.50000000  0.50000000  0.50000000  1
  Li  Li2  1  0.25000000  0.25000000  0.25000000  1
  Li  Li3  1  0.75000000  0.25000000  0.00000000  1
  Li  Li4  1  0.25000000  0.75000000  0.50000000  1
  Ti  Ti5  1  0.54279058  0.95859810  0.07016492  1
  Ti  Ti6  1  0.31657345  0.44140749  0.34369071  1
  P  P7  1  0.29142397  0.23997578  0.61077183  1
  P  P8  1  0.07721759  0.78023403  0.48543585  1
  O  O9  1  0.74088488  0.01709840  0.91239561  1
  O  O10  1  0.88667290  0.62891885  0.47076170  1
  O  O11  1  0.22055674  0.80498665  0.33128800  1
  Br  Br12  1  0.45730653  0.01430407  0.21246790  1
  Br  Br13  1  0.87827785  0.44712094  0.39870251  1
  Br  Br14  1  0.09695189  0.55823277  0.05824201  1
  Br  Br15  1  0.27544821  0.31999840  0.06873837  1
  Br  Br16  1  0.54123104  0.94994630  0.92105122  1
