# generated using pymatgen
data_Li3Ti3O4
_symmetry_space_group_name_H-M   'P 1'
_cell_length_a   4.35050785
_cell_length_b   3.50830549
_cell_length_c   4.76278392
_cell_angle_alpha   90.88251456
_cell_angle_beta   89.91749264
_cell_angle_gamma   85.19311518
_symmetry_Int_Tables_number   1
_chemical_formula_structural   Li3Ti3O4
_chemical_formula_sum   'Li3 Ti3 O4'
_cell_volume   72.42940092
_cell_formula_units_Z   1
loop_
 _symmetry_equiv_pos_site_id
 _symmetry_equiv_pos_as_xyz
  1  'x, y, z'
loop_
 _atom_site_type_symbol
 _atom_site_label
 _atom_site_symmetry_multiplicity
 _atom_site_fract_x
 _atom_site_fract_y
 _atom_site_fract_z
 _atom_site_occupancy
  Li  Li0  1  0.00000000  0.00000000  0.00000000  1
  Li  Li1  1  0.50000000  0.50000000  0.50000000  1
  Li  Li2  1  0.50000000  0.50000000  0.00000000  1
  Ti  Ti3  1  0.50000000  0.00000000  0.50000000  1
  Ti  Ti4  1  0.00000000  0.50000000  0.50000000  1
  Ti  Ti5  1  0.67633531  0.59102118  0.55762453  1
  O  O6  1  0.58244102  0.24933626  0.10118711  1
  O  O7  1  0.15618053  0.43025844  0.53875962  1
  O  O8  1  0.54608324  0.23662346  0.14253039  1
  O  O9  1  0.15286191  0.22506528  0.48978711  1
