# generated using pymatgen
data_Li3VFe2Sb4P
_symmetry_space_group_name_H-M   'P 1'
_cell_length_a   12.01724694
_cell_length_b   11.89944649
_cell_length_c   12.11577581
_cell_angle_alpha   90.00000000
_cell_angle_beta   90.00000000
_cell_angle_gamma   90.00000000
_symmetry_Int_Tables_number   1
_chemical_formula_structural   Li3VFe2Sb4P
_chemical_formula_sum   'Li3 V1 Fe2 Sb4 P1'
_cell_volume   1732.53882000
_cell_formula_units_Z   1
loop_
 _symmetry_equiv_pos_site_id
 _symmetry_equiv_pos_as_xyz
  1  'x, y, z'
loop_
 _atom_site_type_symbol
 _atom_site_label
 _atom_site_symmetry_multiplicity
 _atom_site_fract_x
 _atom_site_fract_y
 _atom_site_fract_z
 _atom_site_occupancy
  Li  Li0  1  0.12500000  0.00000000  0.25000000  1
  Li  Li1  1  0.00000000  0.00000000  0.00000000  1
  Li  Li2  1  0.37500000  0.00000000  0.25000000  1
  V  V3  1  0.25000000  0.25000000  0.25000000  1
  Fe  Fe4  1  0.00000000  0.25000000  0.12500000  1
  Fe  Fe5  1  0.86153714  0.55561937  0.00199481  1
  P  P6  1  0.92868737  0.91787375  0.90219901  1
  Sb  Sb7  1  0.01239710  0.01672058  0.71815411  1
  Sb  Sb8  1  0.25461375  0.76110699  0.87038466  1
  Sb  Sb9  1  0.46742098  0.83530528  0.08258541  1
  Sb  Sb10  1  0.90745350  0.18517428  0.82092359  1
