# generated using pymatgen
data_Li4Nb3ZnSb2O
_symmetry_space_group_name_H-M   'P 1'
_cell_length_a   8.45782717
_cell_length_b   7.66209411
_cell_length_c   7.91495136
_cell_angle_alpha   90.00000000
_cell_angle_beta   90.00000000
_cell_angle_gamma   90.00000000
_symmetry_Int_Tables_number   1
_chemical_formula_structural   Li4Nb3ZnSb2O
_chemical_formula_sum   'Li4 Nb3 Zn1 Sb2 O1'
_cell_volume   512.92579304
_cell_formula_units_Z   1
loop_
 _symmetry_equiv_pos_site_id
 _symmetry_equiv_pos_as_xyz
  1  'x, y, z'
loop_
 _atom_site_type_symbol
 _atom_site_label
 _atom_site_symmetry_multiplicity
 _atom_site_fract_x
 _atom_site_fract_y
 _atom_site_fract_z
 _atom_site_occupancy
  Li  Li0  1  0.12500000  0.12500000  0.12500000  1
  Li  Li1  1  0.50000000  0.50000000  0.50000000  1
  Li  Li2  1  0.25000000  0.25000000  0.25000000  1
  Li  Li3  1  0.75000000  0.75000000  0.75000000  1
  Nb  Nb4  1  0.27963705  0.40655041  0.20506005  1
  Nb  Nb5  1  0.09292572  0.69680811  0.39105394  1
  Nb  Nb6  1  0.47913081  0.22594162  0.73399682  1
  O  O7  1  0.66873473  0.99142391  0.66932355  1
  Sb  Sb8  1  0.19765651  0.30696508  0.31152172  1
  Sb  Sb9  1  0.29775001  0.85935191  0.43300200  1
  Zn  Zn10  1  0.64057720  0.27659370  0.87916231  1
