# generated using pymatgen
data_Li6Ti2SbO4
_symmetry_space_group_name_H-M   'P 1'
_cell_length_a   3.89173109
_cell_length_b   4.41406042
_cell_length_c   4.08598378
_cell_angle_alpha   90.06212462
_cell_angle_beta   87.20550452
_cell_angle_gamma   91.52837359
_symmetry_Int_Tables_number   1
_chemical_formula_structural   Li6Ti2SbO4
_chemical_formula_sum   'Li6 Ti2 Sb1 O4'
_cell_volume   70.08199136
_cell_formula_units_Z   1
loop_
 _symmetry_equiv_pos_site_id
 _symmetry_equiv_pos_as_xyz
  1  'x, y, z'
loop_
 _atom_site_type_symbol
 _atom_site_label
 _atom_site_symmetry_multiplicity
 _atom_site_fract_x
 _atom_site_fract_y
 _atom_site_fract_z
 _atom_site_occupancy
  Li  Li0  1  0.00000000  0.00000000  0.00000000  1
  Li  Li1  1  0.50000000  0.50000000  0.50000000  1
  Li  Li2  1  0.50000000  0.50000000  0.00000000  1
  Li  Li3  1  0.50000000  0.00000000  0.50000000  1
  Li  Li4  1  0.00000000  0.50000000  0.50000000  1
  Li  Li5  1  0.79712971  0.85421235  0.45724421  1
  Ti  Ti6  1  0.80793699  0.75234655  0.24010563  1
  Ti  Ti7  1  0.17233183  0.70774008  0.37625830  1
  Sb  Sb8  1  0.70051248  0.61861343  0.16445238  1
  O  O9  1  0.52254860  0.67873002  0.14108557  1
  O  O10  1  0.73502999  0.34982390  0.68170329  1
  O  O11  1  0.87074281  0.01061199  0.16051867  1
  O  O12  1  0.75403722  0.23622915  0.33855326  1
