# generated using pymatgen
data_Li4Al3Sb4S5
_symmetry_space_group_name_H-M   'P 1'
_cell_length_a   8.46071284
_cell_length_b   9.80370735
_cell_length_c   7.38384349
_cell_angle_alpha   90.00000000
_cell_angle_beta   90.00000000
_cell_angle_gamma   90.00000000
_symmetry_Int_Tables_number   1
_chemical_formula_structural   Li4Al3Sb4S5
_chemical_formula_sum   'Li4 Al3 Sb4 S5'
_cell_volume   612.46288606
_cell_formula_units_Z   1
loop_
 _symmetry_equiv_pos_site_id
 _symmetry_equiv_pos_as_xyz
  1  'x, y, z'
loop_
 _atom_site_type_symbol
 _atom_site_label
 _atom_site_symmetry_multiplicity
 _atom_site_fract_x
 _atom_site_fract_y
 _atom_site_fract_z
 _atom_site_occupancy
  Li  Li0  1  0.12500000  0.12500000  0.12500000  1
  Li  Li1  1  0.50000000  0.50000000  0.50000000  1
  Li  Li2  1  0.25000000  0.25000000  0.25000000  1
  Li  Li3  1  0.75000000  0.75000000  0.75000000  1
  Al  Al4  1  0.41974908  0.68805879  0.21308303  1
  Al  Al5  1  0.62169502  0.44592002  0.83098948  1
  Al  Al6  1  0.45718386  0.15155469  0.56818568  1
  Sb  Sb7  1  0.83203832  0.66919232  0.99456745  1
  Sb  Sb8  1  0.97680429  0.52425909  0.35475152  1
  Sb  Sb9  1  0.54570741  0.27525105  0.35572955  1
  Sb  Sb10  1  0.80390070  0.01824780  0.20463111  1
  S  S11  1  0.49883690  0.59090573  0.61550466  1
  S  S12  1  0.17186791  0.17736777  0.52968275  1
  S  S13  1  0.50387211  0.57727431  0.06649932  1
  S  S14  1  0.53875281  0.73385079  0.74934029  1
  S  S15  1  0.71298201  0.93826776  0.33678907  1
