# generated using pymatgen
data_Li2Al2S5O3
_symmetry_space_group_name_H-M   'P 1'
_cell_length_a   8.40117624
_cell_length_b   9.83888126
_cell_length_c   8.61858882
_cell_angle_alpha   90.00000000
_cell_angle_beta   90.00000000
_cell_angle_gamma   90.00000000
_symmetry_Int_Tables_number   1
_chemical_formula_structural   Li2Al2S5O3
_chemical_formula_sum   'Li2 Al2 S5 O3'
_cell_volume   712.39682606
_cell_formula_units_Z   1
loop_
 _symmetry_equiv_pos_site_id
 _symmetry_equiv_pos_as_xyz
  1  'x, y, z'
loop_
 _atom_site_type_symbol
 _atom_site_label
 _atom_site_symmetry_multiplicity
 _atom_site_fract_x
 _atom_site_fract_y
 _atom_site_fract_z
 _atom_site_occupancy
  Li  Li0  1  0.12500000  0.12500000  0.12500000  1
  Li  Li1  1  0.50000000  0.50000000  0.50000000  1
  Al  Al2  1  0.25000000  0.25000000  0.25000000  1
  Al  Al3  1  0.75000000  0.75000000  0.75000000  1
  O  O4  1  0.08009645  0.88994655  0.91816505  1
  O  O5  1  0.29802493  0.79835465  0.92284786  1
  O  O6  1  0.52060221  0.58149083  0.91681107  1
  S  S7  1  0.06440020  0.48156284  0.39191561  1
  S  S8  1  0.51536262  0.64073581  0.66234325  1
  S  S9  1  0.23477346  0.94387087  0.38968948  1
  S  S10  1  0.06473976  0.20847685  0.91122038  1
  S  S11  1  0.04228785  0.27882869  0.42223911  1
