# generated using pymatgen
data_Li6TiO2
_symmetry_space_group_name_H-M   'P 1'
_cell_length_a   3.59160775
_cell_length_b   4.01217323
_cell_length_c   6.36226282
_cell_angle_alpha   113.72607589
_cell_angle_beta   110.57843511
_cell_angle_gamma   102.43876238
_symmetry_Int_Tables_number   1
_chemical_formula_structural   Li6TiO2
_chemical_formula_sum   'Li6 Ti1 O2'
_cell_volume   71.44294251
_cell_formula_units_Z   1
loop_
 _symmetry_equiv_pos_site_id
 _symmetry_equiv_pos_as_xyz
  1  'x, y, z'
loop_
 _atom_site_type_symbol
 _atom_site_label
 _atom_site_symmetry_multiplicity
 _atom_site_fract_x
 _atom_site_fract_y
 _atom_site_fract_z
 _atom_site_occupancy
  Li  Li0  1  0.00000000  0.00000000  0.00000000  1
  Li  Li1  1  0.33300000  0.66700000  0.25000000  1
  Li  Li2  1  0.66700000  0.33300000  0.50000000  1
  Li  Li3  1  0.00000000  0.00000000  0.75000000  1
  Li  Li4  1  0.53052921  0.95794561  0.35250737  1
  Li  Li5  1  0.09209103  0.50250454  0.22665489  1
  Ti  Ti6  1  0.85221546  0.04435847  0.60991463  1
  O  O7  1  0.51449610  0.88150111  0.89820192  1
  O  O8  1  0.86211957  0.76805052  0.20883835  1
