# generated using pymatgen
data_LiMn2Sb3P4I2O3
_symmetry_space_group_name_H-M   'P 1'
_cell_length_a   4.07036023
_cell_length_b   4.20421430
_cell_length_c   3.27172467
_cell_angle_alpha   91.06959190
_cell_angle_beta   94.78224834
_cell_angle_gamma   86.95785433
_symmetry_Int_Tables_number   1
_chemical_formula_structural   LiMn2Sb3P4I2O3
_chemical_formula_sum   'Li1 Mn2 Sb3 P4 I2 O3'
_cell_volume   55.70869306
_cell_formula_units_Z   1
loop_
 _symmetry_equiv_pos_site_id
 _symmetry_equiv_pos_as_xyz
  1  'x, y, z'
loop_
 _atom_site_type_symbol
 _atom_site_label
 _atom_site_symmetry_multiplicity
 _atom_site_fract_x
 _atom_site_fract_y
 _atom_site_fract_z
 _atom_site_occupancy
  Li  Li0  1  0.00000000  0.00000000  0.00000000  1
  Mn  Mn1  1  0.50000000  0.50000000  0.50000000  1
  Mn  Mn2  1  0.50000000  0.50000000  0.00000000  1
  Sb  Sb3  1  0.50000000  0.00000000  0.50000000  1
  Sb  Sb4  1  0.00000000  0.50000000  0.50000000  1
  Sb  Sb5  1  0.20265443  0.05455234  0.31159591  1
  I  I6  1  0.67558133  0.36380032  0.36420083  1
  I  I7  1  0.36351218  0.74609782  0.71699660  1
  O  O8  1  0.45156524  0.86088060  0.67783710  1
  O  O9  1  0.82362733  0.51481300  0.83918113  1
  O  O10  1  0.52022825  0.35855518  0.55506726  1
  P  P11  1  0.60540831  0.44694124  0.96438075  1
  P  P12  1  0.85572454  0.06612047  0.36812390  1
  P  P13  1  0.29129681  0.89728608  0.01271197  1
  P  P14  1  0.83655571  0.22908443  0.34751346  1
