# generated using pymatgen
data_Li3Ca2FeO2
_symmetry_space_group_name_H-M   'P 1'
_cell_length_a   3.78048681
_cell_length_b   4.40301117
_cell_length_c   5.70369726
_cell_angle_alpha   118.20555444
_cell_angle_beta   97.84432243
_cell_angle_gamma   118.95177560
_symmetry_Int_Tables_number   1
_chemical_formula_structural   Li3Ca2FeO2
_chemical_formula_sum   'Li3 Ca2 Fe1 O2'
_cell_volume   64.47672192
_cell_formula_units_Z   1
loop_
 _symmetry_equiv_pos_site_id
 _symmetry_equiv_pos_as_xyz
  1  'x, y, z'
loop_
 _atom_site_type_symbol
 _atom_site_label
 _atom_site_symmetry_multiplicity
 _atom_site_fract_x
 _atom_site_fract_y
 _atom_site_fract_z
 _atom_site_occupancy
  Li  Li0  1  0.00000000  0.00000000  0.00000000  1
  Li  Li1  1  0.33300000  0.66700000  0.25000000  1
  Li  Li2  1  0.66700000  0.33300000  0.50000000  1
  Ca  Ca3  1  0.00000000  0.00000000  0.75000000  1
  Ca  Ca4  1  0.51193102  0.74319776  0.99483930  1
  O  O5  1  0.44775566  0.51547785  0.27922158  1
  O  O6  1  0.50730925  0.93074136  0.46772287  1
  Fe  Fe7  1  0.25856203  0.93843686  0.58248218  1
