# generated using pymatgen
data_Li8ZrO3
_symmetry_space_group_name_H-M   'P 1'
_cell_length_a   3.33603231
_cell_length_b   3.76360172
_cell_length_c   6.84647217
_cell_angle_alpha   95.22940738
_cell_angle_beta   112.27299219
_cell_angle_gamma   105.43552438
_symmetry_Int_Tables_number   1
_chemical_formula_structural   Li8ZrO3
_chemical_formula_sum   'Li8 Zr1 O3'
_cell_volume   74.88025278
_cell_formula_units_Z   1
loop_
 _symmetry_equiv_pos_site_id
 _symmetry_equiv_pos_as_xyz
  1  'x, y, z'
loop_
 _atom_site_type_symbol
 _atom_site_label
 _atom_site_symmetry_multiplicity
 _atom_site_fract_x
 _atom_site_fract_y
 _atom_site_fract_z
 _atom_site_occupancy
  Li  Li0  1  0.00000000  0.00000000  0.00000000  1
  Li  Li1  1  0.33300000  0.66700000  0.25000000  1
  Li  Li2  1  0.66700000  0.33300000  0.50000000  1
  Li  Li3  1  0.00000000  0.00000000  0.75000000  1
  Li  Li4  1  0.90262821  0.55269875  0.96960483  1
  Li  Li5  1  0.93351298  0.43606911  0.60105461  1
  Li  Li6  1  0.57901823  0.14065963  0.76461404  1
  Li  Li7  1  0.91502586  0.34612451  0.97509913  1
  Zr  Zr8  1  0.19165728  0.42667017  0.30496798  1
  O  O9  1  0.97411208  0.31230877  0.23818576  1
  O  O10  1  0.55076746  0.30937986  0.51927479  1
  O  O11  1  0.38339786  0.29645513  0.98014694  1
