# generated using pymatgen
data_LiTiZnSn2As3
_symmetry_space_group_name_H-M   'P 1'
_cell_length_a   12.54190260
_cell_length_b   13.97483592
_cell_length_c   13.87383616
_cell_angle_alpha   90.00000000
_cell_angle_beta   90.00000000
_cell_angle_gamma   90.00000000
_symmetry_Int_Tables_number   1
_chemical_formula_structural   LiTiZnSn2As3
_chemical_formula_sum   'Li1 Ti1 Zn1 Sn2 As3'
_cell_volume   2431.68156687
_cell_formula_units_Z   1
loop_
 _symmetry_equiv_pos_site_id
 _symmetry_equiv_pos_as_xyz
  1  'x, y, z'
loop_
 _atom_site_type_symbol
 _atom_site_label
 _atom_site_symmetry_multiplicity
 _atom_site_fract_x
 _atom_site_fract_y
 _atom_site_fract_z
 _atom_site_occupancy
  Li  Li0  1  0.12500000  0.00000000  0.25000000  1
  Zn  Zn1  1  0.00000000  0.00000000  0.00000000  1
  Ti  Ti2  1  0.37500000  0.00000000  0.25000000  1
  Sn  Sn3  1  0.25000000  0.25000000  0.25000000  1
  Sn  Sn4  1  0.00000000  0.25000000  0.12500000  1
  As  As5  1  0.38515574  0.09628271  0.76251788  1
  As  As6  1  0.38653899  0.94063082  0.15584575  1
  As  As7  1  0.48688096  0.90338204  0.20332860  1
