# generated using pymatgen
data_Li4VBiO
_symmetry_space_group_name_H-M   'P 1'
_cell_length_a   3.28138462
_cell_length_b   3.82370692
_cell_length_c   5.02513525
_cell_angle_alpha   118.43540225
_cell_angle_beta   100.76604864
_cell_angle_gamma   96.25118734
_symmetry_Int_Tables_number   1
_chemical_formula_structural   Li4VBiO
_chemical_formula_sum   'Li4 V1 Bi1 O1'
_cell_volume   53.02042751
_cell_formula_units_Z   1
loop_
 _symmetry_equiv_pos_site_id
 _symmetry_equiv_pos_as_xyz
  1  'x, y, z'
loop_
 _atom_site_type_symbol
 _atom_site_label
 _atom_site_symmetry_multiplicity
 _atom_site_fract_x
 _atom_site_fract_y
 _atom_site_fract_z
 _atom_site_occupancy
  Li  Li0  1  0.00000000  0.00000000  0.00000000  1
  Li  Li1  1  0.33300000  0.66700000  0.25000000  1
  Li  Li2  1  0.66700000  0.33300000  0.50000000  1
  Li  Li3  1  0.00000000  0.00000000  0.75000000  1
  V  V4  1  0.23819984  0.03406762  0.95471549  1
  O  O5  1  0.89396349  0.68927071  0.27389121  1
  Bi  Bi6  1  0.30625533  0.87181741  0.48446914  1
