# generated using pymatgen
data_LiTi3O5
_symmetry_space_group_name_H-M   'P 1'
_cell_length_a   3.85552889
_cell_length_b   4.08705883
_cell_length_c   4.09483150
_cell_angle_alpha   91.40503840
_cell_angle_beta   86.79372808
_cell_angle_gamma   86.29683507
_symmetry_Int_Tables_number   1
_chemical_formula_structural   LiTi3O5
_chemical_formula_sum   'Li1 Ti3 O5'
_cell_volume   64.26427446
_cell_formula_units_Z   1
loop_
 _symmetry_equiv_pos_site_id
 _symmetry_equiv_pos_as_xyz
  1  'x, y, z'
loop_
 _atom_site_type_symbol
 _atom_site_label
 _atom_site_symmetry_multiplicity
 _atom_site_fract_x
 _atom_site_fract_y
 _atom_site_fract_z
 _atom_site_occupancy
  Li  Li0  1  0.00000000  0.00000000  0.00000000  1
  Ti  Ti1  1  0.50000000  0.50000000  0.50000000  1
  Ti  Ti2  1  0.50000000  0.50000000  0.00000000  1
  Ti  Ti3  1  0.50000000  0.00000000  0.50000000  1
  O  O4  1  0.00000000  0.50000000  0.50000000  1
  O  O5  1  0.48147485  0.79450156  0.43458956  1
  O  O6  1  0.48249594  0.99697903  0.14788733  1
  O  O7  1  0.16264139  0.70121132  0.51257859  1
  O  O8  1  0.20552931  0.67423968  0.34495783  1
