# generated using pymatgen
data_Li4CaPSO3
_symmetry_space_group_name_H-M   'P 1'
_cell_length_a   8.21410650
_cell_length_b   7.36035297
_cell_length_c   8.45591935
_cell_angle_alpha   90.00000000
_cell_angle_beta   90.00000000
_cell_angle_gamma   90.00000000
_symmetry_Int_Tables_number   1
_chemical_formula_structural   Li4CaPSO3
_chemical_formula_sum   'Li4 Ca1 P1 S1 O3'
_cell_volume   511.23408681
_cell_formula_units_Z   1
loop_
 _symmetry_equiv_pos_site_id
 _symmetry_equiv_pos_as_xyz
  1  'x, y, z'
loop_
 _atom_site_type_symbol
 _atom_site_label
 _atom_site_symmetry_multiplicity
 _atom_site_fract_x
 _atom_site_fract_y
 _atom_site_fract_z
 _atom_site_occupancy
  Li  Li0  1  0.00000000  0.00000000  0.00000000  1
  Li  Li1  1  0.50000000  0.50000000  0.50000000  1
  Li  Li2  1  0.25000000  0.25000000  0.25000000  1
  Li  Li3  1  0.75000000  0.25000000  0.00000000  1
  Ca  Ca4  1  0.25000000  0.75000000  0.50000000  1
  P  P5  1  0.70993070  0.51313447  0.72340953  1
  O  O6  1  0.88974036  0.93963423  0.36923201  1
  O  O7  1  0.73807319  0.98100862  0.92030929  1
  O  O8  1  0.54127093  0.72630663  0.28733995  1
  S  S9  1  0.69510503  0.20909568  0.77555022  1
