# generated using pymatgen
data_LiTi3PO7
_symmetry_space_group_name_H-M   'P 1'
_cell_length_a   8.96862101
_cell_length_b   7.30885101
_cell_length_c   8.00588917
_cell_angle_alpha   90.00000000
_cell_angle_beta   90.00000000
_cell_angle_gamma   90.00000000
_symmetry_Int_Tables_number   1
_chemical_formula_structural   LiTi3PO7
_chemical_formula_sum   'Li1 Ti3 P1 O7'
_cell_volume   524.78855460
_cell_formula_units_Z   1
loop_
 _symmetry_equiv_pos_site_id
 _symmetry_equiv_pos_as_xyz
  1  'x, y, z'
loop_
 _atom_site_type_symbol
 _atom_site_label
 _atom_site_symmetry_multiplicity
 _atom_site_fract_x
 _atom_site_fract_y
 _atom_site_fract_z
 _atom_site_occupancy
  Li  Li0  1  0.00000000  0.00000000  0.00000000  1
  Ti  Ti1  1  0.50000000  0.50000000  0.50000000  1
  Ti  Ti2  1  0.25000000  0.25000000  0.25000000  1
  Ti  Ti3  1  0.75000000  0.25000000  0.00000000  1
  P  P4  1  0.25000000  0.75000000  0.50000000  1
  O  O5  1  0.22577689  0.84804676  0.08765032  1
  O  O6  1  0.32576162  0.35937510  0.51716068  1
  O  O7  1  0.18271937  0.42039278  0.68706542  1
  O  O8  1  0.27669818  0.71126913  0.25244283  1
  O  O9  1  0.05415058  0.04745634  0.29645672  1
  O  O10  1  0.57007113  0.61007332  0.57452707  1
  O  O11  1  0.17903700  0.10934525  0.82557333  1
