# generated using pymatgen
data_Li3TiI4O2F3
_symmetry_space_group_name_H-M   'P 1'
_cell_length_a   5.48936838
_cell_length_b   5.57537887
_cell_length_c   6.77702781
_cell_angle_alpha   100.97305182
_cell_angle_beta   104.72860707
_cell_angle_gamma   102.42950843
_symmetry_Int_Tables_number   1
_chemical_formula_structural   Li3TiI4O2F3
_chemical_formula_sum   'Li3 Ti1 I4 O2 F3'
_cell_volume   189.18631657
_cell_formula_units_Z   1
loop_
 _symmetry_equiv_pos_site_id
 _symmetry_equiv_pos_as_xyz
  1  'x, y, z'
loop_
 _atom_site_type_symbol
 _atom_site_label
 _atom_site_symmetry_multiplicity
 _atom_site_fract_x
 _atom_site_fract_y
 _atom_site_fract_z
 _atom_site_occupancy
  I  I0  1  0.12500000  0.00000000  0.25000000  1
  I  I1  1  0.00000000  0.00000000  0.00000000  1
  I  I2  1  0.37500000  0.00000000  0.25000000  1
  I  I3  1  0.25000000  0.25000000  0.25000000  1
  Li  Li4  1  0.00000000  0.25000000  0.12500000  1
  Li  Li5  1  0.21329143  0.50568253  0.40124997  1
  Li  Li6  1  0.80269255  0.29773477  0.48588592  1
  F  F7  1  0.21019792  0.96148189  0.88127597  1
  F  F8  1  0.12086447  0.50960322  0.48172563  1
  F  F9  1  0.65631968  0.91759953  0.25094013  1
  Ti  Ti10  1  0.50005449  0.76956058  0.26224498  1
  O  O11  1  0.96420850  0.74791473  0.14506040  1
  O  O12  1  0.69148377  0.71848883  0.78066050  1
