# generated using pymatgen
data_Li2MnSb4P3N5
_symmetry_space_group_name_H-M   'P 1'
_cell_length_a   6.39484899
_cell_length_b   6.95201596
_cell_length_c   7.43306506
_cell_angle_alpha   94.49423688
_cell_angle_beta   92.50208958
_cell_angle_gamma   94.72202943
_symmetry_Int_Tables_number   1
_chemical_formula_structural   Li2MnSb4P3N5
_chemical_formula_sum   'Li2 Mn1 Sb4 P3 N5'
_cell_volume   327.90043215
_cell_formula_units_Z   1
loop_
 _symmetry_equiv_pos_site_id
 _symmetry_equiv_pos_as_xyz
  1  'x, y, z'
loop_
 _atom_site_type_symbol
 _atom_site_label
 _atom_site_symmetry_multiplicity
 _atom_site_fract_x
 _atom_site_fract_y
 _atom_site_fract_z
 _atom_site_occupancy
  N  N0  1  0.00000000  0.00000000  0.00000000  1
  N  N1  1  0.50000000  0.50000000  0.50000000  1
  N  N2  1  0.25000000  0.25000000  0.25000000  1
  N  N3  1  0.75000000  0.25000000  0.00000000  1
  N  N4  1  0.25000000  0.75000000  0.50000000  1
  Mn  Mn5  1  0.05670828  0.74648352  0.91997887  1
  Sb  Sb6  1  0.55397221  0.89364539  0.07375572  1
  Sb  Sb7  1  0.26895756  0.13456503  0.14723885  1
  Sb  Sb8  1  0.98181820  0.47722268  0.34463776  1
  Sb  Sb9  1  0.46242447  0.94714214  0.58988479  1
  P  P10  1  0.16331429  0.37451655  0.98857791  1
  P  P11  1  0.96172440  0.41413407  0.09311671  1
  P  P12  1  0.60056033  0.09102682  0.06191098  1
  Li  Li13  1  0.57265830  0.35841299  0.06880149  1
  Li  Li14  1  0.16835301  0.45791521  0.53177931  1
