# generated using pymatgen
data_Li2MnSb4P3
_symmetry_space_group_name_H-M   'P 1'
_cell_length_a   6.41840555
_cell_length_b   6.79329637
_cell_length_c   7.41593714
_cell_angle_alpha   93.29941908
_cell_angle_beta   93.90846676
_cell_angle_gamma   93.75514629
_symmetry_Int_Tables_number   1
_chemical_formula_structural   Li2MnSb4P3
_chemical_formula_sum   'Li2 Mn1 Sb4 P3'
_cell_volume   321.28077542
_cell_formula_units_Z   1
loop_
 _symmetry_equiv_pos_site_id
 _symmetry_equiv_pos_as_xyz
  1  'x, y, z'
loop_
 _atom_site_type_symbol
 _atom_site_label
 _atom_site_symmetry_multiplicity
 _atom_site_fract_x
 _atom_site_fract_y
 _atom_site_fract_z
 _atom_site_occupancy
  Mn  Mn0  1  0.00000000  0.00000000  0.00000000  1
  Sb  Sb1  1  0.50000000  0.50000000  0.50000000  1
  Sb  Sb2  1  0.25000000  0.25000000  0.25000000  1
  Sb  Sb3  1  0.75000000  0.25000000  0.00000000  1
  Sb  Sb4  1  0.25000000  0.75000000  0.50000000  1
  P  P5  1  0.01987962  0.02237580  0.46124202  1
  P  P6  1  0.86592653  0.75247113  0.79028839  1
  P  P7  1  0.89573869  0.37919247  0.71810501  1
  Li  Li8  1  0.61251077  0.12005815  0.71084120  1
  Li  Li9  1  0.96749900  0.69054473  0.79380276  1
