# generated using pymatgen
data_LiCu2Se3O3F2
_symmetry_space_group_name_H-M   'P 1'
_cell_length_a   7.66541892
_cell_length_b   8.55245456
_cell_length_c   8.65409669
_cell_angle_alpha   90.16524721
_cell_angle_beta   90.78619605
_cell_angle_gamma   90.18892169
_symmetry_Int_Tables_number   1
_chemical_formula_structural   LiCu2Se3O3F2
_chemical_formula_sum   'Li1 Cu2 Se3 O3 F2'
_cell_volume   567.28761403
_cell_formula_units_Z   1
loop_
 _symmetry_equiv_pos_site_id
 _symmetry_equiv_pos_as_xyz
  1  'x, y, z'
loop_
 _atom_site_type_symbol
 _atom_site_label
 _atom_site_symmetry_multiplicity
 _atom_site_fract_x
 _atom_site_fract_y
 _atom_site_fract_z
 _atom_site_occupancy
  Li  Li0  1  0.00000000  0.00000000  0.00000000  1
  Cu  Cu1  1  0.50000000  0.50000000  0.50000000  1
  Cu  Cu2  1  0.25000000  0.25000000  0.25000000  1
  Se  Se3  1  0.75000000  0.25000000  0.00000000  1
  Se  Se4  1  0.25000000  0.75000000  0.50000000  1
  Se  Se5  1  0.42922465  0.75693168  0.07354985  1
  F  F6  1  0.32386207  0.02832919  0.76991879  1
  F  F7  1  0.70642304  0.66066317  0.39770286  1
  O  O8  1  0.38843853  0.31232747  0.05219673  1
  O  O9  1  0.91709732  0.03245890  0.04589472  1
  O  O10  1  0.96335719  0.02774714  0.22507594  1
