# generated using pymatgen
data_Li5Cr2As3P3O2
_symmetry_space_group_name_H-M   'P 1'
_cell_length_a   8.14624334
_cell_length_b   7.46526965
_cell_length_c   8.25691925
_cell_angle_alpha   90.00000000
_cell_angle_beta   90.00000000
_cell_angle_gamma   90.00000000
_symmetry_Int_Tables_number   1
_chemical_formula_structural   Li5Cr2As3P3O2
_chemical_formula_sum   'Li5 Cr2 As3 P3 O2'
_cell_volume   502.13548766
_cell_formula_units_Z   1
loop_
 _symmetry_equiv_pos_site_id
 _symmetry_equiv_pos_as_xyz
  1  'x, y, z'
loop_
 _atom_site_type_symbol
 _atom_site_label
 _atom_site_symmetry_multiplicity
 _atom_site_fract_x
 _atom_site_fract_y
 _atom_site_fract_z
 _atom_site_occupancy
  P  P0  1  0.00000000  0.00000000  0.00000000  1
  P  P1  1  0.50000000  0.50000000  0.50000000  1
  P  P2  1  0.50000000  0.50000000  0.00000000  1
  Li  Li3  1  0.50000000  0.00000000  0.50000000  1
  Li  Li4  1  0.00000000  0.50000000  0.50000000  1
  Li  Li5  1  0.22701140  0.73827480  0.10580403  1
  Li  Li6  1  0.81266026  0.59447060  0.32068809  1
  Li  Li7  1  0.05485714  0.03692689  0.74439865  1
  As  As8  1  0.62909976  0.99818640  0.67949239  1
  As  As9  1  0.04730095  0.45525113  0.38432725  1
  As  As10  1  0.47310992  0.46065935  0.10759447  1
  O  O11  1  0.24637962  0.04759099  0.79484769  1
  O  O12  1  0.40353857  0.40271237  0.69155782  1
  Cr  Cr13  1  0.22559833  0.91895684  0.22804287  1
  Cr  Cr14  1  0.68231259  0.37960951  0.52946792  1
