# generated using pymatgen
data_Li3LuNi2P4N5
_symmetry_space_group_name_H-M   'P 1'
_cell_length_a   7.43443820
_cell_length_b   7.08198052
_cell_length_c   8.84700782
_cell_angle_alpha   93.35158327
_cell_angle_beta   91.28805232
_cell_angle_gamma   93.88704188
_symmetry_Int_Tables_number   1
_chemical_formula_structural   Li3LuNi2P4N5
_chemical_formula_sum   'Li3 Lu1 Ni2 P4 N5'
_cell_volume   463.76988709
_cell_formula_units_Z   1
loop_
 _symmetry_equiv_pos_site_id
 _symmetry_equiv_pos_as_xyz
  1  'x, y, z'
loop_
 _atom_site_type_symbol
 _atom_site_label
 _atom_site_symmetry_multiplicity
 _atom_site_fract_x
 _atom_site_fract_y
 _atom_site_fract_z
 _atom_site_occupancy
  P  P0  1  0.12500000  0.00000000  0.25000000  1
  P  P1  1  0.00000000  0.00000000  0.00000000  1
  P  P2  1  0.37500000  0.00000000  0.25000000  1
  P  P3  1  0.25000000  0.25000000  0.25000000  1
  Lu  Lu4  1  0.00000000  0.25000000  0.12500000  1
  Li  Li5  1  0.00325596  0.90387668  0.27437029  1
  Li  Li6  1  0.15217115  0.50306113  0.40323074  1
  Li  Li7  1  0.79092003  0.06292538  0.15851321  1
  Ni  Ni8  1  0.44814301  0.68678920  0.12540081  1
  Ni  Ni9  1  0.83544895  0.29376224  0.16058963  1
  N  N10  1  0.90106901  0.36984660  0.05503040  1
  N  N11  1  0.27132739  0.72794180  0.03889474  1
  N  N12  1  0.77907734  0.12796263  0.15236249  1
  N  N13  1  0.68182675  0.56984094  0.44163434  1
  N  N14  1  0.34305320  0.58792279  0.12401106  1
