# generated using pymatgen
data_Li2TiP6(O2F)2
_symmetry_space_group_name_H-M   'P 1'
_cell_length_a   8.60190487
_cell_length_b   8.36867082
_cell_length_c   7.64489029
_cell_angle_alpha   90.10406280
_cell_angle_beta   90.49509918
_cell_angle_gamma   90.11897156
_symmetry_Int_Tables_number   1
_chemical_formula_structural   Li2TiP6(O2F)2
_chemical_formula_sum   'Li2 Ti1 P6 O4 F2'
_cell_volume   550.30631511
_cell_formula_units_Z   1
loop_
 _symmetry_equiv_pos_site_id
 _symmetry_equiv_pos_as_xyz
  1  'x, y, z'
loop_
 _atom_site_type_symbol
 _atom_site_label
 _atom_site_symmetry_multiplicity
 _atom_site_fract_x
 _atom_site_fract_y
 _atom_site_fract_z
 _atom_site_occupancy
  P  P0  1  0.00000000  0.00000000  0.00000000  1
  P  P1  1  0.50000000  0.50000000  0.50000000  1
  P  P2  1  0.25000000  0.25000000  0.25000000  1
  P  P3  1  0.75000000  0.25000000  0.00000000  1
  P  P4  1  0.25000000  0.75000000  0.50000000  1
  P  P5  1  0.15710376  0.22764185  0.29658795  1
  Li  Li6  1  0.02564015  0.53075947  0.81278938  1
  Li  Li7  1  0.97425115  0.12424520  0.48455398  1
  F  F8  1  0.52478684  0.87788673  0.46700911  1
  F  F9  1  0.49855158  0.33898402  0.78192641  1
  Ti  Ti10  1  0.53421382  0.76357095  0.40086293  1
  O  O11  1  0.01015828  0.79778961  0.25706318  1
  O  O12  1  0.21432458  0.26849803  0.14202974  1
  O  O13  1  0.11690717  0.07352755  0.99247706  1
  O  O14  1  0.65869171  0.45089147  0.47700057  1
