# generated using pymatgen
data_Li3LuZr3(P2Cl)2
_symmetry_space_group_name_H-M   'P 1'
_cell_length_a   7.92294785
_cell_length_b   7.58994127
_cell_length_c   9.13975640
_cell_angle_alpha   95.10840909
_cell_angle_beta   96.07325521
_cell_angle_gamma   95.25136488
_symmetry_Int_Tables_number   1
_chemical_formula_structural   Li3LuZr3(P2Cl)2
_chemical_formula_sum   'Li3 Lu1 Zr3 P4 Cl2'
_cell_volume   541.52628393
_cell_formula_units_Z   1
loop_
 _symmetry_equiv_pos_site_id
 _symmetry_equiv_pos_as_xyz
  1  'x, y, z'
loop_
 _atom_site_type_symbol
 _atom_site_label
 _atom_site_symmetry_multiplicity
 _atom_site_fract_x
 _atom_site_fract_y
 _atom_site_fract_z
 _atom_site_occupancy
  P  P0  1  0.12500000  0.00000000  0.25000000  1
  P  P1  1  0.00000000  0.00000000  0.00000000  1
  P  P2  1  0.37500000  0.00000000  0.25000000  1
  P  P3  1  0.25000000  0.25000000  0.25000000  1
  Lu  Lu4  1  0.00000000  0.25000000  0.12500000  1
  Li  Li5  1  0.19490502  0.07733550  0.59297346  1
  Li  Li6  1  0.85248181  0.12187295  0.95294321  1
  Li  Li7  1  0.98218159  0.15439670  0.78576401  1
  Cl  Cl8  1  0.31769797  0.18471921  0.66683095  1
  Cl  Cl9  1  0.99650334  0.89882296  0.06847240  1
  Zr  Zr10  1  0.71412444  0.17921295  0.12501100  1
  Zr  Zr11  1  0.08589517  0.02523759  0.78687037  1
  Zr  Zr12  1  0.84233683  0.33575808  0.03107288  1
