# generated using pymatgen
data_LiMn2Sb4P2N
_symmetry_space_group_name_H-M   'P 1'
_cell_length_a   5.17553024
_cell_length_b   5.36195836
_cell_length_c   6.17475448
_cell_angle_alpha   98.99806617
_cell_angle_beta   95.09003573
_cell_angle_gamma   98.02280432
_symmetry_Int_Tables_number   1
_chemical_formula_structural   LiMn2Sb4P2N
_chemical_formula_sum   'Li1 Mn2 Sb4 P2 N1'
_cell_volume   166.51617073
_cell_formula_units_Z   1
loop_
 _symmetry_equiv_pos_site_id
 _symmetry_equiv_pos_as_xyz
  1  'x, y, z'
loop_
 _atom_site_type_symbol
 _atom_site_label
 _atom_site_symmetry_multiplicity
 _atom_site_fract_x
 _atom_site_fract_y
 _atom_site_fract_z
 _atom_site_occupancy
  Mn  Mn0  1  0.00000000  0.00000000  0.00000000  1
  Mn  Mn1  1  0.50000000  0.50000000  0.50000000  1
  Sb  Sb2  1  0.25000000  0.25000000  0.25000000  1
  Sb  Sb3  1  0.75000000  0.25000000  0.00000000  1
  Sb  Sb4  1  0.25000000  0.75000000  0.50000000  1
  Sb  Sb5  1  0.91701314  0.45601955  0.29057521  1
  P  P6  1  0.67774502  0.50480888  0.66907838  1
  P  P7  1  0.35447675  0.58245117  0.66894172  1
  Li  Li8  1  0.81350765  0.67875508  0.29103876  1
  N  N9  1  0.95093874  0.94328303  0.65622093  1
