# generated using pymatgen
data_Li2Mn(SbP)3
_symmetry_space_group_name_H-M   'P 1'
_cell_length_a   5.77600413
_cell_length_b   6.23891816
_cell_length_c   7.07206874
_cell_angle_alpha   95.73229467
_cell_angle_beta   94.23523500
_cell_angle_gamma   96.16821299
_symmetry_Int_Tables_number   1
_chemical_formula_structural   Li2Mn(SbP)3
_chemical_formula_sum   'Li2 Mn1 Sb3 P3'
_cell_volume   251.18353603
_cell_formula_units_Z   1
loop_
 _symmetry_equiv_pos_site_id
 _symmetry_equiv_pos_as_xyz
  1  'x, y, z'
loop_
 _atom_site_type_symbol
 _atom_site_label
 _atom_site_symmetry_multiplicity
 _atom_site_fract_x
 _atom_site_fract_y
 _atom_site_fract_z
 _atom_site_occupancy
  Mn  Mn0  1  0.12500000  0.12500000  0.12500000  1
  Sb  Sb1  1  0.50000000  0.50000000  0.50000000  1
  Sb  Sb2  1  0.25000000  0.25000000  0.25000000  1
  Sb  Sb3  1  0.75000000  0.75000000  0.75000000  1
  P  P4  1  0.83739676  0.79587702  0.06409941  1
  P  P5  1  0.30171436  0.53182781  0.92335706  1
  P  P6  1  0.01160595  0.90543616  0.95081130  1
  Li  Li7  1  0.13248704  0.49171619  0.38811974  1
  Li  Li8  1  0.93826405  0.20790192  0.90041063  1
