# generated using pymatgen
data_Li2Sb4P3N5
_symmetry_space_group_name_H-M   'P 1'
_cell_length_a   7.96781947
_cell_length_b   8.16934042
_cell_length_c   8.07182961
_cell_angle_alpha   90.00000000
_cell_angle_beta   90.00000000
_cell_angle_gamma   90.00000000
_symmetry_Int_Tables_number   1
_chemical_formula_structural   Li2Sb4P3N5
_chemical_formula_sum   'Li2 Sb4 P3 N5'
_cell_volume   525.41015842
_cell_formula_units_Z   1
loop_
 _symmetry_equiv_pos_site_id
 _symmetry_equiv_pos_as_xyz
  1  'x, y, z'
loop_
 _atom_site_type_symbol
 _atom_site_label
 _atom_site_symmetry_multiplicity
 _atom_site_fract_x
 _atom_site_fract_y
 _atom_site_fract_z
 _atom_site_occupancy
  N  N0  1  0.12500000  0.12500000  0.12500000  1
  N  N1  1  0.50000000  0.50000000  0.50000000  1
  N  N2  1  0.25000000  0.25000000  0.25000000  1
  N  N3  1  0.75000000  0.75000000  0.75000000  1
  N  N4  1  0.44789897  0.79684968  0.18626388  1
  Sb  Sb5  1  0.76782561  0.79259347  0.10859486  1
  Sb  Sb6  1  0.09620612  0.17050236  0.14512965  1
  Sb  Sb7  1  0.82678570  0.12664784  0.55941965  1
  Sb  Sb8  1  0.41356810  0.35716920  0.97230251  1
  P  P9  1  0.47978602  0.71211250  0.11214417  1
  P  P10  1  0.84882866  0.87742863  0.46017818  1
  P  P11  1  0.95755745  0.16510025  0.18422282  1
  Li  Li12  1  0.00745306  0.98214246  0.71643281  1
  Li  Li13  1  0.79232747  0.64269542  0.40330080  1
