# generated using pymatgen
data_Li2Mn2Sb4P3
_symmetry_space_group_name_H-M   'P 1'
_cell_length_a   6.15822468
_cell_length_b   6.68605705
_cell_length_c   7.30232943
_cell_angle_alpha   93.73149813
_cell_angle_beta   94.42030432
_cell_angle_gamma   94.24690560
_symmetry_Int_Tables_number   1
_chemical_formula_structural   Li2Mn2Sb4P3
_chemical_formula_sum   'Li2 Mn2 Sb4 P3'
_cell_volume   298.19180268
_cell_formula_units_Z   1
loop_
 _symmetry_equiv_pos_site_id
 _symmetry_equiv_pos_as_xyz
  1  'x, y, z'
loop_
 _atom_site_type_symbol
 _atom_site_label
 _atom_site_symmetry_multiplicity
 _atom_site_fract_x
 _atom_site_fract_y
 _atom_site_fract_z
 _atom_site_occupancy
  Mn  Mn0  1  0.00000000  0.00000000  0.00000000  1
  Mn  Mn1  1  0.50000000  0.50000000  0.50000000  1
  Sb  Sb2  1  0.50000000  0.50000000  0.00000000  1
  Sb  Sb3  1  0.50000000  0.00000000  0.50000000  1
  Sb  Sb4  1  0.00000000  0.50000000  0.50000000  1
  Sb  Sb5  1  0.97873583  0.00716531  0.86851904  1
  P  P6  1  0.32234878  0.06058199  0.95902353  1
  P  P7  1  0.90425607  0.88997051  0.51821101  1
  P  P8  1  0.42679919  0.12923580  0.98701938  1
  Li  Li9  1  0.58794503  0.77494607  0.13335137  1
  Li  Li10  1  0.88757210  0.12019537  0.68999422  1
