# generated using pymatgen
data_Li2Mn2Sb4P3
_symmetry_space_group_name_H-M   'P 1'
_cell_length_a   6.88544487
_cell_length_b   7.04220717
_cell_length_c   7.45250066
_cell_angle_alpha   93.25811897
_cell_angle_beta   91.70460573
_cell_angle_gamma   93.40803729
_symmetry_Int_Tables_number   1
_chemical_formula_structural   Li2Mn2Sb4P3
_chemical_formula_sum   'Li2 Mn2 Sb4 P3'
_cell_volume   359.94116863
_cell_formula_units_Z   1
loop_
 _symmetry_equiv_pos_site_id
 _symmetry_equiv_pos_as_xyz
  1  'x, y, z'
loop_
 _atom_site_type_symbol
 _atom_site_label
 _atom_site_symmetry_multiplicity
 _atom_site_fract_x
 _atom_site_fract_y
 _atom_site_fract_z
 _atom_site_occupancy
  Mn  Mn0  1  0.00000000  0.00000000  0.00000000  1
  Mn  Mn1  1  0.33300000  0.66700000  0.25000000  1
  Sb  Sb2  1  0.66700000  0.33300000  0.50000000  1
  Sb  Sb3  1  0.00000000  0.00000000  0.75000000  1
  Sb  Sb4  1  0.58548477  0.13818400  0.63381374  1
  Sb  Sb5  1  0.61446796  0.08266646  0.12173057  1
  P  P6  1  0.10962937  0.57075705  0.92390632  1
  P  P7  1  0.85070192  0.99202887  0.89078463  1
  P  P8  1  0.87238193  0.07309223  0.17961592  1
  Li  Li9  1  0.20558769  0.42540914  0.30515116  1
  Li  Li10  1  0.44533348  0.87120736  0.83254935  1
