# generated using pymatgen
data_LiMnSb2P
_symmetry_space_group_name_H-M   'P 1'
_cell_length_a   5.67931465
_cell_length_b   6.09502920
_cell_length_c   6.66422133
_cell_angle_alpha   98.20380088
_cell_angle_beta   92.56265012
_cell_angle_gamma   97.54127159
_symmetry_Int_Tables_number   1
_chemical_formula_structural   LiMnSb2P
_chemical_formula_sum   'Li2 Mn2 Sb4 P2'
_cell_volume   225.87681439
_cell_formula_units_Z   2
loop_
 _symmetry_equiv_pos_site_id
 _symmetry_equiv_pos_as_xyz
  1  'x, y, z'
loop_
 _atom_site_type_symbol
 _atom_site_label
 _atom_site_symmetry_multiplicity
 _atom_site_fract_x
 _atom_site_fract_y
 _atom_site_fract_z
 _atom_site_occupancy
  Mn  Mn0  1  0.00000000  0.00000000  0.00000000  1
  Mn  Mn1  1  0.50000000  0.50000000  0.50000000  1
  Sb  Sb2  1  0.50000000  0.50000000  0.00000000  1
  Sb  Sb3  1  0.50000000  0.00000000  0.50000000  1
  Sb  Sb4  1  0.00000000  0.50000000  0.50000000  1
  Sb  Sb5  1  0.89177120  0.50376435  0.25166828  1
  P  P6  1  0.22864534  0.70134289  0.55041761  1
  P  P7  1  0.32724330  0.86202278  0.46256552  1
  Li  Li8  1  0.17303611  0.77707791  0.82175861  1
  Li  Li9  1  0.64284842  0.80207288  0.26184096  1
