# generated using pymatgen
data_Li2Mn2Sb4P3
_symmetry_space_group_name_H-M   'P 1'
_cell_length_a   5.43450577
_cell_length_b   5.80606262
_cell_length_c   6.62938929
_cell_angle_alpha   98.95566606
_cell_angle_beta   92.08652280
_cell_angle_gamma   99.00580856
_symmetry_Int_Tables_number   1
_chemical_formula_structural   Li2Mn2Sb4P3
_chemical_formula_sum   'Li2 Mn2 Sb4 P3'
_cell_volume   203.68402212
_cell_formula_units_Z   1
loop_
 _symmetry_equiv_pos_site_id
 _symmetry_equiv_pos_as_xyz
  1  'x, y, z'
loop_
 _atom_site_type_symbol
 _atom_site_label
 _atom_site_symmetry_multiplicity
 _atom_site_fract_x
 _atom_site_fract_y
 _atom_site_fract_z
 _atom_site_occupancy
  Mn  Mn0  1  0.00000000  0.00000000  0.00000000  1
  Mn  Mn1  1  0.50000000  0.50000000  0.50000000  1
  Sb  Sb2  1  0.50000000  0.50000000  0.00000000  1
  Sb  Sb3  1  0.50000000  0.00000000  0.50000000  1
  Sb  Sb4  1  0.00000000  0.50000000  0.50000000  1
  Sb  Sb5  1  0.42098443  0.27377112  0.85480429  1
  P  P6  1  0.17096928  0.51530814  0.42092650  1
  P  P7  1  0.01063424  0.08368285  0.65806346  1
  P  P8  1  0.88172263  0.00626328  0.09122784  1
  Li  Li9  1  0.76548965  0.27065445  0.04111257  1
  Li  Li10  1  0.12251490  0.16853193  0.62394658  1
