# generated using pymatgen
data_Li2Mn2Sb4P2N
_symmetry_space_group_name_H-M   'P 1'
_cell_length_a   5.75578495
_cell_length_b   6.17515140
_cell_length_c   6.68213362
_cell_angle_alpha   98.01867667
_cell_angle_beta   91.98499006
_cell_angle_gamma   97.51357804
_symmetry_Int_Tables_number   1
_chemical_formula_structural   Li2Mn2Sb4P2N
_chemical_formula_sum   'Li2 Mn2 Sb4 P2 N1'
_cell_volume   232.82214143
_cell_formula_units_Z   1
loop_
 _symmetry_equiv_pos_site_id
 _symmetry_equiv_pos_as_xyz
  1  'x, y, z'
loop_
 _atom_site_type_symbol
 _atom_site_label
 _atom_site_symmetry_multiplicity
 _atom_site_fract_x
 _atom_site_fract_y
 _atom_site_fract_z
 _atom_site_occupancy
  N  N0  1  0.00000000  0.00000000  0.00000000  1
  Mn  Mn1  1  0.50000000  0.50000000  0.50000000  1
  Mn  Mn2  1  0.50000000  0.50000000  0.00000000  1
  Sb  Sb3  1  0.50000000  0.00000000  0.50000000  1
  Sb  Sb4  1  0.00000000  0.50000000  0.50000000  1
  Sb  Sb5  1  0.96426291  0.84223819  0.82047770  1
  Sb  Sb6  1  0.12089306  0.57689875  0.35796506  1
  P  P7  1  0.47843444  0.14807251  0.59170895  1
  P  P8  1  0.33935100  0.41672123  0.36032311  1
  Li  Li9  1  0.49806067  0.86364056  0.14481717  1
  Li  Li10  1  0.92931483  0.05918844  0.12192656  1
