# generated using pymatgen
data_Li3TaTiAs3O
_symmetry_space_group_name_H-M   'P 1'
_cell_length_a   6.31915248
_cell_length_b   5.94721989
_cell_length_c   8.15094101
_cell_angle_alpha   94.55924662
_cell_angle_beta   95.88060126
_cell_angle_gamma   91.05541402
_symmetry_Int_Tables_number   1
_chemical_formula_structural   Li3TaTiAs3O
_chemical_formula_sum   'Li3 Ta1 Ti1 As3 O1'
_cell_volume   303.63845912
_cell_formula_units_Z   1
loop_
 _symmetry_equiv_pos_site_id
 _symmetry_equiv_pos_as_xyz
  1  'x, y, z'
loop_
 _atom_site_type_symbol
 _atom_site_label
 _atom_site_symmetry_multiplicity
 _atom_site_fract_x
 _atom_site_fract_y
 _atom_site_fract_z
 _atom_site_occupancy
  Ti  Ti0  1  0.00000000  0.00000000  0.00000000  1
  Ta  Ta1  1  0.50000000  0.50000000  0.50000000  1
  As  As2  1  0.25000000  0.25000000  0.25000000  1
  As  As3  1  0.75000000  0.25000000  0.00000000  1
  As  As4  1  0.25000000  0.75000000  0.50000000  1
  O  O5  1  0.82841414  0.44803067  0.17319461  1
  Li  Li6  1  0.20400485  0.25038592  0.62412628  1
  Li  Li7  1  0.82972416  0.48583040  0.48258832  1
  Li  Li8  1  0.71056822  0.52922915  0.50947884  1
