# generated using pymatgen
data_LiNb2Ni2(As3O2)2
_symmetry_space_group_name_H-M   'P 1'
_cell_length_a   7.30347962
_cell_length_b   7.10535041
_cell_length_c   8.61495839
_cell_angle_alpha   90.49606731
_cell_angle_beta   92.36013761
_cell_angle_gamma   90.56713740
_symmetry_Int_Tables_number   1
_chemical_formula_structural   LiNb2Ni2(As3O2)2
_chemical_formula_sum   'Li1 Nb2 Ni2 As6 O4'
_cell_volume   446.64326843
_cell_formula_units_Z   1
loop_
 _symmetry_equiv_pos_site_id
 _symmetry_equiv_pos_as_xyz
  1  'x, y, z'
loop_
 _atom_site_type_symbol
 _atom_site_label
 _atom_site_symmetry_multiplicity
 _atom_site_fract_x
 _atom_site_fract_y
 _atom_site_fract_z
 _atom_site_occupancy
  Li  Li0  1  0.00000000  0.00000000  0.00000000  1
  Nb  Nb1  1  0.50000000  0.50000000  0.50000000  1
  Nb  Nb2  1  0.25000000  0.25000000  0.25000000  1
  Ni  Ni3  1  0.75000000  0.25000000  0.00000000  1
  Ni  Ni4  1  0.25000000  0.75000000  0.50000000  1
  As  As5  1  0.47553582  0.21563749  0.80547460  1
  As  As6  1  0.23490383  0.86952382  0.16999403  1
  As  As7  1  0.03784880  0.40094578  0.02303629  1
  As  As8  1  0.60562734  0.22213073  0.15778719  1
  As  As9  1  0.38456347  0.09046673  0.33228065  1
  As  As10  1  0.18046487  0.02937249  0.33752559  1
  O  O11  1  0.37134654  0.29921466  0.71023441  1
  O  O12  1  0.33965157  0.22170762  0.80142849  1
  O  O13  1  0.13319363  0.37381803  0.33657559  1
  O  O14  1  0.47956090  0.61542377  0.77472599  1
