# generated using pymatgen
data_Li3Ti3Cu2(NiO)2
_symmetry_space_group_name_H-M   'P 1'
_cell_length_a   6.43719285
_cell_length_b   6.49430502
_cell_length_c   7.85785200
_cell_angle_alpha   96.45453452
_cell_angle_beta   97.67599847
_cell_angle_gamma   98.11681627
_symmetry_Int_Tables_number   1
_chemical_formula_structural   Li3Ti3Cu2(NiO)2
_chemical_formula_sum   'Li3 Ti3 Cu2 Ni2 O2'
_cell_volume   319.39532409
_cell_formula_units_Z   1
loop_
 _symmetry_equiv_pos_site_id
 _symmetry_equiv_pos_as_xyz
  1  'x, y, z'
loop_
 _atom_site_type_symbol
 _atom_site_label
 _atom_site_symmetry_multiplicity
 _atom_site_fract_x
 _atom_site_fract_y
 _atom_site_fract_z
 _atom_site_occupancy
  Li  Li0  1  0.00000000  0.00000000  0.00000000  1
  Li  Li1  1  0.50000000  0.50000000  0.50000000  1
  Li  Li2  1  0.25000000  0.25000000  0.25000000  1
  Cu  Cu3  1  0.75000000  0.25000000  0.00000000  1
  Cu  Cu4  1  0.25000000  0.75000000  0.50000000  1
  Ni  Ni5  1  0.40488885  0.69224345  0.54323876  1
  Ni  Ni6  1  0.28055519  0.12908771  0.03853491  1
  Ti  Ti7  1  0.95558539  0.04653735  0.37481976  1
  Ti  Ti8  1  0.14455276  0.26433742  0.73539058  1
  Ti  Ti9  1  0.98018695  0.92220731  0.45439213  1
  O  O10  1  0.50936722  0.04081745  0.10254989  1
  O  O11  1  0.86859009  0.58306285  0.45236476  1
