# generated using pymatgen
data_Li2TiP6I4N5
_symmetry_space_group_name_H-M   'P 1'
_cell_length_a   8.22254131
_cell_length_b   7.94655433
_cell_length_c   8.03232825
_cell_angle_alpha   91.24825718
_cell_angle_beta   90.71560748
_cell_angle_gamma   91.44679260
_symmetry_Int_Tables_number   1
_chemical_formula_structural   Li2TiP6I4N5
_chemical_formula_sum   'Li2 Ti1 P6 I4 N5'
_cell_volume   524.50285403
_cell_formula_units_Z   1
loop_
 _symmetry_equiv_pos_site_id
 _symmetry_equiv_pos_as_xyz
  1  'x, y, z'
loop_
 _atom_site_type_symbol
 _atom_site_label
 _atom_site_symmetry_multiplicity
 _atom_site_fract_x
 _atom_site_fract_y
 _atom_site_fract_z
 _atom_site_occupancy
  P  P0  1  0.00000000  0.00000000  0.00000000  1
  P  P1  1  0.50000000  0.50000000  0.50000000  1
  P  P2  1  0.50000000  0.50000000  0.00000000  1
  P  P3  1  0.50000000  0.00000000  0.50000000  1
  P  P4  1  0.00000000  0.50000000  0.50000000  1
  P  P5  1  0.15525849  0.17087453  0.65306453  1
  I  I6  1  0.80893487  0.75297762  0.69030383  1
  I  I7  1  0.68372644  0.82598632  0.20019760  1
  I  I8  1  0.33257293  0.75062808  0.52661856  1
  I  I9  1  0.82111948  0.73871042  0.35518676  1
  Li  Li10  1  0.94685261  0.68091840  0.74978307  1
  Li  Li11  1  0.46429696  0.48643997  0.82918763  1
  Ti  Ti12  1  0.25912444  0.66122282  0.19682672  1
  N  N13  1  0.32394201  0.46291352  0.71587979  1
  N  N14  1  0.91919421  0.15740848  0.28491623  1
  N  N15  1  0.70244050  0.71809544  0.80030119  1
  N  N16  1  0.79848653  0.59584096  0.59002612  1
  N  N17  1  0.29009398  0.47061286  0.80336458  1
