# generated using pymatgen
data_Li2Ti(I2F)2
_symmetry_space_group_name_H-M   'P 1'
_cell_length_a   7.33704712
_cell_length_b   7.05550722
_cell_length_c   7.50068212
_cell_angle_alpha   94.45985174
_cell_angle_beta   96.25123342
_cell_angle_gamma   94.21244152
_symmetry_Int_Tables_number   1
_chemical_formula_structural   Li2Ti(I2F)2
_chemical_formula_sum   'Li2 Ti1 I4 F2'
_cell_volume   383.49031721
_cell_formula_units_Z   1
loop_
 _symmetry_equiv_pos_site_id
 _symmetry_equiv_pos_as_xyz
  1  'x, y, z'
loop_
 _atom_site_type_symbol
 _atom_site_label
 _atom_site_symmetry_multiplicity
 _atom_site_fract_x
 _atom_site_fract_y
 _atom_site_fract_z
 _atom_site_occupancy
  I  I0  1  0.00000000  0.00000000  0.00000000  1
  I  I1  1  0.50000000  0.50000000  0.50000000  1
  I  I2  1  0.50000000  0.50000000  0.00000000  1
  I  I3  1  0.50000000  0.00000000  0.50000000  1
  Li  Li4  1  0.00000000  0.50000000  0.50000000  1
  Li  Li5  1  0.00059396  0.65814873  0.50867906  1
  F  F6  1  0.44048779  0.26516425  0.42334321  1
  F  F7  1  0.60081917  0.88553371  0.94860347  1
  Ti  Ti8  1  0.21852510  0.41730455  0.77088181  1
