# generated using pymatgen
data_LiMn(Sb2P)2
_symmetry_space_group_name_H-M   'P 1'
_cell_length_a   5.23572160
_cell_length_b   5.53351909
_cell_length_c   6.42465403
_cell_angle_alpha   99.05759266
_cell_angle_beta   94.55355828
_cell_angle_gamma   98.02067232
_symmetry_Int_Tables_number   1
_chemical_formula_structural   LiMn(Sb2P)2
_chemical_formula_sum   'Li1 Mn1 Sb4 P2'
_cell_volume   181.03538001
_cell_formula_units_Z   1
loop_
 _symmetry_equiv_pos_site_id
 _symmetry_equiv_pos_as_xyz
  1  'x, y, z'
loop_
 _atom_site_type_symbol
 _atom_site_label
 _atom_site_symmetry_multiplicity
 _atom_site_fract_x
 _atom_site_fract_y
 _atom_site_fract_z
 _atom_site_occupancy
  Mn  Mn0  1  0.12500000  0.12500000  0.12500000  1
  Sb  Sb1  1  0.50000000  0.50000000  0.50000000  1
  Sb  Sb2  1  0.25000000  0.25000000  0.25000000  1
  Sb  Sb3  1  0.75000000  0.75000000  0.75000000  1
  Sb  Sb4  1  0.25555994  0.60542581  0.31274752  1
  P  P5  1  0.14289308  0.46782645  0.54470924  1
  P  P6  1  0.89640554  0.74387534  0.07269825  1
  Li  Li7  1  0.16954365  0.38927437  0.77501708  1
