# generated using pymatgen
data_Li4LuNi2P4N5
_symmetry_space_group_name_H-M   'P 1'
_cell_length_a   7.43249497
_cell_length_b   7.05219556
_cell_length_c   8.86811598
_cell_angle_alpha   93.49759716
_cell_angle_beta   91.23654746
_cell_angle_gamma   94.05678930
_symmetry_Int_Tables_number   1
_chemical_formula_structural   Li4LuNi2P4N5
_chemical_formula_sum   'Li4 Lu1 Ni2 P4 N5'
_cell_volume   462.64105756
_cell_formula_units_Z   1
loop_
 _symmetry_equiv_pos_site_id
 _symmetry_equiv_pos_as_xyz
  1  'x, y, z'
loop_
 _atom_site_type_symbol
 _atom_site_label
 _atom_site_symmetry_multiplicity
 _atom_site_fract_x
 _atom_site_fract_y
 _atom_site_fract_z
 _atom_site_occupancy
  P  P0  1  0.00000000  0.00000000  0.00000000  1
  P  P1  1  0.50000000  0.50000000  0.50000000  1
  P  P2  1  0.25000000  0.25000000  0.25000000  1
  P  P3  1  0.75000000  0.25000000  0.00000000  1
  Lu  Lu4  1  0.25000000  0.75000000  0.50000000  1
  Li  Li5  1  0.74367371  0.84427973  0.53426916  1
  Li  Li6  1  0.09478684  0.05532509  0.08851190  1
  Li  Li7  1  0.64016005  0.90279824  0.64232703  1
  Li  Li8  1  0.92573557  0.89613194  0.83835733  1
  Ni  Ni9  1  0.27203263  0.67776485  0.36660967  1
  Ni  Ni10  1  0.70280857  0.95210652  0.09948300  1
  N  N11  1  0.60956986  0.01866229  0.47265889  1
  N  N12  1  0.35659840  0.91923118  0.49491641  1
  N  N13  1  0.29653586  0.96396712  0.33753243  1
  N  N14  1  0.82211225  0.57637492  0.97841515  1
  N  N15  1  0.59744114  0.52512474  0.72802759  1
