# generated using pymatgen
data_LiMnSb4(MoP)2
_symmetry_space_group_name_H-M   'P 1'
_cell_length_a   5.05014319
_cell_length_b   5.29234214
_cell_length_c   6.45050913
_cell_angle_alpha   97.53297964
_cell_angle_beta   93.67786948
_cell_angle_gamma   97.67771358
_symmetry_Int_Tables_number   1
_chemical_formula_structural   LiMnSb4(MoP)2
_chemical_formula_sum   'Li1 Mn1 Sb4 Mo2 P2'
_cell_volume   168.79707120
_cell_formula_units_Z   1
loop_
 _symmetry_equiv_pos_site_id
 _symmetry_equiv_pos_as_xyz
  1  'x, y, z'
loop_
 _atom_site_type_symbol
 _atom_site_label
 _atom_site_symmetry_multiplicity
 _atom_site_fract_x
 _atom_site_fract_y
 _atom_site_fract_z
 _atom_site_occupancy
  Mn  Mn0  1  0.12500000  0.00000000  0.25000000  1
  Sb  Sb1  1  0.00000000  0.00000000  0.00000000  1
  Sb  Sb2  1  0.37500000  0.00000000  0.25000000  1
  Sb  Sb3  1  0.25000000  0.25000000  0.25000000  1
  Sb  Sb4  1  0.00000000  0.25000000  0.12500000  1
  P  P5  1  0.17075515  0.90701007  0.60489234  1
  P  P6  1  0.42066763  0.03051239  0.46458880  1
  Mo  Mo7  1  0.62172890  0.50187710  0.40071813  1
  Mo  Mo8  1  0.89024535  0.18194927  0.57792969  1
  Li  Li9  1  0.29892294  0.71266283  0.78505653  1
