# generated using pymatgen
data_Li2Mn2Sb4P3
_symmetry_space_group_name_H-M   'P 1'
_cell_length_a   5.97489106
_cell_length_b   6.42754515
_cell_length_c   6.87903094
_cell_angle_alpha   96.58683855
_cell_angle_beta   91.71284868
_cell_angle_gamma   96.64853813
_symmetry_Int_Tables_number   1
_chemical_formula_structural   Li2Mn2Sb4P3
_chemical_formula_sum   'Li2 Mn2 Sb4 P3'
_cell_volume   260.42316718
_cell_formula_units_Z   1
loop_
 _symmetry_equiv_pos_site_id
 _symmetry_equiv_pos_as_xyz
  1  'x, y, z'
loop_
 _atom_site_type_symbol
 _atom_site_label
 _atom_site_symmetry_multiplicity
 _atom_site_fract_x
 _atom_site_fract_y
 _atom_site_fract_z
 _atom_site_occupancy
  Mn  Mn0  1  0.12500000  0.00000000  0.25000000  1
  Mn  Mn1  1  0.00000000  0.00000000  0.00000000  1
  Sb  Sb2  1  0.37500000  0.00000000  0.25000000  1
  Sb  Sb3  1  0.25000000  0.25000000  0.25000000  1
  Sb  Sb4  1  0.00000000  0.25000000  0.12500000  1
  Sb  Sb5  1  0.10434165  0.56585052  0.67050375  1
  P  P6  1  0.65414344  0.63143703  0.17270637  1
  P  P7  1  0.86989692  0.62396857  0.53206275  1
  P  P8  1  0.62850670  0.73982490  0.31142986  1
  Li  Li9  1  0.91756924  0.83081735  0.00106072  1
  Li  Li10  1  0.17191024  0.00318267  0.72475394  1
