# generated using pymatgen
data_Li2Mn2Sb4P3
_symmetry_space_group_name_H-M   'P 1'
_cell_length_a   6.86882368
_cell_length_b   7.30825518
_cell_length_c   7.48781911
_cell_angle_alpha   92.09382824
_cell_angle_beta   92.48033302
_cell_angle_gamma   92.38303506
_symmetry_Int_Tables_number   1
_chemical_formula_structural   Li2Mn2Sb4P3
_chemical_formula_sum   'Li2 Mn2 Sb4 P3'
_cell_volume   374.92818803
_cell_formula_units_Z   1
loop_
 _symmetry_equiv_pos_site_id
 _symmetry_equiv_pos_as_xyz
  1  'x, y, z'
loop_
 _atom_site_type_symbol
 _atom_site_label
 _atom_site_symmetry_multiplicity
 _atom_site_fract_x
 _atom_site_fract_y
 _atom_site_fract_z
 _atom_site_occupancy
  Mn  Mn0  1  0.12500000  0.12500000  0.12500000  1
  Mn  Mn1  1  0.50000000  0.50000000  0.50000000  1
  Sb  Sb2  1  0.25000000  0.25000000  0.25000000  1
  Sb  Sb3  1  0.75000000  0.75000000  0.75000000  1
  Sb  Sb4  1  0.66890363  0.73931625  0.88204769  1
  Sb  Sb5  1  0.17719514  0.25381708  0.26257545  1
  P  P6  1  0.74934519  0.06050144  0.13948184  1
  P  P7  1  0.67086813  0.97769426  0.48635411  1
  P  P8  1  0.06063009  0.83426524  0.15124401  1
  Li  Li9  1  0.69103195  0.10560420  0.51753122  1
  Li  Li10  1  0.55881869  0.65405988  0.35735734  1
