# generated using pymatgen
data_Li3ZrP8O3
_symmetry_space_group_name_H-M   'P 1'
_cell_length_a   7.97913774
_cell_length_b   7.96512406
_cell_length_c   7.67941512
_cell_angle_alpha   92.92940601
_cell_angle_beta   93.74017866
_cell_angle_gamma   92.75573877
_symmetry_Int_Tables_number   1
_chemical_formula_structural   Li3ZrP8O3
_chemical_formula_sum   'Li3 Zr1 P8 O3'
_cell_volume   485.74025422
_cell_formula_units_Z   1
loop_
 _symmetry_equiv_pos_site_id
 _symmetry_equiv_pos_as_xyz
  1  'x, y, z'
loop_
 _atom_site_type_symbol
 _atom_site_label
 _atom_site_symmetry_multiplicity
 _atom_site_fract_x
 _atom_site_fract_y
 _atom_site_fract_z
 _atom_site_occupancy
  P  P0  1  0.12500000  0.00000000  0.25000000  1
  P  P1  1  0.00000000  0.00000000  0.00000000  1
  P  P2  1  0.37500000  0.00000000  0.25000000  1
  P  P3  1  0.25000000  0.25000000  0.25000000  1
  P  P4  1  0.00000000  0.25000000  0.12500000  1
  P  P5  1  0.29554120  0.24647109  0.94071843  1
  P  P6  1  0.26248307  0.83914547  0.24402574  1
  P  P7  1  0.24514625  0.99518025  0.17057796  1
  Li  Li8  1  0.46416810  0.33615454  0.02477045  1
  Li  Li9  1  0.56269978  0.43971576  0.38799324  1
  Li  Li10  1  0.02935016  0.74782108  0.88837913  1
  O  O11  1  0.55652618  0.66551776  0.67163780  1
  O  O12  1  0.97589484  0.25271078  0.05072545  1
  O  O13  1  0.95416925  0.54708817  0.78236322  1
  Zr  Zr14  1  0.34945349  0.28731983  0.16964753  1
