# generated using pymatgen
data_Li2Sb4Mo2P3N
_symmetry_space_group_name_H-M   'P 1'
_cell_length_a   4.04164638
_cell_length_b   4.25407282
_cell_length_c   6.08503237
_cell_angle_alpha   101.76814163
_cell_angle_beta   96.63724472
_cell_angle_gamma   101.49667380
_symmetry_Int_Tables_number   1
_chemical_formula_structural   Li2Sb4Mo2P3N
_chemical_formula_sum   'Li2 Sb4 Mo2 P3 N1'
_cell_volume   99.02876424
_cell_formula_units_Z   1
loop_
 _symmetry_equiv_pos_site_id
 _symmetry_equiv_pos_as_xyz
  1  'x, y, z'
loop_
 _atom_site_type_symbol
 _atom_site_label
 _atom_site_symmetry_multiplicity
 _atom_site_fract_x
 _atom_site_fract_y
 _atom_site_fract_z
 _atom_site_occupancy
  N  N0  1  0.12500000  0.00000000  0.25000000  1
  Sb  Sb1  1  0.00000000  0.00000000  0.00000000  1
  Sb  Sb2  1  0.37500000  0.00000000  0.25000000  1
  Sb  Sb3  1  0.25000000  0.25000000  0.25000000  1
  Sb  Sb4  1  0.00000000  0.25000000  0.12500000  1
  P  P5  1  0.27299618  0.92437005  0.91701167  1
  P  P6  1  0.43430983  0.76360641  0.13151857  1
  P  P7  1  0.79177699  0.37463360  0.42563356  1
  Mo  Mo8  1  0.11452515  0.22358770  0.39607732  1
  Mo  Mo9  1  0.28912896  0.42323790  0.15681327  1
  Li  Li10  1  0.38674135  0.61325186  0.14227526  1
  Li  Li11  1  0.57757771  0.82362601  0.52167478  1
