# generated using pymatgen
data_Li2TiAs6(I2O)2
_symmetry_space_group_name_H-M   'P 1'
_cell_length_a   7.82117782
_cell_length_b   7.83755388
_cell_length_c   7.78011883
_cell_angle_alpha   90.33398915
_cell_angle_beta   91.58901894
_cell_angle_gamma   90.38183878
_symmetry_Int_Tables_number   1
_chemical_formula_structural   Li2TiAs6(I2O)2
_chemical_formula_sum   'Li2 Ti1 As6 I4 O2'
_cell_volume   476.71013370
_cell_formula_units_Z   1
loop_
 _symmetry_equiv_pos_site_id
 _symmetry_equiv_pos_as_xyz
  1  'x, y, z'
loop_
 _atom_site_type_symbol
 _atom_site_label
 _atom_site_symmetry_multiplicity
 _atom_site_fract_x
 _atom_site_fract_y
 _atom_site_fract_z
 _atom_site_occupancy
  Li  Li0  1  0.00000000  0.00000000  0.00000000  1
  Li  Li1  1  0.50000000  0.50000000  0.50000000  1
  Ti  Ti2  1  0.50000000  0.50000000  0.00000000  1
  I  I3  1  0.50000000  0.00000000  0.50000000  1
  I  I4  1  0.00000000  0.50000000  0.50000000  1
  I  I5  1  0.46871815  0.34808399  0.01556637  1
  I  I6  1  0.63100902  0.30394073  0.15785029  1
  As  As7  1  0.00697650  0.53660973  0.81044460  1
  As  As8  1  0.14892936  0.18177591  0.21901109  1
  As  As9  1  0.58614401  0.51395525  0.28714821  1
  As  As10  1  0.38270246  0.17929809  0.30358836  1
  As  As11  1  0.87505932  0.61080398  0.65434055  1
  As  As12  1  0.29641092  0.27851931  0.66947575  1
  O  O13  1  0.88580520  0.73803662  0.87765012  1
  O  O14  1  0.81415059  0.06975869  0.70418483  1
