# generated using pymatgen
data_Li2Cu2As6P5
_symmetry_space_group_name_H-M   'P 1'
_cell_length_a   7.59495329
_cell_length_b   7.53214353
_cell_length_c   7.78170129
_cell_angle_alpha   90.38748749
_cell_angle_beta   92.01388232
_cell_angle_gamma   90.43721783
_symmetry_Int_Tables_number   1
_chemical_formula_structural   Li2Cu2As6P5
_chemical_formula_sum   'Li2 Cu2 As6 P5'
_cell_volume   444.86324787
_cell_formula_units_Z   1
loop_
 _symmetry_equiv_pos_site_id
 _symmetry_equiv_pos_as_xyz
  1  'x, y, z'
loop_
 _atom_site_type_symbol
 _atom_site_label
 _atom_site_symmetry_multiplicity
 _atom_site_fract_x
 _atom_site_fract_y
 _atom_site_fract_z
 _atom_site_occupancy
  P  P0  1  0.12500000  0.12500000  0.12500000  1
  P  P1  1  0.50000000  0.50000000  0.50000000  1
  P  P2  1  0.25000000  0.25000000  0.25000000  1
  P  P3  1  0.75000000  0.75000000  0.75000000  1
  P  P4  1  0.35787883  0.35638557  0.25434431  1
  Li  Li5  1  0.34349550  0.92354919  0.72707112  1
  Li  Li6  1  0.15369010  0.22896239  0.43666127  1
  Cu  Cu7  1  0.88138872  0.19899752  0.99584215  1
  Cu  Cu8  1  0.81114405  0.87579024  0.39448504  1
  As  As9  1  0.70832577  0.78488139  0.96137630  1
  As  As10  1  0.61026561  0.22573336  0.63720024  1
  As  As11  1  0.57332230  0.84550416  0.21572937  1
  As  As12  1  0.19704823  0.40479908  0.45228231  1
  As  As13  1  0.37716654  0.02623107  0.87969809  1
  As  As14  1  0.47839994  0.34209184  0.48174014  1
