# generated using pymatgen
data_Li2LuCu2(NiAs3)2
_symmetry_space_group_name_H-M   'P 1'
_cell_length_a   7.45536310
_cell_length_b   7.40270744
_cell_length_c   8.61971326
_cell_angle_alpha   91.77929303
_cell_angle_beta   91.84266110
_cell_angle_gamma   92.05918694
_symmetry_Int_Tables_number   1
_chemical_formula_structural   Li2LuCu2(NiAs3)2
_chemical_formula_sum   'Li2 Lu1 Cu2 Ni2 As6'
_cell_volume   474.92078174
_cell_formula_units_Z   1
loop_
 _symmetry_equiv_pos_site_id
 _symmetry_equiv_pos_as_xyz
  1  'x, y, z'
loop_
 _atom_site_type_symbol
 _atom_site_label
 _atom_site_symmetry_multiplicity
 _atom_site_fract_x
 _atom_site_fract_y
 _atom_site_fract_z
 _atom_site_occupancy
  Ni  Ni0  1  0.12500000  0.00000000  0.25000000  1
  Ni  Ni1  1  0.00000000  0.00000000  0.00000000  1
  Lu  Lu2  1  0.37500000  0.00000000  0.25000000  1
  As  As3  1  0.25000000  0.25000000  0.25000000  1
  As  As4  1  0.00000000  0.25000000  0.12500000  1
  As  As5  1  0.76681926  0.91475387  0.36465491  1
  As  As6  1  0.37266605  0.89728114  0.05879292  1
  As  As7  1  0.49731898  0.72521093  0.35244896  1
  As  As8  1  0.83456451  0.47200318  0.11707207  1
  Li  Li9  1  0.20686951  0.27942880  0.66428677  1
  Li  Li10  1  0.22680673  0.43342845  0.54057553  1
  Cu  Cu11  1  0.78392965  0.34226700  0.75000821  1
  Cu  Cu12  1  0.53277037  0.38109331  0.89058798  1
