# generated using pymatgen
data_LiMn2Sb4P3
_symmetry_space_group_name_H-M   'P 1'
_cell_length_a   4.28089619
_cell_length_b   4.41828945
_cell_length_c   5.86155626
_cell_angle_alpha   103.72237175
_cell_angle_beta   91.47163896
_cell_angle_gamma   103.46316444
_symmetry_Int_Tables_number   1
_chemical_formula_structural   LiMn2Sb4P3
_chemical_formula_sum   'Li1 Mn2 Sb4 P3'
_cell_volume   104.35784356
_cell_formula_units_Z   1
loop_
 _symmetry_equiv_pos_site_id
 _symmetry_equiv_pos_as_xyz
  1  'x, y, z'
loop_
 _atom_site_type_symbol
 _atom_site_label
 _atom_site_symmetry_multiplicity
 _atom_site_fract_x
 _atom_site_fract_y
 _atom_site_fract_z
 _atom_site_occupancy
  Mn  Mn0  1  0.00000000  0.00000000  0.00000000  1
  Mn  Mn1  1  0.33300000  0.66700000  0.25000000  1
  Sb  Sb2  1  0.66700000  0.33300000  0.50000000  1
  Sb  Sb3  1  0.00000000  0.00000000  0.75000000  1
  Sb  Sb4  1  0.18330857  0.47064107  0.54687577  1
  Sb  Sb5  1  0.34122381  0.03533322  0.34915974  1
  P  P6  1  0.73585489  0.19908654  0.47960564  1
  P  P7  1  0.22726552  0.55990067  0.08723300  1
  P  P8  1  0.60686822  0.73497115  0.24473425  1
  Li  Li9  1  0.61511904  0.66421431  0.15493383  1
