# generated using pymatgen
data_Li3Ti2O2
_symmetry_space_group_name_H-M   'P 1'
_cell_length_a   6.73608060
_cell_length_b   6.85250220
_cell_length_c   7.00855716
_cell_angle_alpha   95.37938708
_cell_angle_beta   97.72625489
_cell_angle_gamma   96.90420260
_symmetry_Int_Tables_number   1
_chemical_formula_structural   Li3Ti2O2
_chemical_formula_sum   'Li3 Ti2 O2'
_cell_volume   316.25391586
_cell_formula_units_Z   1
loop_
 _symmetry_equiv_pos_site_id
 _symmetry_equiv_pos_as_xyz
  1  'x, y, z'
loop_
 _atom_site_type_symbol
 _atom_site_label
 _atom_site_symmetry_multiplicity
 _atom_site_fract_x
 _atom_site_fract_y
 _atom_site_fract_z
 _atom_site_occupancy
  Li  Li0  1  0.12500000  0.00000000  0.25000000  1
  Li  Li1  1  0.00000000  0.00000000  0.00000000  1
  Li  Li2  1  0.37500000  0.00000000  0.25000000  1
  Ti  Ti3  1  0.25000000  0.25000000  0.25000000  1
  Ti  Ti4  1  0.00000000  0.25000000  0.12500000  1
  O  O5  1  0.20234427  0.61192239  0.63838036  1
  O  O6  1  0.77993491  0.91115635  0.10249982  1
