# generated using pymatgen
data_Li2TiP6(O2F)2
_symmetry_space_group_name_H-M   'P 1'
_cell_length_a   8.58952206
_cell_length_b   8.35115523
_cell_length_c   7.66461296
_cell_angle_alpha   90.10874914
_cell_angle_beta   90.51739538
_cell_angle_gamma   90.12432931
_symmetry_Int_Tables_number   1
_chemical_formula_structural   Li2TiP6(O2F)2
_chemical_formula_sum   'Li2 Ti1 P6 O4 F2'
_cell_volume   549.77660664
_cell_formula_units_Z   1
loop_
 _symmetry_equiv_pos_site_id
 _symmetry_equiv_pos_as_xyz
  1  'x, y, z'
loop_
 _atom_site_type_symbol
 _atom_site_label
 _atom_site_symmetry_multiplicity
 _atom_site_fract_x
 _atom_site_fract_y
 _atom_site_fract_z
 _atom_site_occupancy
  P  P0  1  0.00000000  0.00000000  0.00000000  1
  P  P1  1  0.50000000  0.50000000  0.50000000  1
  P  P2  1  0.50000000  0.50000000  0.00000000  1
  P  P3  1  0.50000000  0.00000000  0.50000000  1
  P  P4  1  0.00000000  0.50000000  0.50000000  1
  P  P5  1  0.13018823  0.19078575  0.77387165  1
  Li  Li6  1  0.43632688  0.12395764  0.13936553  1
  Li  Li7  1  0.92677097  0.92915341  0.61185282  1
  F  F8  1  0.34192358  0.51334543  0.63160727  1
  F  F9  1  0.68548431  0.26511866  0.39782905  1
  Ti  Ti10  1  0.62286106  0.83713129  0.57101382  1
  O  O11  1  0.16858259  0.13242922  0.86411441  1
  O  O12  1  0.11417156  0.37464527  0.64848937  1
  O  O13  1  0.79808722  0.87261585  0.62938556  1
  O  O14  1  0.50270044  0.66473375  0.14754475  1
