# generated using pymatgen
data_LiMnSb4P3
_symmetry_space_group_name_H-M   'P 1'
_cell_length_a   5.47263198
_cell_length_b   5.85014221
_cell_length_c   6.65207065
_cell_angle_alpha   95.19872408
_cell_angle_beta   93.73786338
_cell_angle_gamma   95.39044408
_symmetry_Int_Tables_number   1
_chemical_formula_structural   LiMnSb4P3
_chemical_formula_sum   'Li1 Mn1 Sb4 P3'
_cell_volume   210.57227159
_cell_formula_units_Z   1
loop_
 _symmetry_equiv_pos_site_id
 _symmetry_equiv_pos_as_xyz
  1  'x, y, z'
loop_
 _atom_site_type_symbol
 _atom_site_label
 _atom_site_symmetry_multiplicity
 _atom_site_fract_x
 _atom_site_fract_y
 _atom_site_fract_z
 _atom_site_occupancy
  Mn  Mn0  1  0.12500000  0.12500000  0.12500000  1
  Sb  Sb1  1  0.50000000  0.50000000  0.50000000  1
  Sb  Sb2  1  0.25000000  0.25000000  0.25000000  1
  Sb  Sb3  1  0.75000000  0.75000000  0.75000000  1
  Sb  Sb4  1  0.86359600  0.66706943  0.21380300  1
  P  P5  1  0.72027537  0.31520923  0.21429591  1
  P  P6  1  0.63093645  0.45050908  0.50109279  1
  P  P7  1  0.69545100  0.32058433  0.11345974  1
  Li  Li8  1  0.06289374  0.40311282  0.79800256  1
