# generated using pymatgen
data_LiMn2(MoP)2
_symmetry_space_group_name_H-M   'P 1'
_cell_length_a   4.00460780
_cell_length_b   4.24095492
_cell_length_c   6.26860402
_cell_angle_alpha   102.37227318
_cell_angle_beta   97.15541716
_cell_angle_gamma   102.47125329
_symmetry_Int_Tables_number   1
_chemical_formula_structural   LiMn2(MoP)2
_chemical_formula_sum   'Li1 Mn2 Mo2 P2'
_cell_volume   99.89371317
_cell_formula_units_Z   1
loop_
 _symmetry_equiv_pos_site_id
 _symmetry_equiv_pos_as_xyz
  1  'x, y, z'
loop_
 _atom_site_type_symbol
 _atom_site_label
 _atom_site_symmetry_multiplicity
 _atom_site_fract_x
 _atom_site_fract_y
 _atom_site_fract_z
 _atom_site_occupancy
  Mn  Mn0  1  0.00000000  0.00000000  0.00000000  1
  Mn  Mn1  1  0.50000000  0.50000000  0.50000000  1
  P  P2  1  0.25000000  0.25000000  0.25000000  1
  P  P3  1  0.75000000  0.25000000  0.00000000  1
  Mo  Mo4  1  0.25000000  0.75000000  0.50000000  1
  Mo  Mo5  1  0.56197963  0.54153838  0.27781466  1
  Li  Li6  1  0.17738037  0.40922180  0.22350464  1
