# generated using pymatgen
data_Li2Ni2As6O7
_symmetry_space_group_name_H-M   'P 1'
_cell_length_a   8.00943126
_cell_length_b   7.98853836
_cell_length_c   9.20864311
_cell_angle_alpha   90.17491204
_cell_angle_beta   90.83217837
_cell_angle_gamma   90.19997117
_symmetry_Int_Tables_number   1
_chemical_formula_structural   Li2Ni2As6O7
_chemical_formula_sum   'Li2 Ni2 As6 O7'
_cell_volume   589.13401478
_cell_formula_units_Z   1
loop_
 _symmetry_equiv_pos_site_id
 _symmetry_equiv_pos_as_xyz
  1  'x, y, z'
loop_
 _atom_site_type_symbol
 _atom_site_label
 _atom_site_symmetry_multiplicity
 _atom_site_fract_x
 _atom_site_fract_y
 _atom_site_fract_z
 _atom_site_occupancy
  Ni  Ni0  1  0.00000000  0.00000000  0.00000000  1
  Ni  Ni1  1  0.50000000  0.50000000  0.50000000  1
  O  O2  1  0.50000000  0.50000000  0.00000000  1
  O  O3  1  0.50000000  0.00000000  0.50000000  1
  O  O4  1  0.00000000  0.50000000  0.50000000  1
  O  O5  1  0.95408968  0.43534684  0.55418434  1
  O  O6  1  0.83219110  0.44468324  0.62307636  1
  O  O7  1  0.33084519  0.62181342  0.58230381  1
  O  O8  1  0.19979254  0.65693205  0.47511874  1
  As  As9  1  0.82226798  0.51015028  0.49419507  1
  As  As10  1  0.35806713  0.31212694  0.53684801  1
  As  As11  1  0.87616472  0.32461556  0.01828745  1
  As  As12  1  0.42779703  0.30918064  0.16646759  1
  As  As13  1  0.97898412  0.46358258  0.92230480  1
  As  As14  1  0.89628521  0.52478755  0.55280559  1
  Li  Li15  1  0.08481504  0.26577105  0.63116877  1
  Li  Li16  1  0.39536461  0.33163981  0.77794988  1
