# generated using pymatgen
data_LiTi2O3F2
_symmetry_space_group_name_H-M   'P 1'
_cell_length_a   6.00183254
_cell_length_b   5.90615599
_cell_length_c   7.42972734
_cell_angle_alpha   91.37867137
_cell_angle_beta   96.55929966
_cell_angle_gamma   91.57618951
_symmetry_Int_Tables_number   1
_chemical_formula_structural   LiTi2O3F2
_chemical_formula_sum   'Li1 Ti2 O3 F2'
_cell_volume   261.44609178
_cell_formula_units_Z   1
loop_
 _symmetry_equiv_pos_site_id
 _symmetry_equiv_pos_as_xyz
  1  'x, y, z'
loop_
 _atom_site_type_symbol
 _atom_site_label
 _atom_site_symmetry_multiplicity
 _atom_site_fract_x
 _atom_site_fract_y
 _atom_site_fract_z
 _atom_site_occupancy
  Li  Li0  1  0.00000000  0.00000000  0.00000000  1
  F  F1  1  0.50000000  0.50000000  0.50000000  1
  F  F2  1  0.25000000  0.25000000  0.25000000  1
  Ti  Ti3  1  0.75000000  0.25000000  0.00000000  1
  Ti  Ti4  1  0.25000000  0.75000000  0.50000000  1
  O  O5  1  0.72621552  0.33003423  0.94747985  1
  O  O6  1  0.62970228  0.38286938  0.64642581  1
  O  O7  1  0.91731923  0.57452448  0.07594775  1
