# generated using pymatgen
data_Li2Mn2Sb4Mo2P3
_symmetry_space_group_name_H-M   'P 1'
_cell_length_a   5.57437329
_cell_length_b   6.01402335
_cell_length_c   7.02861554
_cell_angle_alpha   96.31505303
_cell_angle_beta   94.79061879
_cell_angle_gamma   96.81267071
_symmetry_Int_Tables_number   1
_chemical_formula_structural   Li2Mn2Sb4Mo2P3
_chemical_formula_sum   'Li2 Mn2 Sb4 Mo2 P3'
_cell_volume   231.43100193
_cell_formula_units_Z   1
loop_
 _symmetry_equiv_pos_site_id
 _symmetry_equiv_pos_as_xyz
  1  'x, y, z'
loop_
 _atom_site_type_symbol
 _atom_site_label
 _atom_site_symmetry_multiplicity
 _atom_site_fract_x
 _atom_site_fract_y
 _atom_site_fract_z
 _atom_site_occupancy
  Mn  Mn0  1  0.00000000  0.00000000  0.00000000  1
  Mn  Mn1  1  0.50000000  0.50000000  0.50000000  1
  Sb  Sb2  1  0.25000000  0.25000000  0.25000000  1
  Sb  Sb3  1  0.75000000  0.25000000  0.00000000  1
  Sb  Sb4  1  0.25000000  0.75000000  0.50000000  1
  Sb  Sb5  1  0.40077165  0.84638371  0.31904715  1
  P  P6  1  0.81321461  0.58906423  0.39474612  1
  P  P7  1  0.46401548  0.09714833  0.15365215  1
  P  P8  1  0.19127929  0.19609089  0.11955879  1
  Mo  Mo9  1  0.38278233  0.70299834  0.38558825  1
  Mo  Mo10  1  0.70608450  0.99449200  0.95203227  1
  Li  Li11  1  0.64723301  0.81793687  0.97113146  1
  Li  Li12  1  0.73254445  0.61468709  0.97513776  1
