# generated using pymatgen
data_LiSb3Se2O
_symmetry_space_group_name_H-M   'P 1'
_cell_length_a   8.42296362
_cell_length_b   8.07096908
_cell_length_c   6.99284489
_cell_angle_alpha   90.00000000
_cell_angle_beta   90.00000000
_cell_angle_gamma   90.00000000
_symmetry_Int_Tables_number   1
_chemical_formula_structural   LiSb3Se2O
_chemical_formula_sum   'Li1 Sb3 Se2 O1'
_cell_volume   475.38393790
_cell_formula_units_Z   1
loop_
 _symmetry_equiv_pos_site_id
 _symmetry_equiv_pos_as_xyz
  1  'x, y, z'
loop_
 _atom_site_type_symbol
 _atom_site_label
 _atom_site_symmetry_multiplicity
 _atom_site_fract_x
 _atom_site_fract_y
 _atom_site_fract_z
 _atom_site_occupancy
  Sb  Sb0  1  0.00000000  0.00000000  0.00000000  1
  Sb  Sb1  1  0.33300000  0.66700000  0.25000000  1
  Sb  Sb2  1  0.66700000  0.33300000  0.50000000  1
  Li  Li3  1  0.00000000  0.00000000  0.75000000  1
  Se  Se4  1  0.62754621  0.62942479  0.51979111  1
  Se  Se5  1  0.35144257  0.83925322  0.29693449  1
  O  O6  1  0.12944851  0.88550832  0.22696567  1
