# generated using pymatgen
data_LiMn(Sb2P)2
_symmetry_space_group_name_H-M   'P 1'
_cell_length_a   4.99153343
_cell_length_b   5.24454791
_cell_length_c   6.30860479
_cell_angle_alpha   98.08944038
_cell_angle_beta   94.28505061
_cell_angle_gamma   97.19872608
_symmetry_Int_Tables_number   1
_chemical_formula_structural   LiMn(Sb2P)2
_chemical_formula_sum   'Li1 Mn1 Sb4 P2'
_cell_volume   161.49805624
_cell_formula_units_Z   1
loop_
 _symmetry_equiv_pos_site_id
 _symmetry_equiv_pos_as_xyz
  1  'x, y, z'
loop_
 _atom_site_type_symbol
 _atom_site_label
 _atom_site_symmetry_multiplicity
 _atom_site_fract_x
 _atom_site_fract_y
 _atom_site_fract_z
 _atom_site_occupancy
  Mn  Mn0  1  0.00000000  0.00000000  0.00000000  1
  Sb  Sb1  1  0.33300000  0.66700000  0.25000000  1
  Sb  Sb2  1  0.66700000  0.33300000  0.50000000  1
  Sb  Sb3  1  0.00000000  0.00000000  0.75000000  1
  Sb  Sb4  1  0.81143356  0.13734752  0.65528765  1
  P  P5  1  0.51427638  0.60858940  0.34791712  1
  P  P6  1  0.98270994  0.96566687  0.88659638  1
  Li  Li7  1  0.78759884  0.34747835  0.29938240  1
