# generated using pymatgen
data_Li4Zr(CuO)2
_symmetry_space_group_name_H-M   'P 1'
_cell_length_a   5.80662634
_cell_length_b   6.09286897
_cell_length_c   7.26893159
_cell_angle_alpha   99.69549800
_cell_angle_beta   102.93234526
_cell_angle_gamma   101.58720585
_symmetry_Int_Tables_number   1
_chemical_formula_structural   Li4Zr(CuO)2
_chemical_formula_sum   'Li4 Zr1 Cu2 O2'
_cell_volume   239.32696905
_cell_formula_units_Z   1
loop_
 _symmetry_equiv_pos_site_id
 _symmetry_equiv_pos_as_xyz
  1  'x, y, z'
loop_
 _atom_site_type_symbol
 _atom_site_label
 _atom_site_symmetry_multiplicity
 _atom_site_fract_x
 _atom_site_fract_y
 _atom_site_fract_z
 _atom_site_occupancy
  Li  Li0  1  0.12500000  0.12500000  0.12500000  1
  Li  Li1  1  0.50000000  0.50000000  0.50000000  1
  Li  Li2  1  0.25000000  0.25000000  0.25000000  1
  Li  Li3  1  0.75000000  0.75000000  0.75000000  1
  Cu  Cu4  1  0.77573740  0.84730005  0.05070376  1
  Cu  Cu5  1  0.05696725  0.59452682  0.04345952  1
  O  O6  1  0.85326031  0.45208692  0.81013495  1
  O  O7  1  0.08648679  0.01422154  0.06610541  1
  Zr  Zr8  1  0.75049578  0.54066014  0.72340209  1
