# generated using pymatgen
data_Li2Mn2Sb4P3
_symmetry_space_group_name_H-M   'P 1'
_cell_length_a   7.06716056
_cell_length_b   7.56547281
_cell_length_c   7.32582561
_cell_angle_alpha   92.67704681
_cell_angle_beta   91.12531911
_cell_angle_gamma   92.81609776
_symmetry_Int_Tables_number   1
_chemical_formula_structural   Li2Mn2Sb4P3
_chemical_formula_sum   'Li2 Mn2 Sb4 P3'
_cell_volume   390.69120145
_cell_formula_units_Z   1
loop_
 _symmetry_equiv_pos_site_id
 _symmetry_equiv_pos_as_xyz
  1  'x, y, z'
loop_
 _atom_site_type_symbol
 _atom_site_label
 _atom_site_symmetry_multiplicity
 _atom_site_fract_x
 _atom_site_fract_y
 _atom_site_fract_z
 _atom_site_occupancy
  Mn  Mn0  1  0.00000000  0.00000000  0.00000000  1
  Mn  Mn1  1  0.50000000  0.50000000  0.50000000  1
  Sb  Sb2  1  0.50000000  0.50000000  0.00000000  1
  Sb  Sb3  1  0.50000000  0.00000000  0.50000000  1
  Sb  Sb4  1  0.00000000  0.50000000  0.50000000  1
  Sb  Sb5  1  0.20443242  0.72432114  0.88041478  1
  P  P6  1  0.14780859  0.41534626  0.86552566  1
  P  P7  1  0.77576430  0.91533325  0.81235460  1
  P  P8  1  0.17501454  0.36061110  0.23942144  1
  Li  Li9  1  0.68588195  0.71185615  0.49180975  1
  Li  Li10  1  0.30316214  0.80771659  0.40923976  1
