# generated using pymatgen
data_Li3ZrTi(P4O)2
_symmetry_space_group_name_H-M   'P 1'
_cell_length_a   7.62256011
_cell_length_b   7.59954207
_cell_length_c   7.67989595
_cell_angle_alpha   92.67050855
_cell_angle_beta   93.87768153
_cell_angle_gamma   92.53942542
_symmetry_Int_Tables_number   1
_chemical_formula_structural   Li3ZrTi(P4O)2
_chemical_formula_sum   'Li3 Zr1 Ti1 P8 O2'
_cell_volume   442.87727915
_cell_formula_units_Z   1
loop_
 _symmetry_equiv_pos_site_id
 _symmetry_equiv_pos_as_xyz
  1  'x, y, z'
loop_
 _atom_site_type_symbol
 _atom_site_label
 _atom_site_symmetry_multiplicity
 _atom_site_fract_x
 _atom_site_fract_y
 _atom_site_fract_z
 _atom_site_occupancy
  P  P0  1  0.00000000  0.00000000  0.00000000  1
  P  P1  1  0.50000000  0.50000000  0.50000000  1
  P  P2  1  0.25000000  0.25000000  0.25000000  1
  P  P3  1  0.75000000  0.25000000  0.00000000  1
  P  P4  1  0.25000000  0.75000000  0.50000000  1
  P  P5  1  0.52447064  0.57669822  0.87998219  1
  P  P6  1  0.64220677  0.39397798  0.37047439  1
  P  P7  1  0.82225597  0.87994224  0.21326500  1
  Li  Li8  1  0.11118381  0.39520196  0.27405335  1
  Li  Li9  1  0.61407666  0.72379074  0.35931407  1
  Li  Li10  1  0.43598695  0.44733335  0.73014048  1
  Ti  Ti11  1  0.11561640  0.56444840  0.45529767  1
  O  O12  1  0.66640643  0.08221046  0.03350280  1
  O  O13  1  0.22326421  0.73351181  0.28148606  1
  Zr  Zr14  1  0.70072329  0.83509457  0.03183184  1
