# generated using pymatgen
data_Li3Ti2Cu2P5O
_symmetry_space_group_name_H-M   'P 1'
_cell_length_a   6.39815595
_cell_length_b   6.53433770
_cell_length_c   7.01703587
_cell_angle_alpha   95.83682342
_cell_angle_beta   98.54760116
_cell_angle_gamma   97.48436518
_symmetry_Int_Tables_number   1
_chemical_formula_structural   Li3Ti2Cu2P5O
_chemical_formula_sum   'Li3 Ti2 Cu2 P5 O1'
_cell_volume   285.43531561
_cell_formula_units_Z   1
loop_
 _symmetry_equiv_pos_site_id
 _symmetry_equiv_pos_as_xyz
  1  'x, y, z'
loop_
 _atom_site_type_symbol
 _atom_site_label
 _atom_site_symmetry_multiplicity
 _atom_site_fract_x
 _atom_site_fract_y
 _atom_site_fract_z
 _atom_site_occupancy
  P  P0  1  0.12500000  0.00000000  0.25000000  1
  P  P1  1  0.00000000  0.00000000  0.00000000  1
  P  P2  1  0.37500000  0.00000000  0.25000000  1
  P  P3  1  0.25000000  0.25000000  0.25000000  1
  P  P4  1  0.00000000  0.25000000  0.12500000  1
  Li  Li5  1  0.89526627  0.50340385  0.95035752  1
  Li  Li6  1  0.15042154  0.83547390  0.23964190  1
  Li  Li7  1  0.87666716  0.30735725  0.06081590  1
  Cu  Cu8  1  0.14240332  0.75104285  0.31258265  1
  Cu  Cu9  1  0.81450396  0.34320056  0.91671744  1
  Ti  Ti10  1  0.31707019  0.05063953  0.56038786  1
  Ti  Ti11  1  0.09907150  0.11298990  0.91763538  1
  O  O12  1  0.80067023  0.74553020  0.89567924  1
