# generated using pymatgen
data_Li3Ni2P4N5O7
_symmetry_space_group_name_H-M   'P 1'
_cell_length_a   7.72160664
_cell_length_b   7.40279825
_cell_length_c   9.09280482
_cell_angle_alpha   93.03653369
_cell_angle_beta   91.89681387
_cell_angle_gamma   93.39202123
_symmetry_Int_Tables_number   1
_chemical_formula_structural   Li3Ni2P4N5O7
_chemical_formula_sum   'Li3 Ni2 P4 N5 O7'
_cell_volume   517.77688267
_cell_formula_units_Z   1
loop_
 _symmetry_equiv_pos_site_id
 _symmetry_equiv_pos_as_xyz
  1  'x, y, z'
loop_
 _atom_site_type_symbol
 _atom_site_label
 _atom_site_symmetry_multiplicity
 _atom_site_fract_x
 _atom_site_fract_y
 _atom_site_fract_z
 _atom_site_occupancy
  P  P0  1  0.12500000  0.00000000  0.25000000  1
  P  P1  1  0.00000000  0.00000000  0.00000000  1
  P  P2  1  0.37500000  0.00000000  0.25000000  1
  P  P3  1  0.25000000  0.25000000  0.25000000  1
  Li  Li4  1  0.00000000  0.25000000  0.12500000  1
  Li  Li5  1  0.81038763  0.48478762  0.58836345  1
  Li  Li6  1  0.02804223  0.79815212  0.77194080  1
  Ni  Ni7  1  0.25484133  0.72168437  0.20821947  1
  Ni  Ni8  1  0.40962149  0.73755583  0.25136530  1
  O  O9  1  0.28784262  0.55584130  0.84294377  1
  O  O10  1  0.02735160  0.43959451  0.30446705  1
  O  O11  1  0.45722144  0.19861661  0.96344571  1
  O  O12  1  0.49754780  0.55785018  0.79917856  1
  O  O13  1  0.57254030  0.53056797  0.92870931  1
  O  O14  1  0.49767718  0.07625712  0.01822151  1
  O  O15  1  0.23676740  0.60114523  0.60036652  1
  N  N16  1  0.14360156  0.40487392  0.13333894  1
  N  N17  1  0.44993081  0.42228581  0.82289496  1
  N  N18  1  0.56736282  0.95402095  0.41253899  1
  N  N19  1  0.93986406  0.94236514  0.95318629  1
  N  N20  1  0.82919698  0.35343145  0.31261216  1
