# generated using pymatgen
data_LiP2
_symmetry_space_group_name_H-M   'P 1'
_cell_length_a   3.83769375
_cell_length_b   3.34744463
_cell_length_c   7.00278023
_cell_angle_alpha   103.18082678
_cell_angle_beta   104.44660155
_cell_angle_gamma   101.85755108
_symmetry_Int_Tables_number   1
_chemical_formula_structural   LiP2
_chemical_formula_sum   'Li4 P8'
_cell_volume   81.47136232
_cell_formula_units_Z   4
loop_
 _symmetry_equiv_pos_site_id
 _symmetry_equiv_pos_as_xyz
  1  'x, y, z'
loop_
 _atom_site_type_symbol
 _atom_site_label
 _atom_site_symmetry_multiplicity
 _atom_site_fract_x
 _atom_site_fract_y
 _atom_site_fract_z
 _atom_site_occupancy
  P  P0  1  0.00000000  0.00000000  0.00000000  1
  P  P1  1  0.50000000  0.50000000  0.50000000  1
  P  P2  1  0.25000000  0.25000000  0.25000000  1
  P  P3  1  0.75000000  0.25000000  0.00000000  1
  P  P4  1  0.25000000  0.75000000  0.50000000  1
  P  P5  1  0.29403701  0.75232858  0.63702986  1
  P  P6  1  0.93623595  0.59783897  0.07457642  1
  P  P7  1  0.47691780  0.05372517  0.93418435  1
  Li  Li8  1  0.11127878  0.77154260  0.02361316  1
  Li  Li9  1  0.87341189  0.41550566  0.80628127  1
  Li  Li10  1  0.30642376  0.82830970  0.29067573  1
  Li  Li11  1  0.55275235  0.43580518  0.53034926  1
