# generated using pymatgen
data_Li2TiP6(O2F)2
_symmetry_space_group_name_H-M   'P 1'
_cell_length_a   8.70379274
_cell_length_b   8.51279214
_cell_length_c   7.48260872
_cell_angle_alpha   90.06550276
_cell_angle_beta   90.31164223
_cell_angle_gamma   90.07488714
_symmetry_Int_Tables_number   1
_chemical_formula_structural   Li2TiP6(O2F)2
_chemical_formula_sum   'Li2 Ti1 P6 O4 F2'
_cell_volume   554.40421461
_cell_formula_units_Z   1
loop_
 _symmetry_equiv_pos_site_id
 _symmetry_equiv_pos_as_xyz
  1  'x, y, z'
loop_
 _atom_site_type_symbol
 _atom_site_label
 _atom_site_symmetry_multiplicity
 _atom_site_fract_x
 _atom_site_fract_y
 _atom_site_fract_z
 _atom_site_occupancy
  P  P0  1  0.12500000  0.00000000  0.25000000  1
  P  P1  1  0.00000000  0.00000000  0.00000000  1
  P  P2  1  0.37500000  0.00000000  0.25000000  1
  P  P3  1  0.25000000  0.25000000  0.25000000  1
  P  P4  1  0.00000000  0.25000000  0.12500000  1
  P  P5  1  0.27013242  0.45979295  0.14548776  1
  Li  Li6  1  0.54936211  0.27015938  0.12240395  1
  Li  Li7  1  0.45492070  0.98377843  0.59941106  1
  F  F8  1  0.91193283  0.87017766  0.37240394  1
  F  F9  1  0.97731511  0.69084341  0.50390382  1
  Ti  Ti10  1  0.07080845  0.91176570  0.80540125  1
  O  O11  1  0.09233288  0.10173598  0.63828982  1
  O  O12  1  0.77296936  0.46668966  0.09691298  1
  O  O13  1  0.72606077  0.08602296  0.27428468  1
  O  O14  1  0.35568449  0.80069919  0.63149554  1
