# generated using pymatgen
data_Li4Ti2S2F3
_symmetry_space_group_name_H-M   'P 1'
_cell_length_a   3.21492741
_cell_length_b   2.68402084
_cell_length_c   6.60660180
_cell_angle_alpha   101.39780252
_cell_angle_beta   105.86455052
_cell_angle_gamma   100.47793064
_symmetry_Int_Tables_number   1
_chemical_formula_structural   Li4Ti2S2F3
_chemical_formula_sum   'Li4 Ti2 S2 F3'
_cell_volume   52.04601359
_cell_formula_units_Z   1
loop_
 _symmetry_equiv_pos_site_id
 _symmetry_equiv_pos_as_xyz
  1  'x, y, z'
loop_
 _atom_site_type_symbol
 _atom_site_label
 _atom_site_symmetry_multiplicity
 _atom_site_fract_x
 _atom_site_fract_y
 _atom_site_fract_z
 _atom_site_occupancy
  F  F0  1  0.00000000  0.00000000  0.00000000  1
  F  F1  1  0.33300000  0.66700000  0.25000000  1
  F  F2  1  0.66700000  0.33300000  0.50000000  1
  S  S3  1  0.00000000  0.00000000  0.75000000  1
  S  S4  1  0.84877116  0.76449594  0.41103138  1
  Ti  Ti5  1  0.17293370  0.43379563  0.82258164  1
  Ti  Ti6  1  0.36204960  0.21554801  0.05760138  1
  Li  Li7  1  0.19124685  0.66869974  0.05807801  1
  Li  Li8  1  0.73881675  0.07841057  0.18664517  1
  Li  Li9  1  0.60427624  0.01359887  0.04671539  1
  Li  Li10  1  0.95964127  0.95464693  0.27094549  1
