# generated using pymatgen
data_Li4SeCl2O3
_symmetry_space_group_name_H-M   'P 1'
_cell_length_a   6.18688902
_cell_length_b   5.77974372
_cell_length_c   7.07276570
_cell_angle_alpha   98.80096204
_cell_angle_beta   102.02655294
_cell_angle_gamma   98.32515919
_symmetry_Int_Tables_number   1
_chemical_formula_structural   Li4SeCl2O3
_chemical_formula_sum   'Li4 Se1 Cl2 O3'
_cell_volume   240.33042898
_cell_formula_units_Z   1
loop_
 _symmetry_equiv_pos_site_id
 _symmetry_equiv_pos_as_xyz
  1  'x, y, z'
loop_
 _atom_site_type_symbol
 _atom_site_label
 _atom_site_symmetry_multiplicity
 _atom_site_fract_x
 _atom_site_fract_y
 _atom_site_fract_z
 _atom_site_occupancy
  Li  Li0  1  0.12500000  0.00000000  0.25000000  1
  Li  Li1  1  0.00000000  0.00000000  0.00000000  1
  Li  Li2  1  0.37500000  0.00000000  0.25000000  1
  Li  Li3  1  0.25000000  0.25000000  0.25000000  1
  Se  Se4  1  0.00000000  0.25000000  0.12500000  1
  Cl  Cl5  1  0.66510117  0.89953548  0.96633921  1
  Cl  Cl6  1  0.55246030  0.93720786  0.04842468  1
  O  O7  1  0.88681629  0.37280620  0.23396340  1
  O  O8  1  0.06510909  0.99008569  0.36634312  1
  O  O9  1  0.12623125  0.47267576  0.12444196  1
