# generated using pymatgen
data_Li2CuNi(AsP)3
_symmetry_space_group_name_H-M   'P 1'
_cell_length_a   7.23106538
_cell_length_b   7.17486811
_cell_length_c   8.48799308
_cell_angle_alpha   94.19439083
_cell_angle_beta   94.48174873
_cell_angle_gamma   94.24213360
_symmetry_Int_Tables_number   1
_chemical_formula_structural   Li2CuNi(AsP)3
_chemical_formula_sum   'Li4 Cu2 Ni2 As6 P6'
_cell_volume   436.44263233
_cell_formula_units_Z   2
loop_
 _symmetry_equiv_pos_site_id
 _symmetry_equiv_pos_as_xyz
  1  'x, y, z'
loop_
 _atom_site_type_symbol
 _atom_site_label
 _atom_site_symmetry_multiplicity
 _atom_site_fract_x
 _atom_site_fract_y
 _atom_site_fract_z
 _atom_site_occupancy
  P  P0  1  0.00000000  0.00000000  0.00000000  1
  P  P1  1  0.50000000  0.50000000  0.50000000  1
  P  P2  1  0.50000000  0.50000000  0.00000000  1
  P  P3  1  0.50000000  0.00000000  0.50000000  1
  P  P4  1  0.00000000  0.50000000  0.50000000  1
  P  P5  1  0.59133154  0.33282834  0.81798091  1
  Li  Li6  1  0.07196036  0.96637695  0.99232173  1
  Li  Li7  1  0.55829792  0.59407451  0.79280655  1
  Li  Li8  1  0.74270555  0.30923812  0.70020539  1
  Li  Li9  1  0.51809381  0.99417708  0.52221947  1
  Cu  Cu10  1  0.22620826  0.98921553  0.73862449  1
  Cu  Cu11  1  0.11516671  0.77867776  0.49590113  1
  Ni  Ni12  1  0.79733853  0.90805689  0.88224944  1
  Ni  Ni13  1  0.69648362  0.18833391  0.72814075  1
  As  As14  1  0.33190553  0.13519726  0.48497183  1
  As  As15  1  0.14651051  0.76481761  0.94512776  1
  As  As16  1  0.27056174  0.98414302  0.39673090  1
  As  As17  1  0.36388489  0.44014546  0.82661504  1
  As  As18  1  0.16210431  0.37397333  0.59270334  1
  As  As19  1  0.02078013  0.22385839  0.72150187  1
