# generated using pymatgen
data_Li3TiI4O3
_symmetry_space_group_name_H-M   'P 1'
_cell_length_a   6.98215104
_cell_length_b   7.12284387
_cell_length_c   6.91418123
_cell_angle_alpha   95.91450163
_cell_angle_beta   98.01088184
_cell_angle_gamma   97.61142407
_symmetry_Int_Tables_number   1
_chemical_formula_structural   Li3TiI4O3
_chemical_formula_sum   'Li3 Ti1 I4 O3'
_cell_volume   334.90971912
_cell_formula_units_Z   1
loop_
 _symmetry_equiv_pos_site_id
 _symmetry_equiv_pos_as_xyz
  1  'x, y, z'
loop_
 _atom_site_type_symbol
 _atom_site_label
 _atom_site_symmetry_multiplicity
 _atom_site_fract_x
 _atom_site_fract_y
 _atom_site_fract_z
 _atom_site_occupancy
  I  I0  1  0.00000000  0.00000000  0.00000000  1
  I  I1  1  0.33300000  0.66700000  0.25000000  1
  I  I2  1  0.66700000  0.33300000  0.50000000  1
  I  I3  1  0.00000000  0.00000000  0.75000000  1
  Li  Li4  1  0.57079772  0.65071880  0.04316839  1
  Li  Li5  1  0.51449064  0.77772150  0.84917764  1
  Li  Li6  1  0.90999131  0.50382482  0.08310320  1
  Ti  Ti7  1  0.72715247  0.14779395  0.52686918  1
  O  O8  1  0.11544131  0.99717401  0.44165814  1
  O  O9  1  0.68708990  0.20652181  0.93050740  1
  O  O10  1  0.43033641  0.33640112  0.46779951  1
