# generated using pymatgen
data_Li3P3N5O2
_symmetry_space_group_name_H-M   'P 1'
_cell_length_a   7.88291509
_cell_length_b   7.35964772
_cell_length_c   8.58339885
_cell_angle_alpha   91.46767863
_cell_angle_beta   90.51888602
_cell_angle_gamma   91.70232953
_symmetry_Int_Tables_number   1
_chemical_formula_structural   Li3P3N5O2
_chemical_formula_sum   'Li3 P3 N5 O2'
_cell_volume   497.56289980
_cell_formula_units_Z   1
loop_
 _symmetry_equiv_pos_site_id
 _symmetry_equiv_pos_as_xyz
  1  'x, y, z'
loop_
 _atom_site_type_symbol
 _atom_site_label
 _atom_site_symmetry_multiplicity
 _atom_site_fract_x
 _atom_site_fract_y
 _atom_site_fract_z
 _atom_site_occupancy
  P  P0  1  0.12500000  0.00000000  0.25000000  1
  P  P1  1  0.00000000  0.00000000  0.00000000  1
  P  P2  1  0.37500000  0.00000000  0.25000000  1
  Li  Li3  1  0.25000000  0.25000000  0.25000000  1
  Li  Li4  1  0.00000000  0.25000000  0.12500000  1
  Li  Li5  1  0.84235620  0.46604533  0.42334257  1
  O  O6  1  0.51902955  0.60680974  0.17391035  1
  O  O7  1  0.95867656  0.43873366  0.45255756  1
  N  N8  1  0.76909975  0.19169614  0.35442708  1
  N  N9  1  0.68551155  0.44150128  0.90581096  1
  N  N10  1  0.54727652  0.16734268  0.96952691  1
  N  N11  1  0.92703312  0.17546940  0.42542918  1
  N  N12  1  0.87029736  0.30314256  0.64443112  1
