# generated using pymatgen
data_Li2Lu(As3P2)2
_symmetry_space_group_name_H-M   'P 1'
_cell_length_a   7.44881675
_cell_length_b   7.30236808
_cell_length_c   8.69082232
_cell_angle_alpha   92.27118378
_cell_angle_beta   91.66915183
_cell_angle_gamma   92.63103107
_symmetry_Int_Tables_number   1
_chemical_formula_structural   Li2Lu(As3P2)2
_chemical_formula_sum   'Li2 Lu1 As6 P4'
_cell_volume   471.63247500
_cell_formula_units_Z   1
loop_
 _symmetry_equiv_pos_site_id
 _symmetry_equiv_pos_as_xyz
  1  'x, y, z'
loop_
 _atom_site_type_symbol
 _atom_site_label
 _atom_site_symmetry_multiplicity
 _atom_site_fract_x
 _atom_site_fract_y
 _atom_site_fract_z
 _atom_site_occupancy
  P  P0  1  0.00000000  0.00000000  0.00000000  1
  P  P1  1  0.50000000  0.50000000  0.50000000  1
  P  P2  1  0.25000000  0.25000000  0.25000000  1
  P  P3  1  0.75000000  0.25000000  0.00000000  1
  Lu  Lu4  1  0.25000000  0.75000000  0.50000000  1
  As  As5  1  0.57386857  0.66223128  0.55071205  1
  As  As6  1  0.01517800  0.83208024  0.69282773  1
  As  As7  1  0.94879323  0.50291541  0.63405936  1
  As  As8  1  0.38599986  0.85333005  0.05160712  1
  As  As9  1  0.66053869  0.65161141  0.39262121  1
  As  As10  1  0.95384391  0.99807513  0.58222982  1
  Li  Li11  1  0.14902703  0.73618338  0.43404005  1
  Li  Li12  1  0.17390114  0.39192092  0.97032733  1
