# generated using pymatgen
data_Li2LaAl2Te3N
_symmetry_space_group_name_H-M   'P 1'
_cell_length_a   5.04207409
_cell_length_b   5.69091383
_cell_length_c   5.82197701
_cell_angle_alpha   108.50206698
_cell_angle_beta   106.25367384
_cell_angle_gamma   97.19199974
_symmetry_Int_Tables_number   1
_chemical_formula_structural   Li2LaAl2Te3N
_chemical_formula_sum   'Li2 La1 Al2 Te3 N1'
_cell_volume   147.82735084
_cell_formula_units_Z   1
loop_
 _symmetry_equiv_pos_site_id
 _symmetry_equiv_pos_as_xyz
  1  'x, y, z'
loop_
 _atom_site_type_symbol
 _atom_site_label
 _atom_site_symmetry_multiplicity
 _atom_site_fract_x
 _atom_site_fract_y
 _atom_site_fract_z
 _atom_site_occupancy
  Al  Al0  1  0.12500000  0.00000000  0.25000000  1
  Al  Al1  1  0.00000000  0.00000000  0.00000000  1
  La  La2  1  0.37500000  0.00000000  0.25000000  1
  Li  Li3  1  0.25000000  0.25000000  0.25000000  1
  Li  Li4  1  0.00000000  0.25000000  0.12500000  1
  N  N5  1  0.49299465  0.42668792  0.83221785  1
  Te  Te6  1  0.81613219  0.94082542  0.53918038  1
  Te  Te7  1  0.11459162  0.37988482  0.46922432  1
  Te  Te8  1  0.26731190  0.02270219  0.48065088  1
