# generated using pymatgen
data_Li2Sb4P3W
_symmetry_space_group_name_H-M   'P 1'
_cell_length_a   5.70605690
_cell_length_b   5.67259854
_cell_length_c   6.81321334
_cell_angle_alpha   97.25139197
_cell_angle_beta   95.90466999
_cell_angle_gamma   95.08206362
_symmetry_Int_Tables_number   1
_chemical_formula_structural   Li2Sb4P3W
_chemical_formula_sum   'Li2 Sb4 P3 W1'
_cell_volume   216.45087573
_cell_formula_units_Z   1
loop_
 _symmetry_equiv_pos_site_id
 _symmetry_equiv_pos_as_xyz
  1  'x, y, z'
loop_
 _atom_site_type_symbol
 _atom_site_label
 _atom_site_symmetry_multiplicity
 _atom_site_fract_x
 _atom_site_fract_y
 _atom_site_fract_z
 _atom_site_occupancy
  W  W0  1  0.00000000  0.00000000  0.00000000  1
  Sb  Sb1  1  0.50000000  0.50000000  0.50000000  1
  Sb  Sb2  1  0.50000000  0.50000000  0.00000000  1
  Sb  Sb3  1  0.50000000  0.00000000  0.50000000  1
  Sb  Sb4  1  0.00000000  0.50000000  0.50000000  1
  P  P5  1  0.27758349  0.84475695  0.74747310  1
  P  P6  1  0.15471582  0.34856550  0.50362680  1
  P  P7  1  0.70512091  0.07778166  0.07908891  1
  Li  Li8  1  0.02860465  0.92996597  0.83822155  1
  Li  Li9  1  0.67436642  0.31044762  0.27722518  1
