# generated using pymatgen
data_Li2Cu2As6F3
_symmetry_space_group_name_H-M   'P 1'
_cell_length_a   7.51386884
_cell_length_b   7.59098635
_cell_length_c   8.48621313
_cell_angle_alpha   90.46246846
_cell_angle_beta   92.51141912
_cell_angle_gamma   90.51816013
_symmetry_Int_Tables_number   1
_chemical_formula_structural   Li2Cu2As6F3
_chemical_formula_sum   'Li2 Cu2 As6 F3'
_cell_volume   483.53181707
_cell_formula_units_Z   1
loop_
 _symmetry_equiv_pos_site_id
 _symmetry_equiv_pos_as_xyz
  1  'x, y, z'
loop_
 _atom_site_type_symbol
 _atom_site_label
 _atom_site_symmetry_multiplicity
 _atom_site_fract_x
 _atom_site_fract_y
 _atom_site_fract_z
 _atom_site_occupancy
  F  F0  1  0.00000000  0.00000000  0.00000000  1
  F  F1  1  0.33300000  0.66700000  0.25000000  1
  F  F2  1  0.66700000  0.33300000  0.50000000  1
  As  As3  1  0.00000000  0.00000000  0.75000000  1
  As  As4  1  0.68363647  0.58391772  0.73977152  1
  As  As5  1  0.86886779  0.86425967  0.66232024  1
  As  As6  1  0.10094338  0.19611953  0.70977378  1
  As  As7  1  0.06783827  0.24546451  0.82586085  1
  As  As8  1  0.94740257  0.06701191  0.46082409  1
  Li  Li9  1  0.45154588  0.43964556  0.12283823  1
  Li  Li10  1  0.39926907  0.29867068  0.12936278  1
  Cu  Cu11  1  0.42061102  0.32262450  0.10962412  1
  Cu  Cu12  1  0.01831388  0.37990337  0.59627045  1
