# generated using pymatgen
data_LiTiSe2O2F3
_symmetry_space_group_name_H-M   'P 1'
_cell_length_a   7.68581052
_cell_length_b   7.45654528
_cell_length_c   7.27425953
_cell_angle_alpha   90.44530917
_cell_angle_beta   92.11864581
_cell_angle_gamma   90.50910729
_symmetry_Int_Tables_number   1
_chemical_formula_structural   LiTiSe2O2F3
_chemical_formula_sum   'Li1 Ti1 Se2 O2 F3'
_cell_volume   416.56975187
_cell_formula_units_Z   1
loop_
 _symmetry_equiv_pos_site_id
 _symmetry_equiv_pos_as_xyz
  1  'x, y, z'
loop_
 _atom_site_type_symbol
 _atom_site_label
 _atom_site_symmetry_multiplicity
 _atom_site_fract_x
 _atom_site_fract_y
 _atom_site_fract_z
 _atom_site_occupancy
  Li  Li0  1  0.00000000  0.00000000  0.00000000  1
  Se  Se1  1  0.50000000  0.50000000  0.50000000  1
  Se  Se2  1  0.25000000  0.25000000  0.25000000  1
  F  F3  1  0.75000000  0.25000000  0.00000000  1
  F  F4  1  0.25000000  0.75000000  0.50000000  1
  F  F5  1  0.73396529  0.89521604  0.27167730  1
  Ti  Ti6  1  0.68532634  0.08389812  0.83124309  1
  O  O7  1  0.81732695  0.34388687  0.40662398  1
  O  O8  1  0.76061651  0.45719495  0.66484645  1
