# generated using pymatgen
data_Li5Ni2As4NO4
_symmetry_space_group_name_H-M   'P 1'
_cell_length_a   8.23568805
_cell_length_b   7.55537468
_cell_length_c   9.67302734
_cell_angle_alpha   90.00000000
_cell_angle_beta   90.00000000
_cell_angle_gamma   90.00000000
_symmetry_Int_Tables_number   1
_chemical_formula_structural   Li5Ni2As4NO4
_chemical_formula_sum   'Li5 Ni2 As4 N1 O4'
_cell_volume   601.89163866
_cell_formula_units_Z   1
loop_
 _symmetry_equiv_pos_site_id
 _symmetry_equiv_pos_as_xyz
  1  'x, y, z'
loop_
 _atom_site_type_symbol
 _atom_site_label
 _atom_site_symmetry_multiplicity
 _atom_site_fract_x
 _atom_site_fract_y
 _atom_site_fract_z
 _atom_site_occupancy
  Li  Li0  1  0.12500000  0.00000000  0.25000000  1
  Li  Li1  1  0.00000000  0.00000000  0.00000000  1
  Li  Li2  1  0.37500000  0.00000000  0.25000000  1
  Li  Li3  1  0.25000000  0.25000000  0.25000000  1
  Li  Li4  1  0.00000000  0.25000000  0.12500000  1
  Ni  Ni5  1  0.29381715  0.73918327  0.67470834  1
  Ni  Ni6  1  0.64296154  0.11712393  0.04289937  1
  As  As7  1  0.48309158  0.19210858  0.99741727  1
  As  As8  1  0.19562911  0.53869006  0.45148899  1
  As  As9  1  0.46927315  0.60633690  0.80109821  1
  As  As10  1  0.99326032  0.12207359  0.89412535  1
  O  O11  1  0.60344726  0.10371877  0.02287423  1
  O  O12  1  0.11711592  0.55507769  0.57016875  1
  O  O13  1  0.25921756  0.37066457  0.06011102  1
  O  O14  1  0.55664917  0.01296801  0.56908601  1
  N  N15  1  0.25576109  0.87025662  0.55409463  1
