# generated using pymatgen
data_Li2Ti2(PN)5
_symmetry_space_group_name_H-M   'P 1'
_cell_length_a   8.05796667
_cell_length_b   7.72167883
_cell_length_c   8.27946396
_cell_angle_alpha   91.37972894
_cell_angle_beta   90.97995294
_cell_angle_gamma   91.59846218
_symmetry_Int_Tables_number   1
_chemical_formula_structural   Li2Ti2(PN)5
_chemical_formula_sum   'Li2 Ti2 P5 N5'
_cell_volume   514.72557786
_cell_formula_units_Z   1
loop_
 _symmetry_equiv_pos_site_id
 _symmetry_equiv_pos_as_xyz
  1  'x, y, z'
loop_
 _atom_site_type_symbol
 _atom_site_label
 _atom_site_symmetry_multiplicity
 _atom_site_fract_x
 _atom_site_fract_y
 _atom_site_fract_z
 _atom_site_occupancy
  P  P0  1  0.00000000  0.00000000  0.00000000  1
  P  P1  1  0.50000000  0.50000000  0.50000000  1
  P  P2  1  0.25000000  0.25000000  0.25000000  1
  P  P3  1  0.75000000  0.25000000  0.00000000  1
  P  P4  1  0.25000000  0.75000000  0.50000000  1
  Li  Li5  1  0.06049075  0.88523536  0.41317120  1
  Li  Li6  1  0.43487984  0.48646626  0.12016770  1
  Ti  Ti7  1  0.75016947  0.57268322  0.88766355  1
  Ti  Ti8  1  0.27836911  0.25384286  0.62161139  1
  N  N9  1  0.69416778  0.48171907  0.38321588  1
  N  N10  1  0.77487380  0.46456734  0.64272571  1
  N  N11  1  0.09657166  0.23124278  0.52150713  1
  N  N12  1  0.73175063  0.46715828  0.00158785  1
  N  N13  1  0.44319440  0.73702087  0.86683821  1
