# generated using pymatgen
data_Li2TiI4(O2F)2
_symmetry_space_group_name_H-M   'P 1'
_cell_length_a   8.56447787
_cell_length_b   8.31572999
_cell_length_c   7.70450202
_cell_angle_alpha   90.11822726
_cell_angle_beta   90.56248938
_cell_angle_gamma   90.13516532
_symmetry_Int_Tables_number   1
_chemical_formula_structural   Li2TiI4(O2F)2
_chemical_formula_sum   'Li2 Ti1 I4 O4 F2'
_cell_volume   548.68458757
_cell_formula_units_Z   1
loop_
 _symmetry_equiv_pos_site_id
 _symmetry_equiv_pos_as_xyz
  1  'x, y, z'
loop_
 _atom_site_type_symbol
 _atom_site_label
 _atom_site_symmetry_multiplicity
 _atom_site_fract_x
 _atom_site_fract_y
 _atom_site_fract_z
 _atom_site_occupancy
  I  I0  1  0.00000000  0.00000000  0.00000000  1
  I  I1  1  0.50000000  0.50000000  0.50000000  1
  I  I2  1  0.50000000  0.50000000  0.00000000  1
  I  I3  1  0.50000000  0.00000000  0.50000000  1
  Li  Li4  1  0.00000000  0.50000000  0.50000000  1
  Li  Li5  1  0.11002962  0.40122558  0.03968795  1
  F  F6  1  0.17121339  0.59728840  0.86897536  1
  F  F7  1  0.19649939  0.15800789  0.24241099  1
  Ti  Ti8  1  0.96487532  0.19303228  0.12932272  1
  O  O9  1  0.97189350  0.03188614  0.36745069  1
  O  O10  1  0.95783581  0.77917531  0.30779961  1
  O  O11  1  0.89794700  0.47422847  0.07067096  1
  O  O12  1  0.83314159  0.08949762  0.36029058  1
