# generated using pymatgen
data_Li2TiP6(O2F)2
_symmetry_space_group_name_H-M   'P 1'
_cell_length_a   8.67176380
_cell_length_b   8.46748692
_cell_length_c   7.53362270
_cell_angle_alpha   90.07762429
_cell_angle_beta   90.36931280
_cell_angle_gamma   90.08874529
_symmetry_Int_Tables_number   1
_chemical_formula_structural   Li2TiP6(O2F)2
_chemical_formula_sum   'Li2 Ti1 P6 O4 F2'
_cell_volume   553.16652829
_cell_formula_units_Z   1
loop_
 _symmetry_equiv_pos_site_id
 _symmetry_equiv_pos_as_xyz
  1  'x, y, z'
loop_
 _atom_site_type_symbol
 _atom_site_label
 _atom_site_symmetry_multiplicity
 _atom_site_fract_x
 _atom_site_fract_y
 _atom_site_fract_z
 _atom_site_occupancy
  P  P0  1  0.12500000  0.00000000  0.25000000  1
  P  P1  1  0.00000000  0.00000000  0.00000000  1
  P  P2  1  0.37500000  0.00000000  0.25000000  1
  P  P3  1  0.25000000  0.25000000  0.25000000  1
  P  P4  1  0.00000000  0.25000000  0.12500000  1
  P  P5  1  0.37341814  0.20659021  0.07150637  1
  Li  Li6  1  0.38247304  0.41742077  0.99425548  1
  Li  Li7  1  0.81458486  0.17304931  0.89121129  1
  F  F8  1  0.38827198  0.46926659  0.77302602  1
  F  F9  1  0.31622344  0.01951653  0.71129380  1
  Ti  Ti10  1  0.45812240  0.94238673  0.06923500  1
  O  O11  1  0.70461345  0.56975848  0.99829343  1
  O  O12  1  0.76643187  0.30386404  0.01326676  1
  O  O13  1  0.14632564  0.47897096  0.43163334  1
  O  O14  1  0.49406231  0.84227169  0.33768689  1
