# generated using pymatgen
data_Li3Ti2Ni2P3
_symmetry_space_group_name_H-M   'P 1'
_cell_length_a   6.57321879
_cell_length_b   6.14223600
_cell_length_c   7.83375892
_cell_angle_alpha   94.05709625
_cell_angle_beta   94.35959976
_cell_angle_gamma   94.22106572
_symmetry_Int_Tables_number   1
_chemical_formula_structural   Li3Ti2Ni2P3
_chemical_formula_sum   'Li3 Ti2 Ni2 P3'
_cell_volume   313.58334854
_cell_formula_units_Z   1
loop_
 _symmetry_equiv_pos_site_id
 _symmetry_equiv_pos_as_xyz
  1  'x, y, z'
loop_
 _atom_site_type_symbol
 _atom_site_label
 _atom_site_symmetry_multiplicity
 _atom_site_fract_x
 _atom_site_fract_y
 _atom_site_fract_z
 _atom_site_occupancy
  P  P0  1  0.00000000  0.00000000  0.00000000  1
  P  P1  1  0.50000000  0.50000000  0.50000000  1
  P  P2  1  0.25000000  0.25000000  0.25000000  1
  Li  Li3  1  0.75000000  0.25000000  0.00000000  1
  Li  Li4  1  0.25000000  0.75000000  0.50000000  1
  Li  Li5  1  0.14638388  0.74257826  0.85818941  1
  Ti  Ti6  1  0.74549525  0.93059509  0.49099192  1
  Ti  Ti7  1  0.52563812  0.48828074  0.49923891  1
  Ni  Ni8  1  0.64660420  0.64401020  0.38448976  1
  Ni  Ni9  1  0.48464027  0.66598513  0.06995536  1
