# generated using pymatgen
data_LiCuAs3
_symmetry_space_group_name_H-M   'P 1'
_cell_length_a   7.46287626
_cell_length_b   7.51786571
_cell_length_c   8.53810225
_cell_angle_alpha   91.21475604
_cell_angle_beta   92.04179556
_cell_angle_gamma   91.40288845
_symmetry_Int_Tables_number   1
_chemical_formula_structural   LiCuAs3
_chemical_formula_sum   'Li2 Cu2 As6'
_cell_volume   478.46494677
_cell_formula_units_Z   2
loop_
 _symmetry_equiv_pos_site_id
 _symmetry_equiv_pos_as_xyz
  1  'x, y, z'
loop_
 _atom_site_type_symbol
 _atom_site_label
 _atom_site_symmetry_multiplicity
 _atom_site_fract_x
 _atom_site_fract_y
 _atom_site_fract_z
 _atom_site_occupancy
  Li  Li0  1  0.12500000  0.00000000  0.25000000  1
  Li  Li1  1  0.00000000  0.00000000  0.00000000  1
  Cu  Cu2  1  0.37500000  0.00000000  0.25000000  1
  Cu  Cu3  1  0.25000000  0.25000000  0.25000000  1
  As  As4  1  0.00000000  0.25000000  0.12500000  1
  As  As5  1  0.47644309  0.55483466  0.92656478  1
  As  As6  1  0.55259908  0.45330945  0.89276263  1
  As  As7  1  0.98091367  0.31671263  0.70141208  1
  As  As8  1  0.52631664  0.52356570  0.93714392  1
  As  As9  1  0.05817829  0.52671874  0.39830221  1
