# generated using pymatgen
data_Li2Cu2(As2P)3
_symmetry_space_group_name_H-M   'P 1'
_cell_length_a   6.29485006
_cell_length_b   6.06110466
_cell_length_c   7.31799337
_cell_angle_alpha   93.12296116
_cell_angle_beta   95.82263905
_cell_angle_gamma   92.96912476
_symmetry_Int_Tables_number   1
_chemical_formula_structural   Li2Cu2(As2P)3
_chemical_formula_sum   'Li2 Cu2 As6 P3'
_cell_volume   276.89361609
_cell_formula_units_Z   1
loop_
 _symmetry_equiv_pos_site_id
 _symmetry_equiv_pos_as_xyz
  1  'x, y, z'
loop_
 _atom_site_type_symbol
 _atom_site_label
 _atom_site_symmetry_multiplicity
 _atom_site_fract_x
 _atom_site_fract_y
 _atom_site_fract_z
 _atom_site_occupancy
  P  P0  1  0.00000000  0.00000000  0.00000000  1
  P  P1  1  0.50000000  0.50000000  0.50000000  1
  P  P2  1  0.50000000  0.50000000  0.00000000  1
  As  As3  1  0.50000000  0.00000000  0.50000000  1
  As  As4  1  0.00000000  0.50000000  0.50000000  1
  As  As5  1  0.41577734  0.43101362  0.41188047  1
  As  As6  1  0.63412804  0.69216144  0.26011929  1
  As  As7  1  0.51126580  0.33457593  0.22989925  1
  As  As8  1  0.28672002  0.54989352  0.12229230  1
  Li  Li9  1  0.64795951  0.04489217  0.86718144  1
  Li  Li10  1  0.50849056  0.41834554  0.25468026  1
  Cu  Cu11  1  0.68883649  0.02288674  0.01719527  1
  Cu  Cu12  1  0.35586550  0.93273129  0.04928486  1
