# generated using pymatgen
data_Li2LuCu2(NiAs3)2
_symmetry_space_group_name_H-M   'P 1'
_cell_length_a   7.46302498
_cell_length_b   7.52014516
_cell_length_c   8.53648684
_cell_angle_alpha   91.20358155
_cell_angle_beta   92.04573724
_cell_angle_gamma   91.38989763
_symmetry_Int_Tables_number   1
_chemical_formula_structural   Li2LuCu2(NiAs3)2
_chemical_formula_sum   'Li2 Lu1 Cu2 Ni2 As6'
_cell_volume   478.53259510
_cell_formula_units_Z   1
loop_
 _symmetry_equiv_pos_site_id
 _symmetry_equiv_pos_as_xyz
  1  'x, y, z'
loop_
 _atom_site_type_symbol
 _atom_site_label
 _atom_site_symmetry_multiplicity
 _atom_site_fract_x
 _atom_site_fract_y
 _atom_site_fract_z
 _atom_site_occupancy
  Ni  Ni0  1  0.12500000  0.00000000  0.25000000  1
  Ni  Ni1  1  0.00000000  0.00000000  0.00000000  1
  Lu  Lu2  1  0.37500000  0.00000000  0.25000000  1
  As  As3  1  0.25000000  0.25000000  0.25000000  1
  As  As4  1  0.00000000  0.25000000  0.12500000  1
  As  As5  1  0.92438842  0.15986366  0.35728115  1
  As  As6  1  0.17363289  0.84532785  0.41538983  1
  As  As7  1  0.09977351  0.01374539  0.57352446  1
  As  As8  1  0.03924050  0.31805078  0.55186140  1
  Li  Li9  1  0.23090429  0.05459378  0.07981252  1
  Li  Li10  1  0.70582171  0.82469620  0.42040157  1
  Cu  Cu11  1  0.30789714  0.32253627  0.16238638  1
  Cu  Cu12  1  0.83514517  0.39964951  0.61806144  1
