# generated using pymatgen
data_Li2Ni2P5N5F2
_symmetry_space_group_name_H-M   'P 1'
_cell_length_a   7.81926905
_cell_length_b   7.46618516
_cell_length_c   8.50411016
_cell_angle_alpha   92.18796712
_cell_angle_beta   91.07787664
_cell_angle_gamma   92.53662907
_symmetry_Int_Tables_number   1
_chemical_formula_structural   Li2Ni2P5N5F2
_chemical_formula_sum   'Li2 Ni2 P5 N5 F2'
_cell_volume   495.51829903
_cell_formula_units_Z   1
loop_
 _symmetry_equiv_pos_site_id
 _symmetry_equiv_pos_as_xyz
  1  'x, y, z'
loop_
 _atom_site_type_symbol
 _atom_site_label
 _atom_site_symmetry_multiplicity
 _atom_site_fract_x
 _atom_site_fract_y
 _atom_site_fract_z
 _atom_site_occupancy
  P  P0  1  0.00000000  0.00000000  0.00000000  1
  P  P1  1  0.50000000  0.50000000  0.50000000  1
  P  P2  1  0.50000000  0.50000000  0.00000000  1
  P  P3  1  0.50000000  0.00000000  0.50000000  1
  P  P4  1  0.00000000  0.50000000  0.50000000  1
  Li  Li5  1  0.30275596  0.00566574  0.10041517  1
  Li  Li6  1  0.05704718  0.58834459  0.04174978  1
  F  F7  1  0.09171136  0.09351552  0.81024540  1
  F  F8  1  0.92615515  0.01530908  0.93961254  1
  Ni  Ni9  1  0.11213330  0.77371404  0.33423859  1
  Ni  Ni10  1  0.47878971  0.51069886  0.04053125  1
  N  N11  1  0.66257205  0.93889304  0.46129808  1
  N  N12  1  0.52690968  0.73875445  0.87051735  1
  N  N13  1  0.95597377  0.66664761  0.20759814  1
  N  N14  1  0.35668991  0.27291540  0.75051742  1
  N  N15  1  0.65397592  0.78819538  0.45968007  1
