# generated using pymatgen
data_LiMn2Sb4P3
_symmetry_space_group_name_H-M   'P 1'
_cell_length_a   5.47681670
_cell_length_b   5.83046839
_cell_length_c   6.47893483
_cell_angle_alpha   97.40615872
_cell_angle_beta   91.73430851
_cell_angle_gamma   97.32154230
_symmetry_Int_Tables_number   1
_chemical_formula_structural   LiMn2Sb4P3
_chemical_formula_sum   'Li1 Mn2 Sb4 P3'
_cell_volume   203.25979559
_cell_formula_units_Z   1
loop_
 _symmetry_equiv_pos_site_id
 _symmetry_equiv_pos_as_xyz
  1  'x, y, z'
loop_
 _atom_site_type_symbol
 _atom_site_label
 _atom_site_symmetry_multiplicity
 _atom_site_fract_x
 _atom_site_fract_y
 _atom_site_fract_z
 _atom_site_occupancy
  Mn  Mn0  1  0.00000000  0.00000000  0.00000000  1
  Mn  Mn1  1  0.33300000  0.66700000  0.25000000  1
  Sb  Sb2  1  0.66700000  0.33300000  0.50000000  1
  Sb  Sb3  1  0.00000000  0.00000000  0.75000000  1
  Sb  Sb4  1  0.24184939  0.55134272  0.87014233  1
  Sb  Sb5  1  0.61431754  0.10553764  0.06923885  1
  P  P6  1  0.15043735  0.09377694  0.77035888  1
  P  P7  1  0.68070847  0.23142287  0.47757189  1
  P  P8  1  0.87316669  0.47911648  0.90448574  1
  Li  Li9  1  0.92034491  0.46884032  0.28686877  1
