# generated using pymatgen
data_Li2TiP5(I2F)2
_symmetry_space_group_name_H-M   'P 1'
_cell_length_a   7.35892141
_cell_length_b   7.06545087
_cell_length_c   7.28330000
_cell_angle_alpha   91.67667850
_cell_angle_beta   93.25113143
_cell_angle_gamma   91.60240563
_symmetry_Int_Tables_number   1
_chemical_formula_structural   Li2TiP5(I2F)2
_chemical_formula_sum   'Li2 Ti1 P5 I4 F2'
_cell_volume   377.75072810
_cell_formula_units_Z   1
loop_
 _symmetry_equiv_pos_site_id
 _symmetry_equiv_pos_as_xyz
  1  'x, y, z'
loop_
 _atom_site_type_symbol
 _atom_site_label
 _atom_site_symmetry_multiplicity
 _atom_site_fract_x
 _atom_site_fract_y
 _atom_site_fract_z
 _atom_site_occupancy
  I  I0  1  0.00000000  0.00000000  0.00000000  1
  I  I1  1  0.50000000  0.50000000  0.50000000  1
  I  I2  1  0.50000000  0.50000000  0.00000000  1
  I  I3  1  0.50000000  0.00000000  0.50000000  1
  P  P4  1  0.00000000  0.50000000  0.50000000  1
  P  P5  1  0.53454520  0.70304129  0.92523149  1
  P  P6  1  0.67479216  0.78685626  0.22708697  1
  P  P7  1  0.77539553  0.79954532  0.04119533  1
  P  P8  1  0.12751342  0.67961677  0.34191473  1
  Li  Li9  1  0.98118410  0.83265980  0.21263354  1
  Li  Li10  1  0.75376017  0.54808323  0.93669767  1
  F  F11  1  0.90663945  0.17371799  0.35853938  1
  F  F12  1  0.18780634  0.05253544  0.94846057  1
  Ti  Ti13  1  0.75132242  0.73811595  0.98223090  1
