# generated using pymatgen
data_Li3Ti2As6P6F2
_symmetry_space_group_name_H-M   'P 1'
_cell_length_a   6.74538242
_cell_length_b   6.42092099
_cell_length_c   7.90352134
_cell_angle_alpha   98.15591786
_cell_angle_beta   100.64259747
_cell_angle_gamma   97.68574788
_symmetry_Int_Tables_number   1
_chemical_formula_structural   Li3Ti2As6P6F2
_chemical_formula_sum   'Li3 Ti2 As6 P6 F2'
_cell_volume   328.49149051
_cell_formula_units_Z   1
loop_
 _symmetry_equiv_pos_site_id
 _symmetry_equiv_pos_as_xyz
  1  'x, y, z'
loop_
 _atom_site_type_symbol
 _atom_site_label
 _atom_site_symmetry_multiplicity
 _atom_site_fract_x
 _atom_site_fract_y
 _atom_site_fract_z
 _atom_site_occupancy
  F  F0  1  0.12500000  0.00000000  0.25000000  1
  F  F1  1  0.00000000  0.00000000  0.00000000  1
  Ti  Ti2  1  0.37500000  0.00000000  0.25000000  1
  Ti  Ti3  1  0.25000000  0.25000000  0.25000000  1
  P  P4  1  0.00000000  0.25000000  0.12500000  1
  P  P5  1  0.98803471  0.98911241  0.51319286  1
  P  P6  1  0.69230569  0.61864879  0.10382110  1
  P  P7  1  0.64896593  0.98625081  0.62285403  1
  P  P8  1  0.86186434  0.86981423  0.26233373  1
  P  P9  1  0.09471266  0.41475839  0.42808952  1
  As  As10  1  0.39394804  0.74281211  0.55469009  1
  As  As11  1  0.83219112  0.84182959  0.67187817  1
  As  As12  1  0.78469021  0.77955220  0.64818797  1
  As  As13  1  0.87143466  0.37367049  0.20587728  1
  As  As14  1  0.08328570  0.66057993  0.34619551  1
  As  As15  1  0.21184783  0.40794781  0.67586461  1
  Li  Li16  1  0.59236576  0.73850169  0.18903741  1
  Li  Li17  1  0.20759239  0.55879680  0.79223233  1
  Li  Li18  1  0.29682165  0.08067756  0.93792681  1
