# generated using pymatgen
data_Li2MnSb4P3
_symmetry_space_group_name_H-M   'P 1'
_cell_length_a   5.77500211
_cell_length_b   6.21212212
_cell_length_c   6.88943732
_cell_angle_alpha   96.84048917
_cell_angle_beta   92.71111530
_cell_angle_gamma   97.03440118
_symmetry_Int_Tables_number   1
_chemical_formula_structural   Li2MnSb4P3
_chemical_formula_sum   'Li2 Mn1 Sb4 P3'
_cell_volume   243.07135823
_cell_formula_units_Z   1
loop_
 _symmetry_equiv_pos_site_id
 _symmetry_equiv_pos_as_xyz
  1  'x, y, z'
loop_
 _atom_site_type_symbol
 _atom_site_label
 _atom_site_symmetry_multiplicity
 _atom_site_fract_x
 _atom_site_fract_y
 _atom_site_fract_z
 _atom_site_occupancy
  Mn  Mn0  1  0.00000000  0.00000000  0.00000000  1
  Sb  Sb1  1  0.50000000  0.50000000  0.50000000  1
  Sb  Sb2  1  0.50000000  0.50000000  0.00000000  1
  Sb  Sb3  1  0.50000000  0.00000000  0.50000000  1
  Sb  Sb4  1  0.00000000  0.50000000  0.50000000  1
  P  P5  1  0.45187433  0.25918374  0.16455061  1
  P  P6  1  0.40594406  0.04623090  0.43192047  1
  P  P7  1  0.81029941  0.31626733  0.76998834  1
  Li  Li8  1  0.85057532  0.76316750  0.57094815  1
  Li  Li9  1  0.29989338  0.09749588  0.03902530  1
