# generated using pymatgen
data_Li3(NiAs3)2
_symmetry_space_group_name_H-M   'P 1'
_cell_length_a   8.34617931
_cell_length_b   8.14866008
_cell_length_c   9.09662941
_cell_angle_alpha   90.05680272
_cell_angle_beta   90.27025009
_cell_angle_gamma   90.06494068
_symmetry_Int_Tables_number   1
_chemical_formula_structural   Li3(NiAs3)2
_chemical_formula_sum   'Li3 Ni2 As6'
_cell_volume   618.65579998
_cell_formula_units_Z   1
loop_
 _symmetry_equiv_pos_site_id
 _symmetry_equiv_pos_as_xyz
  1  'x, y, z'
loop_
 _atom_site_type_symbol
 _atom_site_label
 _atom_site_symmetry_multiplicity
 _atom_site_fract_x
 _atom_site_fract_y
 _atom_site_fract_z
 _atom_site_occupancy
  Li  Li0  1  0.12500000  0.12500000  0.12500000  1
  Li  Li1  1  0.50000000  0.50000000  0.50000000  1
  Li  Li2  1  0.25000000  0.25000000  0.25000000  1
  Ni  Ni3  1  0.75000000  0.75000000  0.75000000  1
  Ni  Ni4  1  0.23776714  0.09048124  0.83983693  1
  As  As5  1  0.46990911  0.48497193  0.59889600  1
  As  As6  1  0.76552367  0.14740163  0.61001663  1
  As  As7  1  0.89814240  0.67088235  0.32854272  1
  As  As8  1  0.18604035  0.87363204  0.34735043  1
  As  As9  1  0.25300663  0.78076401  0.20785760  1
  As  As10  1  0.65355558  0.17038991  0.26497262  1
