# generated using pymatgen
data_LiMn2P3
_symmetry_space_group_name_H-M   'P 1'
_cell_length_a   4.54880433
_cell_length_b   4.55645617
_cell_length_c   6.54263533
_cell_angle_alpha   98.10337589
_cell_angle_beta   95.97269044
_cell_angle_gamma   98.62857364
_symmetry_Int_Tables_number   1
_chemical_formula_structural   LiMn2P3
_chemical_formula_sum   'Li1 Mn2 P3'
_cell_volume   131.64164566
_cell_formula_units_Z   1
loop_
 _symmetry_equiv_pos_site_id
 _symmetry_equiv_pos_as_xyz
  1  'x, y, z'
loop_
 _atom_site_type_symbol
 _atom_site_label
 _atom_site_symmetry_multiplicity
 _atom_site_fract_x
 _atom_site_fract_y
 _atom_site_fract_z
 _atom_site_occupancy
  Mn  Mn0  1  0.00000000  0.00000000  0.00000000  1
  Mn  Mn1  1  0.50000000  0.50000000  0.50000000  1
  P  P2  1  0.50000000  0.50000000  0.00000000  1
  P  P3  1  0.50000000  0.00000000  0.50000000  1
  P  P4  1  0.00000000  0.50000000  0.50000000  1
  Li  Li5  1  0.07354419  0.53187742  0.03700089  1
