# generated using pymatgen
data_Li2Mn2Sb4P3
_symmetry_space_group_name_H-M   'P 1'
_cell_length_a   5.53763897
_cell_length_b   5.93907994
_cell_length_c   6.77937611
_cell_angle_alpha   97.88345566
_cell_angle_beta   92.87184738
_cell_angle_gamma   98.07175111
_symmetry_Int_Tables_number   1
_chemical_formula_structural   Li2Mn2Sb4P3
_chemical_formula_sum   'Li2 Mn2 Sb4 P3'
_cell_volume   218.12060167
_cell_formula_units_Z   1
loop_
 _symmetry_equiv_pos_site_id
 _symmetry_equiv_pos_as_xyz
  1  'x, y, z'
loop_
 _atom_site_type_symbol
 _atom_site_label
 _atom_site_symmetry_multiplicity
 _atom_site_fract_x
 _atom_site_fract_y
 _atom_site_fract_z
 _atom_site_occupancy
  Mn  Mn0  1  0.00000000  0.00000000  0.00000000  1
  Mn  Mn1  1  0.50000000  0.50000000  0.50000000  1
  Sb  Sb2  1  0.25000000  0.25000000  0.25000000  1
  Sb  Sb3  1  0.75000000  0.25000000  0.00000000  1
  Sb  Sb4  1  0.25000000  0.75000000  0.50000000  1
  Sb  Sb5  1  0.51170108  0.77594104  0.93771476  1
  P  P6  1  0.39452081  0.25426697  0.43850603  1
  P  P7  1  0.10957099  0.46757289  0.33623264  1
  P  P8  1  0.26843936  0.03280216  0.84618240  1
  Li  Li9  1  0.64408525  0.24959686  0.24092991  1
  Li  Li10  1  0.99470362  0.21882450  0.60243404  1
