# generated using pymatgen
data_Li4LuNi2P4N5
_symmetry_space_group_name_H-M   'P 1'
_cell_length_a   7.43249497
_cell_length_b   7.05219556
_cell_length_c   8.86811598
_cell_angle_alpha   93.49759716
_cell_angle_beta   91.23654746
_cell_angle_gamma   94.05678930
_symmetry_Int_Tables_number   1
_chemical_formula_structural   Li4LuNi2P4N5
_chemical_formula_sum   'Li4 Lu1 Ni2 P4 N5'
_cell_volume   462.64105756
_cell_formula_units_Z   1
loop_
 _symmetry_equiv_pos_site_id
 _symmetry_equiv_pos_as_xyz
  1  'x, y, z'
loop_
 _atom_site_type_symbol
 _atom_site_label
 _atom_site_symmetry_multiplicity
 _atom_site_fract_x
 _atom_site_fract_y
 _atom_site_fract_z
 _atom_site_occupancy
  P  P0  1  0.00000000  0.00000000  0.00000000  1
  P  P1  1  0.50000000  0.50000000  0.50000000  1
  P  P2  1  0.25000000  0.25000000  0.25000000  1
  P  P3  1  0.75000000  0.25000000  0.00000000  1
  Lu  Lu4  1  0.25000000  0.75000000  0.50000000  1
  Li  Li5  1  0.23929600  0.32087854  0.86736748  1
  Li  Li6  1  0.62382806  0.36007529  0.62144816  1
  Li  Li7  1  0.99660655  0.12819375  0.41486448  1
  Li  Li8  1  0.68662992  0.18256162  0.18493300  1
  Ni  Ni9  1  0.41215933  0.56369024  0.70180691  1
  Ni  Ni10  1  0.90183661  0.26242448  0.17076193  1
  N  N11  1  0.86007741  0.13785180  0.93827945  1
  N  N12  1  0.76482959  0.54341964  0.95868423  1
  N  N13  1  0.93981334  0.44216139  0.73870740  1
  N  N14  1  0.83882484  0.40646609  0.65629248  1
  N  N15  1  0.66575492  0.59361007  0.86733339  1
