# generated using pymatgen
data_Li3TiTe6(IO)4
_symmetry_space_group_name_H-M   'P 1'
_cell_length_a   8.48965792
_cell_length_b   9.20488211
_cell_length_c   7.25196207
_cell_angle_alpha   90.00000000
_cell_angle_beta   90.00000000
_cell_angle_gamma   90.00000000
_symmetry_Int_Tables_number   1
_chemical_formula_structural   Li3TiTe6(IO)4
_chemical_formula_sum   'Li3 Ti1 Te6 I4 O4'
_cell_volume   566.71400611
_cell_formula_units_Z   1
loop_
 _symmetry_equiv_pos_site_id
 _symmetry_equiv_pos_as_xyz
  1  'x, y, z'
loop_
 _atom_site_type_symbol
 _atom_site_label
 _atom_site_symmetry_multiplicity
 _atom_site_fract_x
 _atom_site_fract_y
 _atom_site_fract_z
 _atom_site_occupancy
  I  I0  1  0.00000000  0.00000000  0.00000000  1
  I  I1  1  0.50000000  0.50000000  0.50000000  1
  I  I2  1  0.25000000  0.25000000  0.25000000  1
  I  I3  1  0.75000000  0.25000000  0.00000000  1
  Li  Li4  1  0.25000000  0.75000000  0.50000000  1
  Li  Li5  1  0.76167035  0.24081472  0.40532915  1
  Li  Li6  1  0.95220031  0.09836394  0.33991038  1
  Te  Te7  1  0.16152376  0.06492741  0.52527961  1
  Te  Te8  1  0.67951431  0.87117430  0.75723252  1
  Te  Te9  1  0.27924510  0.07317629  0.94328584  1
  Te  Te10  1  0.42983479  0.27361061  0.40997665  1
  Te  Te11  1  0.03792769  0.85974498  0.08666106  1
  Te  Te12  1  0.45717392  0.45295622  0.77103314  1
  Ti  Ti13  1  0.39838341  0.40584105  0.28526286  1
  O  O14  1  0.50677817  0.20061911  0.78289889  1
  O  O15  1  0.53112442  0.07585946  0.31548130  1
  O  O16  1  0.26850897  0.87194605  0.33574574  1
  O  O17  1  0.62880666  0.00878661  0.48059083  1
