# generated using pymatgen
data_Li2TiCu2P4F2
_symmetry_space_group_name_H-M   'P 1'
_cell_length_a   7.23157992
_cell_length_b   7.08848993
_cell_length_c   7.27913511
_cell_angle_alpha   90.94948471
_cell_angle_beta   92.39173865
_cell_angle_gamma   90.72024539
_symmetry_Int_Tables_number   1
_chemical_formula_structural   Li2TiCu2P4F2
_chemical_formula_sum   'Li2 Ti1 Cu2 P4 F2'
_cell_volume   372.72651878
_cell_formula_units_Z   1
loop_
 _symmetry_equiv_pos_site_id
 _symmetry_equiv_pos_as_xyz
  1  'x, y, z'
loop_
 _atom_site_type_symbol
 _atom_site_label
 _atom_site_symmetry_multiplicity
 _atom_site_fract_x
 _atom_site_fract_y
 _atom_site_fract_z
 _atom_site_occupancy
  P  P0  1  0.12500000  0.00000000  0.25000000  1
  P  P1  1  0.00000000  0.00000000  0.00000000  1
  P  P2  1  0.37500000  0.00000000  0.25000000  1
  P  P3  1  0.25000000  0.25000000  0.25000000  1
  Li  Li4  1  0.00000000  0.25000000  0.12500000  1
  Li  Li5  1  0.15111419  0.03313896  0.53708442  1
  Cu  Cu6  1  0.52680989  0.41736408  0.32128565  1
  Cu  Cu7  1  0.93362343  0.05985401  0.41474641  1
  F  F8  1  0.16451085  0.11436512  0.38613827  1
  F  F9  1  0.49650171  0.62737372  0.46526482  1
  Ti  Ti10  1  0.66585849  0.74878671  0.72197693  1
