# generated using pymatgen
data_LiMn2Sb4Mo2P3
_symmetry_space_group_name_H-M   'P 1'
_cell_length_a   5.81082346
_cell_length_b   5.99868180
_cell_length_c   6.41376274
_cell_angle_alpha   92.06217592
_cell_angle_beta   91.00437268
_cell_angle_gamma   91.71049512
_symmetry_Int_Tables_number   1
_chemical_formula_structural   LiMn2Sb4Mo2P3
_chemical_formula_sum   'Li1 Mn2 Sb4 Mo2 P3'
_cell_volume   223.28325641
_cell_formula_units_Z   1
loop_
 _symmetry_equiv_pos_site_id
 _symmetry_equiv_pos_as_xyz
  1  'x, y, z'
loop_
 _atom_site_type_symbol
 _atom_site_label
 _atom_site_symmetry_multiplicity
 _atom_site_fract_x
 _atom_site_fract_y
 _atom_site_fract_z
 _atom_site_occupancy
  Mn  Mn0  1  0.12500000  0.00000000  0.25000000  1
  Mn  Mn1  1  0.00000000  0.00000000  0.00000000  1
  Sb  Sb2  1  0.37500000  0.00000000  0.25000000  1
  Sb  Sb3  1  0.25000000  0.25000000  0.25000000  1
  Sb  Sb4  1  0.00000000  0.25000000  0.12500000  1
  Sb  Sb5  1  0.66913066  0.59613718  0.74077270  1
  P  P6  1  0.33182730  0.74018677  0.68632604  1
  P  P7  1  0.81330891  0.12895879  0.80256965  1
  P  P8  1  0.81974247  0.07741442  0.32975481  1
  Mo  Mo9  1  0.75257541  0.66012947  0.78776445  1
  Mo  Mo10  1  0.59523513  0.91896900  0.25282532  1
  Li  Li11  1  0.57816586  0.32759906  0.64416862  1
