# generated using pymatgen
data_Li3TiCu2(As3O2)2
_symmetry_space_group_name_H-M   'P 1'
_cell_length_a   8.40272563
_cell_length_b   8.26273808
_cell_length_c   7.70765420
_cell_angle_alpha   90.81423407
_cell_angle_beta   90.53156365
_cell_angle_gamma   90.94349375
_symmetry_Int_Tables_number   1
_chemical_formula_structural   Li3TiCu2(As3O2)2
_chemical_formula_sum   'Li3 Ti1 Cu2 As6 O4'
_cell_volume   534.98794434
_cell_formula_units_Z   1
loop_
 _symmetry_equiv_pos_site_id
 _symmetry_equiv_pos_as_xyz
  1  'x, y, z'
loop_
 _atom_site_type_symbol
 _atom_site_label
 _atom_site_symmetry_multiplicity
 _atom_site_fract_x
 _atom_site_fract_y
 _atom_site_fract_z
 _atom_site_occupancy
  Li  Li0  1  0.12500000  0.00000000  0.25000000  1
  Li  Li1  1  0.00000000  0.00000000  0.00000000  1
  Li  Li2  1  0.37500000  0.00000000  0.25000000  1
  Cu  Cu3  1  0.25000000  0.25000000  0.25000000  1
  Cu  Cu4  1  0.00000000  0.25000000  0.12500000  1
  Ti  Ti5  1  0.34463368  0.00308121  0.38731090  1
  As  As6  1  0.11299285  0.76094604  0.79938993  1
  As  As7  1  0.25166534  0.89844694  0.42779193  1
  As  As8  1  0.44891763  0.71536800  0.38782786  1
  As  As9  1  0.04428725  0.98788957  0.89626657  1
  As  As10  1  0.55330244  0.85734694  0.14490427  1
  As  As11  1  0.25898198  0.53357236  0.08100663  1
  O  O12  1  0.34990199  0.16582885  0.08175750  1
  O  O13  1  0.75341073  0.55696379  0.56213178  1
  O  O14  1  0.07569237  0.40686220  0.25524273  1
  O  O15  1  0.87677610  0.92998753  0.56872357  1
