# generated using pymatgen
data_Li3(TiP2)2
_symmetry_space_group_name_H-M   'P 1'
_cell_length_a   6.72840776
_cell_length_b   6.32461712
_cell_length_c   7.34548251
_cell_angle_alpha   94.78079828
_cell_angle_beta   95.55116267
_cell_angle_gamma   94.32154712
_symmetry_Int_Tables_number   1
_chemical_formula_structural   Li3(TiP2)2
_chemical_formula_sum   'Li3 Ti2 P4'
_cell_volume   308.93731215
_cell_formula_units_Z   1
loop_
 _symmetry_equiv_pos_site_id
 _symmetry_equiv_pos_as_xyz
  1  'x, y, z'
loop_
 _atom_site_type_symbol
 _atom_site_label
 _atom_site_symmetry_multiplicity
 _atom_site_fract_x
 _atom_site_fract_y
 _atom_site_fract_z
 _atom_site_occupancy
  P  P0  1  0.12500000  0.00000000  0.25000000  1
  P  P1  1  0.00000000  0.00000000  0.00000000  1
  P  P2  1  0.37500000  0.00000000  0.25000000  1
  P  P3  1  0.25000000  0.25000000  0.25000000  1
  Li  Li4  1  0.00000000  0.25000000  0.12500000  1
  Li  Li5  1  0.89485745  0.74441200  0.16496460  1
  Li  Li6  1  0.57929808  0.92532322  0.19958248  1
  Ti  Ti7  1  0.04511499  0.40505818  0.35652663  1
  Ti  Ti8  1  0.80205419  0.72394792  0.33263806  1
