# generated using pymatgen
data_LiMn2Sb4P3
_symmetry_space_group_name_H-M   'P 1'
_cell_length_a   6.38575309
_cell_length_b   6.79840860
_cell_length_c   7.01639144
_cell_angle_alpha   91.50142290
_cell_angle_beta   92.09610840
_cell_angle_gamma   91.92087579
_symmetry_Int_Tables_number   1
_chemical_formula_structural   LiMn2Sb4P3
_chemical_formula_sum   'Li1 Mn2 Sb4 P3'
_cell_volume   304.11270932
_cell_formula_units_Z   1
loop_
 _symmetry_equiv_pos_site_id
 _symmetry_equiv_pos_as_xyz
  1  'x, y, z'
loop_
 _atom_site_type_symbol
 _atom_site_label
 _atom_site_symmetry_multiplicity
 _atom_site_fract_x
 _atom_site_fract_y
 _atom_site_fract_z
 _atom_site_occupancy
  Mn  Mn0  1  0.00000000  0.00000000  0.00000000  1
  Mn  Mn1  1  0.50000000  0.50000000  0.50000000  1
  Sb  Sb2  1  0.50000000  0.50000000  0.00000000  1
  Sb  Sb3  1  0.50000000  0.00000000  0.50000000  1
  Sb  Sb4  1  0.00000000  0.50000000  0.50000000  1
  Sb  Sb5  1  0.04784572  0.14129185  0.66107041  1
  P  P6  1  0.21915243  0.97851992  0.17252783  1
  P  P7  1  0.16805348  0.94658224  0.79032078  1
  P  P8  1  0.13519358  0.20706118  0.25958900  1
  Li  Li9  1  0.53389962  0.10009109  0.15832053  1
