# generated using pymatgen
data_Li2Sb4Mo2P3N5
_symmetry_space_group_name_H-M   'P 1'
_cell_length_a   5.65014665
_cell_length_b   6.11396578
_cell_length_c   7.24989092
_cell_angle_alpha   97.67244851
_cell_angle_beta   93.47317484
_cell_angle_gamma   97.95015195
_symmetry_Int_Tables_number   1
_chemical_formula_structural   Li2Sb4Mo2P3N5
_chemical_formula_sum   'Li2 Sb4 Mo2 P3 N5'
_cell_volume   245.01992068
_cell_formula_units_Z   1
loop_
 _symmetry_equiv_pos_site_id
 _symmetry_equiv_pos_as_xyz
  1  'x, y, z'
loop_
 _atom_site_type_symbol
 _atom_site_label
 _atom_site_symmetry_multiplicity
 _atom_site_fract_x
 _atom_site_fract_y
 _atom_site_fract_z
 _atom_site_occupancy
  Sb  Sb0  1  0.12500000  0.00000000  0.25000000  1
  Sb  Sb1  1  0.00000000  0.00000000  0.00000000  1
  Sb  Sb2  1  0.37500000  0.00000000  0.25000000  1
  Sb  Sb3  1  0.25000000  0.25000000  0.25000000  1
  P  P4  1  0.00000000  0.25000000  0.12500000  1
  P  P5  1  0.46871838  0.08126787  0.50105074  1
  P  P6  1  0.87900584  0.15371329  0.38256305  1
  Mo  Mo7  1  0.49058891  0.02519673  0.55725641  1
  Mo  Mo8  1  0.60244439  0.92675832  0.49908668  1
  Li  Li9  1  0.34016785  0.45635196  0.55529035  1
  Li  Li10  1  0.77264479  0.13467889  0.77616474  1
  N  N11  1  0.96472254  0.58094072  0.85240773  1
  N  N12  1  0.59263154  0.59389681  0.45411669  1
  N  N13  1  0.01021739  0.57828993  0.61533254  1
  N  N14  1  0.93218201  0.60305779  0.26312642  1
  N  N15  1  0.24518430  0.50304160  0.23044387  1
