# generated using pymatgen
data_Li3TiNi2(IO)4
_symmetry_space_group_name_H-M   'P 1'
_cell_length_a   8.65043207
_cell_length_b   8.52162684
_cell_length_c   8.18898639
_cell_angle_alpha   90.00000000
_cell_angle_beta   90.00000000
_cell_angle_gamma   90.00000000
_symmetry_Int_Tables_number   1
_chemical_formula_structural   Li3TiNi2(IO)4
_chemical_formula_sum   'Li3 Ti1 Ni2 I4 O4'
_cell_volume   603.65730694
_cell_formula_units_Z   1
loop_
 _symmetry_equiv_pos_site_id
 _symmetry_equiv_pos_as_xyz
  1  'x, y, z'
loop_
 _atom_site_type_symbol
 _atom_site_label
 _atom_site_symmetry_multiplicity
 _atom_site_fract_x
 _atom_site_fract_y
 _atom_site_fract_z
 _atom_site_occupancy
  I  I0  1  0.00000000  0.00000000  0.00000000  1
  I  I1  1  0.50000000  0.50000000  0.50000000  1
  I  I2  1  0.50000000  0.50000000  0.00000000  1
  I  I3  1  0.50000000  0.00000000  0.50000000  1
  Li  Li4  1  0.00000000  0.50000000  0.50000000  1
  Li  Li5  1  0.68670383  0.92845837  0.62259807  1
  Li  Li6  1  0.61417708  0.44280906  0.74667270  1
  Ni  Ni7  1  0.38223901  0.26754797  0.55871634  1
  Ni  Ni8  1  0.75089465  0.75763678  0.13825653  1
  Ti  Ti9  1  0.56472132  0.79333346  0.75919478  1
  O  O10  1  0.40495989  0.94980844  0.23337361  1
  O  O11  1  0.07844737  0.17818411  0.95626305  1
  O  O12  1  0.40227874  0.55975644  0.43670692  1
  O  O13  1  0.10095068  0.71957406  0.16574401  1
