# generated using pymatgen
data_Li3P8
_symmetry_space_group_name_H-M   'P 1'
_cell_length_a   4.86168594
_cell_length_b   4.42771389
_cell_length_c   7.39986862
_cell_angle_alpha   100.06818360
_cell_angle_beta   101.03504653
_cell_angle_gamma   99.05739855
_symmetry_Int_Tables_number   1
_chemical_formula_structural   Li3P8
_chemical_formula_sum   'Li3 P8'
_cell_volume   150.90495121
_cell_formula_units_Z   1
loop_
 _symmetry_equiv_pos_site_id
 _symmetry_equiv_pos_as_xyz
  1  'x, y, z'
loop_
 _atom_site_type_symbol
 _atom_site_label
 _atom_site_symmetry_multiplicity
 _atom_site_fract_x
 _atom_site_fract_y
 _atom_site_fract_z
 _atom_site_occupancy
  Li  Li0  1  0.00000000  0.00000000  0.00000000  1
  Li  Li1  1  0.50000000  0.50000000  0.50000000  1
  Li  Li2  1  0.25000000  0.25000000  0.25000000  1
  P  P3  1  0.75000000  0.25000000  0.00000000  1
  P  P4  1  0.25000000  0.75000000  0.50000000  1
  P  P5  1  0.30943940  0.81141580  0.22216894  1
  P  P6  1  0.71998586  0.46370938  0.30988224  1
  P  P7  1  0.00296820  0.02056366  0.02942980  1
  P  P8  1  0.08987064  0.98322649  0.43821364  1
  P  P9  1  0.71927241  0.38085360  0.51373552  1
  P  P10  1  0.16639125  0.70355296  0.50505343  1
