# generated using pymatgen
data_Li4Ti3Cu2(P4O)2
_symmetry_space_group_name_H-M   'P 1'
_cell_length_a   5.96108997
_cell_length_b   6.22320638
_cell_length_c   7.39285944
_cell_angle_alpha   99.23413209
_cell_angle_beta   102.27019605
_cell_angle_gamma   100.82743882
_symmetry_Int_Tables_number   1
_chemical_formula_structural   Li4Ti3Cu2(P4O)2
_chemical_formula_sum   'Li4 Ti3 Cu2 P8 O2'
_cell_volume   257.41633045
_cell_formula_units_Z   1
loop_
 _symmetry_equiv_pos_site_id
 _symmetry_equiv_pos_as_xyz
  1  'x, y, z'
loop_
 _atom_site_type_symbol
 _atom_site_label
 _atom_site_symmetry_multiplicity
 _atom_site_fract_x
 _atom_site_fract_y
 _atom_site_fract_z
 _atom_site_occupancy
  P  P0  1  0.00000000  0.00000000  0.00000000  1
  P  P1  1  0.50000000  0.50000000  0.50000000  1
  P  P2  1  0.50000000  0.50000000  0.00000000  1
  P  P3  1  0.50000000  0.00000000  0.50000000  1
  P  P4  1  0.00000000  0.50000000  0.50000000  1
  P  P5  1  0.25473813  0.91872487  0.01759655  1
  P  P6  1  0.34130576  0.20081054  0.72437012  1
  P  P7  1  0.45319850  0.77911985  0.94207997  1
  Li  Li8  1  0.00946389  0.23760799  0.65247468  1
  Li  Li9  1  0.42562014  0.70542671  0.44495424  1
  Li  Li10  1  0.44645643  0.28652217  0.22760574  1
  Li  Li11  1  0.81304241  0.97649554  0.27019891  1
  Cu  Cu12  1  0.86254456  0.12049230  0.63228742  1
  Cu  Cu13  1  0.38820604  0.89256630  0.88495188  1
  Ti  Ti14  1  0.95575583  0.74892757  0.80341502  1
  Ti  Ti15  1  0.57220692  0.28918000  0.74920849  1
  Ti  Ti16  1  0.70267951  0.83889507  0.66501347  1
  O  O17  1  0.35318144  0.31515273  0.58317001  1
  O  O18  1  0.86944622  0.43595966  0.74374933  1
