# generated using pymatgen
data_Li2TiP3N5O2
_symmetry_space_group_name_H-M   'P 1'
_cell_length_a   8.25697924
_cell_length_b   8.00509624
_cell_length_c   7.70292997
_cell_angle_alpha   91.71737826
_cell_angle_beta   92.57450630
_cell_angle_gamma   91.76521112
_symmetry_Int_Tables_number   1
_chemical_formula_structural   Li2TiP3N5O2
_chemical_formula_sum   'Li2 Ti1 P3 N5 O2'
_cell_volume   508.14163631
_cell_formula_units_Z   1
loop_
 _symmetry_equiv_pos_site_id
 _symmetry_equiv_pos_as_xyz
  1  'x, y, z'
loop_
 _atom_site_type_symbol
 _atom_site_label
 _atom_site_symmetry_multiplicity
 _atom_site_fract_x
 _atom_site_fract_y
 _atom_site_fract_z
 _atom_site_occupancy
  P  P0  1  0.12500000  0.00000000  0.25000000  1
  P  P1  1  0.00000000  0.00000000  0.00000000  1
  P  P2  1  0.37500000  0.00000000  0.25000000  1
  Li  Li3  1  0.25000000  0.25000000  0.25000000  1
  Li  Li4  1  0.00000000  0.25000000  0.12500000  1
  Ti  Ti5  1  0.88044166  0.18696171  0.19399443  1
  O  O6  1  0.18745361  0.47246408  0.82249866  1
  O  O7  1  0.35998240  0.31605386  0.69440154  1
  N  N8  1  0.73718258  0.11436905  0.07554859  1
  N  N9  1  0.68599991  0.37049228  0.93204482  1
  N  N10  1  0.38212727  0.81729920  0.90073272  1
  N  N11  1  0.48941512  0.83146070  0.11207731  1
  N  N12  1  0.33450078  0.25441102  0.74530081  1
