# generated using pymatgen
data_Li2Ti(As3I2)2
_symmetry_space_group_name_H-M   'P 1'
_cell_length_a   8.02475064
_cell_length_b   8.09585227
_cell_length_c   7.95054468
_cell_angle_alpha   90.29332080
_cell_angle_beta   91.39553126
_cell_angle_gamma   90.33534399
_symmetry_Int_Tables_number   1
_chemical_formula_structural   Li2Ti(As3I2)2
_chemical_formula_sum   'Li2 Ti1 As6 I4'
_cell_volume   516.35538963
_cell_formula_units_Z   1
loop_
 _symmetry_equiv_pos_site_id
 _symmetry_equiv_pos_as_xyz
  1  'x, y, z'
loop_
 _atom_site_type_symbol
 _atom_site_label
 _atom_site_symmetry_multiplicity
 _atom_site_fract_x
 _atom_site_fract_y
 _atom_site_fract_z
 _atom_site_occupancy
  Ti  Ti0  1  0.00000000  0.00000000  0.00000000  1
  I  I1  1  0.50000000  0.50000000  0.50000000  1
  I  I2  1  0.25000000  0.25000000  0.25000000  1
  I  I3  1  0.75000000  0.25000000  0.00000000  1
  I  I4  1  0.25000000  0.75000000  0.50000000  1
  As  As5  1  0.49647864  0.84330647  0.38084541  1
  As  As6  1  0.57508963  0.15113233  0.61666923  1
  As  As7  1  0.52623064  0.09473055  0.23840256  1
  As  As8  1  0.98642678  0.95321972  0.07776925  1
  As  As9  1  0.39358133  0.20722580  0.35608633  1
  As  As10  1  0.31447632  0.13766536  0.61216632  1
  Li  Li11  1  0.91157054  0.10360618  0.21203617  1
  Li  Li12  1  0.55169210  0.92227300  0.86891363  1
