# generated using pymatgen
data_Li2Mn3Sb4P3
_symmetry_space_group_name_H-M   'P 1'
_cell_length_a   6.14777398
_cell_length_b   6.60523920
_cell_length_c   6.80876534
_cell_angle_alpha   96.73867764
_cell_angle_beta   90.33664252
_cell_angle_gamma   96.60464532
_symmetry_Int_Tables_number   1
_chemical_formula_structural   Li2Mn3Sb4P3
_chemical_formula_sum   'Li2 Mn3 Sb4 P3'
_cell_volume   272.70215455
_cell_formula_units_Z   1
loop_
 _symmetry_equiv_pos_site_id
 _symmetry_equiv_pos_as_xyz
  1  'x, y, z'
loop_
 _atom_site_type_symbol
 _atom_site_label
 _atom_site_symmetry_multiplicity
 _atom_site_fract_x
 _atom_site_fract_y
 _atom_site_fract_z
 _atom_site_occupancy
  Mn  Mn0  1  0.12500000  0.12500000  0.12500000  1
  Mn  Mn1  1  0.50000000  0.50000000  0.50000000  1
  Mn  Mn2  1  0.25000000  0.25000000  0.25000000  1
  Sb  Sb3  1  0.75000000  0.75000000  0.75000000  1
  Sb  Sb4  1  0.42962822  0.96032914  0.30090566  1
  Sb  Sb5  1  0.02074837  0.12861061  0.57432361  1
  Sb  Sb6  1  0.82832376  0.33308461  0.45000879  1
  P  P7  1  0.44463310  0.66035611  0.68304574  1
  P  P8  1  0.49961602  0.64279695  0.35202692  1
  P  P9  1  0.12410336  0.38879143  0.09325365  1
  Li  Li10  1  0.38065717  0.16919312  0.95239183  1
  Li  Li11  1  0.02994817  0.92642324  0.97516568  1
