# generated using pymatgen
data_Li2TaSb2Se4O
_symmetry_space_group_name_H-M   'P 1'
_cell_length_a   8.46382000
_cell_length_b   8.05720458
_cell_length_c   7.23830355
_cell_angle_alpha   90.00000000
_cell_angle_beta   90.00000000
_cell_angle_gamma   90.00000000
_symmetry_Int_Tables_number   1
_chemical_formula_structural   Li2TaSb2Se4O
_chemical_formula_sum   'Li2 Ta1 Sb2 Se4 O1'
_cell_volume   493.61415066
_cell_formula_units_Z   1
loop_
 _symmetry_equiv_pos_site_id
 _symmetry_equiv_pos_as_xyz
  1  'x, y, z'
loop_
 _atom_site_type_symbol
 _atom_site_label
 _atom_site_symmetry_multiplicity
 _atom_site_fract_x
 _atom_site_fract_y
 _atom_site_fract_z
 _atom_site_occupancy
  Li  Li0  1  0.12500000  0.00000000  0.25000000  1
  Li  Li1  1  0.00000000  0.00000000  0.00000000  1
  Sb  Sb2  1  0.37500000  0.00000000  0.25000000  1
  Sb  Sb3  1  0.25000000  0.25000000  0.25000000  1
  Se  Se4  1  0.00000000  0.25000000  0.12500000  1
  Se  Se5  1  0.13443755  0.50162085  0.94650493  1
  Se  Se6  1  0.01056454  0.59753556  0.33024409  1
  Se  Se7  1  0.91079206  0.74855820  0.74211836  1
  O  O8  1  0.41616179  0.64061937  0.53018198  1
  Ta  Ta9  1  0.18675557  0.20929971  0.08212116  1
