# generated using pymatgen
data_LiSb4Mo2P2N
_symmetry_space_group_name_H-M   'P 1'
_cell_length_a   5.01341704
_cell_length_b   5.26376514
_cell_length_c   6.34370280
_cell_angle_alpha   97.54760112
_cell_angle_beta   93.85742202
_cell_angle_gamma   97.02930146
_symmetry_Int_Tables_number   1
_chemical_formula_structural   LiSb4Mo2P2N
_chemical_formula_sum   'Li1 Sb4 Mo2 P2 N1'
_cell_volume   164.11698104
_cell_formula_units_Z   1
loop_
 _symmetry_equiv_pos_site_id
 _symmetry_equiv_pos_as_xyz
  1  'x, y, z'
loop_
 _atom_site_type_symbol
 _atom_site_label
 _atom_site_symmetry_multiplicity
 _atom_site_fract_x
 _atom_site_fract_y
 _atom_site_fract_z
 _atom_site_occupancy
  N  N0  1  0.12500000  0.00000000  0.25000000  1
  Sb  Sb1  1  0.00000000  0.00000000  0.00000000  1
  Sb  Sb2  1  0.37500000  0.00000000  0.25000000  1
  Sb  Sb3  1  0.25000000  0.25000000  0.25000000  1
  Sb  Sb4  1  0.00000000  0.25000000  0.12500000  1
  P  P5  1  0.69509386  0.11528244  0.91421086  1
  P  P6  1  0.00943001  0.84823130  0.03450448  1
  Mo  Mo7  1  0.45600056  0.54587525  0.74983698  1
  Mo  Mo8  1  0.51620649  0.51929966  0.39516370  1
  Li  Li9  1  0.31754111  0.77036041  0.58192344  1
