# generated using pymatgen
data_LiMn3Sb4P3
_symmetry_space_group_name_H-M   'P 1'
_cell_length_a   5.83333300
_cell_length_b   6.00664914
_cell_length_c   6.77515182
_cell_angle_alpha   95.37630136
_cell_angle_beta   92.96100299
_cell_angle_gamma   95.83401723
_symmetry_Int_Tables_number   1
_chemical_formula_structural   LiMn3Sb4P3
_chemical_formula_sum   'Li1 Mn3 Sb4 P3'
_cell_volume   234.67558854
_cell_formula_units_Z   1
loop_
 _symmetry_equiv_pos_site_id
 _symmetry_equiv_pos_as_xyz
  1  'x, y, z'
loop_
 _atom_site_type_symbol
 _atom_site_label
 _atom_site_symmetry_multiplicity
 _atom_site_fract_x
 _atom_site_fract_y
 _atom_site_fract_z
 _atom_site_occupancy
  Mn  Mn0  1  0.12500000  0.00000000  0.25000000  1
  Mn  Mn1  1  0.00000000  0.00000000  0.00000000  1
  Mn  Mn2  1  0.37500000  0.00000000  0.25000000  1
  Sb  Sb3  1  0.25000000  0.25000000  0.25000000  1
  Sb  Sb4  1  0.00000000  0.25000000  0.12500000  1
  Sb  Sb5  1  0.52355604  0.86826535  0.00906329  1
  Sb  Sb6  1  0.18404860  0.69181953  0.61791499  1
  P  P7  1  0.28124343  0.09886675  0.52368698  1
  P  P8  1  0.63577319  0.77668860  0.32567446  1
  P  P9  1  0.96553659  0.05821624  0.25923446  1
  Li  Li10  1  0.39767117  0.56609344  0.00073704  1
