# generated using pymatgen
data_LiNiAs3
_symmetry_space_group_name_H-M   'P 1'
_cell_length_a   7.45416482
_cell_length_b   7.38434078
_cell_length_c   8.63272944
_cell_angle_alpha   91.86933137
_cell_angle_beta   91.81090102
_cell_angle_gamma   92.16386038
_symmetry_Int_Tables_number   1
_chemical_formula_structural   LiNiAs3
_chemical_formula_sum   'Li2 Ni2 As6'
_cell_volume   474.33272079
_cell_formula_units_Z   2
loop_
 _symmetry_equiv_pos_site_id
 _symmetry_equiv_pos_as_xyz
  1  'x, y, z'
loop_
 _atom_site_type_symbol
 _atom_site_label
 _atom_site_symmetry_multiplicity
 _atom_site_fract_x
 _atom_site_fract_y
 _atom_site_fract_z
 _atom_site_occupancy
  Ni  Ni0  1  0.00000000  0.00000000  0.00000000  1
  Ni  Ni1  1  0.50000000  0.50000000  0.50000000  1
  As  As2  1  0.50000000  0.50000000  0.00000000  1
  As  As3  1  0.50000000  0.00000000  0.50000000  1
  As  As4  1  0.00000000  0.50000000  0.50000000  1
  As  As5  1  0.48732581  0.97982728  0.31445709  1
  As  As6  1  0.30294835  0.86832521  0.03255975  1
  As  As7  1  0.57475281  0.57926373  0.97944988  1
  Li  Li8  1  0.76436204  0.29078049  0.49881392  1
  Li  Li9  1  0.26120924  0.66336111  0.73699202  1
