# generated using pymatgen
data_LiScP8F2
_symmetry_space_group_name_H-M   'P 1'
_cell_length_a   6.14703955
_cell_length_b   6.45702537
_cell_length_c   8.00600868
_cell_angle_alpha   95.61167644
_cell_angle_beta   96.15057423
_cell_angle_gamma   95.04829789
_symmetry_Int_Tables_number   1
_chemical_formula_structural   LiScP8F2
_chemical_formula_sum   'Li1 Sc1 P8 F2'
_cell_volume   312.86695396
_cell_formula_units_Z   1
loop_
 _symmetry_equiv_pos_site_id
 _symmetry_equiv_pos_as_xyz
  1  'x, y, z'
loop_
 _atom_site_type_symbol
 _atom_site_label
 _atom_site_symmetry_multiplicity
 _atom_site_fract_x
 _atom_site_fract_y
 _atom_site_fract_z
 _atom_site_occupancy
  Sc  Sc0  1  0.12500000  0.12500000  0.12500000  1
  F  F1  1  0.50000000  0.50000000  0.50000000  1
  F  F2  1  0.25000000  0.25000000  0.25000000  1
  Li  Li3  1  0.75000000  0.75000000  0.75000000  1
  P  P4  1  0.58661720  0.88582267  0.77633815  1
  P  P5  1  0.21743581  0.79171332  0.12201210  1
  P  P6  1  0.53569910  0.82951082  0.48047795  1
  P  P7  1  0.58695601  0.58517000  0.93271867  1
  P  P8  1  0.36245430  0.74919133  0.67824360  1
  P  P9  1  0.05623366  0.79577791  0.11167488  1
  P  P10  1  0.81253039  0.80389419  0.06322852  1
  P  P11  1  0.79486968  0.50496584  0.20622640  1
