# generated using pymatgen
data_LiCuAs3P3F
_symmetry_space_group_name_H-M   'P 1'
_cell_length_a   7.96522775
_cell_length_b   7.89495282
_cell_length_c   8.17708968
_cell_angle_alpha   90.32211016
_cell_angle_beta   91.53250231
_cell_angle_gamma   90.36825792
_symmetry_Int_Tables_number   1
_chemical_formula_structural   LiCuAs3P3F
_chemical_formula_sum   'Li2 Cu2 As6 P6 F2'
_cell_volume   514.01390058
_cell_formula_units_Z   2
loop_
 _symmetry_equiv_pos_site_id
 _symmetry_equiv_pos_as_xyz
  1  'x, y, z'
loop_
 _atom_site_type_symbol
 _atom_site_label
 _atom_site_symmetry_multiplicity
 _atom_site_fract_x
 _atom_site_fract_y
 _atom_site_fract_z
 _atom_site_occupancy
  F  F0  1  0.12500000  0.00000000  0.25000000  1
  F  F1  1  0.00000000  0.00000000  0.00000000  1
  P  P2  1  0.37500000  0.00000000  0.25000000  1
  P  P3  1  0.25000000  0.25000000  0.25000000  1
  P  P4  1  0.00000000  0.25000000  0.12500000  1
  P  P5  1  0.33491112  0.52135684  0.48744055  1
  P  P6  1  0.14944057  0.56961194  0.31306813  1
  P  P7  1  0.58431447  0.26441925  0.85231869  1
  As  As8  1  0.39306091  0.38020228  0.36053317  1
  As  As9  1  0.21644985  0.72135989  0.19975163  1
  As  As10  1  0.62633916  0.47125576  0.70207173  1
  As  As11  1  0.91442579  0.10591071  0.00147256  1
  As  As12  1  0.58103933  0.57177980  0.51323835  1
  As  As13  1  0.00121714  0.76812267  0.79762065  1
  Li  Li14  1  0.46697038  0.52927357  0.40466209  1
  Li  Li15  1  0.78783618  0.12211389  0.53872683  1
  Cu  Cu16  1  0.78629490  0.52487010  0.67144362  1
  Cu  Cu17  1  0.09407067  0.57806141  0.68127189  1
