# generated using pymatgen
data_Li5ZrTiSeCl2
_symmetry_space_group_name_H-M   'P 1'
_cell_length_a   7.26918832
_cell_length_b   7.03721438
_cell_length_c   7.00026129
_cell_angle_alpha   97.19712227
_cell_angle_beta   99.18907212
_cell_angle_gamma   96.77044723
_symmetry_Int_Tables_number   1
_chemical_formula_structural   Li5ZrTiSeCl2
_chemical_formula_sum   'Li5 Zr1 Ti1 Se1 Cl2'
_cell_volume   347.22257415
_cell_formula_units_Z   1
loop_
 _symmetry_equiv_pos_site_id
 _symmetry_equiv_pos_as_xyz
  1  'x, y, z'
loop_
 _atom_site_type_symbol
 _atom_site_label
 _atom_site_symmetry_multiplicity
 _atom_site_fract_x
 _atom_site_fract_y
 _atom_site_fract_z
 _atom_site_occupancy
  Li  Li0  1  0.00000000  0.00000000  0.00000000  1
  Li  Li1  1  0.50000000  0.50000000  0.50000000  1
  Li  Li2  1  0.25000000  0.25000000  0.25000000  1
  Li  Li3  1  0.75000000  0.25000000  0.00000000  1
  Li  Li4  1  0.25000000  0.75000000  0.50000000  1
  Se  Se5  1  0.90563865  0.52652322  0.66986725  1
  Cl  Cl6  1  0.45219328  0.61023520  0.76410432  1
  Cl  Cl7  1  0.00123584  0.73203999  0.67455647  1
  Ti  Ti8  1  0.55925343  0.41141423  0.78910981  1
  Zr  Zr9  1  0.67731105  0.37464882  0.82990321  1
