# generated using pymatgen
data_LiMn2Sb4P3
_symmetry_space_group_name_H-M   'P 1'
_cell_length_a   5.54258509
_cell_length_b   5.92739385
_cell_length_c   6.77940057
_cell_angle_alpha   93.30458881
_cell_angle_beta   94.28853683
_cell_angle_gamma   94.01077690
_symmetry_Int_Tables_number   1
_chemical_formula_structural   LiMn2Sb4P3
_chemical_formula_sum   'Li1 Mn2 Sb4 P3'
_cell_volume   221.11367758
_cell_formula_units_Z   1
loop_
 _symmetry_equiv_pos_site_id
 _symmetry_equiv_pos_as_xyz
  1  'x, y, z'
loop_
 _atom_site_type_symbol
 _atom_site_label
 _atom_site_symmetry_multiplicity
 _atom_site_fract_x
 _atom_site_fract_y
 _atom_site_fract_z
 _atom_site_occupancy
  Mn  Mn0  1  0.12500000  0.12500000  0.12500000  1
  Mn  Mn1  1  0.50000000  0.50000000  0.50000000  1
  Sb  Sb2  1  0.25000000  0.25000000  0.25000000  1
  Sb  Sb3  1  0.75000000  0.75000000  0.75000000  1
  Sb  Sb4  1  0.33136122  0.13851310  0.53656932  1
  Sb  Sb5  1  0.11584611  0.23599650  0.36351911  1
  P  P6  1  0.78857659  0.55416213  0.51531480  1
  P  P7  1  0.77619623  0.82153675  0.21730525  1
  P  P8  1  0.49807282  0.63302082  0.80384898  1
  Li  Li9  1  0.15125483  0.27760736  0.60400599  1
