# generated using pymatgen
data_LiMn3Sb4P3
_symmetry_space_group_name_H-M   'P 1'
_cell_length_a   5.61091643
_cell_length_b   5.94528479
_cell_length_c   6.42746225
_cell_angle_alpha   93.53072825
_cell_angle_beta   91.59729522
_cell_angle_gamma   93.93381153
_symmetry_Int_Tables_number   1
_chemical_formula_structural   LiMn3Sb4P3
_chemical_formula_sum   'Li1 Mn3 Sb4 P3'
_cell_volume   213.38834448
_cell_formula_units_Z   1
loop_
 _symmetry_equiv_pos_site_id
 _symmetry_equiv_pos_as_xyz
  1  'x, y, z'
loop_
 _atom_site_type_symbol
 _atom_site_label
 _atom_site_symmetry_multiplicity
 _atom_site_fract_x
 _atom_site_fract_y
 _atom_site_fract_z
 _atom_site_occupancy
  Mn  Mn0  1  0.12500000  0.00000000  0.25000000  1
  Mn  Mn1  1  0.00000000  0.00000000  0.00000000  1
  Mn  Mn2  1  0.37500000  0.00000000  0.25000000  1
  Sb  Sb3  1  0.25000000  0.25000000  0.25000000  1
  Sb  Sb4  1  0.00000000  0.25000000  0.12500000  1
  Sb  Sb5  1  0.60927408  0.77293853  0.70254611  1
  Sb  Sb6  1  0.82556268  0.28624477  0.92639599  1
  P  P7  1  0.05662384  0.09870707  0.34308178  1
  P  P8  1  0.04083460  0.39538384  0.06119656  1
  P  P9  1  0.69963847  0.61709251  0.18668499  1
  Li  Li10  1  0.86397435  0.83791113  0.96346134  1
