# generated using pymatgen
data_Li3Cu2Ni2As6O7
_symmetry_space_group_name_H-M   'P 1'
_cell_length_a   7.85601224
_cell_length_b   7.89666164
_cell_length_c   8.98679160
_cell_angle_alpha   90.26306988
_cell_angle_beta   91.25160658
_cell_angle_gamma   90.30075912
_symmetry_Int_Tables_number   1
_chemical_formula_structural   Li3Cu2Ni2As6O7
_chemical_formula_sum   'Li3 Cu2 Ni2 As6 O7'
_cell_volume   557.36016758
_cell_formula_units_Z   1
loop_
 _symmetry_equiv_pos_site_id
 _symmetry_equiv_pos_as_xyz
  1  'x, y, z'
loop_
 _atom_site_type_symbol
 _atom_site_label
 _atom_site_symmetry_multiplicity
 _atom_site_fract_x
 _atom_site_fract_y
 _atom_site_fract_z
 _atom_site_occupancy
  Ni  Ni0  1  0.12500000  0.00000000  0.25000000  1
  Ni  Ni1  1  0.00000000  0.00000000  0.00000000  1
  O  O2  1  0.37500000  0.00000000  0.25000000  1
  O  O3  1  0.25000000  0.25000000  0.25000000  1
  O  O4  1  0.00000000  0.25000000  0.12500000  1
  O  O5  1  0.13499118  0.32913256  0.53479627  1
  O  O6  1  0.85262175  0.46580957  0.33236995  1
  O  O7  1  0.54555851  0.70090170  0.22008200  1
  O  O8  1  0.89665659  0.07756148  0.75430444  1
  As  As9  1  0.66300784  0.70054768  0.03239440  1
  As  As10  1  0.53014567  0.04368234  0.69595977  1
  As  As11  1  0.99112216  0.04033176  0.34188887  1
  As  As12  1  0.94516944  0.59133258  0.95964659  1
  As  As13  1  0.63676963  0.09299987  0.97804446  1
  As  As14  1  0.07179660  0.33808185  0.68274122  1
  Li  Li15  1  0.06058706  0.38075147  0.98107583  1
  Li  Li16  1  0.98396338  0.43326802  0.65258601  1
  Li  Li17  1  0.56555070  0.67284671  0.70658785  1
  Cu  Cu18  1  0.17081880  0.79533389  0.89877738  1
  Cu  Cu19  1  0.76290832  0.53767643  0.90715502  1
