# generated using pymatgen
data_LiMnSb4P3
_symmetry_space_group_name_H-M   'P 1'
_cell_length_a   5.15001956
_cell_length_b   5.45758683
_cell_length_c   6.44090938
_cell_angle_alpha   96.99380550
_cell_angle_beta   92.92476039
_cell_angle_gamma   97.36707660
_symmetry_Int_Tables_number   1
_chemical_formula_structural   LiMnSb4P3
_chemical_formula_sum   'Li1 Mn1 Sb4 P3'
_cell_volume   177.79346759
_cell_formula_units_Z   1
loop_
 _symmetry_equiv_pos_site_id
 _symmetry_equiv_pos_as_xyz
  1  'x, y, z'
loop_
 _atom_site_type_symbol
 _atom_site_label
 _atom_site_symmetry_multiplicity
 _atom_site_fract_x
 _atom_site_fract_y
 _atom_site_fract_z
 _atom_site_occupancy
  Mn  Mn0  1  0.12500000  0.12500000  0.12500000  1
  Sb  Sb1  1  0.50000000  0.50000000  0.50000000  1
  Sb  Sb2  1  0.25000000  0.25000000  0.25000000  1
  Sb  Sb3  1  0.75000000  0.75000000  0.75000000  1
  Sb  Sb4  1  0.73805741  0.79384520  0.96933789  1
  P  P5  1  0.42184013  0.77033482  0.41785107  1
  P  P6  1  0.22265413  0.76794884  0.38506447  1
  P  P7  1  0.17675850  0.50771396  0.20656654  1
  Li  Li8  1  0.40557595  0.89119914  0.22700349  1
