# generated using pymatgen
data_Li3Ni2P4N5
_symmetry_space_group_name_H-M   'P 1'
_cell_length_a   8.36442855
_cell_length_b   8.15255713
_cell_length_c   7.79629880
_cell_angle_alpha   91.24089510
_cell_angle_beta   90.43870852
_cell_angle_gamma   91.43928810
_symmetry_Int_Tables_number   1
_chemical_formula_structural   Li3Ni2P4N5
_chemical_formula_sum   'Li3 Ni2 P4 N5'
_cell_volume   531.33090652
_cell_formula_units_Z   1
loop_
 _symmetry_equiv_pos_site_id
 _symmetry_equiv_pos_as_xyz
  1  'x, y, z'
loop_
 _atom_site_type_symbol
 _atom_site_label
 _atom_site_symmetry_multiplicity
 _atom_site_fract_x
 _atom_site_fract_y
 _atom_site_fract_z
 _atom_site_occupancy
  P  P0  1  0.00000000  0.00000000  0.00000000  1
  P  P1  1  0.50000000  0.50000000  0.50000000  1
  P  P2  1  0.50000000  0.50000000  0.00000000  1
  P  P3  1  0.50000000  0.00000000  0.50000000  1
  Li  Li4  1  0.00000000  0.50000000  0.50000000  1
  Li  Li5  1  0.89310484  0.60750008  0.95533777  1
  Li  Li6  1  0.01919424  0.59820215  0.93366978  1
  Ni  Ni7  1  0.12599651  0.98816618  0.77387986  1
  Ni  Ni8  1  0.69175861  0.74039983  0.47661871  1
  N  N9  1  0.24001692  0.57477700  0.36157358  1
  N  N10  1  0.58480435  0.28538744  0.89786496  1
  N  N11  1  0.27103857  0.08786638  0.50125634  1
  N  N12  1  0.15827645  0.83651697  0.91060840  1
  N  N13  1  0.55257039  0.24559472  0.02084691  1
