# generated using pymatgen
data_Li3As6O5F3
_symmetry_space_group_name_H-M   'P 1'
_cell_length_a   8.41164278
_cell_length_b   8.27699904
_cell_length_c   7.71207730
_cell_angle_alpha   90.15273753
_cell_angle_beta   91.07005513
_cell_angle_gamma   90.16296018
_symmetry_Int_Tables_number   1
_chemical_formula_structural   Li3As6O5F3
_chemical_formula_sum   'Li3 As6 O5 F3'
_cell_volume   536.84139206
_cell_formula_units_Z   1
loop_
 _symmetry_equiv_pos_site_id
 _symmetry_equiv_pos_as_xyz
  1  'x, y, z'
loop_
 _atom_site_type_symbol
 _atom_site_label
 _atom_site_symmetry_multiplicity
 _atom_site_fract_x
 _atom_site_fract_y
 _atom_site_fract_z
 _atom_site_occupancy
  Li  Li0  1  0.12500000  0.00000000  0.25000000  1
  Li  Li1  1  0.00000000  0.00000000  0.00000000  1
  Li  Li2  1  0.37500000  0.00000000  0.25000000  1
  F  F3  1  0.25000000  0.25000000  0.25000000  1
  F  F4  1  0.00000000  0.25000000  0.12500000  1
  F  F5  1  0.59475323  0.91276604  0.02299259  1
  As  As6  1  0.28133813  0.43191449  0.87382143  1
  As  As7  1  0.41930512  0.96124411  0.86839295  1
  As  As8  1  0.92913513  0.21843036  0.79767782  1
  As  As9  1  0.31481293  0.31268721  0.22662356  1
  As  As10  1  0.18178136  0.11330308  0.73846457  1
  As  As11  1  0.28066101  0.24940624  0.82459275  1
  O  O12  1  0.13418513  0.42099293  0.90942571  1
  O  O13  1  0.05460860  0.94577347  0.50574877  1
  O  O14  1  0.27705721  0.54883177  0.66525943  1
  O  O15  1  0.14017745  0.03762966  0.88579805  1
  O  O16  1  0.76891080  0.22641980  0.88145371  1
