# generated using pymatgen
data_Li2Mn2Sb4P3
_symmetry_space_group_name_H-M   'P 1'
_cell_length_a   5.16645411
_cell_length_b   5.40412364
_cell_length_c   6.50911452
_cell_angle_alpha   100.56063383
_cell_angle_beta   92.85877595
_cell_angle_gamma   100.72158214
_symmetry_Int_Tables_number   1
_chemical_formula_structural   Li2Mn2Sb4P3
_chemical_formula_sum   'Li2 Mn2 Sb4 P3'
_cell_volume   174.87372732
_cell_formula_units_Z   1
loop_
 _symmetry_equiv_pos_site_id
 _symmetry_equiv_pos_as_xyz
  1  'x, y, z'
loop_
 _atom_site_type_symbol
 _atom_site_label
 _atom_site_symmetry_multiplicity
 _atom_site_fract_x
 _atom_site_fract_y
 _atom_site_fract_z
 _atom_site_occupancy
  Mn  Mn0  1  0.12500000  0.00000000  0.25000000  1
  Mn  Mn1  1  0.00000000  0.00000000  0.00000000  1
  Sb  Sb2  1  0.37500000  0.00000000  0.25000000  1
  Sb  Sb3  1  0.25000000  0.25000000  0.25000000  1
  Sb  Sb4  1  0.00000000  0.25000000  0.12500000  1
  Sb  Sb5  1  0.32118501  0.89030353  0.61503307  1
  P  P6  1  0.84539774  0.50385718  0.40634228  1
  P  P7  1  0.18553076  0.10258377  0.06988712  1
  P  P8  1  0.27149468  0.24783966  0.15744792  1
  Li  Li9  1  0.87043891  0.27954643  0.32912352  1
  Li  Li10  1  0.57558460  0.17088258  0.06703791  1
