# generated using pymatgen
data_Li2MnMo2P3
_symmetry_space_group_name_H-M   'P 1'
_cell_length_a   3.84997488
_cell_length_b   3.98195593
_cell_length_c   5.94229733
_cell_angle_alpha   105.64129116
_cell_angle_beta   93.59220011
_cell_angle_gamma   105.72162967
_symmetry_Int_Tables_number   1
_chemical_formula_structural   Li2MnMo2P3
_chemical_formula_sum   'Li2 Mn1 Mo2 P3'
_cell_volume   83.53275981
_cell_formula_units_Z   1
loop_
 _symmetry_equiv_pos_site_id
 _symmetry_equiv_pos_as_xyz
  1  'x, y, z'
loop_
 _atom_site_type_symbol
 _atom_site_label
 _atom_site_symmetry_multiplicity
 _atom_site_fract_x
 _atom_site_fract_y
 _atom_site_fract_z
 _atom_site_occupancy
  Mn  Mn0  1  0.00000000  0.00000000  0.00000000  1
  P  P1  1  0.33300000  0.66700000  0.25000000  1
  P  P2  1  0.66700000  0.33300000  0.50000000  1
  P  P3  1  0.00000000  0.00000000  0.75000000  1
  Mo  Mo4  1  0.43904387  0.48232762  0.27078522  1
  Mo  Mo5  1  0.87730766  0.92592348  0.24139867  1
  Li  Li6  1  0.86966410  0.51143192  0.57527168  1
  Li  Li7  1  0.78286727  0.37356390  0.33200048  1
