# generated using pymatgen
data_LiMn2Sb4P3
_symmetry_space_group_name_H-M   'P 1'
_cell_length_a   6.21998983
_cell_length_b   6.44181290
_cell_length_c   7.04932840
_cell_angle_alpha   94.38346139
_cell_angle_beta   92.19493905
_cell_angle_gamma   94.47907705
_symmetry_Int_Tables_number   1
_chemical_formula_structural   LiMn2Sb4P3
_chemical_formula_sum   'Li1 Mn2 Sb4 P3'
_cell_volume   280.48768072
_cell_formula_units_Z   1
loop_
 _symmetry_equiv_pos_site_id
 _symmetry_equiv_pos_as_xyz
  1  'x, y, z'
loop_
 _atom_site_type_symbol
 _atom_site_label
 _atom_site_symmetry_multiplicity
 _atom_site_fract_x
 _atom_site_fract_y
 _atom_site_fract_z
 _atom_site_occupancy
  Mn  Mn0  1  0.12500000  0.00000000  0.25000000  1
  Mn  Mn1  1  0.00000000  0.00000000  0.00000000  1
  Sb  Sb2  1  0.37500000  0.00000000  0.25000000  1
  Sb  Sb3  1  0.25000000  0.25000000  0.25000000  1
  Sb  Sb4  1  0.00000000  0.25000000  0.12500000  1
  Sb  Sb5  1  0.48461530  0.69342380  0.58182955  1
  P  P6  1  0.35898092  0.48432274  0.47409175  1
  P  P7  1  0.39120927  0.72054643  0.76892050  1
  P  P8  1  0.05383775  0.73505180  0.42928538  1
  Li  Li9  1  0.11065028  0.50568664  0.45552908  1
