# generated using pymatgen
data_LiTiCuP3F
_symmetry_space_group_name_H-M   'P 1'
_cell_length_a   7.80109746
_cell_length_b   7.66166716
_cell_length_c   7.89128807
_cell_angle_alpha   92.02163981
_cell_angle_beta   93.15100363
_cell_angle_gamma   91.93494667
_symmetry_Int_Tables_number   1
_chemical_formula_structural   LiTiCuP3F
_chemical_formula_sum   'Li2 Ti2 Cu2 P6 F2'
_cell_volume   470.35007297
_cell_formula_units_Z   2
loop_
 _symmetry_equiv_pos_site_id
 _symmetry_equiv_pos_as_xyz
  1  'x, y, z'
loop_
 _atom_site_type_symbol
 _atom_site_label
 _atom_site_symmetry_multiplicity
 _atom_site_fract_x
 _atom_site_fract_y
 _atom_site_fract_z
 _atom_site_occupancy
  P  P0  1  0.12500000  0.00000000  0.25000000  1
  P  P1  1  0.00000000  0.00000000  0.00000000  1
  P  P2  1  0.37500000  0.00000000  0.25000000  1
  P  P3  1  0.25000000  0.25000000  0.25000000  1
  P  P4  1  0.00000000  0.25000000  0.12500000  1
  P  P5  1  0.74111914  0.75120981  0.75971783  1
  Li  Li6  1  0.70325188  0.03722642  0.33790536  1
  Li  Li7  1  0.61666800  0.83583808  0.73251374  1
  Cu  Cu8  1  0.53222393  0.33431871  0.09513429  1
  Cu  Cu9  1  0.55479336  0.54336611  0.35071646  1
  F  F10  1  0.54559719  0.44534381  0.41025142  1
  F  F11  1  0.67193446  0.64715907  0.39996282  1
  Ti  Ti12  1  0.86690384  0.48740103  0.41944736  1
  Ti  Ti13  1  0.59975503  0.53332681  0.13742887  1
