# generated using pymatgen
data_Li3Lu(CuAs3)2
_symmetry_space_group_name_H-M   'P 1'
_cell_length_a   7.91513906
_cell_length_b   7.75383409
_cell_length_c   8.22256436
_cell_angle_alpha   91.65154877
_cell_angle_beta   91.07819523
_cell_angle_gamma   91.91373219
_symmetry_Int_Tables_number   1
_chemical_formula_structural   Li3Lu(CuAs3)2
_chemical_formula_sum   'Li3 Lu1 Cu2 As6'
_cell_volume   504.05096707
_cell_formula_units_Z   1
loop_
 _symmetry_equiv_pos_site_id
 _symmetry_equiv_pos_as_xyz
  1  'x, y, z'
loop_
 _atom_site_type_symbol
 _atom_site_label
 _atom_site_symmetry_multiplicity
 _atom_site_fract_x
 _atom_site_fract_y
 _atom_site_fract_z
 _atom_site_occupancy
  Lu  Lu0  1  0.00000000  0.00000000  0.00000000  1
  Li  Li1  1  0.33300000  0.66700000  0.25000000  1
  Li  Li2  1  0.66700000  0.33300000  0.50000000  1
  Li  Li3  1  0.00000000  0.00000000  0.75000000  1
  Cu  Cu4  1  0.33381394  0.16930461  0.03760962  1
  Cu  Cu5  1  0.73244762  0.30837464  0.05863828  1
  As  As6  1  0.11656159  0.07807872  0.71875918  1
  As  As7  1  0.25965610  0.63815322  0.47141750  1
  As  As8  1  0.68546004  0.40593557  0.44505611  1
  As  As9  1  0.11502606  0.44992484  0.31291574  1
  As  As10  1  0.05117357  0.53168121  0.91019197  1
  As  As11  1  0.83151077  0.41311343  0.78792926  1
