# generated using pymatgen
data_Li2Mn2Sb4P3N
_symmetry_space_group_name_H-M   'P 1'
_cell_length_a   6.59512993
_cell_length_b   7.16018208
_cell_length_c   7.23449398
_cell_angle_alpha   93.37054331
_cell_angle_beta   92.53910818
_cell_angle_gamma   93.21691642
_symmetry_Int_Tables_number   1
_chemical_formula_structural   Li2Mn2Sb4P3N
_chemical_formula_sum   'Li2 Mn2 Sb4 P3 N1'
_cell_volume   340.11278142
_cell_formula_units_Z   1
loop_
 _symmetry_equiv_pos_site_id
 _symmetry_equiv_pos_as_xyz
  1  'x, y, z'
loop_
 _atom_site_type_symbol
 _atom_site_label
 _atom_site_symmetry_multiplicity
 _atom_site_fract_x
 _atom_site_fract_y
 _atom_site_fract_z
 _atom_site_occupancy
  N  N0  1  0.12500000  0.00000000  0.25000000  1
  Mn  Mn1  1  0.00000000  0.00000000  0.00000000  1
  Mn  Mn2  1  0.37500000  0.00000000  0.25000000  1
  Sb  Sb3  1  0.25000000  0.25000000  0.25000000  1
  Sb  Sb4  1  0.00000000  0.25000000  0.12500000  1
  Sb  Sb5  1  0.76566406  0.48001006  0.30071979  1
  Sb  Sb6  1  0.19980468  0.81649763  0.16798689  1
  P  P7  1  0.26128668  0.39975213  0.00262614  1
  P  P8  1  0.31721846  0.43231573  0.71271555  1
  P  P9  1  0.69281651  0.71538943  0.24589682  1
  Li  Li10  1  0.56284951  0.41902529  0.60912159  1
  Li  Li11  1  0.61886724  0.17434082  0.81537805  1
