# generated using pymatgen
data_Li2Mn2Mo2P3
_symmetry_space_group_name_H-M   'P 1'
_cell_length_a   4.48571346
_cell_length_b   4.71375115
_cell_length_c   6.18304110
_cell_angle_alpha   103.16346760
_cell_angle_beta   92.67535410
_cell_angle_gamma   103.18264534
_symmetry_Int_Tables_number   1
_chemical_formula_structural   Li2Mn2Mo2P3
_chemical_formula_sum   'Li2 Mn2 Mo2 P3'
_cell_volume   123.27534140
_cell_formula_units_Z   1
loop_
 _symmetry_equiv_pos_site_id
 _symmetry_equiv_pos_as_xyz
  1  'x, y, z'
loop_
 _atom_site_type_symbol
 _atom_site_label
 _atom_site_symmetry_multiplicity
 _atom_site_fract_x
 _atom_site_fract_y
 _atom_site_fract_z
 _atom_site_occupancy
  Mn  Mn0  1  0.00000000  0.00000000  0.00000000  1
  Mn  Mn1  1  0.50000000  0.50000000  0.50000000  1
  P  P2  1  0.50000000  0.50000000  0.00000000  1
  P  P3  1  0.50000000  0.00000000  0.50000000  1
  P  P4  1  0.00000000  0.50000000  0.50000000  1
  Mo  Mo5  1  0.61542028  0.73511426  0.23596697  1
  Mo  Mo6  1  0.42533717  0.99930134  0.08339549  1
  Li  Li7  1  0.38915776  0.54759180  0.41032443  1
  Li  Li8  1  0.11403833  0.63445250  0.16511885  1
