# generated using pymatgen
data_LiSb4P3
_symmetry_space_group_name_H-M   'P 1'
_cell_length_a   5.43369160
_cell_length_b   5.97602522
_cell_length_c   6.43758358
_cell_angle_alpha   94.33670795
_cell_angle_beta   91.01909803
_cell_angle_gamma   94.06239408
_symmetry_Int_Tables_number   1
_chemical_formula_structural   LiSb4P3
_chemical_formula_sum   'Li1 Sb4 P3'
_cell_volume   207.86192303
_cell_formula_units_Z   1
loop_
 _symmetry_equiv_pos_site_id
 _symmetry_equiv_pos_as_xyz
  1  'x, y, z'
loop_
 _atom_site_type_symbol
 _atom_site_label
 _atom_site_symmetry_multiplicity
 _atom_site_fract_x
 _atom_site_fract_y
 _atom_site_fract_z
 _atom_site_occupancy
  Sb  Sb0  1  0.00000000  0.00000000  0.00000000  1
  Sb  Sb1  1  0.50000000  0.50000000  0.50000000  1
  Sb  Sb2  1  0.25000000  0.25000000  0.25000000  1
  Sb  Sb3  1  0.75000000  0.25000000  0.00000000  1
  P  P4  1  0.25000000  0.75000000  0.50000000  1
  P  P5  1  0.39193143  0.71159126  0.53118022  1
  P  P6  1  0.66929830  0.78612511  0.13328785  1
  Li  Li7  1  0.67512197  0.22232359  0.19477760  1
