# generated using pymatgen
data_Li2Cu2As6P3O2
_symmetry_space_group_name_H-M   'P 1'
_cell_length_a   7.94146260
_cell_length_b   7.92222124
_cell_length_c   7.72741571
_cell_angle_alpha   90.32503673
_cell_angle_beta   91.54642606
_cell_angle_gamma   90.37160378
_symmetry_Int_Tables_number   1
_chemical_formula_structural   Li2Cu2As6P3O2
_chemical_formula_sum   'Li2 Cu2 As6 P3 O2'
_cell_volume   485.96721055
_cell_formula_units_Z   1
loop_
 _symmetry_equiv_pos_site_id
 _symmetry_equiv_pos_as_xyz
  1  'x, y, z'
loop_
 _atom_site_type_symbol
 _atom_site_label
 _atom_site_symmetry_multiplicity
 _atom_site_fract_x
 _atom_site_fract_y
 _atom_site_fract_z
 _atom_site_occupancy
  P  P0  1  0.00000000  0.00000000  0.00000000  1
  P  P1  1  0.50000000  0.50000000  0.50000000  1
  P  P2  1  0.50000000  0.50000000  0.00000000  1
  Li  Li3  1  0.50000000  0.00000000  0.50000000  1
  Li  Li4  1  0.00000000  0.50000000  0.50000000  1
  Cu  Cu5  1  0.24706220  0.03609883  0.50328984  1
  Cu  Cu6  1  0.32281212  0.86587115  0.90853852  1
  As  As7  1  0.08384618  0.58064295  0.18844554  1
  As  As8  1  0.94511251  0.01858910  0.40085058  1
  As  As9  1  0.09275550  0.07057288  0.05577062  1
  As  As10  1  0.78787865  0.87799687  0.69264496  1
  As  As11  1  0.48931649  0.45380890  0.74395424  1
  As  As12  1  0.57783177  0.93099086  0.35087478  1
  O  O13  1  0.00751662  0.72789596  0.66755093  1
  O  O14  1  0.97487328  0.19596970  0.68841398  1
