# generated using pymatgen
data_Li3Ti2Ni2I4F3
_symmetry_space_group_name_H-M   'P 1'
_cell_length_a   6.81049722
_cell_length_b   6.51798880
_cell_length_c   8.23579870
_cell_angle_alpha   94.48729548
_cell_angle_beta   93.76449949
_cell_angle_gamma   94.70006801
_symmetry_Int_Tables_number   1
_chemical_formula_structural   Li3Ti2Ni2I4F3
_chemical_formula_sum   'Li3 Ti2 Ni2 I4 F3'
_cell_volume   362.29021063
_cell_formula_units_Z   1
loop_
 _symmetry_equiv_pos_site_id
 _symmetry_equiv_pos_as_xyz
  1  'x, y, z'
loop_
 _atom_site_type_symbol
 _atom_site_label
 _atom_site_symmetry_multiplicity
 _atom_site_fract_x
 _atom_site_fract_y
 _atom_site_fract_z
 _atom_site_occupancy
  I  I0  1  0.00000000  0.00000000  0.00000000  1
  I  I1  1  0.50000000  0.50000000  0.50000000  1
  I  I2  1  0.50000000  0.50000000  0.00000000  1
  I  I3  1  0.50000000  0.00000000  0.50000000  1
  Li  Li4  1  0.00000000  0.50000000  0.50000000  1
  Li  Li5  1  0.50622212  0.58541791  0.79394408  1
  Li  Li6  1  0.33847038  0.98991959  0.45364858  1
  F  F7  1  0.68772895  0.81305606  0.02359145  1
  F  F8  1  0.31192155  0.64578060  0.54159239  1
  F  F9  1  0.56262941  0.20661306  0.61003992  1
  Ni  Ni10  1  0.17110360  0.81301096  0.61796901  1
  Ni  Ni11  1  0.38476244  0.84456127  0.09262471  1
  Ti  Ti12  1  0.39484114  0.05826110  0.06483509  1
  Ti  Ti13  1  0.36024179  0.67965492  0.39876270  1
