# generated using pymatgen
data_LiMn2Sb4P3
_symmetry_space_group_name_H-M   'P 1'
_cell_length_a   5.60336013
_cell_length_b   5.95842654
_cell_length_c   6.76232675
_cell_angle_alpha   94.84629680
_cell_angle_beta   93.41049967
_cell_angle_gamma   95.02148893
_symmetry_Int_Tables_number   1
_chemical_formula_structural   LiMn2Sb4P3
_chemical_formula_sum   'Li1 Mn2 Sb4 P3'
_cell_volume   223.59527267
_cell_formula_units_Z   1
loop_
 _symmetry_equiv_pos_site_id
 _symmetry_equiv_pos_as_xyz
  1  'x, y, z'
loop_
 _atom_site_type_symbol
 _atom_site_label
 _atom_site_symmetry_multiplicity
 _atom_site_fract_x
 _atom_site_fract_y
 _atom_site_fract_z
 _atom_site_occupancy
  Mn  Mn0  1  0.00000000  0.00000000  0.00000000  1
  Mn  Mn1  1  0.33300000  0.66700000  0.25000000  1
  Sb  Sb2  1  0.66700000  0.33300000  0.50000000  1
  Sb  Sb3  1  0.00000000  0.00000000  0.75000000  1
  Sb  Sb4  1  0.08867202  0.19308751  0.50468594  1
  Sb  Sb5  1  0.86738303  0.36181545  0.48995332  1
  P  P6  1  0.84377907  0.98142617  0.84960984  1
  P  P7  1  0.83540460  0.21970759  0.13123062  1
  P  P8  1  0.98832086  0.11161381  0.22565732  1
  Li  Li9  1  0.81444869  0.33361152  0.25777541  1
