# generated using pymatgen
data_Li2MnSb4P3N
_symmetry_space_group_name_H-M   'P 1'
_cell_length_a   4.56755001
_cell_length_b   4.87152641
_cell_length_c   6.51081447
_cell_angle_alpha   99.33703012
_cell_angle_beta   96.79808260
_cell_angle_gamma   99.47411073
_symmetry_Int_Tables_number   1
_chemical_formula_structural   Li2MnSb4P3N
_chemical_formula_sum   'Li2 Mn1 Sb4 P3 N1'
_cell_volume   139.42729481
_cell_formula_units_Z   1
loop_
 _symmetry_equiv_pos_site_id
 _symmetry_equiv_pos_as_xyz
  1  'x, y, z'
loop_
 _atom_site_type_symbol
 _atom_site_label
 _atom_site_symmetry_multiplicity
 _atom_site_fract_x
 _atom_site_fract_y
 _atom_site_fract_z
 _atom_site_occupancy
  N  N0  1  0.00000000  0.00000000  0.00000000  1
  Mn  Mn1  1  0.50000000  0.50000000  0.50000000  1
  Sb  Sb2  1  0.25000000  0.25000000  0.25000000  1
  Sb  Sb3  1  0.75000000  0.25000000  0.00000000  1
  Sb  Sb4  1  0.25000000  0.75000000  0.50000000  1
  Sb  Sb5  1  0.40066624  0.52985150  0.76965960  1
  P  P6  1  0.38438835  0.61329400  0.88038333  1
  P  P7  1  0.84588966  0.44523257  0.10533826  1
  P  P8  1  0.90574773  0.96650988  0.30430084  1
  Li  Li9  1  0.72326921  0.55029988  0.04123813  1
  Li  Li10  1  0.92386644  0.54954193  0.99268255  1
