# generated using pymatgen
data_LiMn2Sb4P3
_symmetry_space_group_name_H-M   'P 1'
_cell_length_a   6.64986267
_cell_length_b   7.15763439
_cell_length_c   7.09460917
_cell_angle_alpha   92.21220744
_cell_angle_beta   91.08636114
_cell_angle_gamma   92.19241331
_symmetry_Int_Tables_number   1
_chemical_formula_structural   LiMn2Sb4P3
_chemical_formula_sum   'Li1 Mn2 Sb4 P3'
_cell_volume   337.11483910
_cell_formula_units_Z   1
loop_
 _symmetry_equiv_pos_site_id
 _symmetry_equiv_pos_as_xyz
  1  'x, y, z'
loop_
 _atom_site_type_symbol
 _atom_site_label
 _atom_site_symmetry_multiplicity
 _atom_site_fract_x
 _atom_site_fract_y
 _atom_site_fract_z
 _atom_site_occupancy
  Mn  Mn0  1  0.12500000  0.12500000  0.12500000  1
  Mn  Mn1  1  0.50000000  0.50000000  0.50000000  1
  Sb  Sb2  1  0.25000000  0.25000000  0.25000000  1
  Sb  Sb3  1  0.75000000  0.75000000  0.75000000  1
  Sb  Sb4  1  0.90543339  0.27031204  0.12810976  1
  Sb  Sb5  1  0.11533407  0.39054204  0.69542436  1
  P  P6  1  0.02542099  0.90196646  0.85649290  1
  P  P7  1  0.72457526  0.37336488  0.27174951  1
  P  P8  1  0.92251837  0.06583993  0.57241835  1
  Li  Li9  1  0.61471606  0.50079552  0.24580350  1
