# generated using pymatgen
data_Li3TiAl3SeO4
_symmetry_space_group_name_H-M   'P 1'
_cell_length_a   5.73038207
_cell_length_b   5.25194780
_cell_length_c   5.55034731
_cell_angle_alpha   91.86241878
_cell_angle_beta   89.33793607
_cell_angle_gamma   87.55788835
_symmetry_Int_Tables_number   1
_chemical_formula_structural   Li3TiAl3SeO4
_chemical_formula_sum   'Li3 Ti1 Al3 Se1 O4'
_cell_volume   166.78753216
_cell_formula_units_Z   1
loop_
 _symmetry_equiv_pos_site_id
 _symmetry_equiv_pos_as_xyz
  1  'x, y, z'
loop_
 _atom_site_type_symbol
 _atom_site_label
 _atom_site_symmetry_multiplicity
 _atom_site_fract_x
 _atom_site_fract_y
 _atom_site_fract_z
 _atom_site_occupancy
  Li  Li0  1  0.00000000  0.00000000  0.00000000  1
  Li  Li1  1  0.50000000  0.50000000  0.50000000  1
  Li  Li2  1  0.25000000  0.25000000  0.25000000  1
  Se  Se3  1  0.75000000  0.25000000  0.00000000  1
  Al  Al4  1  0.25000000  0.75000000  0.50000000  1
  Al  Al5  1  0.06716967  0.74561367  0.30340945  1
  Al  Al6  1  0.05412270  0.75095734  0.16074883  1
  Ti  Ti7  1  0.34124186  0.87536040  0.74378729  1
  O  O8  1  0.31377752  0.58767390  0.44531566  1
  O  O9  1  0.03461311  0.24871414  0.12191841  1
  O  O10  1  0.12189151  0.32156073  0.86738354  1
  O  O11  1  0.41863954  0.92100900  0.30500728  1
