# generated using pymatgen
data_Li5LuCu2(NiAs3)2
_symmetry_space_group_name_H-M   'P 1'
_cell_length_a   6.77609091
_cell_length_b   6.53510660
_cell_length_c   8.38797432
_cell_angle_alpha   96.58482200
_cell_angle_beta   97.47686177
_cell_angle_gamma   96.51959208
_symmetry_Int_Tables_number   1
_chemical_formula_structural   Li5LuCu2(NiAs3)2
_chemical_formula_sum   'Li5 Lu1 Cu2 Ni2 As6'
_cell_volume   362.72746350
_cell_formula_units_Z   1
loop_
 _symmetry_equiv_pos_site_id
 _symmetry_equiv_pos_as_xyz
  1  'x, y, z'
loop_
 _atom_site_type_symbol
 _atom_site_label
 _atom_site_symmetry_multiplicity
 _atom_site_fract_x
 _atom_site_fract_y
 _atom_site_fract_z
 _atom_site_occupancy
  Ni  Ni0  1  0.12500000  0.00000000  0.25000000  1
  Ni  Ni1  1  0.00000000  0.00000000  0.00000000  1
  Lu  Lu2  1  0.37500000  0.00000000  0.25000000  1
  As  As3  1  0.25000000  0.25000000  0.25000000  1
  As  As4  1  0.00000000  0.25000000  0.12500000  1
  As  As5  1  0.62353368  0.65662060  0.98706181  1
  As  As6  1  0.84107077  0.75595493  0.94302174  1
  As  As7  1  0.48082172  0.35505258  0.05592813  1
  As  As8  1  0.03914773  0.62555175  0.63900536  1
  Li  Li9  1  0.57080957  0.97756465  0.31966753  1
  Li  Li10  1  0.18042705  0.24430261  0.01990707  1
  Li  Li11  1  0.60535959  0.30600073  0.24433296  1
  Li  Li12  1  0.75979812  0.24279664  0.09421302  1
  Li  Li13  1  0.60662619  0.58773555  0.90942295  1
  Cu  Cu14  1  0.24234315  0.54436112  0.75329207  1
  Cu  Cu15  1  0.31426696  0.58587029  0.88558177  1
