# generated using pymatgen
data_Li2Mn2Sb4P3N5
_symmetry_space_group_name_H-M   'P 1'
_cell_length_a   7.28215619
_cell_length_b   7.84584479
_cell_length_c   7.82904866
_cell_angle_alpha   91.24288740
_cell_angle_beta   91.47231497
_cell_angle_gamma   91.41455932
_symmetry_Int_Tables_number   1
_chemical_formula_structural   Li2Mn2Sb4P3N5
_chemical_formula_sum   'Li2 Mn2 Sb4 P3 N5'
_cell_volume   446.91458399
_cell_formula_units_Z   1
loop_
 _symmetry_equiv_pos_site_id
 _symmetry_equiv_pos_as_xyz
  1  'x, y, z'
loop_
 _atom_site_type_symbol
 _atom_site_label
 _atom_site_symmetry_multiplicity
 _atom_site_fract_x
 _atom_site_fract_y
 _atom_site_fract_z
 _atom_site_occupancy
  N  N0  1  0.00000000  0.00000000  0.00000000  1
  N  N1  1  0.50000000  0.50000000  0.50000000  1
  N  N2  1  0.50000000  0.50000000  0.00000000  1
  N  N3  1  0.50000000  0.00000000  0.50000000  1
  N  N4  1  0.00000000  0.50000000  0.50000000  1
  Mn  Mn5  1  0.12567594  0.25099558  0.57409349  1
  Mn  Mn6  1  0.66499777  0.27456257  0.16504463  1
  Sb  Sb7  1  0.37929823  0.60558619  0.27507429  1
  Sb  Sb8  1  0.14683437  0.69561152  0.34000504  1
  Sb  Sb9  1  0.77306251  0.01129350  0.51588772  1
  Sb  Sb10  1  0.60359041  0.97275922  0.75922760  1
  P  P11  1  0.19121032  0.14954485  0.63389133  1
  P  P12  1  0.97253390  0.19315105  0.48598876  1
  P  P13  1  0.26882226  0.10409185  0.07524827  1
  Li  Li14  1  0.72519626  0.91589502  0.65282996  1
  Li  Li15  1  0.12381879  0.52590271  0.42805000  1
