# generated using pymatgen
data_LiMn3Sb2P3
_symmetry_space_group_name_H-M   'P 1'
_cell_length_a   6.80800145
_cell_length_b   6.81580349
_cell_length_c   7.11904004
_cell_angle_alpha   91.94549608
_cell_angle_beta   90.39782720
_cell_angle_gamma   92.05894653
_symmetry_Int_Tables_number   1
_chemical_formula_structural   LiMn3Sb2P3
_chemical_formula_sum   'Li1 Mn3 Sb2 P3'
_cell_volume   329.92311608
_cell_formula_units_Z   1
loop_
 _symmetry_equiv_pos_site_id
 _symmetry_equiv_pos_as_xyz
  1  'x, y, z'
loop_
 _atom_site_type_symbol
 _atom_site_label
 _atom_site_symmetry_multiplicity
 _atom_site_fract_x
 _atom_site_fract_y
 _atom_site_fract_z
 _atom_site_occupancy
  Mn  Mn0  1  0.12500000  0.00000000  0.25000000  1
  Mn  Mn1  1  0.00000000  0.00000000  0.00000000  1
  Mn  Mn2  1  0.37500000  0.00000000  0.25000000  1
  Sb  Sb3  1  0.25000000  0.25000000  0.25000000  1
  Sb  Sb4  1  0.00000000  0.25000000  0.12500000  1
  P  P5  1  0.92556780  0.68984219  0.40912277  1
  P  P6  1  0.57869432  0.68721345  0.07046960  1
  P  P7  1  0.73045044  0.47099140  0.76835412  1
  Li  Li8  1  0.75331525  0.18093086  0.84588249  1
