# generated using pymatgen
data_Li2Mn2Sb4Mo2P3
_symmetry_space_group_name_H-M   'P 1'
_cell_length_a   5.46029852
_cell_length_b   5.83199975
_cell_length_c   6.61483282
_cell_angle_alpha   99.00300099
_cell_angle_beta   91.84710800
_cell_angle_gamma   99.01853091
_symmetry_Int_Tables_number   1
_chemical_formula_structural   Li2Mn2Sb4Mo2P3
_chemical_formula_sum   'Li2 Mn2 Sb4 Mo2 P3'
_cell_volume   205.13049004
_cell_formula_units_Z   1
loop_
 _symmetry_equiv_pos_site_id
 _symmetry_equiv_pos_as_xyz
  1  'x, y, z'
loop_
 _atom_site_type_symbol
 _atom_site_label
 _atom_site_symmetry_multiplicity
 _atom_site_fract_x
 _atom_site_fract_y
 _atom_site_fract_z
 _atom_site_occupancy
  Mn  Mn0  1  0.00000000  0.00000000  0.00000000  1
  Mn  Mn1  1  0.50000000  0.50000000  0.50000000  1
  Sb  Sb2  1  0.25000000  0.25000000  0.25000000  1
  Sb  Sb3  1  0.75000000  0.25000000  0.00000000  1
  Sb  Sb4  1  0.25000000  0.75000000  0.50000000  1
  Sb  Sb5  1  0.12427664  0.93445599  0.50880533  1
  P  P6  1  0.50952133  0.29433689  0.45213088  1
  P  P7  1  0.68269944  0.31145805  0.10866346  1
  P  P8  1  0.70509415  0.79951923  0.81062907  1
  Mo  Mo9  1  0.30943966  0.23089772  0.31937557  1
  Mo  Mo10  1  0.91438545  0.11996988  0.94782254  1
  Li  Li11  1  0.17841684  0.35562193  0.74497932  1
  Li  Li12  1  0.20426023  0.57808139  0.28044353  1
