# generated using pymatgen
data_Li2Mn2Sb4P3
_symmetry_space_group_name_H-M   'P 1'
_cell_length_a   5.00986107
_cell_length_b   5.35572705
_cell_length_c   6.29166334
_cell_angle_alpha   97.33318742
_cell_angle_beta   95.64222228
_cell_angle_gamma   96.50344755
_symmetry_Int_Tables_number   1
_chemical_formula_structural   Li2Mn2Sb4P3
_chemical_formula_sum   'Li2 Mn2 Sb4 P3'
_cell_volume   165.26330047
_cell_formula_units_Z   1
loop_
 _symmetry_equiv_pos_site_id
 _symmetry_equiv_pos_as_xyz
  1  'x, y, z'
loop_
 _atom_site_type_symbol
 _atom_site_label
 _atom_site_symmetry_multiplicity
 _atom_site_fract_x
 _atom_site_fract_y
 _atom_site_fract_z
 _atom_site_occupancy
  Mn  Mn0  1  0.00000000  0.00000000  0.00000000  1
  Mn  Mn1  1  0.50000000  0.50000000  0.50000000  1
  Sb  Sb2  1  0.25000000  0.25000000  0.25000000  1
  Sb  Sb3  1  0.75000000  0.25000000  0.00000000  1
  Sb  Sb4  1  0.25000000  0.75000000  0.50000000  1
  Sb  Sb5  1  0.88306323  0.78757583  0.52389193  1
  P  P6  1  0.48662757  0.23874841  0.28776708  1
  P  P7  1  0.73502346  0.17251422  0.92601976  1
  P  P8  1  0.24391033  0.19490992  0.48277819  1
  Li  Li9  1  0.00626881  0.05637363  0.92985263  1
  Li  Li10  1  0.33466487  0.69104063  0.20508990  1
