# generated using pymatgen
data_Li2Ti(As3I2)2
_symmetry_space_group_name_H-M   'P 1'
_cell_length_a   7.96125729
_cell_length_b   8.04654299
_cell_length_c   8.00595243
_cell_angle_alpha   90.31517675
_cell_angle_beta   91.49951526
_cell_angle_gamma   90.36033118
_symmetry_Int_Tables_number   1
_chemical_formula_structural   Li2Ti(As3I2)2
_chemical_formula_sum   'Li2 Ti1 As6 I4'
_cell_volume   512.67210271
_cell_formula_units_Z   1
loop_
 _symmetry_equiv_pos_site_id
 _symmetry_equiv_pos_as_xyz
  1  'x, y, z'
loop_
 _atom_site_type_symbol
 _atom_site_label
 _atom_site_symmetry_multiplicity
 _atom_site_fract_x
 _atom_site_fract_y
 _atom_site_fract_z
 _atom_site_occupancy
  Li  Li0  1  0.12500000  0.00000000  0.25000000  1
  Li  Li1  1  0.00000000  0.00000000  0.00000000  1
  Ti  Ti2  1  0.37500000  0.00000000  0.25000000  1
  I  I3  1  0.25000000  0.25000000  0.25000000  1
  I  I4  1  0.00000000  0.25000000  0.12500000  1
  I  I5  1  0.58790194  0.87267209  0.56081491  1
  I  I6  1  0.54296197  0.70727672  0.20659586  1
  As  As7  1  0.87226199  0.24554556  0.17661290  1
  As  As8  1  0.89454987  0.95019012  0.44569628  1
  As  As9  1  0.18448586  0.19348109  0.88850747  1
  As  As10  1  0.76185787  0.54159728  0.11079204  1
  As  As11  1  0.60390834  0.53330233  0.30266883  1
  As  As12  1  0.66450240  0.99564283  0.14939262  1
