# generated using pymatgen
data_Li2Mn2Sb4P3
_symmetry_space_group_name_H-M   'P 1'
_cell_length_a   4.73031946
_cell_length_b   5.02221747
_cell_length_c   6.48892227
_cell_angle_alpha   100.92250611
_cell_angle_beta   94.12068646
_cell_angle_gamma   101.20312953
_symmetry_Int_Tables_number   1
_chemical_formula_structural   Li2Mn2Sb4P3
_chemical_formula_sum   'Li2 Mn2 Sb4 P3'
_cell_volume   147.53034928
_cell_formula_units_Z   1
loop_
 _symmetry_equiv_pos_site_id
 _symmetry_equiv_pos_as_xyz
  1  'x, y, z'
loop_
 _atom_site_type_symbol
 _atom_site_label
 _atom_site_symmetry_multiplicity
 _atom_site_fract_x
 _atom_site_fract_y
 _atom_site_fract_z
 _atom_site_occupancy
  Mn  Mn0  1  0.00000000  0.00000000  0.00000000  1
  Mn  Mn1  1  0.50000000  0.50000000  0.50000000  1
  Sb  Sb2  1  0.25000000  0.25000000  0.25000000  1
  Sb  Sb3  1  0.75000000  0.25000000  0.00000000  1
  Sb  Sb4  1  0.25000000  0.75000000  0.50000000  1
  Sb  Sb5  1  0.24445011  0.92445562  0.18557911  1
  P  P6  1  0.85641004  0.36572050  0.39250286  1
  P  P7  1  0.39242255  0.92030703  0.42430112  1
  P  P8  1  0.15910603  0.28267253  0.31373347  1
  Li  Li9  1  0.02826751  0.59963895  0.81217460  1
  Li  Li10  1  0.52255880  0.52653676  0.95407374  1
