# generated using pymatgen
data_Li3LuCu2(NiAs3)2
_symmetry_space_group_name_H-M   'P 1'
_cell_length_a   7.44634934
_cell_length_b   7.26454875
_cell_length_c   8.71762434
_cell_angle_alpha   92.45658434
_cell_angle_beta   91.60375374
_cell_angle_gamma   92.84656719
_symmetry_Int_Tables_number   1
_chemical_formula_structural   Li3LuCu2(NiAs3)2
_chemical_formula_sum   'Li3 Lu1 Cu2 Ni2 As6'
_cell_volume   470.34529646
_cell_formula_units_Z   1
loop_
 _symmetry_equiv_pos_site_id
 _symmetry_equiv_pos_as_xyz
  1  'x, y, z'
loop_
 _atom_site_type_symbol
 _atom_site_label
 _atom_site_symmetry_multiplicity
 _atom_site_fract_x
 _atom_site_fract_y
 _atom_site_fract_z
 _atom_site_occupancy
  Lu  Lu0  1  0.12500000  0.00000000  0.25000000  1
  Li  Li1  1  0.00000000  0.00000000  0.00000000  1
  Li  Li2  1  0.37500000  0.00000000  0.25000000  1
  Li  Li3  1  0.25000000  0.25000000  0.25000000  1
  Cu  Cu4  1  0.00000000  0.25000000  0.12500000  1
  Cu  Cu5  1  0.67587830  0.97580994  0.63092549  1
  Ni  Ni6  1  0.88761506  0.84674491  0.84407586  1
  Ni  Ni7  1  0.39642057  0.39194145  0.35901305  1
  As  As8  1  0.99456371  0.41459489  0.22010492  1
  As  As9  1  0.53315716  0.23141633  0.36581714  1
  As  As10  1  0.75574364  0.16829209  0.19780225  1
  As  As11  1  0.16045979  0.18326658  0.43387803  1
  As  As12  1  0.56780298  0.75360645  0.49059578  1
  As  As13  1  0.87100529  0.49902957  0.15566422  1
