# generated using pymatgen
data_LiPO2F
_symmetry_space_group_name_H-M   'P 1'
_cell_length_a   3.66215746
_cell_length_b   3.86066118
_cell_length_c   3.98043060
_cell_angle_alpha   90.20171167
_cell_angle_beta   93.00467582
_cell_angle_gamma   91.43579473
_symmetry_Int_Tables_number   1
_chemical_formula_structural   LiPO2F
_chemical_formula_sum   'Li2 P2 O4 F2'
_cell_volume   56.18104827
_cell_formula_units_Z   2
loop_
 _symmetry_equiv_pos_site_id
 _symmetry_equiv_pos_as_xyz
  1  'x, y, z'
loop_
 _atom_site_type_symbol
 _atom_site_label
 _atom_site_symmetry_multiplicity
 _atom_site_fract_x
 _atom_site_fract_y
 _atom_site_fract_z
 _atom_site_occupancy
  F  F0  1  0.12500000  0.12500000  0.12500000  1
  F  F1  1  0.50000000  0.50000000  0.50000000  1
  P  P2  1  0.25000000  0.25000000  0.25000000  1
  P  P3  1  0.75000000  0.75000000  0.75000000  1
  O  O4  1  0.51766359  0.35324784  0.19232306  1
  O  O5  1  0.96180989  0.93963443  0.18962237  1
  O  O6  1  0.27981302  0.76473117  0.76315503  1
  O  O7  1  0.43490539  0.62635180  0.83300400  1
  Li  Li8  1  0.12115573  0.38717800  0.73812444  1
  Li  Li9  1  0.35255297  0.91822267  0.72760449  1
