# generated using pymatgen
data_LiMn2Sb4Mo2P3
_symmetry_space_group_name_H-M   'P 1'
_cell_length_a   6.90791710
_cell_length_b   7.43896766
_cell_length_c   7.16083721
_cell_angle_alpha   90.91260662
_cell_angle_beta   90.62253679
_cell_angle_gamma   90.83576110
_symmetry_Int_Tables_number   1
_chemical_formula_structural   LiMn2Sb4Mo2P3
_chemical_formula_sum   'Li1 Mn2 Sb4 Mo2 P3'
_cell_volume   367.87098421
_cell_formula_units_Z   1
loop_
 _symmetry_equiv_pos_site_id
 _symmetry_equiv_pos_as_xyz
  1  'x, y, z'
loop_
 _atom_site_type_symbol
 _atom_site_label
 _atom_site_symmetry_multiplicity
 _atom_site_fract_x
 _atom_site_fract_y
 _atom_site_fract_z
 _atom_site_occupancy
  Mn  Mn0  1  0.00000000  0.00000000  0.00000000  1
  Mn  Mn1  1  0.50000000  0.50000000  0.50000000  1
  Sb  Sb2  1  0.50000000  0.50000000  0.00000000  1
  Sb  Sb3  1  0.50000000  0.00000000  0.50000000  1
  Sb  Sb4  1  0.00000000  0.50000000  0.50000000  1
  Sb  Sb5  1  0.41695226  0.57874328  0.15620443  1
  P  P6  1  0.64527140  0.07679708  0.90100324  1
  P  P7  1  0.38419805  0.20304691  0.86778259  1
  P  P8  1  0.25330568  0.10655199  0.53671810  1
  Mo  Mo9  1  0.93065862  0.12187404  0.56558338  1
  Mo  Mo10  1  0.81669411  0.87369061  0.22926835  1
  Li  Li11  1  0.39773676  0.32022665  0.06909845  1
