# generated using pymatgen
data_Li4Ni2As6O7
_symmetry_space_group_name_H-M   'P 1'
_cell_length_a   8.31382661
_cell_length_b   8.17082894
_cell_length_c   9.64881384
_cell_angle_alpha   90.00000000
_cell_angle_beta   90.00000000
_cell_angle_gamma   90.00000000
_symmetry_Int_Tables_number   1
_chemical_formula_structural   Li4Ni2As6O7
_chemical_formula_sum   'Li4 Ni2 As6 O7'
_cell_volume   655.45217486
_cell_formula_units_Z   1
loop_
 _symmetry_equiv_pos_site_id
 _symmetry_equiv_pos_as_xyz
  1  'x, y, z'
loop_
 _atom_site_type_symbol
 _atom_site_label
 _atom_site_symmetry_multiplicity
 _atom_site_fract_x
 _atom_site_fract_y
 _atom_site_fract_z
 _atom_site_occupancy
  Li  Li0  1  0.12500000  0.00000000  0.25000000  1
  Li  Li1  1  0.00000000  0.00000000  0.00000000  1
  Li  Li2  1  0.37500000  0.00000000  0.25000000  1
  Li  Li3  1  0.25000000  0.25000000  0.25000000  1
  Ni  Ni4  1  0.00000000  0.25000000  0.12500000  1
  Ni  Ni5  1  0.82072123  0.91356606  0.48295878  1
  As  As6  1  0.55059867  0.06308434  0.43925458  1
  As  As7  1  0.81968845  0.06704381  0.17923924  1
  As  As8  1  0.47045310  0.92205616  0.15258985  1
  As  As9  1  0.53232600  0.42256231  0.81115836  1
  As  As10  1  0.37846462  0.28723909  0.06595701  1
  As  As11  1  0.12739578  0.36316184  0.60582315  1
  O  O12  1  0.66361291  0.16600297  0.36118193  1
  O  O13  1  0.50034431  0.39931463  0.61775763  1
  O  O14  1  0.13091179  0.24718863  0.32097544  1
  O  O15  1  0.37698289  0.53907909  0.74589425  1
  O  O16  1  0.69029401  0.79233872  0.53544174  1
  O  O17  1  0.16028353  0.85300659  0.89387257  1
  O  O18  1  0.93062252  0.82383053  0.14498576  1
