# generated using pymatgen
data_Li2Mn(NiP)3
_symmetry_space_group_name_H-M   'P 1'
_cell_length_a   3.87155920
_cell_length_b   3.88881533
_cell_length_c   6.84640094
_cell_angle_alpha   100.00417356
_cell_angle_beta   100.77872513
_cell_angle_gamma   101.04364681
_symmetry_Int_Tables_number   1
_chemical_formula_structural   Li2Mn(NiP)3
_chemical_formula_sum   'Li2 Mn1 Ni3 P3'
_cell_volume   97.00859382
_cell_formula_units_Z   1
loop_
 _symmetry_equiv_pos_site_id
 _symmetry_equiv_pos_as_xyz
  1  'x, y, z'
loop_
 _atom_site_type_symbol
 _atom_site_label
 _atom_site_symmetry_multiplicity
 _atom_site_fract_x
 _atom_site_fract_y
 _atom_site_fract_z
 _atom_site_occupancy
  Mn  Mn0  1  0.00000000  0.00000000  0.00000000  1
  P  P1  1  0.50000000  0.50000000  0.50000000  1
  P  P2  1  0.25000000  0.25000000  0.25000000  1
  P  P3  1  0.75000000  0.25000000  0.00000000  1
  Li  Li4  1  0.25000000  0.75000000  0.50000000  1
  Li  Li5  1  0.70188518  0.13130055  0.91918330  1
  Ni  Ni6  1  0.83450407  0.80719529  0.50586282  1
  Ni  Ni7  1  0.48911745  0.09985161  0.17200626  1
  Ni  Ni8  1  0.28639245  0.61025306  0.54874346  1
