# generated using pymatgen
data_LiMnMo2P3N
_symmetry_space_group_name_H-M   'P 1'
_cell_length_a   5.00226205
_cell_length_b   5.21155086
_cell_length_c   6.13609688
_cell_angle_alpha   96.60760000
_cell_angle_beta   92.87113820
_cell_angle_gamma   96.10809295
_symmetry_Int_Tables_number   1
_chemical_formula_structural   LiMnMo2P3N
_chemical_formula_sum   'Li1 Mn1 Mo2 P3 N1'
_cell_volume   157.68562224
_cell_formula_units_Z   1
loop_
 _symmetry_equiv_pos_site_id
 _symmetry_equiv_pos_as_xyz
  1  'x, y, z'
loop_
 _atom_site_type_symbol
 _atom_site_label
 _atom_site_symmetry_multiplicity
 _atom_site_fract_x
 _atom_site_fract_y
 _atom_site_fract_z
 _atom_site_occupancy
  N  N0  1  0.12500000  0.00000000  0.25000000  1
  Mn  Mn1  1  0.00000000  0.00000000  0.00000000  1
  P  P2  1  0.37500000  0.00000000  0.25000000  1
  P  P3  1  0.25000000  0.25000000  0.25000000  1
  P  P4  1  0.00000000  0.25000000  0.12500000  1
  Mo  Mo5  1  0.06008451  0.81485782  0.32563477  1
  Mo  Mo6  1  0.30104096  0.86187720  0.80394228  1
  Li  Li7  1  0.22701566  0.96180376  0.78976538  1
