# generated using pymatgen
data_LiTiP2SF
_symmetry_space_group_name_H-M   'P 1'
_cell_length_a   6.96294337
_cell_length_b   6.56037103
_cell_length_c   7.28091544
_cell_angle_alpha   92.50023300
_cell_angle_beta   94.47941206
_cell_angle_gamma   92.36494946
_symmetry_Int_Tables_number   1
_chemical_formula_structural   LiTiP2SF
_chemical_formula_sum   'Li2 Ti2 P4 S2 F2'
_cell_volume   330.92362333
_cell_formula_units_Z   2
loop_
 _symmetry_equiv_pos_site_id
 _symmetry_equiv_pos_as_xyz
  1  'x, y, z'
loop_
 _atom_site_type_symbol
 _atom_site_label
 _atom_site_symmetry_multiplicity
 _atom_site_fract_x
 _atom_site_fract_y
 _atom_site_fract_z
 _atom_site_occupancy
  P  P0  1  0.00000000  0.00000000  0.00000000  1
  P  P1  1  0.50000000  0.50000000  0.50000000  1
  P  P2  1  0.50000000  0.50000000  0.00000000  1
  P  P3  1  0.50000000  0.00000000  0.50000000  1
  Li  Li4  1  0.00000000  0.50000000  0.50000000  1
  Li  Li5  1  0.79603006  0.25968563  0.48777320  1
  F  F6  1  0.29800121  0.26188671  0.14671397  1
  F  F7  1  0.14284787  0.51454886  0.41325084  1
  S  S8  1  0.00721450  0.57674188  0.49355953  1
  S  S9  1  0.48786196  0.21394379  0.29244085  1
  Ti  Ti10  1  0.86717578  0.84352328  0.20296853  1
  Ti  Ti11  1  0.20136946  0.82602133  0.48599983  1
