# generated using pymatgen
data_Li2Mn3Sb4P3
_symmetry_space_group_name_H-M   'P 1'
_cell_length_a   6.48891669
_cell_length_b   6.87567781
_cell_length_c   6.80924737
_cell_angle_alpha   94.69713067
_cell_angle_beta   91.70578218
_cell_angle_gamma   94.18156343
_symmetry_Int_Tables_number   1
_chemical_formula_structural   Li2Mn3Sb4P3
_chemical_formula_sum   'Li2 Mn3 Sb4 P3'
_cell_volume   301.77778158
_cell_formula_units_Z   1
loop_
 _symmetry_equiv_pos_site_id
 _symmetry_equiv_pos_as_xyz
  1  'x, y, z'
loop_
 _atom_site_type_symbol
 _atom_site_label
 _atom_site_symmetry_multiplicity
 _atom_site_fract_x
 _atom_site_fract_y
 _atom_site_fract_z
 _atom_site_occupancy
  Mn  Mn0  1  0.12500000  0.12500000  0.12500000  1
  Mn  Mn1  1  0.50000000  0.50000000  0.50000000  1
  Mn  Mn2  1  0.25000000  0.25000000  0.25000000  1
  Sb  Sb3  1  0.75000000  0.75000000  0.75000000  1
  Sb  Sb4  1  0.00580118  0.73316938  0.85259731  1
  Sb  Sb5  1  0.31336315  0.90098498  0.13840252  1
  Sb  Sb6  1  0.05246679  0.32739744  0.65433902  1
  P  P7  1  0.92862102  0.14813043  0.39140003  1
  P  P8  1  0.10403744  0.38188584  0.78888121  1
  P  P9  1  0.16187696  0.17784587  0.29578563  1
  Li  Li10  1  0.83111212  0.31622450  0.63262814  1
  Li  Li11  1  0.73481696  0.25717335  0.75324090  1
