# generated using pymatgen
data_LiMn2Sb4P3
_symmetry_space_group_name_H-M   'P 1'
_cell_length_a   6.07806833
_cell_length_b   6.54067110
_cell_length_c   6.97772709
_cell_angle_alpha   92.41677930
_cell_angle_beta   93.14175443
_cell_angle_gamma   92.93683243
_symmetry_Int_Tables_number   1
_chemical_formula_structural   LiMn2Sb4P3
_chemical_formula_sum   'Li1 Mn2 Sb4 P3'
_cell_volume   276.33485902
_cell_formula_units_Z   1
loop_
 _symmetry_equiv_pos_site_id
 _symmetry_equiv_pos_as_xyz
  1  'x, y, z'
loop_
 _atom_site_type_symbol
 _atom_site_label
 _atom_site_symmetry_multiplicity
 _atom_site_fract_x
 _atom_site_fract_y
 _atom_site_fract_z
 _atom_site_occupancy
  Mn  Mn0  1  0.00000000  0.00000000  0.00000000  1
  Mn  Mn1  1  0.50000000  0.50000000  0.50000000  1
  Sb  Sb2  1  0.25000000  0.25000000  0.25000000  1
  Sb  Sb3  1  0.75000000  0.25000000  0.00000000  1
  Sb  Sb4  1  0.25000000  0.75000000  0.50000000  1
  Sb  Sb5  1  0.08595623  0.52125687  0.32401698  1
  P  P6  1  0.66539067  0.58998135  0.97570013  1
  P  P7  1  0.70767959  0.42983678  0.98940627  1
  P  P8  1  0.66395374  0.62138314  0.29088475  1
  Li  Li9  1  0.38964031  0.38547048  0.07884186  1
