# generated using pymatgen
data_LiSb2Se2OF2
_symmetry_space_group_name_H-M   'P 1'
_cell_length_a   7.34056524
_cell_length_b   7.11102042
_cell_length_c   7.35081149
_cell_angle_alpha   93.57803340
_cell_angle_beta   93.92163737
_cell_angle_gamma   93.21882038
_symmetry_Int_Tables_number   1
_chemical_formula_structural   LiSb2Se2OF2
_chemical_formula_sum   'Li1 Sb2 Se2 O1 F2'
_cell_volume   381.35573414
_cell_formula_units_Z   1
loop_
 _symmetry_equiv_pos_site_id
 _symmetry_equiv_pos_as_xyz
  1  'x, y, z'
loop_
 _atom_site_type_symbol
 _atom_site_label
 _atom_site_symmetry_multiplicity
 _atom_site_fract_x
 _atom_site_fract_y
 _atom_site_fract_z
 _atom_site_occupancy
  Se  Se0  1  0.12500000  0.00000000  0.25000000  1
  Se  Se1  1  0.00000000  0.00000000  0.00000000  1
  F  F2  1  0.37500000  0.00000000  0.25000000  1
  F  F3  1  0.25000000  0.25000000  0.25000000  1
  Sb  Sb4  1  0.00000000  0.25000000  0.12500000  1
  Sb  Sb5  1  0.29036285  0.84037557  0.05463467  1
  O  O6  1  0.61113040  0.24528237  0.94627203  1
  Li  Li7  1  0.97034977  0.35559672  0.57335759  1
