# generated using pymatgen
data_Li2TiTe6(I2O)2
_symmetry_space_group_name_H-M   'P 1'
_cell_length_a   8.38671922
_cell_length_b   8.63914651
_cell_length_c   7.26958328
_cell_angle_alpha   90.08997818
_cell_angle_beta   90.42808884
_cell_angle_gamma   90.10286908
_symmetry_Int_Tables_number   1
_chemical_formula_structural   Li2TiTe6(I2O)2
_chemical_formula_sum   'Li2 Ti1 Te6 I4 O2'
_cell_volume   526.69487382
_cell_formula_units_Z   1
loop_
 _symmetry_equiv_pos_site_id
 _symmetry_equiv_pos_as_xyz
  1  'x, y, z'
loop_
 _atom_site_type_symbol
 _atom_site_label
 _atom_site_symmetry_multiplicity
 _atom_site_fract_x
 _atom_site_fract_y
 _atom_site_fract_z
 _atom_site_occupancy
  I  I0  1  0.00000000  0.00000000  0.00000000  1
  I  I1  1  0.50000000  0.50000000  0.50000000  1
  I  I2  1  0.25000000  0.25000000  0.25000000  1
  I  I3  1  0.75000000  0.25000000  0.00000000  1
  Li  Li4  1  0.25000000  0.75000000  0.50000000  1
  Li  Li5  1  0.05660800  0.34804604  0.43487665  1
  Te  Te6  1  0.52503617  0.80114775  0.64958643  1
  Te  Te7  1  0.47247607  0.65977096  0.90416244  1
  Te  Te8  1  0.58929780  0.86150529  0.03647080  1
  Te  Te9  1  0.33102213  0.91233393  0.41482287  1
  Te  Te10  1  0.69177371  0.44771153  0.07568921  1
  Te  Te11  1  0.88696008  0.50174134  0.02154902  1
  Ti  Ti12  1  0.41635108  0.62502216  0.87208094  1
  O  O13  1  0.24070765  0.07023056  0.47068338  1
  O  O14  1  0.71890790  0.12153030  0.75922789  1
