# generated using pymatgen
data_Li3TiZn2(IO)4
_symmetry_space_group_name_H-M   'P 1'
_cell_length_a   8.71805527
_cell_length_b   8.94106197
_cell_length_c   7.22540446
_cell_angle_alpha   90.00000000
_cell_angle_beta   90.00000000
_cell_angle_gamma   90.00000000
_symmetry_Int_Tables_number   1
_chemical_formula_structural   Li3TiZn2(IO)4
_chemical_formula_sum   'Li3 Ti1 Zn2 I4 O4'
_cell_volume   563.21068541
_cell_formula_units_Z   1
loop_
 _symmetry_equiv_pos_site_id
 _symmetry_equiv_pos_as_xyz
  1  'x, y, z'
loop_
 _atom_site_type_symbol
 _atom_site_label
 _atom_site_symmetry_multiplicity
 _atom_site_fract_x
 _atom_site_fract_y
 _atom_site_fract_z
 _atom_site_occupancy
  I  I0  1  0.12500000  0.00000000  0.25000000  1
  I  I1  1  0.00000000  0.00000000  0.00000000  1
  I  I2  1  0.37500000  0.00000000  0.25000000  1
  I  I3  1  0.25000000  0.25000000  0.25000000  1
  Li  Li4  1  0.00000000  0.25000000  0.12500000  1
  Li  Li5  1  0.10199127  0.27120176  0.14864845  1
  Li  Li6  1  0.13287852  0.62607863  0.91479256  1
  Zn  Zn7  1  0.29076401  0.54646409  0.23340467  1
  Zn  Zn8  1  0.22276285  0.20070479  0.61442519  1
  Ti  Ti9  1  0.74992732  0.42274442  0.01395532  1
  O  O10  1  0.28131443  0.16912323  0.14527296  1
  O  O11  1  0.33548879  0.38029890  0.30333347  1
  O  O12  1  0.52046568  0.01995659  0.20342123  1
  O  O13  1  0.91502357  0.87206259  0.37807383  1
