# generated using pymatgen
data_Li3TiCu2P4O3
_symmetry_space_group_name_H-M   'P 1'
_cell_length_a   6.47855155
_cell_length_b   6.57819457
_cell_length_c   6.55044303
_cell_angle_alpha   95.80379304
_cell_angle_beta   97.85747256
_cell_angle_gamma   97.02898674
_symmetry_Int_Tables_number   1
_chemical_formula_structural   Li3TiCu2P4O3
_chemical_formula_sum   'Li3 Ti1 Cu2 P4 O3'
_cell_volume   272.48303769
_cell_formula_units_Z   1
loop_
 _symmetry_equiv_pos_site_id
 _symmetry_equiv_pos_as_xyz
  1  'x, y, z'
loop_
 _atom_site_type_symbol
 _atom_site_label
 _atom_site_symmetry_multiplicity
 _atom_site_fract_x
 _atom_site_fract_y
 _atom_site_fract_z
 _atom_site_occupancy
  P  P0  1  0.00000000  0.00000000  0.00000000  1
  P  P1  1  0.50000000  0.50000000  0.50000000  1
  P  P2  1  0.50000000  0.50000000  0.00000000  1
  P  P3  1  0.50000000  0.00000000  0.50000000  1
  Li  Li4  1  0.00000000  0.50000000  0.50000000  1
  Li  Li5  1  0.41462552  0.96566036  0.81080295  1
  Li  Li6  1  0.73956029  0.84768148  0.25698304  1
  Cu  Cu7  1  0.93054017  0.72234793  0.76203609  1
  Cu  Cu8  1  0.69167054  0.13030512  0.18716540  1
  Ti  Ti9  1  0.95285326  0.60641876  0.70866663  1
  O  O10  1  0.47722270  0.38940706  0.50329124  1
  O  O11  1  0.29653691  0.05449003  0.91172407  1
  O  O12  1  0.14373984  0.56798843  0.04990307  1
