# generated using pymatgen
data_Li2MnSb4P3
_symmetry_space_group_name_H-M   'P 1'
_cell_length_a   5.89185277
_cell_length_b   6.39056551
_cell_length_c   7.25639017
_cell_angle_alpha   94.43189631
_cell_angle_beta   95.24999067
_cell_angle_gamma   95.04404520
_symmetry_Int_Tables_number   1
_chemical_formula_structural   Li2MnSb4P3
_chemical_formula_sum   'Li2 Mn1 Sb4 P3'
_cell_volume   270.01540664
_cell_formula_units_Z   1
loop_
 _symmetry_equiv_pos_site_id
 _symmetry_equiv_pos_as_xyz
  1  'x, y, z'
loop_
 _atom_site_type_symbol
 _atom_site_label
 _atom_site_symmetry_multiplicity
 _atom_site_fract_x
 _atom_site_fract_y
 _atom_site_fract_z
 _atom_site_occupancy
  Mn  Mn0  1  0.12500000  0.12500000  0.12500000  1
  Sb  Sb1  1  0.50000000  0.50000000  0.50000000  1
  Sb  Sb2  1  0.25000000  0.25000000  0.25000000  1
  Sb  Sb3  1  0.75000000  0.75000000  0.75000000  1
  Sb  Sb4  1  0.29781288  0.27849072  0.34612238  1
  P  P5  1  0.11292859  0.41961956  0.06986960  1
  P  P6  1  0.51734130  0.55995043  0.10752003  1
  P  P7  1  0.11381922  0.07802811  0.61897560  1
  Li  Li8  1  0.46429388  0.29796287  0.76339561  1
  Li  Li9  1  0.75791836  0.48971559  0.54657180  1
