# generated using pymatgen
data_Li3Ti2I4N5F3
_symmetry_space_group_name_H-M   'P 1'
_cell_length_a   6.19372441
_cell_length_b   5.98826950
_cell_length_c   7.60879304
_cell_angle_alpha   95.46868008
_cell_angle_beta   96.27121607
_cell_angle_gamma   95.33794303
_symmetry_Int_Tables_number   1
_chemical_formula_structural   Li3Ti2I4N5F3
_chemical_formula_sum   'Li3 Ti2 I4 N5 F3'
_cell_volume   277.71222036
_cell_formula_units_Z   1
loop_
 _symmetry_equiv_pos_site_id
 _symmetry_equiv_pos_as_xyz
  1  'x, y, z'
loop_
 _atom_site_type_symbol
 _atom_site_label
 _atom_site_symmetry_multiplicity
 _atom_site_fract_x
 _atom_site_fract_y
 _atom_site_fract_z
 _atom_site_occupancy
  I  I0  1  0.12500000  0.00000000  0.25000000  1
  I  I1  1  0.00000000  0.00000000  0.00000000  1
  I  I2  1  0.37500000  0.00000000  0.25000000  1
  I  I3  1  0.25000000  0.25000000  0.25000000  1
  Li  Li4  1  0.00000000  0.25000000  0.12500000  1
  Li  Li5  1  0.34254818  0.66894890  0.60449954  1
  Li  Li6  1  0.46684573  0.80403847  0.05324637  1
  F  F7  1  0.01973545  0.45968637  0.88327467  1
  F  F8  1  0.57922233  0.56555776  0.22704739  1
  F  F9  1  0.06827054  0.94055182  0.58987638  1
  Ti  Ti10  1  0.22831674  0.11308331  0.55229084  1
  Ti  Ti11  1  0.02443466  0.66150622  0.69345482  1
  N  N12  1  0.37365816  0.89702056  0.76428248  1
  N  N13  1  0.00480861  0.03138589  0.75442524  1
  N  N14  1  0.33641840  0.56682106  0.72647549  1
  N  N15  1  0.92888063  0.87590927  0.06755836  1
  N  N16  1  0.56373219  0.56672345  0.79174331  1
