# generated using pymatgen
data_LiMn(Sb2P)2
_symmetry_space_group_name_H-M   'P 1'
_cell_length_a   5.45258820
_cell_length_b   5.76190785
_cell_length_c   6.80922727
_cell_angle_alpha   97.19136444
_cell_angle_beta   94.98578665
_cell_angle_gamma   97.09431307
_symmetry_Int_Tables_number   1
_chemical_formula_structural   LiMn(Sb2P)2
_chemical_formula_sum   'Li1 Mn1 Sb4 P2'
_cell_volume   209.47824218
_cell_formula_units_Z   1
loop_
 _symmetry_equiv_pos_site_id
 _symmetry_equiv_pos_as_xyz
  1  'x, y, z'
loop_
 _atom_site_type_symbol
 _atom_site_label
 _atom_site_symmetry_multiplicity
 _atom_site_fract_x
 _atom_site_fract_y
 _atom_site_fract_z
 _atom_site_occupancy
  Mn  Mn0  1  0.00000000  0.00000000  0.00000000  1
  Sb  Sb1  1  0.33300000  0.66700000  0.25000000  1
  Sb  Sb2  1  0.66700000  0.33300000  0.50000000  1
  Sb  Sb3  1  0.00000000  0.00000000  0.75000000  1
  Sb  Sb4  1  0.75674180  0.84456393  0.92518658  1
  P  P5  1  0.53164626  0.99574246  0.72886771  1
  P  P6  1  0.65410854  0.18262309  0.00434179  1
  Li  Li7  1  0.73202709  0.38289356  0.99955280  1
