# generated using pymatgen
data_LiCuNiO
_symmetry_space_group_name_H-M   'P 1'
_cell_length_a   7.65512277
_cell_length_b   7.49717471
_cell_length_c   8.24787996
_cell_angle_alpha   91.71000370
_cell_angle_beta   91.42909611
_cell_angle_gamma   91.98028723
_symmetry_Int_Tables_number   1
_chemical_formula_structural   LiCuNiO
_chemical_formula_sum   'Li2 Cu2 Ni2 O2'
_cell_volume   472.70740405
_cell_formula_units_Z   2
loop_
 _symmetry_equiv_pos_site_id
 _symmetry_equiv_pos_as_xyz
  1  'x, y, z'
loop_
 _atom_site_type_symbol
 _atom_site_label
 _atom_site_symmetry_multiplicity
 _atom_site_fract_x
 _atom_site_fract_y
 _atom_site_fract_z
 _atom_site_occupancy
  Li  Li0  1  0.12500000  0.12500000  0.12500000  1
  Li  Li1  1  0.50000000  0.50000000  0.50000000  1
  Cu  Cu2  1  0.25000000  0.25000000  0.25000000  1
  Cu  Cu3  1  0.75000000  0.75000000  0.75000000  1
  Ni  Ni4  1  0.11739311  0.66075754  0.21526333  1
  Ni  Ni5  1  0.28229173  0.32512163  0.02926847  1
  O  O6  1  0.81656895  0.30589415  0.62328761  1
  O  O7  1  0.59835271  0.99384691  0.68343591  1
