# generated using pymatgen
data_Li5Ti3O2
_symmetry_space_group_name_H-M   'P 1'
_cell_length_a   4.01538774
_cell_length_b   4.36988348
_cell_length_c   5.16573616
_cell_angle_alpha   96.47834327
_cell_angle_beta   103.47423499
_cell_angle_gamma   103.15202060
_symmetry_Int_Tables_number   1
_chemical_formula_structural   Li5Ti3O2
_chemical_formula_sum   'Li5 Ti3 O2'
_cell_volume   84.50836078
_cell_formula_units_Z   1
loop_
 _symmetry_equiv_pos_site_id
 _symmetry_equiv_pos_as_xyz
  1  'x, y, z'
loop_
 _atom_site_type_symbol
 _atom_site_label
 _atom_site_symmetry_multiplicity
 _atom_site_fract_x
 _atom_site_fract_y
 _atom_site_fract_z
 _atom_site_occupancy
  Ti  Ti0  1  0.00000000  0.00000000  0.00000000  1
  Ti  Ti1  1  0.50000000  0.50000000  0.50000000  1
  Ti  Ti2  1  0.50000000  0.50000000  0.00000000  1
  O  O3  1  0.50000000  0.00000000  0.50000000  1
  O  O4  1  0.00000000  0.50000000  0.50000000  1
  Li  Li5  1  0.88473486  0.74639674  0.87914471  1
  Li  Li6  1  0.07220841  0.70496603  0.50771022  1
  Li  Li7  1  0.78840238  0.74010086  0.86896757  1
  Li  Li8  1  0.47411426  0.65263446  0.35373745  1
  Li  Li9  1  0.89253127  0.83985870  0.21848158  1
