# generated using pymatgen
data_LiMn2Sb4P3
_symmetry_space_group_name_H-M   'P 1'
_cell_length_a   5.05102944
_cell_length_b   5.26241215
_cell_length_c   5.98325933
_cell_angle_alpha   91.68768983
_cell_angle_beta   92.43539449
_cell_angle_gamma   92.29331100
_symmetry_Int_Tables_number   1
_chemical_formula_structural   LiMn2Sb4P3
_chemical_formula_sum   'Li1 Mn2 Sb4 P3'
_cell_volume   158.69038454
_cell_formula_units_Z   1
loop_
 _symmetry_equiv_pos_site_id
 _symmetry_equiv_pos_as_xyz
  1  'x, y, z'
loop_
 _atom_site_type_symbol
 _atom_site_label
 _atom_site_symmetry_multiplicity
 _atom_site_fract_x
 _atom_site_fract_y
 _atom_site_fract_z
 _atom_site_occupancy
  Mn  Mn0  1  0.12500000  0.12500000  0.12500000  1
  Mn  Mn1  1  0.50000000  0.50000000  0.50000000  1
  Sb  Sb2  1  0.25000000  0.25000000  0.25000000  1
  Sb  Sb3  1  0.75000000  0.75000000  0.75000000  1
  Sb  Sb4  1  0.10699673  0.46768060  0.00989142  1
  Sb  Sb5  1  0.56093816  0.18523035  0.65110455  1
  P  P6  1  0.64099469  0.32137755  0.72464158  1
  P  P7  1  0.64807051  0.26890656  0.13578787  1
  P  P8  1  0.10104800  0.24716616  0.27212783  1
  Li  Li9  1  0.85704665  0.44213277  0.48366654  1
