# generated using pymatgen
data_Li3Ti3Cu2(As3P2)2
_symmetry_space_group_name_H-M   'P 1'
_cell_length_a   5.95071620
_cell_length_b   6.12738512
_cell_length_c   7.43986024
_cell_angle_alpha   98.36036266
_cell_angle_beta   100.61299440
_cell_angle_gamma   100.63267394
_symmetry_Int_Tables_number   1
_chemical_formula_structural   Li3Ti3Cu2(As3P2)2
_chemical_formula_sum   'Li3 Ti3 Cu2 As6 P4'
_cell_volume   257.49843724
_cell_formula_units_Z   1
loop_
 _symmetry_equiv_pos_site_id
 _symmetry_equiv_pos_as_xyz
  1  'x, y, z'
loop_
 _atom_site_type_symbol
 _atom_site_label
 _atom_site_symmetry_multiplicity
 _atom_site_fract_x
 _atom_site_fract_y
 _atom_site_fract_z
 _atom_site_occupancy
  P  P0  1  0.00000000  0.00000000  0.00000000  1
  P  P1  1  0.50000000  0.50000000  0.50000000  1
  P  P2  1  0.50000000  0.50000000  0.00000000  1
  P  P3  1  0.50000000  0.00000000  0.50000000  1
  Li  Li4  1  0.00000000  0.50000000  0.50000000  1
  Li  Li5  1  0.45047574  0.18336731  0.09489545  1
  Li  Li6  1  0.69785262  0.29220530  0.03013789  1
  Cu  Cu7  1  0.90376736  0.96879130  0.85275001  1
  Cu  Cu8  1  0.64798084  0.10779122  0.48768271  1
  Ti  Ti9  1  0.18434720  0.30749369  0.98415164  1
  Ti  Ti10  1  0.40227572  0.31899669  0.35910927  1
  Ti  Ti11  1  0.23737248  0.53407651  0.26239441  1
  As  As12  1  0.26934071  0.65510881  0.40533733  1
  As  As13  1  0.68794547  0.82176774  0.30812455  1
  As  As14  1  0.82598889  0.34842657  0.11014379  1
  As  As15  1  0.66793271  0.10116355  0.65830686  1
  As  As16  1  0.06504754  0.53042327  0.68542577  1
  As  As17  1  0.60870033  0.64406991  0.78283933  1
