# generated using pymatgen
data_Li(SbP)3
_symmetry_space_group_name_H-M   'P 1'
_cell_length_a   5.30867238
_cell_length_b   5.39756483
_cell_length_c   6.15307202
_cell_angle_alpha   96.91077822
_cell_angle_beta   91.75185546
_cell_angle_gamma   97.23561250
_symmetry_Int_Tables_number   1
_chemical_formula_structural   Li(SbP)3
_chemical_formula_sum   'Li1 Sb3 P3'
_cell_volume   173.44751512
_cell_formula_units_Z   1
loop_
 _symmetry_equiv_pos_site_id
 _symmetry_equiv_pos_as_xyz
  1  'x, y, z'
loop_
 _atom_site_type_symbol
 _atom_site_label
 _atom_site_symmetry_multiplicity
 _atom_site_fract_x
 _atom_site_fract_y
 _atom_site_fract_z
 _atom_site_occupancy
  Sb  Sb0  1  0.12500000  0.12500000  0.12500000  1
  Sb  Sb1  1  0.50000000  0.50000000  0.50000000  1
  Sb  Sb2  1  0.25000000  0.25000000  0.25000000  1
  P  P3  1  0.75000000  0.75000000  0.75000000  1
  P  P4  1  0.92411831  0.65110596  0.45667318  1
  P  P5  1  0.16485695  0.83975712  0.84783940  1
  Li  Li6  1  0.85946843  0.91440957  0.89831326  1
