# generated using pymatgen
data_Li2Mn2Sb4Mo2P3
_symmetry_space_group_name_H-M   'P 1'
_cell_length_a   4.80658579
_cell_length_b   5.11161452
_cell_length_c   6.51955589
_cell_angle_alpha   100.61264676
_cell_angle_beta   94.01965299
_cell_angle_gamma   100.88751875
_symmetry_Int_Tables_number   1
_chemical_formula_structural   Li2Mn2Sb4Mo2P3
_chemical_formula_sum   'Li2 Mn2 Sb4 Mo2 P3'
_cell_volume   153.69220750
_cell_formula_units_Z   1
loop_
 _symmetry_equiv_pos_site_id
 _symmetry_equiv_pos_as_xyz
  1  'x, y, z'
loop_
 _atom_site_type_symbol
 _atom_site_label
 _atom_site_symmetry_multiplicity
 _atom_site_fract_x
 _atom_site_fract_y
 _atom_site_fract_z
 _atom_site_occupancy
  Mn  Mn0  1  0.00000000  0.00000000  0.00000000  1
  Mn  Mn1  1  0.50000000  0.50000000  0.50000000  1
  Sb  Sb2  1  0.50000000  0.50000000  0.00000000  1
  Sb  Sb3  1  0.50000000  0.00000000  0.50000000  1
  Sb  Sb4  1  0.00000000  0.50000000  0.50000000  1
  Sb  Sb5  1  0.93738021  0.07817067  0.43645029  1
  P  P6  1  0.24735283  0.30667949  0.65298915  1
  P  P7  1  0.52634150  0.94799018  0.82695345  1
  P  P8  1  0.86003328  0.43748286  0.97723362  1
  Mo  Mo9  1  0.75888174  0.72049692  0.68504447  1
  Mo  Mo10  1  0.17740987  0.85234216  0.97550666  1
  Li  Li11  1  0.00402375  0.18609343  0.00588708  1
  Li  Li12  1  0.84496207  0.88989423  0.59936651  1
