# generated using pymatgen
data_Li4LuNi2P4N5
_symmetry_space_group_name_H-M   'P 1'
_cell_length_a   7.43249497
_cell_length_b   7.05219556
_cell_length_c   8.86811598
_cell_angle_alpha   93.49759716
_cell_angle_beta   91.23654746
_cell_angle_gamma   94.05678930
_symmetry_Int_Tables_number   1
_chemical_formula_structural   Li4LuNi2P4N5
_chemical_formula_sum   'Li4 Lu1 Ni2 P4 N5'
_cell_volume   462.64105756
_cell_formula_units_Z   1
loop_
 _symmetry_equiv_pos_site_id
 _symmetry_equiv_pos_as_xyz
  1  'x, y, z'
loop_
 _atom_site_type_symbol
 _atom_site_label
 _atom_site_symmetry_multiplicity
 _atom_site_fract_x
 _atom_site_fract_y
 _atom_site_fract_z
 _atom_site_occupancy
  P  P0  1  0.00000000  0.00000000  0.00000000  1
  P  P1  1  0.50000000  0.50000000  0.50000000  1
  P  P2  1  0.50000000  0.50000000  0.00000000  1
  P  P3  1  0.50000000  0.00000000  0.50000000  1
  Lu  Lu4  1  0.00000000  0.50000000  0.50000000  1
  Li  Li5  1  0.91721467  0.93538313  0.63592504  1
  Li  Li6  1  0.90873745  0.97146293  0.97891725  1
  Li  Li7  1  0.25409833  0.91118473  0.61078391  1
  Li  Li8  1  0.28134045  0.55808560  0.59862522  1
  Ni  Ni9  1  0.89397601  0.08986313  0.89160927  1
  Ni  Ni10  1  0.93101413  0.92186881  0.10480805  1
  N  N11  1  0.78076792  0.30260639  0.43747906  1
  N  N12  1  0.44018688  0.66057701  0.97537329  1
  N  N13  1  0.76294384  0.61479467  0.70412946  1
  N  N14  1  0.47874999  0.99957548  0.12880062  1
  N  N15  1  0.60359505  0.34073902  0.57960617  1
