# generated using pymatgen
data_LiTi2B(PO2)3
_symmetry_space_group_name_H-M   'P 1'
_cell_length_a   3.51640927
_cell_length_b   3.75851083
_cell_length_c   5.38344360
_cell_angle_alpha   97.59816232
_cell_angle_beta   97.23144585
_cell_angle_gamma   98.26046176
_symmetry_Int_Tables_number   1
_chemical_formula_structural   LiTi2B(PO2)3
_chemical_formula_sum   'Li1 Ti2 B1 P3 O6'
_cell_volume   69.02829487
_cell_formula_units_Z   1
loop_
 _symmetry_equiv_pos_site_id
 _symmetry_equiv_pos_as_xyz
  1  'x, y, z'
loop_
 _atom_site_type_symbol
 _atom_site_label
 _atom_site_symmetry_multiplicity
 _atom_site_fract_x
 _atom_site_fract_y
 _atom_site_fract_z
 _atom_site_occupancy
  Ti  Ti0  1  0.00000000  0.00000000  0.00000000  1
  Ti  Ti1  1  0.50000000  0.50000000  0.50000000  1
  P  P2  1  0.25000000  0.25000000  0.25000000  1
  P  P3  1  0.75000000  0.25000000  0.00000000  1
  P  P4  1  0.25000000  0.75000000  0.50000000  1
  O  O5  1  0.17428484  0.64620586  0.75655528  1
  O  O6  1  0.63458145  0.69566419  0.01097403  1
  O  O7  1  0.40685726  0.61278835  0.21946833  1
  O  O8  1  0.50957976  0.85744893  0.32843640  1
  O  O9  1  0.27863140  0.79705006  0.75877806  1
  O  O10  1  0.67390424  0.05038214  0.93637525  1
  B  B11  1  0.96768228  0.26170424  0.25125214  1
  Li  Li12  1  0.67209352  0.73655053  0.79286486  1
