# generated using pymatgen
data_Li2Sb4P3N
_symmetry_space_group_name_H-M   'P 1'
_cell_length_a   5.22731376
_cell_length_b   5.53333648
_cell_length_c   6.01640495
_cell_angle_alpha   94.88606902
_cell_angle_beta   93.30483205
_cell_angle_gamma   94.07910174
_symmetry_Int_Tables_number   1
_chemical_formula_structural   Li2Sb4P3N
_chemical_formula_sum   'Li2 Sb4 P3 N1'
_cell_volume   172.59410876
_cell_formula_units_Z   1
loop_
 _symmetry_equiv_pos_site_id
 _symmetry_equiv_pos_as_xyz
  1  'x, y, z'
loop_
 _atom_site_type_symbol
 _atom_site_label
 _atom_site_symmetry_multiplicity
 _atom_site_fract_x
 _atom_site_fract_y
 _atom_site_fract_z
 _atom_site_occupancy
  Sb  Sb0  1  0.12500000  0.00000000  0.25000000  1
  Sb  Sb1  1  0.00000000  0.00000000  0.00000000  1
  Sb  Sb2  1  0.37500000  0.00000000  0.25000000  1
  Sb  Sb3  1  0.25000000  0.25000000  0.25000000  1
  P  P4  1  0.00000000  0.25000000  0.12500000  1
  P  P5  1  0.26548682  0.78293957  0.53265468  1
  P  P6  1  0.23630132  0.00798213  0.74821609  1
  Li  Li7  1  0.26614323  0.29984749  0.51937764  1
  Li  Li8  1  0.71057893  0.11100924  0.52355865  1
  N  N9  1  0.25831192  0.55260857  0.17373880  1
