# generated using pymatgen
data_Li3(NiAs3)2
_symmetry_space_group_name_H-M   'P 1'
_cell_length_a   7.86642745
_cell_length_b   7.90289891
_cell_length_c   9.00185251
_cell_angle_alpha   90.25708507
_cell_angle_beta   91.22313271
_cell_angle_gamma   90.29391689
_symmetry_Int_Tables_number   1
_chemical_formula_structural   Li3(NiAs3)2
_chemical_formula_sum   'Li3 Ni2 As6'
_cell_volume   559.48260766
_cell_formula_units_Z   1
loop_
 _symmetry_equiv_pos_site_id
 _symmetry_equiv_pos_as_xyz
  1  'x, y, z'
loop_
 _atom_site_type_symbol
 _atom_site_label
 _atom_site_symmetry_multiplicity
 _atom_site_fract_x
 _atom_site_fract_y
 _atom_site_fract_z
 _atom_site_occupancy
  Ni  Ni0  1  0.12500000  0.12500000  0.12500000  1
  Ni  Ni1  1  0.50000000  0.50000000  0.50000000  1
  As  As2  1  0.25000000  0.25000000  0.25000000  1
  As  As3  1  0.75000000  0.75000000  0.75000000  1
  As  As4  1  0.90080744  0.08752577  0.51695683  1
  As  As5  1  0.75541752  0.34788762  0.64172002  1
  As  As6  1  0.40656664  0.37948543  0.67728097  1
  As  As7  1  0.73577178  0.76788046  0.27548489  1
  Li  Li8  1  0.33933248  0.00546844  0.73811038  1
  Li  Li9  1  0.58175607  0.86335235  0.36257205  1
  Li  Li10  1  0.60153472  0.65779559  0.48672699  1
