# generated using pymatgen
data_Li2MnSb4P3
_symmetry_space_group_name_H-M   'P 1'
_cell_length_a   5.69713478
_cell_length_b   5.89885833
_cell_length_c   6.96127426
_cell_angle_alpha   97.36446214
_cell_angle_beta   93.32129677
_cell_angle_gamma   97.62928305
_symmetry_Int_Tables_number   1
_chemical_formula_structural   Li2MnSb4P3
_chemical_formula_sum   'Li2 Mn1 Sb4 P3'
_cell_volume   229.29151706
_cell_formula_units_Z   1
loop_
 _symmetry_equiv_pos_site_id
 _symmetry_equiv_pos_as_xyz
  1  'x, y, z'
loop_
 _atom_site_type_symbol
 _atom_site_label
 _atom_site_symmetry_multiplicity
 _atom_site_fract_x
 _atom_site_fract_y
 _atom_site_fract_z
 _atom_site_occupancy
  Mn  Mn0  1  0.12500000  0.12500000  0.12500000  1
  Sb  Sb1  1  0.50000000  0.50000000  0.50000000  1
  Sb  Sb2  1  0.25000000  0.25000000  0.25000000  1
  Sb  Sb3  1  0.75000000  0.75000000  0.75000000  1
  Sb  Sb4  1  0.77849338  0.90200956  0.62056013  1
  P  P5  1  0.75582096  0.20004953  0.54369125  1
  P  P6  1  0.12231294  0.02739475  0.09941811  1
  P  P7  1  0.98870092  0.39152650  0.99827921  1
  Li  Li8  1  0.43743691  0.56803922  0.66581042  1
  Li  Li9  1  0.42866781  0.57778257  0.49858345  1
