# generated using pymatgen
data_Li2Mn2Sb4P3N
_symmetry_space_group_name_H-M   'P 1'
_cell_length_a   5.84668191
_cell_length_b   6.29999924
_cell_length_c   6.75718314
_cell_angle_alpha   95.37713521
_cell_angle_beta   93.48065623
_cell_angle_gamma   95.01462359
_symmetry_Int_Tables_number   1
_chemical_formula_structural   Li2Mn2Sb4P3N
_chemical_formula_sum   'Li2 Mn2 Sb4 P3 N1'
_cell_volume   246.25451620
_cell_formula_units_Z   1
loop_
 _symmetry_equiv_pos_site_id
 _symmetry_equiv_pos_as_xyz
  1  'x, y, z'
loop_
 _atom_site_type_symbol
 _atom_site_label
 _atom_site_symmetry_multiplicity
 _atom_site_fract_x
 _atom_site_fract_y
 _atom_site_fract_z
 _atom_site_occupancy
  N  N0  1  0.00000000  0.00000000  0.00000000  1
  Mn  Mn1  1  0.50000000  0.50000000  0.50000000  1
  Mn  Mn2  1  0.25000000  0.25000000  0.25000000  1
  Sb  Sb3  1  0.75000000  0.25000000  0.00000000  1
  Sb  Sb4  1  0.25000000  0.75000000  0.50000000  1
  Sb  Sb5  1  0.45855550  0.70093306  0.37870649  1
  Sb  Sb6  1  0.73841995  0.39171863  0.98249468  1
  P  P7  1  0.80941267  0.41010250  0.49630942  1
  P  P8  1  0.10146674  0.11790529  0.42105435  1
  P  P9  1  0.65998600  0.51567584  0.25509153  1
  Li  Li10  1  0.68563098  0.59164525  0.15048632  1
  Li  Li11  1  0.50684060  0.99460820  0.74336446  1
