# generated using pymatgen
data_Li4Ti2F3
_symmetry_space_group_name_H-M   'P 1'
_cell_length_a   6.13793407
_cell_length_b   5.87923943
_cell_length_c   7.84806914
_cell_angle_alpha   98.79752826
_cell_angle_beta   100.41441026
_cell_angle_gamma   98.57003050
_symmetry_Int_Tables_number   1
_chemical_formula_structural   Li4Ti2F3
_chemical_formula_sum   'Li4 Ti2 F3'
_cell_volume   270.68054706
_cell_formula_units_Z   1
loop_
 _symmetry_equiv_pos_site_id
 _symmetry_equiv_pos_as_xyz
  1  'x, y, z'
loop_
 _atom_site_type_symbol
 _atom_site_label
 _atom_site_symmetry_multiplicity
 _atom_site_fract_x
 _atom_site_fract_y
 _atom_site_fract_z
 _atom_site_occupancy
  Li  Li0  1  0.12500000  0.00000000  0.25000000  1
  Li  Li1  1  0.00000000  0.00000000  0.00000000  1
  Li  Li2  1  0.37500000  0.00000000  0.25000000  1
  Li  Li3  1  0.25000000  0.25000000  0.25000000  1
  F  F4  1  0.00000000  0.25000000  0.12500000  1
  F  F5  1  0.01061725  0.84490446  0.45904350  1
  F  F6  1  0.92746595  0.10641280  0.93851072  1
  Ti  Ti7  1  0.07804258  0.81002051  0.91775792  1
  Ti  Ti8  1  0.18893982  0.40545479  0.78894903  1
