# generated using pymatgen
data_LiTi2P3(SeO)2
_symmetry_space_group_name_H-M   'P 1'
_cell_length_a   7.58618049
_cell_length_b   7.35542570
_cell_length_c   7.30377276
_cell_angle_alpha   90.48383021
_cell_angle_beta   92.30191718
_cell_angle_gamma   90.55314712
_symmetry_Int_Tables_number   1
_chemical_formula_structural   LiTi2P3(SeO)2
_chemical_formula_sum   'Li1 Ti2 P3 Se2 O2'
_cell_volume   407.18374642
_cell_formula_units_Z   1
loop_
 _symmetry_equiv_pos_site_id
 _symmetry_equiv_pos_as_xyz
  1  'x, y, z'
loop_
 _atom_site_type_symbol
 _atom_site_label
 _atom_site_symmetry_multiplicity
 _atom_site_fract_x
 _atom_site_fract_y
 _atom_site_fract_z
 _atom_site_occupancy
  P  P0  1  0.00000000  0.00000000  0.00000000  1
  P  P1  1  0.50000000  0.50000000  0.50000000  1
  P  P2  1  0.25000000  0.25000000  0.25000000  1
  Li  Li3  1  0.75000000  0.25000000  0.00000000  1
  Se  Se4  1  0.25000000  0.75000000  0.50000000  1
  Se  Se5  1  0.45521933  0.78976665  0.82159816  1
  Ti  Ti6  1  0.95818234  0.92714569  0.82439205  1
  Ti  Ti7  1  0.81352624  0.44678343  0.60686378  1
  O  O8  1  0.21493743  0.74009637  0.44782653  1
  O  O9  1  0.66228582  0.39187301  0.49882538  1
