# generated using pymatgen
data_Li2MnSb4P3
_symmetry_space_group_name_H-M   'P 1'
_cell_length_a   5.73164292
_cell_length_b   6.10777226
_cell_length_c   7.06875450
_cell_angle_alpha   96.11149349
_cell_angle_beta   94.29012735
_cell_angle_gamma   96.54487591
_symmetry_Int_Tables_number   1
_chemical_formula_structural   Li2MnSb4P3
_chemical_formula_sum   'Li2 Mn1 Sb4 P3'
_cell_volume   243.50132971
_cell_formula_units_Z   1
loop_
 _symmetry_equiv_pos_site_id
 _symmetry_equiv_pos_as_xyz
  1  'x, y, z'
loop_
 _atom_site_type_symbol
 _atom_site_label
 _atom_site_symmetry_multiplicity
 _atom_site_fract_x
 _atom_site_fract_y
 _atom_site_fract_z
 _atom_site_occupancy
  Mn  Mn0  1  0.12500000  0.12500000  0.12500000  1
  Sb  Sb1  1  0.50000000  0.50000000  0.50000000  1
  Sb  Sb2  1  0.25000000  0.25000000  0.25000000  1
  Sb  Sb3  1  0.75000000  0.75000000  0.75000000  1
  Sb  Sb4  1  0.96219529  0.66798053  0.49368597  1
  P  P5  1  0.50829033  0.84737358  0.29222488  1
  P  P6  1  0.40017588  0.91730237  0.48665501  1
  P  P7  1  0.56496055  0.60604491  0.74991853  1
  Li  Li8  1  0.49990717  0.78123083  0.05442196  1
  Li  Li9  1  0.00186959  0.95085821  0.72588034  1
