# generated using pymatgen
data_Li3LuTi2P3
_symmetry_space_group_name_H-M   'P 1'
_cell_length_a   6.57857736
_cell_length_b   6.14791064
_cell_length_c   7.84020931
_cell_angle_alpha   94.05360714
_cell_angle_beta   94.34012398
_cell_angle_gamma   94.22004127
_symmetry_Int_Tables_number   1
_chemical_formula_structural   Li3LuTi2P3
_chemical_formula_sum   'Li3 Lu1 Ti2 P3'
_cell_volume   314.39830702
_cell_formula_units_Z   1
loop_
 _symmetry_equiv_pos_site_id
 _symmetry_equiv_pos_as_xyz
  1  'x, y, z'
loop_
 _atom_site_type_symbol
 _atom_site_label
 _atom_site_symmetry_multiplicity
 _atom_site_fract_x
 _atom_site_fract_y
 _atom_site_fract_z
 _atom_site_occupancy
  P  P0  1  0.12500000  0.00000000  0.25000000  1
  P  P1  1  0.00000000  0.00000000  0.00000000  1
  P  P2  1  0.37500000  0.00000000  0.25000000  1
  Lu  Lu3  1  0.25000000  0.25000000  0.25000000  1
  Li  Li4  1  0.00000000  0.25000000  0.12500000  1
  Li  Li5  1  0.79427254  0.57124780  0.28999520  1
  Li  Li6  1  0.26405231  0.96350564  0.44934397  1
  Ti  Ti7  1  0.14093245  0.13299479  0.20981552  1
  Ti  Ti8  1  0.89860834  0.08089799  0.70835741  1
