# generated using pymatgen
data_Li3Al3P5N5O3
_symmetry_space_group_name_H-M   'P 1'
_cell_length_a   8.07043165
_cell_length_b   8.45101460
_cell_length_c   8.95750854
_cell_angle_alpha   90.00000000
_cell_angle_beta   90.00000000
_cell_angle_gamma   90.00000000
_symmetry_Int_Tables_number   1
_chemical_formula_structural   Li3Al3P5N5O3
_chemical_formula_sum   'Li3 Al3 P5 N5 O3'
_cell_volume   610.93196210
_cell_formula_units_Z   1
loop_
 _symmetry_equiv_pos_site_id
 _symmetry_equiv_pos_as_xyz
  1  'x, y, z'
loop_
 _atom_site_type_symbol
 _atom_site_label
 _atom_site_symmetry_multiplicity
 _atom_site_fract_x
 _atom_site_fract_y
 _atom_site_fract_z
 _atom_site_occupancy
  Al  Al0  1  0.00000000  0.00000000  0.00000000  1
  Al  Al1  1  0.50000000  0.50000000  0.50000000  1
  Al  Al2  1  0.25000000  0.25000000  0.25000000  1
  O  O3  1  0.75000000  0.25000000  0.00000000  1
  O  O4  1  0.25000000  0.75000000  0.50000000  1
  O  O5  1  0.22583976  0.66711926  0.02540021  1
  N  N6  1  0.50831069  0.20871695  0.87809289  1
  N  N7  1  0.52826218  0.11398974  0.84140415  1
  N  N8  1  0.69082342  0.31747858  0.46554554  1
  N  N9  1  0.72690993  0.43740701  0.70770641  1
  N  N10  1  0.00345971  0.71948507  0.86154499  1
  P  P11  1  0.88546445  0.40999412  0.30125995  1
  P  P12  1  0.86498261  0.99753529  0.65501305  1
  P  P13  1  0.08994475  0.96041297  0.12634911  1
  P  P14  1  0.22468848  0.53841544  0.61206727  1
  P  P15  1  0.59044271  0.02206271  0.76113123  1
  Li  Li16  1  0.30250111  0.15842178  0.39432128  1
  Li  Li17  1  0.08115646  0.07272583  0.05989615  1
  Li  Li18  1  0.93572968  0.57499807  0.91597116  1
