# generated using pymatgen
data_LiMn2Sb4P3
_symmetry_space_group_name_H-M   'P 1'
_cell_length_a   6.77220087
_cell_length_b   6.80142905
_cell_length_c   7.20017727
_cell_angle_alpha   92.68352214
_cell_angle_beta   90.80219010
_cell_angle_gamma   92.83295156
_symmetry_Int_Tables_number   1
_chemical_formula_structural   LiMn2Sb4P3
_chemical_formula_sum   'Li1 Mn2 Sb4 P3'
_cell_volume   330.83200510
_cell_formula_units_Z   1
loop_
 _symmetry_equiv_pos_site_id
 _symmetry_equiv_pos_as_xyz
  1  'x, y, z'
loop_
 _atom_site_type_symbol
 _atom_site_label
 _atom_site_symmetry_multiplicity
 _atom_site_fract_x
 _atom_site_fract_y
 _atom_site_fract_z
 _atom_site_occupancy
  Mn  Mn0  1  0.12500000  0.00000000  0.25000000  1
  Mn  Mn1  1  0.00000000  0.00000000  0.00000000  1
  Sb  Sb2  1  0.37500000  0.00000000  0.25000000  1
  Sb  Sb3  1  0.25000000  0.25000000  0.25000000  1
  Sb  Sb4  1  0.00000000  0.25000000  0.12500000  1
  Sb  Sb5  1  0.11552453  0.12592976  0.87068334  1
  P  P6  1  0.69609996  0.77702911  0.07822658  1
  P  P7  1  0.03720192  0.33424596  0.38717152  1
  P  P8  1  0.09255128  0.56012018  0.64691474  1
  Li  Li9  1  0.87079289  0.79243245  0.95519252  1
