# generated using pymatgen
data_Li3Ni2As6O7
_symmetry_space_group_name_H-M   'P 1'
_cell_length_a   7.96979206
_cell_length_b   7.81787608
_cell_length_c   9.14283479
_cell_angle_alpha   90.20176539
_cell_angle_beta   91.41353667
_cell_angle_gamma   90.21526946
_symmetry_Int_Tables_number   1
_chemical_formula_structural   Li3Ni2As6O7
_chemical_formula_sum   'Li3 Ni2 As6 O7'
_cell_volume   569.48011085
_cell_formula_units_Z   1
loop_
 _symmetry_equiv_pos_site_id
 _symmetry_equiv_pos_as_xyz
  1  'x, y, z'
loop_
 _atom_site_type_symbol
 _atom_site_label
 _atom_site_symmetry_multiplicity
 _atom_site_fract_x
 _atom_site_fract_y
 _atom_site_fract_z
 _atom_site_occupancy
  Li  Li0  1  0.12500000  0.12500000  0.12500000  1
  Li  Li1  1  0.50000000  0.50000000  0.50000000  1
  Li  Li2  1  0.25000000  0.25000000  0.25000000  1
  Ni  Ni3  1  0.75000000  0.75000000  0.75000000  1
  Ni  Ni4  1  0.90144696  0.12167703  0.81295485  1
  As  As5  1  0.82127830  0.77001561  0.68090379  1
  As  As6  1  0.86657107  0.47672339  0.74800279  1
  As  As7  1  0.31752679  0.59696632  0.77441746  1
  As  As8  1  0.06420574  0.48578427  0.58477678  1
  As  As9  1  0.36427479  0.66893725  0.06801878  1
  As  As10  1  0.27165095  0.57059280  0.36764268  1
  O  O11  1  0.69255749  0.40591537  0.35253044  1
  O  O12  1  0.06336274  0.25256501  0.73218878  1
  O  O13  1  0.72429650  0.57505373  0.38729405  1
  O  O14  1  0.01913162  0.34732862  0.43864852  1
  O  O15  1  0.09588740  0.09917952  0.24550859  1
  O  O16  1  0.39441075  0.98926868  0.80630396  1
  O  O17  1  0.70441583  0.19020036  0.55822401  1
