# generated using pymatgen
data_Li3LuTi2P3
_symmetry_space_group_name_H-M   'P 1'
_cell_length_a   6.46331975
_cell_length_b   6.02585470
_cell_length_c   7.70146752
_cell_angle_alpha   94.12865464
_cell_angle_beta   94.75902950
_cell_angle_gamma   94.24207622
_symmetry_Int_Tables_number   1
_chemical_formula_structural   Li3LuTi2P3
_chemical_formula_sum   'Li3 Lu1 Ti2 P3'
_cell_volume   297.17357396
_cell_formula_units_Z   1
loop_
 _symmetry_equiv_pos_site_id
 _symmetry_equiv_pos_as_xyz
  1  'x, y, z'
loop_
 _atom_site_type_symbol
 _atom_site_label
 _atom_site_symmetry_multiplicity
 _atom_site_fract_x
 _atom_site_fract_y
 _atom_site_fract_z
 _atom_site_occupancy
  P  P0  1  0.00000000  0.00000000  0.00000000  1
  P  P1  1  0.50000000  0.50000000  0.50000000  1
  P  P2  1  0.25000000  0.25000000  0.25000000  1
  Lu  Lu3  1  0.75000000  0.25000000  0.00000000  1
  Li  Li4  1  0.25000000  0.75000000  0.50000000  1
  Li  Li5  1  0.83268035  0.81431225  0.29285109  1
  Li  Li6  1  0.31743807  0.86482531  0.73923539  1
  Ti  Ti7  1  0.97462030  0.69930688  0.03506644  1
  Ti  Ti8  1  0.14820592  0.69016772  0.51654996  1
