# generated using pymatgen
data_Li3Ti2P4N5
_symmetry_space_group_name_H-M   'P 1'
_cell_length_a   7.97384631
_cell_length_b   7.63163931
_cell_length_c   8.35863240
_cell_angle_alpha   91.66456330
_cell_angle_beta   91.01446261
_cell_angle_gamma   91.92908522
_symmetry_Int_Tables_number   1
_chemical_formula_structural   Li3Ti2P4N5
_chemical_formula_sum   'Li3 Ti2 P4 N5'
_cell_volume   508.06053390
_cell_formula_units_Z   1
loop_
 _symmetry_equiv_pos_site_id
 _symmetry_equiv_pos_as_xyz
  1  'x, y, z'
loop_
 _atom_site_type_symbol
 _atom_site_label
 _atom_site_symmetry_multiplicity
 _atom_site_fract_x
 _atom_site_fract_y
 _atom_site_fract_z
 _atom_site_occupancy
  P  P0  1  0.12500000  0.00000000  0.25000000  1
  P  P1  1  0.00000000  0.00000000  0.00000000  1
  P  P2  1  0.37500000  0.00000000  0.25000000  1
  P  P3  1  0.25000000  0.25000000  0.25000000  1
  Li  Li4  1  0.00000000  0.25000000  0.12500000  1
  Li  Li5  1  0.37894600  0.93482324  0.30277388  1
  Li  Li6  1  0.10946587  0.33870535  0.85619352  1
  Ti  Ti7  1  0.55068792  0.49817685  0.97317129  1
  Ti  Ti8  1  0.10904887  0.99307727  0.16594022  1
  N  N9  1  0.01171247  0.91353618  0.43898499  1
  N  N10  1  0.19285206  0.68221432  0.60831158  1
  N  N11  1  0.06430533  0.11118208  0.59679673  1
  N  N12  1  0.42802567  0.30979103  0.20202946  1
  N  N13  1  0.76513755  0.11015892  0.69363699  1
