# generated using pymatgen
data_Li2Ti(IO)4
_symmetry_space_group_name_H-M   'P 1'
_cell_length_a   8.62171120
_cell_length_b   8.39668706
_cell_length_c   7.61334381
_cell_angle_alpha   90.09656698
_cell_angle_beta   90.45943635
_cell_angle_gamma   90.11040184
_symmetry_Int_Tables_number   1
_chemical_formula_structural   Li2Ti(IO)4
_chemical_formula_sum   'Li2 Ti1 I4 O4'
_cell_volume   551.13943262
_cell_formula_units_Z   1
loop_
 _symmetry_equiv_pos_site_id
 _symmetry_equiv_pos_as_xyz
  1  'x, y, z'
loop_
 _atom_site_type_symbol
 _atom_site_label
 _atom_site_symmetry_multiplicity
 _atom_site_fract_x
 _atom_site_fract_y
 _atom_site_fract_z
 _atom_site_occupancy
  I  I0  1  0.12500000  0.00000000  0.25000000  1
  I  I1  1  0.00000000  0.00000000  0.00000000  1
  I  I2  1  0.37500000  0.00000000  0.25000000  1
  I  I3  1  0.25000000  0.25000000  0.25000000  1
  Li  Li4  1  0.00000000  0.25000000  0.12500000  1
  Li  Li5  1  0.62261476  0.56880531  0.22095036  1
  Ti  Ti6  1  0.15587976  0.08426252  0.75541600  1
  O  O7  1  0.30159055  0.51003539  0.93297614  1
  O  O8  1  0.56017130  0.18450629  0.54104011  1
  O  O9  1  0.93984783  0.01029850  0.57996203  1
  O  O10  1  0.73440254  0.82038111  0.52467491  1
