# generated using pymatgen
data_LiMnSb4Mo2P3
_symmetry_space_group_name_H-M   'P 1'
_cell_length_a   4.94313299
_cell_length_b   4.99580862
_cell_length_c   6.21387283
_cell_angle_alpha   98.71502907
_cell_angle_beta   91.94257752
_cell_angle_gamma   98.52420801
_symmetry_Int_Tables_number   1
_chemical_formula_structural   LiMnSb4Mo2P3
_chemical_formula_sum   'Li1 Mn1 Sb4 Mo2 P3'
_cell_volume   149.75448108
_cell_formula_units_Z   1
loop_
 _symmetry_equiv_pos_site_id
 _symmetry_equiv_pos_as_xyz
  1  'x, y, z'
loop_
 _atom_site_type_symbol
 _atom_site_label
 _atom_site_symmetry_multiplicity
 _atom_site_fract_x
 _atom_site_fract_y
 _atom_site_fract_z
 _atom_site_occupancy
  Mn  Mn0  1  0.00000000  0.00000000  0.00000000  1
  Sb  Sb1  1  0.50000000  0.50000000  0.50000000  1
  Sb  Sb2  1  0.50000000  0.50000000  0.00000000  1
  Sb  Sb3  1  0.50000000  0.00000000  0.50000000  1
  Sb  Sb4  1  0.00000000  0.50000000  0.50000000  1
  P  P5  1  0.34496980  0.50147496  0.81036206  1
  P  P6  1  0.71113538  0.33435601  0.89363460  1
  P  P7  1  0.81793871  0.85662142  0.74878577  1
  Mo  Mo8  1  0.13662467  0.53514533  0.40192746  1
  Mo  Mo9  1  0.40682656  0.83902111  0.71911709  1
  Li  Li10  1  0.65290570  0.38019377  0.30040539  1
