# generated using pymatgen
data_Li2TiZn2(I2O)2
_symmetry_space_group_name_H-M   'P 1'
_cell_length_a   8.38209498
_cell_length_b   8.62922725
_cell_length_c   7.27024695
_cell_angle_alpha   90.09198380
_cell_angle_beta   90.43763099
_cell_angle_gamma   90.10516205
_symmetry_Int_Tables_number   1
_chemical_formula_structural   Li2TiZn2(I2O)2
_chemical_formula_sum   'Li2 Ti1 Zn2 I4 O2'
_cell_volume   525.84733494
_cell_formula_units_Z   1
loop_
 _symmetry_equiv_pos_site_id
 _symmetry_equiv_pos_as_xyz
  1  'x, y, z'
loop_
 _atom_site_type_symbol
 _atom_site_label
 _atom_site_symmetry_multiplicity
 _atom_site_fract_x
 _atom_site_fract_y
 _atom_site_fract_z
 _atom_site_occupancy
  I  I0  1  0.12500000  0.00000000  0.25000000  1
  I  I1  1  0.00000000  0.00000000  0.00000000  1
  I  I2  1  0.37500000  0.00000000  0.25000000  1
  I  I3  1  0.25000000  0.25000000  0.25000000  1
  Li  Li4  1  0.00000000  0.25000000  0.12500000  1
  Li  Li5  1  0.45233112  0.63063046  0.97711676  1
  Zn  Zn6  1  0.05368259  0.31891453  0.79353174  1
  Zn  Zn7  1  0.49743900  0.79814461  0.53764118  1
  Ti  Ti8  1  0.04900360  0.29946180  0.75905673  1
  O  O9  1  0.32959697  0.67461543  0.71367105  1
  O  O10  1  0.31638691  0.26352924  0.39699869  1
