# generated using pymatgen
data_Li2TiP3(SeO)2
_symmetry_space_group_name_H-M   'P 1'
_cell_length_a   6.60747348
_cell_length_b   6.63257228
_cell_length_c   6.58485288
_cell_angle_alpha   95.04749647
_cell_angle_beta   97.09448346
_cell_angle_gamma   96.10783433
_symmetry_Int_Tables_number   1
_chemical_formula_structural   Li2TiP3(SeO)2
_chemical_formula_sum   'Li2 Ti1 P3 Se2 O2'
_cell_volume   283.24389528
_cell_formula_units_Z   1
loop_
 _symmetry_equiv_pos_site_id
 _symmetry_equiv_pos_as_xyz
  1  'x, y, z'
loop_
 _atom_site_type_symbol
 _atom_site_label
 _atom_site_symmetry_multiplicity
 _atom_site_fract_x
 _atom_site_fract_y
 _atom_site_fract_z
 _atom_site_occupancy
  P  P0  1  0.00000000  0.00000000  0.00000000  1
  P  P1  1  0.50000000  0.50000000  0.50000000  1
  P  P2  1  0.50000000  0.50000000  0.00000000  1
  Li  Li3  1  0.50000000  0.00000000  0.50000000  1
  Li  Li4  1  0.00000000  0.50000000  0.50000000  1
  Se  Se5  1  0.93842387  0.09607855  0.84873469  1
  Se  Se6  1  0.33226865  0.14873097  0.87834777  1
  Ti  Ti7  1  0.78316402  0.59767490  0.01363380  1
  O  O8  1  0.47933359  0.78302261  0.55104608  1
  O  O9  1  0.17316059  0.67597668  0.72765647  1
