# generated using pymatgen
data_Li2MnSb4P3
_symmetry_space_group_name_H-M   'P 1'
_cell_length_a   5.66258397
_cell_length_b   6.10701401
_cell_length_c   7.00928138
_cell_angle_alpha   96.29244167
_cell_angle_beta   94.22669107
_cell_angle_gamma   96.71213178
_symmetry_Int_Tables_number   1
_chemical_formula_structural   Li2MnSb4P3
_chemical_formula_sum   'Li2 Mn1 Sb4 P3'
_cell_volume   238.35899397
_cell_formula_units_Z   1
loop_
 _symmetry_equiv_pos_site_id
 _symmetry_equiv_pos_as_xyz
  1  'x, y, z'
loop_
 _atom_site_type_symbol
 _atom_site_label
 _atom_site_symmetry_multiplicity
 _atom_site_fract_x
 _atom_site_fract_y
 _atom_site_fract_z
 _atom_site_occupancy
  Mn  Mn0  1  0.12500000  0.00000000  0.25000000  1
  Sb  Sb1  1  0.00000000  0.00000000  0.00000000  1
  Sb  Sb2  1  0.37500000  0.00000000  0.25000000  1
  Sb  Sb3  1  0.25000000  0.25000000  0.25000000  1
  Sb  Sb4  1  0.00000000  0.25000000  0.12500000  1
  P  P5  1  0.92289457  0.83965999  0.66046487  1
  P  P6  1  0.44920272  0.63437105  0.23312323  1
  P  P7  1  0.58170126  0.55669697  0.36501266  1
  Li  Li8  1  0.95177496  0.52138860  0.94843197  1
  Li  Li9  1  0.46344177  0.87949020  0.03056030  1
