# generated using pymatgen
data_Li4LuNi2P4N5
_symmetry_space_group_name_H-M   'P 1'
_cell_length_a   7.43249497
_cell_length_b   7.05219556
_cell_length_c   8.86811598
_cell_angle_alpha   93.49759716
_cell_angle_beta   91.23654746
_cell_angle_gamma   94.05678930
_symmetry_Int_Tables_number   1
_chemical_formula_structural   Li4LuNi2P4N5
_chemical_formula_sum   'Li4 Lu1 Ni2 P4 N5'
_cell_volume   462.64105756
_cell_formula_units_Z   1
loop_
 _symmetry_equiv_pos_site_id
 _symmetry_equiv_pos_as_xyz
  1  'x, y, z'
loop_
 _atom_site_type_symbol
 _atom_site_label
 _atom_site_symmetry_multiplicity
 _atom_site_fract_x
 _atom_site_fract_y
 _atom_site_fract_z
 _atom_site_occupancy
  P  P0  1  0.12500000  0.00000000  0.25000000  1
  P  P1  1  0.00000000  0.00000000  0.00000000  1
  P  P2  1  0.37500000  0.00000000  0.25000000  1
  P  P3  1  0.25000000  0.25000000  0.25000000  1
  Lu  Lu4  1  0.00000000  0.25000000  0.12500000  1
  Li  Li5  1  0.33432925  0.21618719  0.38579546  1
  Li  Li6  1  0.30540561  0.95183110  0.96143520  1
  Li  Li7  1  0.11202901  0.93368368  0.85045482  1
  Li  Li8  1  0.26870540  0.51236626  0.77904458  1
  Ni  Ni9  1  0.02867300  0.51314032  0.07198535  1
  Ni  Ni10  1  0.26598460  0.08188447  0.70055821  1
  N  N11  1  0.88690436  0.30456626  0.60318551  1
  N  N12  1  0.02807145  0.47268645  0.58600574  1
  N  N13  1  0.94773600  0.91272129  0.27237324  1
  N  N14  1  0.87761763  0.17486600  0.11772798  1
  N  N15  1  0.65693785  0.44001513  0.98419842  1
