# generated using pymatgen
data_Li2Mn2Sb4P2N
_symmetry_space_group_name_H-M   'P 1'
_cell_length_a   5.01182504
_cell_length_b   5.33532379
_cell_length_c   6.45280262
_cell_angle_alpha   100.58961301
_cell_angle_beta   93.43426102
_cell_angle_gamma   100.23107087
_symmetry_Int_Tables_number   1
_chemical_formula_structural   Li2Mn2Sb4P2N
_chemical_formula_sum   'Li2 Mn2 Sb4 P2 N1'
_cell_volume   166.14493380
_cell_formula_units_Z   1
loop_
 _symmetry_equiv_pos_site_id
 _symmetry_equiv_pos_as_xyz
  1  'x, y, z'
loop_
 _atom_site_type_symbol
 _atom_site_label
 _atom_site_symmetry_multiplicity
 _atom_site_fract_x
 _atom_site_fract_y
 _atom_site_fract_z
 _atom_site_occupancy
  N  N0  1  0.00000000  0.00000000  0.00000000  1
  Mn  Mn1  1  0.50000000  0.50000000  0.50000000  1
  Mn  Mn2  1  0.25000000  0.25000000  0.25000000  1
  Sb  Sb3  1  0.75000000  0.25000000  0.00000000  1
  Sb  Sb4  1  0.25000000  0.75000000  0.50000000  1
  Sb  Sb5  1  0.33226998  0.08377745  0.23713405  1
  Sb  Sb6  1  0.61097160  0.38405854  0.98901115  1
  P  P7  1  0.06404048  0.97874206  0.10327270  1
  P  P8  1  0.22316933  0.71214286  0.75929438  1
  Li  Li9  1  0.64083927  0.06096772  0.12217544  1
  Li  Li10  1  0.65446794  0.69594990  0.11172501  1
