# generated using pymatgen
data_Li3TiI4N5O4
_symmetry_space_group_name_H-M   'P 1'
_cell_length_a   8.59137945
_cell_length_b   8.42052477
_cell_length_c   7.53528248
_cell_angle_alpha   90.69132744
_cell_angle_beta   90.24441328
_cell_angle_gamma   90.80185614
_symmetry_Int_Tables_number   1
_chemical_formula_structural   Li3TiI4N5O4
_chemical_formula_sum   'Li3 Ti1 I4 N5 O4'
_cell_volume   545.03347632
_cell_formula_units_Z   1
loop_
 _symmetry_equiv_pos_site_id
 _symmetry_equiv_pos_as_xyz
  1  'x, y, z'
loop_
 _atom_site_type_symbol
 _atom_site_label
 _atom_site_symmetry_multiplicity
 _atom_site_fract_x
 _atom_site_fract_y
 _atom_site_fract_z
 _atom_site_occupancy
  I  I0  1  0.12500000  0.00000000  0.25000000  1
  I  I1  1  0.00000000  0.00000000  0.00000000  1
  I  I2  1  0.37500000  0.00000000  0.25000000  1
  I  I3  1  0.25000000  0.25000000  0.25000000  1
  Li  Li4  1  0.00000000  0.25000000  0.12500000  1
  Li  Li5  1  0.92414973  0.98349395  0.62610869  1
  Li  Li6  1  0.68215296  0.51775638  0.04122780  1
  Ti  Ti7  1  0.74238959  0.07248942  0.31633826  1
  O  O8  1  0.50670073  0.62827975  0.85870183  1
  O  O9  1  0.60821414  0.48643460  0.03880843  1
  O  O10  1  0.11587912  0.98567112  0.11981882  1
  O  O11  1  0.34886358  0.48226763  0.46914267  1
  N  N12  1  0.38633751  0.17448564  0.68439964  1
  N  N13  1  0.14534313  0.67147632  0.16523303  1
  N  N14  1  0.03032859  0.71573311  0.20267627  1
  N  N15  1  0.30777051  0.29353844  0.08016153  1
  N  N16  1  0.67730266  0.56332499  0.35128192  1
