# generated using pymatgen
data_Li2Mn2Sb4P3
_symmetry_space_group_name_H-M   'P 1'
_cell_length_a   6.87890158
_cell_length_b   7.46446322
_cell_length_c   7.27704966
_cell_angle_alpha   92.74282927
_cell_angle_beta   90.92361378
_cell_angle_gamma   92.79781789
_symmetry_Int_Tables_number   1
_chemical_formula_structural   Li2Mn2Sb4P3
_chemical_formula_sum   'Li2 Mn2 Sb4 P3'
_cell_volume   372.72016391
_cell_formula_units_Z   1
loop_
 _symmetry_equiv_pos_site_id
 _symmetry_equiv_pos_as_xyz
  1  'x, y, z'
loop_
 _atom_site_type_symbol
 _atom_site_label
 _atom_site_symmetry_multiplicity
 _atom_site_fract_x
 _atom_site_fract_y
 _atom_site_fract_z
 _atom_site_occupancy
  Mn  Mn0  1  0.12500000  0.00000000  0.25000000  1
  Mn  Mn1  1  0.00000000  0.00000000  0.00000000  1
  Sb  Sb2  1  0.37500000  0.00000000  0.25000000  1
  Sb  Sb3  1  0.25000000  0.25000000  0.25000000  1
  Sb  Sb4  1  0.00000000  0.25000000  0.12500000  1
  Sb  Sb5  1  0.27108537  0.76248282  0.52486752  1
  P  P6  1  0.91784456  0.87615588  0.22612734  1
  P  P7  1  0.77281306  0.55754285  0.56850915  1
  P  P8  1  0.84140099  0.20534959  0.91265792  1
  Li  Li9  1  0.55352659  0.98028311  0.57918209  1
  Li  Li10  1  0.49914285  0.28514304  0.35918582  1
