# generated using pymatgen
data_Li2MnSb4P2N
_symmetry_space_group_name_H-M   'P 1'
_cell_length_a   4.99286582
_cell_length_b   5.36398041
_cell_length_c   6.66897582
_cell_angle_alpha   99.15386873
_cell_angle_beta   96.65618237
_cell_angle_gamma   98.46769616
_symmetry_Int_Tables_number   1
_chemical_formula_structural   Li2MnSb4P2N
_chemical_formula_sum   'Li2 Mn1 Sb4 P2 N1'
_cell_volume   172.62463450
_cell_formula_units_Z   1
loop_
 _symmetry_equiv_pos_site_id
 _symmetry_equiv_pos_as_xyz
  1  'x, y, z'
loop_
 _atom_site_type_symbol
 _atom_site_label
 _atom_site_symmetry_multiplicity
 _atom_site_fract_x
 _atom_site_fract_y
 _atom_site_fract_z
 _atom_site_occupancy
  N  N0  1  0.00000000  0.00000000  0.00000000  1
  Mn  Mn1  1  0.50000000  0.50000000  0.50000000  1
  Sb  Sb2  1  0.25000000  0.25000000  0.25000000  1
  Sb  Sb3  1  0.75000000  0.25000000  0.00000000  1
  Sb  Sb4  1  0.25000000  0.75000000  0.50000000  1
  Sb  Sb5  1  0.18471421  0.53265726  0.94423744  1
  P  P6  1  0.71666723  0.27891863  0.72856881  1
  P  P7  1  0.20190528  0.77793965  0.00422636  1
  Li  Li8  1  0.47411065  0.27113266  0.73282336  1
  Li  Li9  1  0.45169797  0.50622878  0.45098516  1
