# generated using pymatgen
data_Li2Cu2As6I5
_symmetry_space_group_name_H-M   'P 1'
_cell_length_a   7.71396985
_cell_length_b   7.65681970
_cell_length_c   8.78655403
_cell_angle_alpha   92.79083207
_cell_angle_beta   94.35854871
_cell_angle_gamma   92.87475552
_symmetry_Int_Tables_number   1
_chemical_formula_structural   Li2Cu2As6I5
_chemical_formula_sum   'Li2 Cu2 As6 I5'
_cell_volume   516.10239955
_cell_formula_units_Z   1
loop_
 _symmetry_equiv_pos_site_id
 _symmetry_equiv_pos_as_xyz
  1  'x, y, z'
loop_
 _atom_site_type_symbol
 _atom_site_label
 _atom_site_symmetry_multiplicity
 _atom_site_fract_x
 _atom_site_fract_y
 _atom_site_fract_z
 _atom_site_occupancy
  I  I0  1  0.00000000  0.00000000  0.00000000  1
  I  I1  1  0.33300000  0.66700000  0.25000000  1
  I  I2  1  0.66700000  0.33300000  0.50000000  1
  I  I3  1  0.00000000  0.00000000  0.75000000  1
  I  I4  1  0.80825767  0.43896917  0.24074939  1
  As  As5  1  0.20387334  0.76113406  0.88583211  1
  As  As6  1  0.22278659  0.94349450  0.43815833  1
  As  As7  1  0.35531544  0.99244949  0.15938392  1
  As  As8  1  0.59500210  0.84134290  0.84066784  1
  As  As9  1  0.51343169  0.34286908  0.01202200  1
  As  As10  1  0.98146833  0.46168857  0.05368701  1
  Li  Li11  1  0.50446789  0.81419647  0.84682553  1
  Li  Li12  1  0.04173933  0.72008538  0.48025310  1
  Cu  Cu13  1  0.82251834  0.42212925  0.38653385  1
  Cu  Cu14  1  0.25232213  0.73076274  0.55883963  1
