# generated using pymatgen
data_Li4TiS2Br
_symmetry_space_group_name_H-M   'P 1'
_cell_length_a   3.13371014
_cell_length_b   3.19867446
_cell_length_c   6.53555676
_cell_angle_alpha   104.04486019
_cell_angle_beta   101.52323628
_cell_angle_gamma   105.39419511
_symmetry_Int_Tables_number   1
_chemical_formula_structural   Li4TiS2Br
_chemical_formula_sum   'Li4 Ti1 S2 Br1'
_cell_volume   58.77700536
_cell_formula_units_Z   1
loop_
 _symmetry_equiv_pos_site_id
 _symmetry_equiv_pos_as_xyz
  1  'x, y, z'
loop_
 _atom_site_type_symbol
 _atom_site_label
 _atom_site_symmetry_multiplicity
 _atom_site_fract_x
 _atom_site_fract_y
 _atom_site_fract_z
 _atom_site_occupancy
  Li  Li0  1  0.00000000  0.00000000  0.00000000  1
  Li  Li1  1  0.50000000  0.50000000  0.50000000  1
  Li  Li2  1  0.50000000  0.50000000  0.00000000  1
  Li  Li3  1  0.50000000  0.00000000  0.50000000  1
  Ti  Ti4  1  0.00000000  0.50000000  0.50000000  1
  S  S5  1  0.88963323  0.29071928  0.23856195  1
  S  S6  1  0.46244523  0.64303991  0.98491990  1
  Br  Br7  1  0.35050342  0.91356961  0.91852950  1
