# generated using pymatgen
data_Li3Ni2P3(NO)5
_symmetry_space_group_name_H-M   'P 1'
_cell_length_a   7.19981443
_cell_length_b   6.89013839
_cell_length_c   8.58950461
_cell_angle_alpha   94.49568168
_cell_angle_beta   95.16618359
_cell_angle_gamma   94.23378262
_symmetry_Int_Tables_number   1
_chemical_formula_structural   Li3Ni2P3(NO)5
_chemical_formula_sum   'Li3 Ni2 P3 N5 O5'
_cell_volume   421.66287133
_cell_formula_units_Z   1
loop_
 _symmetry_equiv_pos_site_id
 _symmetry_equiv_pos_as_xyz
  1  'x, y, z'
loop_
 _atom_site_type_symbol
 _atom_site_label
 _atom_site_symmetry_multiplicity
 _atom_site_fract_x
 _atom_site_fract_y
 _atom_site_fract_z
 _atom_site_occupancy
  P  P0  1  0.00000000  0.00000000  0.00000000  1
  P  P1  1  0.50000000  0.50000000  0.50000000  1
  P  P2  1  0.25000000  0.25000000  0.25000000  1
  Li  Li3  1  0.75000000  0.25000000  0.00000000  1
  Li  Li4  1  0.25000000  0.75000000  0.50000000  1
  Li  Li5  1  0.41508976  0.09216601  0.96708192  1
  Ni  Ni6  1  0.08086233  0.97973153  0.90775479  1
  Ni  Ni7  1  0.79197512  0.26399639  0.90781377  1
  O  O8  1  0.09703741  0.46188780  0.26891730  1
  O  O9  1  0.71327357  0.89547961  0.22173189  1
  O  O10  1  0.43507426  0.82888826  0.42275501  1
  O  O11  1  0.33713672  0.97065367  0.80368314  1
  O  O12  1  0.23553956  0.75940410  0.98958806  1
  N  N13  1  0.94600375  0.24302006  0.86111737  1
  N  N14  1  0.49301491  0.98041258  0.46524299  1
  N  N15  1  0.13793439  0.86652400  0.47105846  1
  N  N16  1  0.45289938  0.89278274  0.91463085  1
  N  N17  1  0.23236511  0.72194701  0.31100382  1
