# generated using pymatgen
data_LiMn2Sb4Mo2P3
_symmetry_space_group_name_H-M   'P 1'
_cell_length_a   6.53956228
_cell_length_b   6.99696841
_cell_length_c   6.98252636
_cell_angle_alpha   91.52184895
_cell_angle_beta   91.14987482
_cell_angle_gamma   91.44314792
_symmetry_Int_Tables_number   1
_chemical_formula_structural   LiMn2Sb4Mo2P3
_chemical_formula_sum   'Li1 Mn2 Sb4 Mo2 P3'
_cell_volume   319.21747941
_cell_formula_units_Z   1
loop_
 _symmetry_equiv_pos_site_id
 _symmetry_equiv_pos_as_xyz
  1  'x, y, z'
loop_
 _atom_site_type_symbol
 _atom_site_label
 _atom_site_symmetry_multiplicity
 _atom_site_fract_x
 _atom_site_fract_y
 _atom_site_fract_z
 _atom_site_occupancy
  Mn  Mn0  1  0.00000000  0.00000000  0.00000000  1
  Mn  Mn1  1  0.50000000  0.50000000  0.50000000  1
  Sb  Sb2  1  0.50000000  0.50000000  0.00000000  1
  Sb  Sb3  1  0.50000000  0.00000000  0.50000000  1
  Sb  Sb4  1  0.00000000  0.50000000  0.50000000  1
  Sb  Sb5  1  0.45535037  0.41807105  0.29835395  1
  P  P6  1  0.26723503  0.71869924  0.78903777  1
  P  P7  1  0.51291167  0.17106349  0.20012946  1
  P  P8  1  0.47231604  0.96611149  0.27881234  1
  Mo  Mo9  1  0.45031634  0.35418231  0.13818576  1
  Mo  Mo10  1  0.27509396  0.80776922  0.64956760  1
  Li  Li11  1  0.15805768  0.02163671  0.98808277  1
