# generated using pymatgen
data_Li2P3O2
_symmetry_space_group_name_H-M   'P 1'
_cell_length_a   6.78570859
_cell_length_b   6.68356769
_cell_length_c   7.64261074
_cell_angle_alpha   93.41266091
_cell_angle_beta   94.71501307
_cell_angle_gamma   93.13490580
_symmetry_Int_Tables_number   1
_chemical_formula_structural   Li2P3O2
_chemical_formula_sum   'Li2 P3 O2'
_cell_volume   344.20886253
_cell_formula_units_Z   1
loop_
 _symmetry_equiv_pos_site_id
 _symmetry_equiv_pos_as_xyz
  1  'x, y, z'
loop_
 _atom_site_type_symbol
 _atom_site_label
 _atom_site_symmetry_multiplicity
 _atom_site_fract_x
 _atom_site_fract_y
 _atom_site_fract_z
 _atom_site_occupancy
  P  P0  1  0.12500000  0.12500000  0.12500000  1
  P  P1  1  0.50000000  0.50000000  0.50000000  1
  P  P2  1  0.25000000  0.25000000  0.25000000  1
  Li  Li3  1  0.75000000  0.75000000  0.75000000  1
  Li  Li4  1  0.15296207  0.77369461  0.39721762  1
  O  O5  1  0.47498251  0.77273195  0.02537439  1
  O  O6  1  0.53356091  0.51912574  0.18345053  1
