# generated using pymatgen
data_Li3Ti2O2
_symmetry_space_group_name_H-M   'P 1'
_cell_length_a   6.45768473
_cell_length_b   6.67033292
_cell_length_c   6.83314510
_cell_angle_alpha   97.55165941
_cell_angle_beta   100.22832606
_cell_angle_gamma   99.71829678
_symmetry_Int_Tables_number   1
_chemical_formula_structural   Li3Ti2O2
_chemical_formula_sum   'Li3 Ti2 O2'
_cell_volume   281.52289402
_cell_formula_units_Z   1
loop_
 _symmetry_equiv_pos_site_id
 _symmetry_equiv_pos_as_xyz
  1  'x, y, z'
loop_
 _atom_site_type_symbol
 _atom_site_label
 _atom_site_symmetry_multiplicity
 _atom_site_fract_x
 _atom_site_fract_y
 _atom_site_fract_z
 _atom_site_occupancy
  Li  Li0  1  0.12500000  0.12500000  0.12500000  1
  Li  Li1  1  0.50000000  0.50000000  0.50000000  1
  Li  Li2  1  0.25000000  0.25000000  0.25000000  1
  Ti  Ti3  1  0.75000000  0.75000000  0.75000000  1
  Ti  Ti4  1  0.61110222  0.02186732  0.50543196  1
  O  O5  1  0.12405904  0.64619612  0.58051873  1
  O  O6  1  0.74349867  0.54971740  0.56641374  1
