# generated using pymatgen
data_Li3Y2(IO)4
_symmetry_space_group_name_H-M   'P 1'
_cell_length_a   8.17657643
_cell_length_b   9.26985655
_cell_length_c   6.82743917
_cell_angle_alpha   90.00000000
_cell_angle_beta   90.00000000
_cell_angle_gamma   90.00000000
_symmetry_Int_Tables_number   1
_chemical_formula_structural   Li3Y2(IO)4
_chemical_formula_sum   'Li3 Y2 I4 O4'
_cell_volume   517.49046707
_cell_formula_units_Z   1
loop_
 _symmetry_equiv_pos_site_id
 _symmetry_equiv_pos_as_xyz
  1  'x, y, z'
loop_
 _atom_site_type_symbol
 _atom_site_label
 _atom_site_symmetry_multiplicity
 _atom_site_fract_x
 _atom_site_fract_y
 _atom_site_fract_z
 _atom_site_occupancy
  I  I0  1  0.00000000  0.00000000  0.00000000  1
  I  I1  1  0.33300000  0.66700000  0.25000000  1
  I  I2  1  0.66700000  0.33300000  0.50000000  1
  I  I3  1  0.00000000  0.00000000  0.75000000  1
  Li  Li4  1  0.37934379  0.41684277  0.55745853  1
  Li  Li5  1  0.92366464  0.94486610  0.47302853  1
  Li  Li6  1  0.38117439  0.90958530  0.12926084  1
  Y  Y7  1  0.20877023  0.89063965  0.75152152  1
  Y  Y8  1  0.76739403  0.13668059  0.57666536  1
  O  O9  1  0.16772179  0.69228982  0.31716040  1
  O  O10  1  0.50145077  0.11269805  0.60185398  1
  O  O11  1  0.19849750  0.28878298  0.46286710  1
  O  O12  1  0.39158455  0.37563825  0.22319610  1
