# generated using pymatgen
data_Li3Ti(IO)4
_symmetry_space_group_name_H-M   'P 1'
_cell_length_a   8.87687184
_cell_length_b   8.75761409
_cell_length_c   7.20693757
_cell_angle_alpha   90.00000000
_cell_angle_beta   90.00000000
_cell_angle_gamma   90.00000000
_symmetry_Int_Tables_number   1
_chemical_formula_structural   Li3Ti(IO)4
_chemical_formula_sum   'Li3 Ti1 I4 O4'
_cell_volume   560.26889682
_cell_formula_units_Z   1
loop_
 _symmetry_equiv_pos_site_id
 _symmetry_equiv_pos_as_xyz
  1  'x, y, z'
loop_
 _atom_site_type_symbol
 _atom_site_label
 _atom_site_symmetry_multiplicity
 _atom_site_fract_x
 _atom_site_fract_y
 _atom_site_fract_z
 _atom_site_occupancy
  I  I0  1  0.00000000  0.00000000  0.00000000  1
  I  I1  1  0.33300000  0.66700000  0.25000000  1
  I  I2  1  0.66700000  0.33300000  0.50000000  1
  I  I3  1  0.00000000  0.00000000  0.75000000  1
  Li  Li4  1  0.00048584  0.66063101  0.78368616  1
  Li  Li5  1  0.03217612  0.34107068  0.43865445  1
  Li  Li6  1  0.07372141  0.88561381  0.47020547  1
  Ti  Ti7  1  0.08673030  0.17724909  0.30583818  1
  O  O8  1  0.67929726  0.61410694  0.46877490  1
  O  O9  1  0.84546383  0.07416092  0.30917799  1
  O  O10  1  0.53946259  0.11610834  0.08031201  1
  O  O11  1  0.84460013  0.82842534  0.02625625  1
