# generated using pymatgen
data_Li2Mn2Sb3Mo2P3
_symmetry_space_group_name_H-M   'P 1'
_cell_length_a   5.00180933
_cell_length_b   5.32381756
_cell_length_c   6.57545164
_cell_angle_alpha   98.90598218
_cell_angle_beta   94.09450103
_cell_angle_gamma   99.17318918
_symmetry_Int_Tables_number   1
_chemical_formula_structural   Li2Mn2Sb3Mo2P3
_chemical_formula_sum   'Li2 Mn2 Sb3 Mo2 P3'
_cell_volume   169.94184582
_cell_formula_units_Z   1
loop_
 _symmetry_equiv_pos_site_id
 _symmetry_equiv_pos_as_xyz
  1  'x, y, z'
loop_
 _atom_site_type_symbol
 _atom_site_label
 _atom_site_symmetry_multiplicity
 _atom_site_fract_x
 _atom_site_fract_y
 _atom_site_fract_z
 _atom_site_occupancy
  Mn  Mn0  1  0.00000000  0.00000000  0.00000000  1
  Mn  Mn1  1  0.50000000  0.50000000  0.50000000  1
  Sb  Sb2  1  0.50000000  0.50000000  0.00000000  1
  Sb  Sb3  1  0.50000000  0.00000000  0.50000000  1
  Sb  Sb4  1  0.00000000  0.50000000  0.50000000  1
  P  P5  1  0.88538128  0.92979284  0.70237527  1
  P  P6  1  0.91598951  0.39067269  0.21682241  1
  P  P7  1  0.55125217  0.57625856  0.30187141  1
  Mo  Mo8  1  0.23617175  0.29754567  0.80513216  1
  Mo  Mo9  1  0.05683467  0.57290767  0.21374160  1
  Li  Li10  1  0.06225862  0.06311777  0.07170261  1
  Li  Li11  1  0.49730655  0.28322388  0.39752814  1
