# generated using pymatgen
data_Li3TiP6(I2O)2
_symmetry_space_group_name_H-M   'P 1'
_cell_length_a   8.11005775
_cell_length_b   8.05419274
_cell_length_c   7.22087510
_cell_angle_alpha   92.18577112
_cell_angle_beta   93.05812404
_cell_angle_gamma   92.80876812
_symmetry_Int_Tables_number   1
_chemical_formula_structural   Li3TiP6(I2O)2
_chemical_formula_sum   'Li3 Ti1 P6 I4 O2'
_cell_volume   470.03692814
_cell_formula_units_Z   1
loop_
 _symmetry_equiv_pos_site_id
 _symmetry_equiv_pos_as_xyz
  1  'x, y, z'
loop_
 _atom_site_type_symbol
 _atom_site_label
 _atom_site_symmetry_multiplicity
 _atom_site_fract_x
 _atom_site_fract_y
 _atom_site_fract_z
 _atom_site_occupancy
  P  P0  1  0.00000000  0.00000000  0.00000000  1
  P  P1  1  0.50000000  0.50000000  0.50000000  1
  P  P2  1  0.50000000  0.50000000  0.00000000  1
  P  P3  1  0.50000000  0.00000000  0.50000000  1
  P  P4  1  0.00000000  0.50000000  0.50000000  1
  P  P5  1  0.45342518  0.49033487  0.07152354  1
  I  I6  1  0.07412777  0.03393165  0.82518399  1
  I  I7  1  0.69846784  0.18732923  0.00510413  1
  I  I8  1  0.89784736  0.99011812  0.79561061  1
  I  I9  1  0.60635092  0.99169199  0.48513630  1
  Li  Li10  1  0.01969489  0.33117593  0.65586992  1
  Li  Li11  1  0.97100678  0.18194565  0.19336325  1
  Li  Li12  1  0.80598325  0.62171864  0.36679385  1
  Ti  Ti13  1  0.38858416  0.96689141  0.64525409  1
  O  O14  1  0.19984515  0.70393033  0.60359457  1
  O  O15  1  0.29742657  0.10923072  0.13721259  1
