# generated using pymatgen
data_Li2Mn2Sb4P3N
_symmetry_space_group_name_H-M   'P 1'
_cell_length_a   4.77500037
_cell_length_b   5.09208548
_cell_length_c   6.20642873
_cell_angle_alpha   97.98277584
_cell_angle_beta   96.24413111
_cell_angle_gamma   97.14133340
_symmetry_Int_Tables_number   1
_chemical_formula_structural   Li2Mn2Sb4P3N
_chemical_formula_sum   'Li2 Mn2 Sb4 P3 N1'
_cell_volume   147.06116709
_cell_formula_units_Z   1
loop_
 _symmetry_equiv_pos_site_id
 _symmetry_equiv_pos_as_xyz
  1  'x, y, z'
loop_
 _atom_site_type_symbol
 _atom_site_label
 _atom_site_symmetry_multiplicity
 _atom_site_fract_x
 _atom_site_fract_y
 _atom_site_fract_z
 _atom_site_occupancy
  N  N0  1  0.00000000  0.00000000  0.00000000  1
  Mn  Mn1  1  0.50000000  0.50000000  0.50000000  1
  Mn  Mn2  1  0.25000000  0.25000000  0.25000000  1
  Sb  Sb3  1  0.75000000  0.25000000  0.00000000  1
  Sb  Sb4  1  0.25000000  0.75000000  0.50000000  1
  Sb  Sb5  1  0.37136363  0.64215746  0.64882547  1
  Sb  Sb6  1  0.69148066  0.43300323  0.96491479  1
  P  P7  1  0.83663743  0.81226377  0.78666563  1
  P  P8  1  0.36248567  0.13422025  0.68872276  1
  P  P9  1  0.91550778  0.63484780  0.12461515  1
  Li  Li10  1  0.39163398  0.68199417  0.84306626  1
  Li  Li11  1  0.52531525  0.78852420  0.46579545  1
