# generated using pymatgen
data_Li2MnSb4Mo2P3
_symmetry_space_group_name_H-M   'P 1'
_cell_length_a   5.76739631
_cell_length_b   5.32085950
_cell_length_c   6.86738817
_cell_angle_alpha   98.96726434
_cell_angle_beta   94.32838280
_cell_angle_gamma   99.32930500
_symmetry_Int_Tables_number   1
_chemical_formula_structural   Li2MnSb4Mo2P3
_chemical_formula_sum   'Li2 Mn1 Sb4 Mo2 P3'
_cell_volume   204.31370600
_cell_formula_units_Z   1
loop_
 _symmetry_equiv_pos_site_id
 _symmetry_equiv_pos_as_xyz
  1  'x, y, z'
loop_
 _atom_site_type_symbol
 _atom_site_label
 _atom_site_symmetry_multiplicity
 _atom_site_fract_x
 _atom_site_fract_y
 _atom_site_fract_z
 _atom_site_occupancy
  Mn  Mn0  1  0.00000000  0.00000000  0.00000000  1
  Sb  Sb1  1  0.50000000  0.50000000  0.50000000  1
  Sb  Sb2  1  0.50000000  0.50000000  0.00000000  1
  Sb  Sb3  1  0.50000000  0.00000000  0.50000000  1
  Sb  Sb4  1  0.00000000  0.50000000  0.50000000  1
  P  P5  1  0.93500319  0.96337091  0.87298362  1
  P  P6  1  0.17254506  0.38114505  0.32401878  1
  P  P7  1  0.34677727  0.57298490  0.51158123  1
  Mo  Mo8  1  0.23569145  0.51991278  0.02825008  1
  Mo  Mo9  1  0.93864231  0.25348900  0.65898222  1
  Li  Li10  1  0.52557944  0.75676825  0.68409418  1
  Li  Li11  1  0.74380250  0.39805572  0.60048519  1
