# generated using pymatgen
data_LiTi2Br2O3F2
_symmetry_space_group_name_H-M   'P 1'
_cell_length_a   8.09250567
_cell_length_b   8.55333216
_cell_length_c   8.35331123
_cell_angle_alpha   90.08843087
_cell_angle_beta   90.42072721
_cell_angle_gamma   90.10110010
_symmetry_Int_Tables_number   1
_chemical_formula_structural   LiTi2Br2O3F2
_chemical_formula_sum   'Li1 Ti2 Br2 O3 F2'
_cell_volume   578.18138098
_cell_formula_units_Z   1
loop_
 _symmetry_equiv_pos_site_id
 _symmetry_equiv_pos_as_xyz
  1  'x, y, z'
loop_
 _atom_site_type_symbol
 _atom_site_label
 _atom_site_symmetry_multiplicity
 _atom_site_fract_x
 _atom_site_fract_y
 _atom_site_fract_z
 _atom_site_occupancy
  Li  Li0  1  0.12500000  0.00000000  0.25000000  1
  Br  Br1  1  0.00000000  0.00000000  0.00000000  1
  Br  Br2  1  0.37500000  0.00000000  0.25000000  1
  F  F3  1  0.25000000  0.25000000  0.25000000  1
  F  F4  1  0.00000000  0.25000000  0.12500000  1
  Ti  Ti5  1  0.86692986  0.98358716  0.17268460  1
  Ti  Ti6  1  0.87630141  0.03712183  0.72414665  1
  O  O7  1  0.93634478  0.83161945  0.91386148  1
  O  O8  1  0.74294818  0.78689985  0.43208103  1
  O  O9  1  0.22284209  0.69317477  0.79556346  1
