# generated using pymatgen
data_Li3ZrSe3(BrF)2
_symmetry_space_group_name_H-M   'P 1'
_cell_length_a   6.38871026
_cell_length_b   6.56170337
_cell_length_c   8.16373179
_cell_angle_alpha   98.81380153
_cell_angle_beta   101.25320024
_cell_angle_gamma   98.29128310
_symmetry_Int_Tables_number   1
_chemical_formula_structural   Li3ZrSe3(BrF)2
_chemical_formula_sum   'Li3 Zr1 Se3 Br2 F2'
_cell_volume   326.29142821
_cell_formula_units_Z   1
loop_
 _symmetry_equiv_pos_site_id
 _symmetry_equiv_pos_as_xyz
  1  'x, y, z'
loop_
 _atom_site_type_symbol
 _atom_site_label
 _atom_site_symmetry_multiplicity
 _atom_site_fract_x
 _atom_site_fract_y
 _atom_site_fract_z
 _atom_site_occupancy
  Li  Li0  1  0.00000000  0.00000000  0.00000000  1
  Li  Li1  1  0.50000000  0.50000000  0.50000000  1
  Li  Li2  1  0.50000000  0.50000000  0.00000000  1
  Br  Br3  1  0.50000000  0.00000000  0.50000000  1
  Br  Br4  1  0.00000000  0.50000000  0.50000000  1
  Se  Se5  1  0.72751948  0.39122250  0.00573584  1
  Se  Se6  1  0.61562798  0.86242733  0.43689311  1
  Se  Se7  1  0.03436916  0.12141044  0.24123070  1
  F  F8  1  0.82007952  0.34310957  0.09020018  1
  F  F9  1  0.76717690  0.53226618  0.48700138  1
  Zr  Zr10  1  0.86023740  0.72745558  0.27591531  1
