# generated using pymatgen
data_Li3Ti2(CuO)2
_symmetry_space_group_name_H-M   'P 1'
_cell_length_a   6.51235205
_cell_length_b   6.71750004
_cell_length_c   6.84159184
_cell_angle_alpha   97.38101159
_cell_angle_beta   99.99719255
_cell_angle_gamma   99.49868860
_symmetry_Int_Tables_number   1
_chemical_formula_structural   Li3Ti2(CuO)2
_chemical_formula_sum   'Li3 Ti2 Cu2 O2'
_cell_volume   286.88312714
_cell_formula_units_Z   1
loop_
 _symmetry_equiv_pos_site_id
 _symmetry_equiv_pos_as_xyz
  1  'x, y, z'
loop_
 _atom_site_type_symbol
 _atom_site_label
 _atom_site_symmetry_multiplicity
 _atom_site_fract_x
 _atom_site_fract_y
 _atom_site_fract_z
 _atom_site_occupancy
  Li  Li0  1  0.12500000  0.00000000  0.25000000  1
  Li  Li1  1  0.00000000  0.00000000  0.00000000  1
  Li  Li2  1  0.37500000  0.00000000  0.25000000  1
  Cu  Cu3  1  0.25000000  0.25000000  0.25000000  1
  Cu  Cu4  1  0.00000000  0.25000000  0.12500000  1
  Ti  Ti5  1  0.56006636  0.29074023  0.87080360  1
  Ti  Ti6  1  0.70951448  0.41018736  0.45683496  1
  O  O7  1  0.21619570  0.34466692  0.77149722  1
  O  O8  1  0.07981223  0.83046774  0.66761025  1
