# generated using pymatgen
data_Li3LuNi2P6N5
_symmetry_space_group_name_H-M   'P 1'
_cell_length_a   6.40787473
_cell_length_b   6.00618358
_cell_length_c   8.28293212
_cell_angle_alpha   96.11636651
_cell_angle_beta   95.14183190
_cell_angle_gamma   96.04982939
_symmetry_Int_Tables_number   1
_chemical_formula_structural   Li3LuNi2P6N5
_chemical_formula_sum   'Li3 Lu1 Ni2 P6 N5'
_cell_volume   313.56029665
_cell_formula_units_Z   1
loop_
 _symmetry_equiv_pos_site_id
 _symmetry_equiv_pos_as_xyz
  1  'x, y, z'
loop_
 _atom_site_type_symbol
 _atom_site_label
 _atom_site_symmetry_multiplicity
 _atom_site_fract_x
 _atom_site_fract_y
 _atom_site_fract_z
 _atom_site_occupancy
  Ni  Ni0  1  0.00000000  0.00000000  0.00000000  1
  Ni  Ni1  1  0.50000000  0.50000000  0.50000000  1
  P  P2  1  0.25000000  0.25000000  0.25000000  1
  P  P3  1  0.75000000  0.25000000  0.00000000  1
  P  P4  1  0.25000000  0.75000000  0.50000000  1
  P  P5  1  0.64197884  0.26945938  0.54693039  1
  P  P6  1  0.23088909  0.54296062  0.50609447  1
  P  P7  1  0.30897628  0.14076108  0.60715094  1
  Lu  Lu8  1  0.33102832  0.13556136  0.06825022  1
  Li  Li9  1  0.65271439  0.96096968  0.65225997  1
  Li  Li10  1  0.36422808  0.12771570  0.06457230  1
  Li  Li11  1  0.16859385  0.20684527  0.17914037  1
  N  N12  1  0.00910848  0.36045290  0.03520530  1
  N  N13  1  0.72367525  0.14093999  0.93815138  1
  N  N14  1  0.80503751  0.00590100  0.34744387  1
  N  N15  1  0.35307835  0.98851781  0.17539767  1
  N  N16  1  0.68928784  0.90994483  0.84668113  1
