# generated using pymatgen
data_Li2LuCu2(NiAs3)2
_symmetry_space_group_name_H-M   'P 1'
_cell_length_a   7.45987504
_cell_length_b   7.47186442
_cell_length_c   8.57070270
_cell_angle_alpha   91.44026680
_cell_angle_beta   91.96224902
_cell_angle_gamma   91.66505440
_symmetry_Int_Tables_number   1
_chemical_formula_structural   Li2LuCu2(NiAs3)2
_chemical_formula_sum   'Li2 Lu1 Cu2 Ni2 As6'
_cell_volume   477.07889211
_cell_formula_units_Z   1
loop_
 _symmetry_equiv_pos_site_id
 _symmetry_equiv_pos_as_xyz
  1  'x, y, z'
loop_
 _atom_site_type_symbol
 _atom_site_label
 _atom_site_symmetry_multiplicity
 _atom_site_fract_x
 _atom_site_fract_y
 _atom_site_fract_z
 _atom_site_occupancy
  Ni  Ni0  1  0.12500000  0.00000000  0.25000000  1
  Ni  Ni1  1  0.00000000  0.00000000  0.00000000  1
  Lu  Lu2  1  0.37500000  0.00000000  0.25000000  1
  As  As3  1  0.25000000  0.25000000  0.25000000  1
  As  As4  1  0.00000000  0.25000000  0.12500000  1
  As  As5  1  0.18529125  0.88379246  0.59532363  1
  As  As6  1  0.14103693  0.58213305  0.50833911  1
  As  As7  1  0.42696004  0.68313822  0.09280087  1
  As  As8  1  0.06775497  0.98125532  0.96594999  1
  Li  Li9  1  0.47125857  0.82532540  0.24252382  1
  Li  Li10  1  0.99098593  0.44529793  0.81156863  1
  Cu  Cu11  1  0.45994485  0.58303739  0.97681593  1
  Cu  Cu12  1  0.31984219  0.92800877  0.63621653  1
