# generated using pymatgen
data_Li2TiCu2P5O3
_symmetry_space_group_name_H-M   'P 1'
_cell_length_a   8.30063646
_cell_length_b   8.18757168
_cell_length_c   7.28414138
_cell_angle_alpha   90.16239402
_cell_angle_beta   90.77262140
_cell_angle_gamma   90.18565972
_symmetry_Int_Tables_number   1
_chemical_formula_structural   Li2TiCu2P5O3
_chemical_formula_sum   'Li2 Ti1 Cu2 P5 O3'
_cell_volume   494.99556643
_cell_formula_units_Z   1
loop_
 _symmetry_equiv_pos_site_id
 _symmetry_equiv_pos_as_xyz
  1  'x, y, z'
loop_
 _atom_site_type_symbol
 _atom_site_label
 _atom_site_symmetry_multiplicity
 _atom_site_fract_x
 _atom_site_fract_y
 _atom_site_fract_z
 _atom_site_occupancy
  P  P0  1  0.12500000  0.00000000  0.25000000  1
  P  P1  1  0.00000000  0.00000000  0.00000000  1
  P  P2  1  0.37500000  0.00000000  0.25000000  1
  P  P3  1  0.25000000  0.25000000  0.25000000  1
  P  P4  1  0.00000000  0.25000000  0.12500000  1
  Li  Li5  1  0.12676964  0.32598491  0.26720162  1
  Li  Li6  1  0.33984253  0.96353944  0.92505040  1
  Cu  Cu7  1  0.77922346  0.71488212  0.28663054  1
  Cu  Cu8  1  0.71659038  0.45025511  0.21008878  1
  Ti  Ti9  1  0.05703468  0.61679589  0.15684500  1
  O  O10  1  0.44815488  0.36097887  0.58496626  1
  O  O11  1  0.06640025  0.07648537  0.58911621  1
  O  O12  1  0.03760837  0.72785319  0.34865899  1
