# generated using pymatgen
data_Li2Ni2P4N5Cl2
_symmetry_space_group_name_H-M   'P 1'
_cell_length_a   7.73370261
_cell_length_b   7.38244771
_cell_length_c   9.03494173
_cell_angle_alpha   94.48686418
_cell_angle_beta   94.20697210
_cell_angle_gamma   94.79042815
_symmetry_Int_Tables_number   1
_chemical_formula_structural   Li2Ni2P4N5Cl2
_chemical_formula_sum   'Li2 Ni2 P4 N5 Cl2'
_cell_volume   510.80077337
_cell_formula_units_Z   1
loop_
 _symmetry_equiv_pos_site_id
 _symmetry_equiv_pos_as_xyz
  1  'x, y, z'
loop_
 _atom_site_type_symbol
 _atom_site_label
 _atom_site_symmetry_multiplicity
 _atom_site_fract_x
 _atom_site_fract_y
 _atom_site_fract_z
 _atom_site_occupancy
  P  P0  1  0.12500000  0.00000000  0.25000000  1
  P  P1  1  0.00000000  0.00000000  0.00000000  1
  P  P2  1  0.37500000  0.00000000  0.25000000  1
  P  P3  1  0.25000000  0.25000000  0.25000000  1
  Li  Li4  1  0.00000000  0.25000000  0.12500000  1
  Li  Li5  1  0.94184914  0.34760318  0.54376736  1
  Cl  Cl6  1  0.38581190  0.16753804  0.26281585  1
  Cl  Cl7  1  0.71021745  0.98981677  0.97001674  1
  Ni  Ni8  1  0.64025036  0.77815159  0.59750967  1
  Ni  Ni9  1  0.39078819  0.52810987  0.30716075  1
  N  N10  1  0.68508133  0.07210496  0.13241246  1
  N  N11  1  0.14924111  0.24962896  0.76885573  1
  N  N12  1  0.44645732  0.78749568  0.37414926  1
  N  N13  1  0.73706755  0.48599530  0.81436526  1
  N  N14  1  0.42834304  0.16651194  0.62708666  1
