# generated using pymatgen
data_Li2Mn2Sb4P3
_symmetry_space_group_name_H-M   'P 1'
_cell_length_a   5.69040297
_cell_length_b   6.13420782
_cell_length_c   6.98803393
_cell_angle_alpha   96.37710840
_cell_angle_beta   93.92203420
_cell_angle_gamma   96.75209783
_symmetry_Int_Tables_number   1
_chemical_formula_structural   Li2Mn2Sb4P3
_chemical_formula_sum   'Li2 Mn2 Sb4 P3'
_cell_volume   239.91303563
_cell_formula_units_Z   1
loop_
 _symmetry_equiv_pos_site_id
 _symmetry_equiv_pos_as_xyz
  1  'x, y, z'
loop_
 _atom_site_type_symbol
 _atom_site_label
 _atom_site_symmetry_multiplicity
 _atom_site_fract_x
 _atom_site_fract_y
 _atom_site_fract_z
 _atom_site_occupancy
  Mn  Mn0  1  0.12500000  0.00000000  0.25000000  1
  Mn  Mn1  1  0.00000000  0.00000000  0.00000000  1
  Sb  Sb2  1  0.37500000  0.00000000  0.25000000  1
  Sb  Sb3  1  0.25000000  0.25000000  0.25000000  1
  Sb  Sb4  1  0.00000000  0.25000000  0.12500000  1
  Sb  Sb5  1  0.34746939  0.89131820  0.15038219  1
  P  P6  1  0.05375813  0.76608110  0.31636678  1
  P  P7  1  0.89211447  0.54357676  0.60491087  1
  P  P8  1  0.83546364  0.05590777  0.06576213  1
  Li  Li9  1  0.30659970  0.11836310  0.23374233  1
  Li  Li10  1  0.66829123  0.88971801  0.38266319  1
