# generated using pymatgen
data_Li2MnSb4Mo2P3
_symmetry_space_group_name_H-M   'P 1'
_cell_length_a   4.88339538
_cell_length_b   5.19379921
_cell_length_c   6.66238033
_cell_angle_alpha   99.65658975
_cell_angle_beta   94.95434181
_cell_angle_gamma   100.08729731
_symmetry_Int_Tables_number   1
_chemical_formula_structural   Li2MnSb4Mo2P3
_chemical_formula_sum   'Li2 Mn1 Sb4 Mo2 P3'
_cell_volume   162.84074560
_cell_formula_units_Z   1
loop_
 _symmetry_equiv_pos_site_id
 _symmetry_equiv_pos_as_xyz
  1  'x, y, z'
loop_
 _atom_site_type_symbol
 _atom_site_label
 _atom_site_symmetry_multiplicity
 _atom_site_fract_x
 _atom_site_fract_y
 _atom_site_fract_z
 _atom_site_occupancy
  Mn  Mn0  1  0.12500000  0.00000000  0.25000000  1
  Sb  Sb1  1  0.00000000  0.00000000  0.00000000  1
  Sb  Sb2  1  0.37500000  0.00000000  0.25000000  1
  Sb  Sb3  1  0.25000000  0.25000000  0.25000000  1
  Sb  Sb4  1  0.00000000  0.25000000  0.12500000  1
  P  P5  1  0.46125355  0.46784009  0.87274503  1
  P  P6  1  0.12679331  0.86806446  0.38620702  1
  P  P7  1  0.81149627  0.30546752  0.03535683  1
  Mo  Mo8  1  0.07783098  0.25470956  0.07846545  1
  Mo  Mo9  1  0.07251495  0.70549626  0.89191239  1
  Li  Li10  1  0.12450249  0.73696028  0.12877028  1
  Li  Li11  1  0.22940326  0.20241259  0.03584231  1
