# generated using pymatgen
data_LiTi2Nb2O3F2
_symmetry_space_group_name_H-M   'P 1'
_cell_length_a   6.99877700
_cell_length_b   6.73076720
_cell_length_c   7.74941472
_cell_angle_alpha   90.71444304
_cell_angle_beta   93.39910301
_cell_angle_gamma   90.81679917
_symmetry_Int_Tables_number   1
_chemical_formula_structural   LiTi2Nb2O3F2
_chemical_formula_sum   'Li1 Ti2 Nb2 O3 F2'
_cell_volume   364.34108964
_cell_formula_units_Z   1
loop_
 _symmetry_equiv_pos_site_id
 _symmetry_equiv_pos_as_xyz
  1  'x, y, z'
loop_
 _atom_site_type_symbol
 _atom_site_label
 _atom_site_symmetry_multiplicity
 _atom_site_fract_x
 _atom_site_fract_y
 _atom_site_fract_z
 _atom_site_occupancy
  Li  Li0  1  0.00000000  0.00000000  0.00000000  1
  Nb  Nb1  1  0.50000000  0.50000000  0.50000000  1
  Nb  Nb2  1  0.25000000  0.25000000  0.25000000  1
  F  F3  1  0.75000000  0.25000000  0.00000000  1
  F  F4  1  0.25000000  0.75000000  0.50000000  1
  Ti  Ti5  1  0.67679470  0.31626702  0.77562133  1
  Ti  Ti6  1  0.64295095  0.91837069  0.01268068  1
  O  O7  1  0.29649427  0.96252250  0.77718225  1
  O  O8  1  0.35366553  0.53470587  0.15293727  1
  O  O9  1  0.37394788  0.93531203  0.79368317  1
