# generated using pymatgen
data_Li4Ni2As6O7
_symmetry_space_group_name_H-M   'P 1'
_cell_length_a   8.31382661
_cell_length_b   8.17082894
_cell_length_c   9.64881384
_cell_angle_alpha   90.00000000
_cell_angle_beta   90.00000000
_cell_angle_gamma   90.00000000
_symmetry_Int_Tables_number   1
_chemical_formula_structural   Li4Ni2As6O7
_chemical_formula_sum   'Li4 Ni2 As6 O7'
_cell_volume   655.45217486
_cell_formula_units_Z   1
loop_
 _symmetry_equiv_pos_site_id
 _symmetry_equiv_pos_as_xyz
  1  'x, y, z'
loop_
 _atom_site_type_symbol
 _atom_site_label
 _atom_site_symmetry_multiplicity
 _atom_site_fract_x
 _atom_site_fract_y
 _atom_site_fract_z
 _atom_site_occupancy
  Li  Li0  1  0.12500000  0.12500000  0.12500000  1
  Li  Li1  1  0.50000000  0.50000000  0.50000000  1
  Li  Li2  1  0.25000000  0.25000000  0.25000000  1
  Li  Li3  1  0.75000000  0.75000000  0.75000000  1
  Ni  Ni4  1  0.62228027  0.79601143  0.45390709  1
  Ni  Ni5  1  0.32785595  0.57264995  0.95041743  1
  As  As6  1  0.30939848  0.09761904  0.52629313  1
  As  As7  1  0.82960193  0.57734887  0.77770618  1
  As  As8  1  0.89766539  0.60020218  0.18253330  1
  As  As9  1  0.32273723  0.35429600  0.25580637  1
  As  As10  1  0.05097790  0.27114292  0.59490387  1
  As  As11  1  0.39023654  0.65805499  0.65919824  1
  O  O12  1  0.55668200  0.86251988  0.74251443  1
  O  O13  1  0.96872374  0.18499908  0.92410762  1
  O  O14  1  0.96834815  0.35512817  0.10574173  1
  O  O15  1  0.83557117  0.84682975  0.15610665  1
  O  O16  1  0.90811413  0.22957536  0.80069121  1
  O  O17  1  0.53225865  0.30028976  0.76535183  1
  O  O18  1  0.23265973  0.87388380  0.45678586  1
