# generated using pymatgen
data_Li3Zn2I4(O2F)3
_symmetry_space_group_name_H-M   'P 1'
_cell_length_a   8.07491599
_cell_length_b   8.22534608
_cell_length_c   7.94644930
_cell_angle_alpha   90.21884446
_cell_angle_beta   91.53318994
_cell_angle_gamma   90.23349162
_symmetry_Int_Tables_number   1
_chemical_formula_structural   Li3Zn2I4(O2F)3
_chemical_formula_sum   'Li3 Zn2 I4 O6 F3'
_cell_volume   527.59763616
_cell_formula_units_Z   1
loop_
 _symmetry_equiv_pos_site_id
 _symmetry_equiv_pos_as_xyz
  1  'x, y, z'
loop_
 _atom_site_type_symbol
 _atom_site_label
 _atom_site_symmetry_multiplicity
 _atom_site_fract_x
 _atom_site_fract_y
 _atom_site_fract_z
 _atom_site_occupancy
  I  I0  1  0.12500000  0.00000000  0.25000000  1
  I  I1  1  0.00000000  0.00000000  0.00000000  1
  I  I2  1  0.37500000  0.00000000  0.25000000  1
  I  I3  1  0.25000000  0.25000000  0.25000000  1
  Li  Li4  1  0.00000000  0.25000000  0.12500000  1
  Li  Li5  1  0.74816065  0.38378459  0.45147285  1
  Li  Li6  1  0.11278194  0.50291866  0.33340231  1
  Zn  Zn7  1  0.49881510  0.32510402  0.52093801  1
  Zn  Zn8  1  0.70141527  0.90925805  0.08099030  1
  F  F9  1  0.92193076  0.10869324  0.53169505  1
  F  F10  1  0.18622373  0.56719499  0.53645958  1
  F  F11  1  0.54112591  0.04414237  0.87385137  1
  O  O12  1  0.58196803  0.77018854  0.45747712  1
  O  O13  1  0.33405128  0.02251271  0.02372855  1
  O  O14  1  0.25606380  0.77891805  0.46722043  1
  O  O15  1  0.92617282  0.22403458  0.27538691  1
  O  O16  1  0.06757658  0.45161176  0.29786727  1
  O  O17  1  0.35741245  0.01083630  0.37890626  1
