# generated using pymatgen
data_Li2Cu2O2F3
_symmetry_space_group_name_H-M   'P 1'
_cell_length_a   5.82085083
_cell_length_b   6.04719086
_cell_length_c   7.21337167
_cell_angle_alpha   94.51099737
_cell_angle_beta   100.77644474
_cell_angle_gamma   95.62111054
_symmetry_Int_Tables_number   1
_chemical_formula_structural   Li2Cu2O2F3
_chemical_formula_sum   'Li2 Cu2 O2 F3'
_cell_volume   247.00793215
_cell_formula_units_Z   1
loop_
 _symmetry_equiv_pos_site_id
 _symmetry_equiv_pos_as_xyz
  1  'x, y, z'
loop_
 _atom_site_type_symbol
 _atom_site_label
 _atom_site_symmetry_multiplicity
 _atom_site_fract_x
 _atom_site_fract_y
 _atom_site_fract_z
 _atom_site_occupancy
  F  F0  1  0.12500000  0.00000000  0.25000000  1
  F  F1  1  0.00000000  0.00000000  0.00000000  1
  F  F2  1  0.37500000  0.00000000  0.25000000  1
  O  O3  1  0.25000000  0.25000000  0.25000000  1
  O  O4  1  0.00000000  0.25000000  0.12500000  1
  Li  Li5  1  0.34946513  0.64890379  0.88800059  1
  Li  Li6  1  0.50811053  0.71547386  0.14923510  1
  Cu  Cu7  1  0.53048981  0.07430444  0.87037284  1
  Cu  Cu8  1  0.14163648  0.59539257  0.98446048  1
