# generated using pymatgen
data_Li3Ti2Ni2N5O4
_symmetry_space_group_name_H-M   'P 1'
_cell_length_a   7.58336252
_cell_length_b   7.62130228
_cell_length_c   7.88171174
_cell_angle_alpha   93.29514895
_cell_angle_beta   94.36513100
_cell_angle_gamma   93.99754453
_symmetry_Int_Tables_number   1
_chemical_formula_structural   Li3Ti2Ni2N5O4
_chemical_formula_sum   'Li3 Ti2 Ni2 N5 O4'
_cell_volume   452.19433261
_cell_formula_units_Z   1
loop_
 _symmetry_equiv_pos_site_id
 _symmetry_equiv_pos_as_xyz
  1  'x, y, z'
loop_
 _atom_site_type_symbol
 _atom_site_label
 _atom_site_symmetry_multiplicity
 _atom_site_fract_x
 _atom_site_fract_y
 _atom_site_fract_z
 _atom_site_occupancy
  Li  Li0  1  0.00000000  0.00000000  0.00000000  1
  Li  Li1  1  0.50000000  0.50000000  0.50000000  1
  Li  Li2  1  0.50000000  0.50000000  0.00000000  1
  Ni  Ni3  1  0.50000000  0.00000000  0.50000000  1
  Ni  Ni4  1  0.00000000  0.50000000  0.50000000  1
  Ti  Ti5  1  0.74296443  0.94649645  0.05609892  1
  Ti  Ti6  1  0.53419066  0.64390295  0.87846984  1
  O  O7  1  0.77717415  0.90936538  0.12172010  1
  O  O8  1  0.52558320  0.60770793  0.34827314  1
  O  O9  1  0.76347873  0.70457300  0.70836874  1
  O  O10  1  0.58549944  0.55077499  0.83376942  1
  N  N11  1  0.36334248  0.00014936  0.93336354  1
  N  N12  1  0.73244206  0.03016743  0.72805229  1
  N  N13  1  0.08529988  0.06428782  0.98196783  1
  N  N14  1  0.48774170  0.28094010  0.53924693  1
  N  N15  1  0.21338713  0.96571864  0.52818987  1
