# generated using pymatgen
data_Li2TiMnP3
_symmetry_space_group_name_H-M   'P 1'
_cell_length_a   3.19126012
_cell_length_b   3.46174528
_cell_length_c   6.55250453
_cell_angle_alpha   109.13383189
_cell_angle_beta   99.67896986
_cell_angle_gamma   110.31215822
_symmetry_Int_Tables_number   1
_chemical_formula_structural   Li2TiMnP3
_chemical_formula_sum   'Li2 Ti1 Mn1 P3'
_cell_volume   60.80279510
_cell_formula_units_Z   1
loop_
 _symmetry_equiv_pos_site_id
 _symmetry_equiv_pos_as_xyz
  1  'x, y, z'
loop_
 _atom_site_type_symbol
 _atom_site_label
 _atom_site_symmetry_multiplicity
 _atom_site_fract_x
 _atom_site_fract_y
 _atom_site_fract_z
 _atom_site_occupancy
  Ti  Ti0  1  0.00000000  0.00000000  0.00000000  1
  Mn  Mn1  1  0.50000000  0.50000000  0.50000000  1
  P  P2  1  0.50000000  0.50000000  0.00000000  1
  P  P3  1  0.50000000  0.00000000  0.50000000  1
  P  P4  1  0.00000000  0.50000000  0.50000000  1
  Li  Li5  1  0.35746282  0.96237865  0.36135936  1
  Li  Li6  1  0.69050201  0.09978469  0.77858301  1
