# generated using pymatgen
data_Li2As6I4O5F3
_symmetry_space_group_name_H-M   'P 1'
_cell_length_a   7.79978933
_cell_length_b   7.66005008
_cell_length_c   8.04756809
_cell_angle_alpha   90.33755130
_cell_angle_beta   92.14593133
_cell_angle_gamma   90.36757636
_symmetry_Int_Tables_number   1
_chemical_formula_structural   Li2As6I4O5F3
_chemical_formula_sum   'Li2 As6 I4 O5 F3'
_cell_volume   480.46012428
_cell_formula_units_Z   1
loop_
 _symmetry_equiv_pos_site_id
 _symmetry_equiv_pos_as_xyz
  1  'x, y, z'
loop_
 _atom_site_type_symbol
 _atom_site_label
 _atom_site_symmetry_multiplicity
 _atom_site_fract_x
 _atom_site_fract_y
 _atom_site_fract_z
 _atom_site_occupancy
  I  I0  1  0.12500000  0.00000000  0.25000000  1
  I  I1  1  0.00000000  0.00000000  0.00000000  1
  I  I2  1  0.37500000  0.00000000  0.25000000  1
  I  I3  1  0.25000000  0.25000000  0.25000000  1
  Li  Li4  1  0.00000000  0.25000000  0.12500000  1
  Li  Li5  1  0.35346956  0.50161998  0.95817574  1
  F  F6  1  0.89292940  0.13012619  0.86838843  1
  F  F7  1  0.12395989  0.00331444  0.62476647  1
  F  F8  1  0.49421695  0.48168493  0.71424706  1
  As  As9  1  0.07142543  0.25832082  0.95786898  1
  As  As10  1  0.11565541  0.67458632  0.30533328  1
  As  As11  1  0.46762086  0.39321928  0.61594858  1
  As  As12  1  0.72352980  0.61710452  0.53027931  1
  As  As13  1  0.36260050  0.36372016  0.55984257  1
  As  As14  1  0.52898968  0.09623130  0.23839102  1
  O  O15  1  0.62524576  0.84793651  0.04235134  1
  O  O16  1  0.09059528  0.02301544  0.34189222  1
  O  O17  1  0.56782626  0.48491892  0.89426196  1
  O  O18  1  0.78888721  0.53452621  0.60360373  1
  O  O19  1  0.07232188  0.85048600  0.46216900  1
