# generated using pymatgen
data_Li4LuNi2P4N5
_symmetry_space_group_name_H-M   'P 1'
_cell_length_a   7.43249497
_cell_length_b   7.05219556
_cell_length_c   8.86811598
_cell_angle_alpha   93.49759716
_cell_angle_beta   91.23654746
_cell_angle_gamma   94.05678930
_symmetry_Int_Tables_number   1
_chemical_formula_structural   Li4LuNi2P4N5
_chemical_formula_sum   'Li4 Lu1 Ni2 P4 N5'
_cell_volume   462.64105756
_cell_formula_units_Z   1
loop_
 _symmetry_equiv_pos_site_id
 _symmetry_equiv_pos_as_xyz
  1  'x, y, z'
loop_
 _atom_site_type_symbol
 _atom_site_label
 _atom_site_symmetry_multiplicity
 _atom_site_fract_x
 _atom_site_fract_y
 _atom_site_fract_z
 _atom_site_occupancy
  P  P0  1  0.00000000  0.00000000  0.00000000  1
  P  P1  1  0.50000000  0.50000000  0.50000000  1
  P  P2  1  0.25000000  0.25000000  0.25000000  1
  P  P3  1  0.75000000  0.25000000  0.00000000  1
  Lu  Lu4  1  0.25000000  0.75000000  0.50000000  1
  Li  Li5  1  0.83177720  0.63064152  0.40982235  1
  Li  Li6  1  0.60882284  0.91644240  0.34853474  1
  Li  Li7  1  0.35831394  0.52034712  0.32138126  1
  Li  Li8  1  0.71502996  0.69180959  0.44638250  1
  Ni  Ni9  1  0.75582442  0.83425610  0.24353924  1
  Ni  Ni10  1  0.57679488  0.43162536  0.19287968  1
  N  N11  1  0.74509558  0.34024025  0.30324106  1
  N  N12  1  0.54419297  0.72844054  0.86927345  1
  N  N13  1  0.77499753  0.09184232  0.44711952  1
  N  N14  1  0.55151564  0.78437003  0.09064731  1
  N  N15  1  0.11372407  0.87782245  0.97613907  1
