# generated using pymatgen
data_Li2MnMo2P3
_symmetry_space_group_name_H-M   'P 1'
_cell_length_a   3.26499781
_cell_length_b   3.42817857
_cell_length_c   6.45977352
_cell_angle_alpha   103.42079002
_cell_angle_beta   100.55613556
_cell_angle_gamma   104.53056558
_symmetry_Int_Tables_number   1
_chemical_formula_structural   Li2MnMo2P3
_chemical_formula_sum   'Li2 Mn1 Mo2 P3'
_cell_volume   65.80406015
_cell_formula_units_Z   1
loop_
 _symmetry_equiv_pos_site_id
 _symmetry_equiv_pos_as_xyz
  1  'x, y, z'
loop_
 _atom_site_type_symbol
 _atom_site_label
 _atom_site_symmetry_multiplicity
 _atom_site_fract_x
 _atom_site_fract_y
 _atom_site_fract_z
 _atom_site_occupancy
  Mn  Mn0  1  0.00000000  0.00000000  0.00000000  1
  P  P1  1  0.33300000  0.66700000  0.25000000  1
  P  P2  1  0.66700000  0.33300000  0.50000000  1
  P  P3  1  0.00000000  0.00000000  0.75000000  1
  Mo  Mo4  1  0.29238700  0.97201430  0.99596392  1
  Mo  Mo5  1  0.10349168  0.68879987  0.43013970  1
  Li  Li6  1  0.31941243  0.05309935  0.52867529  1
  Li  Li7  1  0.48828755  0.57665069  0.74096024  1
