# generated using pymatgen
data_LiTi3Nb2(OF)3
_symmetry_space_group_name_H-M   'P 1'
_cell_length_a   6.37324433
_cell_length_b   6.12435503
_cell_length_c   7.66307865
_cell_angle_alpha   90.95280081
_cell_angle_beta   94.53313689
_cell_angle_gamma   91.08930575
_symmetry_Int_Tables_number   1
_chemical_formula_structural   LiTi3Nb2(OF)3
_chemical_formula_sum   'Li1 Ti3 Nb2 O3 F3'
_cell_volume   298.06648801
_cell_formula_units_Z   1
loop_
 _symmetry_equiv_pos_site_id
 _symmetry_equiv_pos_as_xyz
  1  'x, y, z'
loop_
 _atom_site_type_symbol
 _atom_site_label
 _atom_site_symmetry_multiplicity
 _atom_site_fract_x
 _atom_site_fract_y
 _atom_site_fract_z
 _atom_site_occupancy
  Li  Li0  1  0.12500000  0.00000000  0.25000000  1
  Nb  Nb1  1  0.00000000  0.00000000  0.00000000  1
  Nb  Nb2  1  0.37500000  0.00000000  0.25000000  1
  F  F3  1  0.25000000  0.25000000  0.25000000  1
  F  F4  1  0.00000000  0.25000000  0.12500000  1
  F  F5  1  0.49176810  0.89742333  0.23932108  1
  Ti  Ti6  1  0.65860967  0.18346444  0.75972727  1
  Ti  Ti7  1  0.12761535  0.37508086  0.89325198  1
  Ti  Ti8  1  0.00892009  0.34444108  0.35502822  1
  O  O9  1  0.94008845  0.58782280  0.68356254  1
  O  O10  1  0.88101195  0.68447728  0.17264661  1
  O  O11  1  0.19369466  0.87638502  0.64890447  1
