# generated using pymatgen
data_Li3Ni2I5Cl2
_symmetry_space_group_name_H-M   'P 1'
_cell_length_a   8.09115034
_cell_length_b   7.82690469
_cell_length_c   9.33383673
_cell_angle_alpha   93.45587076
_cell_angle_beta   94.30738007
_cell_angle_gamma   93.52119417
_symmetry_Int_Tables_number   1
_chemical_formula_structural   Li3Ni2I5Cl2
_chemical_formula_sum   'Li3 Ni2 I5 Cl2'
_cell_volume   587.06526567
_cell_formula_units_Z   1
loop_
 _symmetry_equiv_pos_site_id
 _symmetry_equiv_pos_as_xyz
  1  'x, y, z'
loop_
 _atom_site_type_symbol
 _atom_site_label
 _atom_site_symmetry_multiplicity
 _atom_site_fract_x
 _atom_site_fract_y
 _atom_site_fract_z
 _atom_site_occupancy
  I  I0  1  0.00000000  0.00000000  0.00000000  1
  I  I1  1  0.33300000  0.66700000  0.25000000  1
  I  I2  1  0.66700000  0.33300000  0.50000000  1
  I  I3  1  0.00000000  0.00000000  0.75000000  1
  I  I4  1  0.47671219  0.63640938  0.11706428  1
  Li  Li5  1  0.47434784  0.24657830  0.25951667  1
  Li  Li6  1  0.26294259  0.51468416  0.83226148  1
  Li  Li7  1  0.87842964  0.40300600  0.91694991  1
  Cl  Cl8  1  0.83174633  0.28821521  0.03218919  1
  Cl  Cl9  1  0.28695740  0.08052303  0.01801102  1
  Ni  Ni10  1  0.91658006  0.16441288  0.55090040  1
  Ni  Ni11  1  0.26939451  0.03042199  0.19364374  1
