# generated using pymatgen
data_LiMnSb4P3N
_symmetry_space_group_name_H-M   'P 1'
_cell_length_a   4.57011275
_cell_length_b   4.72959583
_cell_length_c   6.13271290
_cell_angle_alpha   97.30872049
_cell_angle_beta   95.93482691
_cell_angle_gamma   96.76555123
_symmetry_Int_Tables_number   1
_chemical_formula_structural   LiMnSb4P3N
_chemical_formula_sum   'Li1 Mn1 Sb4 P3 N1'
_cell_volume   129.61821549
_cell_formula_units_Z   1
loop_
 _symmetry_equiv_pos_site_id
 _symmetry_equiv_pos_as_xyz
  1  'x, y, z'
loop_
 _atom_site_type_symbol
 _atom_site_label
 _atom_site_symmetry_multiplicity
 _atom_site_fract_x
 _atom_site_fract_y
 _atom_site_fract_z
 _atom_site_occupancy
  N  N0  1  0.12500000  0.00000000  0.25000000  1
  Mn  Mn1  1  0.00000000  0.00000000  0.00000000  1
  Sb  Sb2  1  0.37500000  0.00000000  0.25000000  1
  Sb  Sb3  1  0.25000000  0.25000000  0.25000000  1
  Sb  Sb4  1  0.00000000  0.25000000  0.12500000  1
  Sb  Sb5  1  0.25865844  0.91776470  0.55416993  1
  P  P6  1  0.05535603  0.52465661  0.07291481  1
  P  P7  1  0.58070342  0.13181684  0.60808370  1
  P  P8  1  0.96563810  0.85079127  0.40897795  1
  Li  Li9  1  0.75917481  0.62654663  0.27436182  1
