# generated using pymatgen
data_Li2TaTiFeO2
_symmetry_space_group_name_H-M   'P 1'
_cell_length_a   8.18407915
_cell_length_b   7.46962721
_cell_length_c   7.76249019
_cell_angle_alpha   90.00000000
_cell_angle_beta   90.00000000
_cell_angle_gamma   90.00000000
_symmetry_Int_Tables_number   1
_chemical_formula_structural   Li2TaTiFeO2
_chemical_formula_sum   'Li2 Ta1 Ti1 Fe1 O2'
_cell_volume   474.53670755
_cell_formula_units_Z   1
loop_
 _symmetry_equiv_pos_site_id
 _symmetry_equiv_pos_as_xyz
  1  'x, y, z'
loop_
 _atom_site_type_symbol
 _atom_site_label
 _atom_site_symmetry_multiplicity
 _atom_site_fract_x
 _atom_site_fract_y
 _atom_site_fract_z
 _atom_site_occupancy
  Li  Li0  1  0.00000000  0.00000000  0.00000000  1
  Li  Li1  1  0.50000000  0.50000000  0.50000000  1
  Fe  Fe2  1  0.25000000  0.25000000  0.25000000  1
  Ti  Ti3  1  0.75000000  0.25000000  0.00000000  1
  O  O4  1  0.25000000  0.75000000  0.50000000  1
  O  O5  1  0.40694273  0.40390944  0.24953832  1
  Ta  Ta6  1  0.85441678  0.75718056  0.51216258  1
