# generated using pymatgen
data_Li2Mn2Sb4P3
_symmetry_space_group_name_H-M   'P 1'
_cell_length_a   5.73459049
_cell_length_b   6.16677108
_cell_length_c   6.87876216
_cell_angle_alpha   96.96920087
_cell_angle_beta   92.80597055
_cell_angle_gamma   97.17286722
_symmetry_Int_Tables_number   1
_chemical_formula_structural   Li2Mn2Sb4P3
_chemical_formula_sum   'Li2 Mn2 Sb4 P3'
_cell_volume   239.06483109
_cell_formula_units_Z   1
loop_
 _symmetry_equiv_pos_site_id
 _symmetry_equiv_pos_as_xyz
  1  'x, y, z'
loop_
 _atom_site_type_symbol
 _atom_site_label
 _atom_site_symmetry_multiplicity
 _atom_site_fract_x
 _atom_site_fract_y
 _atom_site_fract_z
 _atom_site_occupancy
  Mn  Mn0  1  0.00000000  0.00000000  0.00000000  1
  Mn  Mn1  1  0.50000000  0.50000000  0.50000000  1
  Sb  Sb2  1  0.25000000  0.25000000  0.25000000  1
  Sb  Sb3  1  0.75000000  0.25000000  0.00000000  1
  Sb  Sb4  1  0.25000000  0.75000000  0.50000000  1
  Sb  Sb5  1  0.24433270  0.72752265  0.15160760  1
  P  P6  1  0.74485847  0.75117047  0.73181991  1
  P  P7  1  0.53084740  0.80854971  0.56257658  1
  P  P8  1  0.98011971  0.07585457  0.89420005  1
  Li  Li9  1  0.41514127  0.85935283  0.41462032  1
  Li  Li10  1  0.37566454  0.78104808  0.38028807  1
