# generated using pymatgen
data_Li3Ni2As6O7
_symmetry_space_group_name_H-M   'P 1'
_cell_length_a   8.23369559
_cell_length_b   8.04706631
_cell_length_c   9.53546797
_cell_angle_alpha   91.24361005
_cell_angle_beta   91.55002935
_cell_angle_gamma   91.26711696
_symmetry_Int_Tables_number   1
_chemical_formula_structural   Li3Ni2As6O7
_chemical_formula_sum   'Li3 Ni2 As6 O7'
_cell_volume   631.24955198
_cell_formula_units_Z   1
loop_
 _symmetry_equiv_pos_site_id
 _symmetry_equiv_pos_as_xyz
  1  'x, y, z'
loop_
 _atom_site_type_symbol
 _atom_site_label
 _atom_site_symmetry_multiplicity
 _atom_site_fract_x
 _atom_site_fract_y
 _atom_site_fract_z
 _atom_site_occupancy
  Li  Li0  1  0.12500000  0.00000000  0.25000000  1
  Li  Li1  1  0.00000000  0.00000000  0.00000000  1
  Li  Li2  1  0.37500000  0.00000000  0.25000000  1
  Ni  Ni3  1  0.25000000  0.25000000  0.25000000  1
  Ni  Ni4  1  0.00000000  0.25000000  0.12500000  1
  As  As5  1  0.82509720  0.49485853  0.30298921  1
  As  As6  1  0.98588284  0.39017115  0.12724566  1
  As  As7  1  0.95375234  0.72866058  0.91907862  1
  As  As8  1  0.61643259  0.56974112  0.20331340  1
  As  As9  1  0.41811890  0.83889202  0.37991190  1
  As  As10  1  0.42872938  0.26175859  0.87563699  1
  O  O11  1  0.15259056  0.20376524  0.64974989  1
  O  O12  1  0.15212283  0.60462309  0.68579797  1
  O  O13  1  0.89699013  0.52799768  0.85453971  1
  O  O14  1  0.60283538  0.31405376  0.47118999  1
  O  O15  1  0.31206126  0.24332294  0.56626801  1
  O  O16  1  0.93790122  0.09759699  0.70612452  1
  O  O17  1  0.91430042  0.74940467  0.34408954  1
