# generated using pymatgen
data_Li3LuNi2P4N5
_symmetry_space_group_name_H-M   'P 1'
_cell_length_a   7.43925338
_cell_length_b   7.15578527
_cell_length_c   8.79470345
_cell_angle_alpha   92.98977237
_cell_angle_beta   91.41567730
_cell_angle_gamma   93.46642116
_symmetry_Int_Tables_number   1
_chemical_formula_structural   Li3LuNi2P4N5
_chemical_formula_sum   'Li3 Lu1 Ni2 P4 N5'
_cell_volume   466.49964635
_cell_formula_units_Z   1
loop_
 _symmetry_equiv_pos_site_id
 _symmetry_equiv_pos_as_xyz
  1  'x, y, z'
loop_
 _atom_site_type_symbol
 _atom_site_label
 _atom_site_symmetry_multiplicity
 _atom_site_fract_x
 _atom_site_fract_y
 _atom_site_fract_z
 _atom_site_occupancy
  P  P0  1  0.00000000  0.00000000  0.00000000  1
  P  P1  1  0.50000000  0.50000000  0.50000000  1
  P  P2  1  0.50000000  0.50000000  0.00000000  1
  P  P3  1  0.50000000  0.00000000  0.50000000  1
  Lu  Lu4  1  0.00000000  0.50000000  0.50000000  1
  Li  Li5  1  0.94594293  0.38325293  0.52582342  1
  Li  Li6  1  0.87371366  0.33028077  0.52503398  1
  Li  Li7  1  0.57669359  0.59998789  0.84168765  1
  Ni  Ni8  1  0.52196304  0.28699070  0.29125544  1
  Ni  Ni9  1  0.04891259  0.67377993  0.31387694  1
  N  N10  1  0.31043267  0.78809474  0.49443480  1
  N  N11  1  0.99308488  0.29065277  0.79103508  1
  N  N12  1  0.56959606  0.79517278  0.83813412  1
  N  N13  1  0.70565897  0.95424621  0.96982962  1
  N  N14  1  0.02358985  0.56215888  0.10100131  1
