# generated using pymatgen
data_LiMn2Sb4P2N
_symmetry_space_group_name_H-M   'P 1'
_cell_length_a   5.46355529
_cell_length_b   5.77835841
_cell_length_c   6.53692494
_cell_angle_alpha   96.17724623
_cell_angle_beta   92.69453624
_cell_angle_gamma   95.91789628
_symmetry_Int_Tables_number   1
_chemical_formula_structural   LiMn2Sb4P2N
_chemical_formula_sum   'Li1 Mn2 Sb4 P2 N1'
_cell_volume   203.72891167
_cell_formula_units_Z   1
loop_
 _symmetry_equiv_pos_site_id
 _symmetry_equiv_pos_as_xyz
  1  'x, y, z'
loop_
 _atom_site_type_symbol
 _atom_site_label
 _atom_site_symmetry_multiplicity
 _atom_site_fract_x
 _atom_site_fract_y
 _atom_site_fract_z
 _atom_site_occupancy
  N  N0  1  0.00000000  0.00000000  0.00000000  1
  Mn  Mn1  1  0.50000000  0.50000000  0.50000000  1
  Mn  Mn2  1  0.25000000  0.25000000  0.25000000  1
  Sb  Sb3  1  0.75000000  0.25000000  0.00000000  1
  Sb  Sb4  1  0.25000000  0.75000000  0.50000000  1
  Sb  Sb5  1  0.85166071  0.31196972  0.21532751  1
  Sb  Sb6  1  0.91160373  0.97953131  0.68067547  1
  P  P7  1  0.92622238  0.02045117  0.97595372  1
  P  P8  1  0.57477554  0.45734365  0.71364773  1
  Li  Li9  1  0.93579898  0.63906008  0.62299533  1
