# generated using pymatgen
data_Li3Ti2Cu2(I2O)2
_symmetry_space_group_name_H-M   'P 1'
_cell_length_a   7.05366249
_cell_length_b   7.11602615
_cell_length_c   7.08155197
_cell_angle_alpha   94.15253141
_cell_angle_beta   96.14408195
_cell_angle_gamma   95.32199417
_symmetry_Int_Tables_number   1
_chemical_formula_structural   Li3Ti2Cu2(I2O)2
_chemical_formula_sum   'Li3 Ti2 Cu2 I4 O2'
_cell_volume   350.66725034
_cell_formula_units_Z   1
loop_
 _symmetry_equiv_pos_site_id
 _symmetry_equiv_pos_as_xyz
  1  'x, y, z'
loop_
 _atom_site_type_symbol
 _atom_site_label
 _atom_site_symmetry_multiplicity
 _atom_site_fract_x
 _atom_site_fract_y
 _atom_site_fract_z
 _atom_site_occupancy
  I  I0  1  0.00000000  0.00000000  0.00000000  1
  I  I1  1  0.50000000  0.50000000  0.50000000  1
  I  I2  1  0.25000000  0.25000000  0.25000000  1
  I  I3  1  0.75000000  0.25000000  0.00000000  1
  Li  Li4  1  0.25000000  0.75000000  0.50000000  1
  Li  Li5  1  0.86962402  0.90060426  0.86640832  1
  Li  Li6  1  0.11923694  0.84123555  0.55229104  1
  Cu  Cu7  1  0.47002910  0.33222008  0.60744687  1
  Cu  Cu8  1  0.19391390  0.54826774  0.45907396  1
  Ti  Ti9  1  0.81339236  0.60119285  0.31089992  1
  Ti  Ti10  1  0.30752620  0.53821253  0.56034403  1
  O  O11  1  0.18477027  0.44094140  0.86596314  1
  O  O12  1  0.46521006  0.68642185  0.05124208  1
