# generated using pymatgen
data_LiMnSb4P3
_symmetry_space_group_name_H-M   'P 1'
_cell_length_a   5.73105976
_cell_length_b   5.85360404
_cell_length_c   7.07041576
_cell_angle_alpha   95.05088370
_cell_angle_beta   94.57516005
_cell_angle_gamma   95.44992408
_symmetry_Int_Tables_number   1
_chemical_formula_structural   LiMnSb4P3
_chemical_formula_sum   'Li1 Mn1 Sb4 P3'
_cell_volume   234.27391917
_cell_formula_units_Z   1
loop_
 _symmetry_equiv_pos_site_id
 _symmetry_equiv_pos_as_xyz
  1  'x, y, z'
loop_
 _atom_site_type_symbol
 _atom_site_label
 _atom_site_symmetry_multiplicity
 _atom_site_fract_x
 _atom_site_fract_y
 _atom_site_fract_z
 _atom_site_occupancy
  Mn  Mn0  1  0.00000000  0.00000000  0.00000000  1
  Sb  Sb1  1  0.33300000  0.66700000  0.25000000  1
  Sb  Sb2  1  0.66700000  0.33300000  0.50000000  1
  Sb  Sb3  1  0.00000000  0.00000000  0.75000000  1
  Sb  Sb4  1  0.36481065  0.03378579  0.93402534  1
  P  P5  1  0.97981767  0.85789666  0.88762292  1
  P  P6  1  0.43118059  0.38060801  0.00700039  1
  P  P7  1  0.66373218  0.20455654  0.84296460  1
  Li  Li8  1  0.84028912  0.84975185  0.56632443  1
