# generated using pymatgen
data_Li2Ti2Se(OF)3
_symmetry_space_group_name_H-M   'P 1'
_cell_length_a   5.24137118
_cell_length_b   4.93503849
_cell_length_c   7.09795517
_cell_angle_alpha   100.18720869
_cell_angle_beta   104.59503654
_cell_angle_gamma   99.64078364
_symmetry_Int_Tables_number   1
_chemical_formula_structural   Li2Ti2Se(OF)3
_chemical_formula_sum   'Li2 Ti2 Se1 O3 F3'
_cell_volume   170.48448607
_cell_formula_units_Z   1
loop_
 _symmetry_equiv_pos_site_id
 _symmetry_equiv_pos_as_xyz
  1  'x, y, z'
loop_
 _atom_site_type_symbol
 _atom_site_label
 _atom_site_symmetry_multiplicity
 _atom_site_fract_x
 _atom_site_fract_y
 _atom_site_fract_z
 _atom_site_occupancy
  Li  Li0  1  0.12500000  0.00000000  0.25000000  1
  Li  Li1  1  0.00000000  0.00000000  0.00000000  1
  Se  Se2  1  0.37500000  0.00000000  0.25000000  1
  F  F3  1  0.25000000  0.25000000  0.25000000  1
  F  F4  1  0.00000000  0.25000000  0.12500000  1
  F  F5  1  0.91740625  0.44751304  0.55500383  1
  Ti  Ti6  1  0.66491910  0.25122852  0.11506587  1
  Ti  Ti7  1  0.56213188  0.49000249  0.61411683  1
  O  O8  1  0.67516547  0.81122331  0.78442975  1
  O  O9  1  0.82216173  0.49098196  0.86468422  1
  O  O10  1  0.81361603  0.42844651  0.31915189  1
