# generated using pymatgen
data_Li2Mn2Sb4P3
_symmetry_space_group_name_H-M   'P 1'
_cell_length_a   5.82941574
_cell_length_b   6.32130290
_cell_length_c   7.24562209
_cell_angle_alpha   94.59606820
_cell_angle_beta   95.44446746
_cell_angle_gamma   95.23089309
_symmetry_Int_Tables_number   1
_chemical_formula_structural   Li2Mn2Sb4P3
_chemical_formula_sum   'Li2 Mn2 Sb4 P3'
_cell_volume   263.62255249
_cell_formula_units_Z   1
loop_
 _symmetry_equiv_pos_site_id
 _symmetry_equiv_pos_as_xyz
  1  'x, y, z'
loop_
 _atom_site_type_symbol
 _atom_site_label
 _atom_site_symmetry_multiplicity
 _atom_site_fract_x
 _atom_site_fract_y
 _atom_site_fract_z
 _atom_site_occupancy
  Mn  Mn0  1  0.00000000  0.00000000  0.00000000  1
  Mn  Mn1  1  0.50000000  0.50000000  0.50000000  1
  Sb  Sb2  1  0.25000000  0.25000000  0.25000000  1
  Sb  Sb3  1  0.75000000  0.25000000  0.00000000  1
  Sb  Sb4  1  0.25000000  0.75000000  0.50000000  1
  Sb  Sb5  1  0.69809590  0.89029450  0.00997489  1
  P  P6  1  0.91568508  0.93322292  0.24684300  1
  P  P7  1  0.94990278  0.23163763  0.81396306  1
  P  P8  1  0.27343640  0.92998252  0.50606876  1
  Li  Li9  1  0.38616981  0.28969108  0.76437454  1
  Li  Li10  1  0.68995421  0.07943007  0.62765697  1
