# generated using pymatgen
data_LiMn2P2N
_symmetry_space_group_name_H-M   'P 1'
_cell_length_a   4.27249956
_cell_length_b   4.50896300
_cell_length_c   5.37642069
_cell_angle_alpha   99.85197008
_cell_angle_beta   96.21069701
_cell_angle_gamma   97.40889023
_symmetry_Int_Tables_number   1
_chemical_formula_structural   LiMn2P2N
_chemical_formula_sum   'Li1 Mn2 P2 N1'
_cell_volume   100.29167088
_cell_formula_units_Z   1
loop_
 _symmetry_equiv_pos_site_id
 _symmetry_equiv_pos_as_xyz
  1  'x, y, z'
loop_
 _atom_site_type_symbol
 _atom_site_label
 _atom_site_symmetry_multiplicity
 _atom_site_fract_x
 _atom_site_fract_y
 _atom_site_fract_z
 _atom_site_occupancy
  Mn  Mn0  1  0.00000000  0.00000000  0.00000000  1
  Mn  Mn1  1  0.33300000  0.66700000  0.25000000  1
  P  P2  1  0.66700000  0.33300000  0.50000000  1
  P  P3  1  0.00000000  0.00000000  0.75000000  1
  Li  Li4  1  0.12310320  0.12662666  0.63316413  1
  N  N5  1  0.67076564  0.22671127  0.47289483  1
