# generated using pymatgen
data_Li3LuCu2(NiP2)2
_symmetry_space_group_name_H-M   'P 1'
_cell_length_a   7.43674552
_cell_length_b   7.11734600
_cell_length_c   8.82194481
_cell_angle_alpha   93.17821210
_cell_angle_beta   91.34920717
_cell_angle_gamma   93.68549045
_symmetry_Int_Tables_number   1
_chemical_formula_structural   Li3LuCu2(NiP2)2
_chemical_formula_sum   'Li3 Lu1 Cu2 Ni2 P4'
_cell_volume   465.08994938
_cell_formula_units_Z   1
loop_
 _symmetry_equiv_pos_site_id
 _symmetry_equiv_pos_as_xyz
  1  'x, y, z'
loop_
 _atom_site_type_symbol
 _atom_site_label
 _atom_site_symmetry_multiplicity
 _atom_site_fract_x
 _atom_site_fract_y
 _atom_site_fract_z
 _atom_site_occupancy
  P  P0  1  0.00000000  0.00000000  0.00000000  1
  P  P1  1  0.50000000  0.50000000  0.50000000  1
  P  P2  1  0.25000000  0.25000000  0.25000000  1
  P  P3  1  0.75000000  0.25000000  0.00000000  1
  Lu  Lu4  1  0.25000000  0.75000000  0.50000000  1
  Li  Li5  1  0.06370739  0.41192341  0.96546494  1
  Li  Li6  1  0.59333233  0.83400373  0.62105546  1
  Li  Li7  1  0.26686494  0.74243344  0.04556057  1
  Cu  Cu8  1  0.53657353  0.41078176  0.58224248  1
  Cu  Cu9  1  0.93210174  0.99098898  0.09196018  1
  Ni  Ni10  1  0.79186753  0.40076600  0.85848393  1
  Ni  Ni11  1  0.93035492  0.24864709  0.75214374  1
