# generated using pymatgen
data_Li3TiNi2(IO)4
_symmetry_space_group_name_H-M   'P 1'
_cell_length_a   7.92692281
_cell_length_b   7.63598115
_cell_length_c   8.29947432
_cell_angle_alpha   92.30032693
_cell_angle_beta   90.81326216
_cell_angle_gamma   92.66810077
_symmetry_Int_Tables_number   1
_chemical_formula_structural   Li3TiNi2(IO)4
_chemical_formula_sum   'Li3 Ti1 Ni2 I4 O4'
_cell_volume   501.35189144
_cell_formula_units_Z   1
loop_
 _symmetry_equiv_pos_site_id
 _symmetry_equiv_pos_as_xyz
  1  'x, y, z'
loop_
 _atom_site_type_symbol
 _atom_site_label
 _atom_site_symmetry_multiplicity
 _atom_site_fract_x
 _atom_site_fract_y
 _atom_site_fract_z
 _atom_site_occupancy
  I  I0  1  0.00000000  0.00000000  0.00000000  1
  I  I1  1  0.50000000  0.50000000  0.50000000  1
  I  I2  1  0.50000000  0.50000000  0.00000000  1
  I  I3  1  0.50000000  0.00000000  0.50000000  1
  Li  Li4  1  0.00000000  0.50000000  0.50000000  1
  Li  Li5  1  0.14957258  0.05553495  0.26881323  1
  Li  Li6  1  0.41251225  0.31450573  0.11877880  1
  Ni  Ni7  1  0.83284111  0.98058398  0.00811839  1
  Ni  Ni8  1  0.15690401  0.74520201  0.37876635  1
  Ti  Ti9  1  0.48685552  0.86768893  0.79070688  1
  O  O10  1  0.65056603  0.75861728  0.06605180  1
  O  O11  1  0.42842824  0.05324898  0.82548391  1
  O  O12  1  0.13811536  0.25830042  0.60153360  1
  O  O13  1  0.58434127  0.07586565  0.04502296  1
