# generated using pymatgen
data_Li4Zr(CuAs3)2
_symmetry_space_group_name_H-M   'P 1'
_cell_length_a   6.61637303
_cell_length_b   6.36128566
_cell_length_c   8.30942104
_cell_angle_alpha   97.56855203
_cell_angle_beta   98.87638215
_cell_angle_gamma   97.39484811
_symmetry_Int_Tables_number   1
_chemical_formula_structural   Li4Zr(CuAs3)2
_chemical_formula_sum   'Li4 Zr1 Cu2 As6'
_cell_volume   338.54467476
_cell_formula_units_Z   1
loop_
 _symmetry_equiv_pos_site_id
 _symmetry_equiv_pos_as_xyz
  1  'x, y, z'
loop_
 _atom_site_type_symbol
 _atom_site_label
 _atom_site_symmetry_multiplicity
 _atom_site_fract_x
 _atom_site_fract_y
 _atom_site_fract_z
 _atom_site_occupancy
  Li  Li0  1  0.12500000  0.12500000  0.12500000  1
  Li  Li1  1  0.50000000  0.50000000  0.50000000  1
  Li  Li2  1  0.25000000  0.25000000  0.25000000  1
  Li  Li3  1  0.75000000  0.75000000  0.75000000  1
  Cu  Cu4  1  0.15904702  0.98202455  0.72140903  1
  Cu  Cu5  1  0.08382853  0.26604057  0.87566308  1
  As  As6  1  0.27507872  0.07039687  0.79200212  1
  As  As7  1  0.86991844  0.41864088  0.75802484  1
  As  As8  1  0.05426179  0.96186716  0.40501594  1
  As  As9  1  0.58106514  0.65125760  0.83559335  1
  As  As10  1  0.67722032  0.13564719  0.64704875  1
  As  As11  1  0.59961831  0.72679659  0.09281686  1
  Zr  Zr12  1  0.09466680  0.83931654  0.43226616  1
