# generated using pymatgen
data_Li2Ti(I2O)2
_symmetry_space_group_name_H-M   'P 1'
_cell_length_a   8.09442014
_cell_length_b   7.90789175
_cell_length_c   7.71338467
_cell_angle_alpha   91.06621397
_cell_angle_beta   90.85754487
_cell_angle_gamma   91.23486639
_symmetry_Int_Tables_number   1
_chemical_formula_structural   Li2Ti(I2O)2
_chemical_formula_sum   'Li2 Ti1 I4 O2'
_cell_volume   493.47373731
_cell_formula_units_Z   1
loop_
 _symmetry_equiv_pos_site_id
 _symmetry_equiv_pos_as_xyz
  1  'x, y, z'
loop_
 _atom_site_type_symbol
 _atom_site_label
 _atom_site_symmetry_multiplicity
 _atom_site_fract_x
 _atom_site_fract_y
 _atom_site_fract_z
 _atom_site_occupancy
  I  I0  1  0.12500000  0.12500000  0.12500000  1
  I  I1  1  0.50000000  0.50000000  0.50000000  1
  I  I2  1  0.25000000  0.25000000  0.25000000  1
  I  I3  1  0.75000000  0.75000000  0.75000000  1
  Li  Li4  1  0.70039540  0.65582660  0.26620700  1
  Li  Li5  1  0.78515469  0.16803367  0.96389774  1
  Ti  Ti6  1  0.17176015  0.77504852  0.62147443  1
  O  O7  1  0.82005026  0.94961409  0.46118578  1
  O  O8  1  0.77468307  0.38427426  0.42244467  1
