# generated using pymatgen
data_Li2MnP3N
_symmetry_space_group_name_H-M   'P 1'
_cell_length_a   4.46803912
_cell_length_b   4.60836852
_cell_length_c   6.32230549
_cell_angle_alpha   99.24274243
_cell_angle_beta   97.43161968
_cell_angle_gamma   98.83842657
_symmetry_Int_Tables_number   1
_chemical_formula_structural   Li2MnP3N
_chemical_formula_sum   'Li2 Mn1 P3 N1'
_cell_volume   125.36954399
_cell_formula_units_Z   1
loop_
 _symmetry_equiv_pos_site_id
 _symmetry_equiv_pos_as_xyz
  1  'x, y, z'
loop_
 _atom_site_type_symbol
 _atom_site_label
 _atom_site_symmetry_multiplicity
 _atom_site_fract_x
 _atom_site_fract_y
 _atom_site_fract_z
 _atom_site_occupancy
  Mn  Mn0  1  0.00000000  0.00000000  0.00000000  1
  P  P1  1  0.33300000  0.66700000  0.25000000  1
  P  P2  1  0.66700000  0.33300000  0.50000000  1
  P  P3  1  0.00000000  0.00000000  0.75000000  1
  Li  Li4  1  0.57555680  0.64460358  0.87787355  1
  Li  Li5  1  0.79458329  0.80582596  0.59379744  1
  N  N6  1  0.91486601  0.83661778  0.84657278  1
