# generated using pymatgen
data_Li2Mn2Sb4P3
_symmetry_space_group_name_H-M   'P 1'
_cell_length_a   5.61290051
_cell_length_b   6.01739110
_cell_length_c   6.75557264
_cell_angle_alpha   97.90844161
_cell_angle_beta   92.32953657
_cell_angle_gamma   98.02054209
_symmetry_Int_Tables_number   1
_chemical_formula_structural   Li2Mn2Sb4P3
_chemical_formula_sum   'Li2 Mn2 Sb4 P3'
_cell_volume   223.37183959
_cell_formula_units_Z   1
loop_
 _symmetry_equiv_pos_site_id
 _symmetry_equiv_pos_as_xyz
  1  'x, y, z'
loop_
 _atom_site_type_symbol
 _atom_site_label
 _atom_site_symmetry_multiplicity
 _atom_site_fract_x
 _atom_site_fract_y
 _atom_site_fract_z
 _atom_site_occupancy
  Mn  Mn0  1  0.00000000  0.00000000  0.00000000  1
  Mn  Mn1  1  0.50000000  0.50000000  0.50000000  1
  Sb  Sb2  1  0.50000000  0.50000000  0.00000000  1
  Sb  Sb3  1  0.50000000  0.00000000  0.50000000  1
  Sb  Sb4  1  0.00000000  0.50000000  0.50000000  1
  Sb  Sb5  1  0.59718418  0.07010036  0.34165605  1
  P  P6  1  0.47102290  0.51649187  0.62107992  1
  P  P7  1  0.13280992  0.31356311  0.62127505  1
  P  P8  1  0.71979932  0.08565628  0.16481990  1
  Li  Li9  1  0.71927893  0.57694157  0.82433014  1
  Li  Li10  1  0.33961621  0.60440878  0.68097617  1
