# generated using pymatgen
data_Li2Mn2Sb4P2N
_symmetry_space_group_name_H-M   'P 1'
_cell_length_a   4.06868009
_cell_length_b   4.37645601
_cell_length_c   6.40979736
_cell_angle_alpha   101.75936028
_cell_angle_beta   102.34945398
_cell_angle_gamma   99.55318905
_symmetry_Int_Tables_number   1
_chemical_formula_structural   Li2Mn2Sb4P2N
_chemical_formula_sum   'Li2 Mn2 Sb4 P2 N1'
_cell_volume   106.50193231
_cell_formula_units_Z   1
loop_
 _symmetry_equiv_pos_site_id
 _symmetry_equiv_pos_as_xyz
  1  'x, y, z'
loop_
 _atom_site_type_symbol
 _atom_site_label
 _atom_site_symmetry_multiplicity
 _atom_site_fract_x
 _atom_site_fract_y
 _atom_site_fract_z
 _atom_site_occupancy
  Mn  Mn0  1  0.00000000  0.00000000  0.00000000  1
  Mn  Mn1  1  0.50000000  0.50000000  0.50000000  1
  Sb  Sb2  1  0.50000000  0.50000000  0.00000000  1
  Sb  Sb3  1  0.50000000  0.00000000  0.50000000  1
  Sb  Sb4  1  0.00000000  0.50000000  0.50000000  1
  Sb  Sb5  1  0.95432465  0.47408149  0.33116132  1
  P  P6  1  0.57716575  0.16475257  0.44881422  1
  P  P7  1  0.35177471  0.97362565  0.59002090  1
  Li  Li8  1  0.74633525  0.80915964  0.70826257  1
  Li  Li9  1  0.85641688  0.27239141  0.95990417  1
  N  N10  1  0.56436885  0.84126529  0.31772530  1
