# generated using pymatgen
data_Li2Mn2Sb4P3
_symmetry_space_group_name_H-M   'P 1'
_cell_length_a   4.87758705
_cell_length_b   5.20569761
_cell_length_c   6.65720256
_cell_angle_alpha   99.66952443
_cell_angle_beta   94.85795408
_cell_angle_gamma   100.08646142
_symmetry_Int_Tables_number   1
_chemical_formula_structural   Li2Mn2Sb4P3
_chemical_formula_sum   'Li2 Mn2 Sb4 P3'
_cell_volume   162.92009994
_cell_formula_units_Z   1
loop_
 _symmetry_equiv_pos_site_id
 _symmetry_equiv_pos_as_xyz
  1  'x, y, z'
loop_
 _atom_site_type_symbol
 _atom_site_label
 _atom_site_symmetry_multiplicity
 _atom_site_fract_x
 _atom_site_fract_y
 _atom_site_fract_z
 _atom_site_occupancy
  Mn  Mn0  1  0.00000000  0.00000000  0.00000000  1
  Mn  Mn1  1  0.33300000  0.66700000  0.25000000  1
  Sb  Sb2  1  0.66700000  0.33300000  0.50000000  1
  Sb  Sb3  1  0.00000000  0.00000000  0.75000000  1
  Sb  Sb4  1  0.35805311  0.63918088  0.16209377  1
  Sb  Sb5  1  0.23777029  0.51264811  0.63074540  1
  P  P6  1  0.16675405  0.19876651  0.32673364  1
  P  P7  1  0.47712156  0.85917768  0.01781497  1
  P  P8  1  0.00531969  0.83620885  0.41020895  1
  Li  Li9  1  0.39321204  0.25266024  0.31225176  1
  Li  Li10  1  0.99667469  0.06980610  0.80978203  1
