# generated using pymatgen
data_Li2Mn2(SbP)3
_symmetry_space_group_name_H-M   'P 1'
_cell_length_a   6.23490825
_cell_length_b   6.74932017
_cell_length_c   7.19560638
_cell_angle_alpha   93.24399716
_cell_angle_beta   93.64186431
_cell_angle_gamma   93.60314962
_symmetry_Int_Tables_number   1
_chemical_formula_structural   Li2Mn2(SbP)3
_chemical_formula_sum   'Li2 Mn2 Sb3 P3'
_cell_volume   301.03392909
_cell_formula_units_Z   1
loop_
 _symmetry_equiv_pos_site_id
 _symmetry_equiv_pos_as_xyz
  1  'x, y, z'
loop_
 _atom_site_type_symbol
 _atom_site_label
 _atom_site_symmetry_multiplicity
 _atom_site_fract_x
 _atom_site_fract_y
 _atom_site_fract_z
 _atom_site_occupancy
  Mn  Mn0  1  0.12500000  0.12500000  0.12500000  1
  Mn  Mn1  1  0.50000000  0.50000000  0.50000000  1
  Sb  Sb2  1  0.25000000  0.25000000  0.25000000  1
  Sb  Sb3  1  0.75000000  0.75000000  0.75000000  1
  Sb  Sb4  1  0.20224956  0.53422522  0.90027987  1
  P  P5  1  0.03291914  0.42450723  0.63699062  1
  P  P6  1  0.25636739  0.94795662  0.33605248  1
  P  P7  1  0.06117767  0.40525878  0.64640381  1
  Li  Li8  1  0.79001805  0.97293065  0.78886206  1
  Li  Li9  1  0.20307105  0.09865512  0.63940435  1
