# generated using pymatgen
data_Li2P8N5Cl2
_symmetry_space_group_name_H-M   'P 1'
_cell_length_a   6.95390953
_cell_length_b   6.59111524
_cell_length_c   8.58850070
_cell_angle_alpha   96.84638116
_cell_angle_beta   98.03714041
_cell_angle_gamma   96.58215068
_symmetry_Int_Tables_number   1
_chemical_formula_structural   Li2P8N5Cl2
_chemical_formula_sum   'Li2 P8 N5 Cl2'
_cell_volume   383.53291354
_cell_formula_units_Z   1
loop_
 _symmetry_equiv_pos_site_id
 _symmetry_equiv_pos_as_xyz
  1  'x, y, z'
loop_
 _atom_site_type_symbol
 _atom_site_label
 _atom_site_symmetry_multiplicity
 _atom_site_fract_x
 _atom_site_fract_y
 _atom_site_fract_z
 _atom_site_occupancy
  Cl  Cl0  1  0.00000000  0.00000000  0.00000000  1
  Cl  Cl1  1  0.33300000  0.66700000  0.25000000  1
  P  P2  1  0.66700000  0.33300000  0.50000000  1
  P  P3  1  0.00000000  0.00000000  0.75000000  1
  P  P4  1  0.47252817  0.68671522  0.22994501  1
  P  P5  1  0.17013940  0.39170197  0.16877424  1
  P  P6  1  0.69882365  0.80374831  0.79305923  1
  P  P7  1  0.27159779  0.63922223  0.27702855  1
  P  P8  1  0.28402156  0.77160610  0.26906439  1
  P  P9  1  0.33776649  0.06545670  0.45299653  1
  Li  Li10  1  0.40454390  0.94789697  0.60980488  1
  Li  Li11  1  0.72591563  0.54187699  0.90994952  1
  N  N12  1  0.36425242  0.69447196  0.61105355  1
  N  N13  1  0.04093331  0.69095028  0.77827268  1
  N  N14  1  0.25344758  0.80389509  0.33288580  1
  N  N15  1  0.82916363  0.95135297  0.29969760  1
  N  N16  1  0.20866816  0.20634690  0.18585098  1
