# generated using pymatgen
data_Li2Ti(I2Cl)2
_symmetry_space_group_name_H-M   'P 1'
_cell_length_a   8.03828835
_cell_length_b   7.85640037
_cell_length_c   7.92250105
_cell_angle_alpha   91.88240450
_cell_angle_beta   92.88311606
_cell_angle_gamma   91.93700205
_symmetry_Int_Tables_number   1
_chemical_formula_structural   Li2Ti(I2Cl)2
_chemical_formula_sum   'Li2 Ti1 I4 Cl2'
_cell_volume   499.10382905
_cell_formula_units_Z   1
loop_
 _symmetry_equiv_pos_site_id
 _symmetry_equiv_pos_as_xyz
  1  'x, y, z'
loop_
 _atom_site_type_symbol
 _atom_site_label
 _atom_site_symmetry_multiplicity
 _atom_site_fract_x
 _atom_site_fract_y
 _atom_site_fract_z
 _atom_site_occupancy
  I  I0  1  0.00000000  0.00000000  0.00000000  1
  I  I1  1  0.33300000  0.66700000  0.25000000  1
  I  I2  1  0.66700000  0.33300000  0.50000000  1
  I  I3  1  0.00000000  0.00000000  0.75000000  1
  Li  Li4  1  0.10523321  0.45669824  0.39706770  1
  Li  Li5  1  0.09090677  0.60053196  0.80393268  1
  Cl  Cl6  1  0.05780957  0.79600962  0.35888622  1
  Cl  Cl7  1  0.25025743  0.19418845  0.10870367  1
  Ti  Ti8  1  0.37542617  0.15818112  0.64715460  1
