# generated using pymatgen
data_Li3LuAs6N5
_symmetry_space_group_name_H-M   'P 1'
_cell_length_a   7.45650301
_cell_length_b   7.42017947
_cell_length_c   8.60733108
_cell_angle_alpha   91.69364042
_cell_angle_beta   91.87287415
_cell_angle_gamma   91.95961210
_symmetry_Int_Tables_number   1
_chemical_formula_structural   Li3LuAs6N5
_chemical_formula_sum   'Li3 Lu1 As6 N5'
_cell_volume   475.47440476
_cell_formula_units_Z   1
loop_
 _symmetry_equiv_pos_site_id
 _symmetry_equiv_pos_as_xyz
  1  'x, y, z'
loop_
 _atom_site_type_symbol
 _atom_site_label
 _atom_site_symmetry_multiplicity
 _atom_site_fract_x
 _atom_site_fract_y
 _atom_site_fract_z
 _atom_site_occupancy
  Lu  Lu0  1  0.12500000  0.12500000  0.12500000  1
  Li  Li1  1  0.50000000  0.50000000  0.50000000  1
  Li  Li2  1  0.25000000  0.25000000  0.25000000  1
  Li  Li3  1  0.75000000  0.75000000  0.75000000  1
  As  As4  1  0.95935874  0.13255271  0.99095054  1
  As  As5  1  0.84732825  0.83501667  0.19704830  1
  As  As6  1  0.17978589  0.39390259  0.05244652  1
  As  As7  1  0.76018338  0.99197597  0.99028796  1
  As  As8  1  0.34414069  0.05268179  0.97301896  1
  As  As9  1  0.16526598  0.24138620  0.72896569  1
  N  N10  1  0.66273648  0.53911831  0.31232472  1
  N  N11  1  0.47612709  0.06063349  0.83077623  1
  N  N12  1  0.92143525  0.25081550  0.76202667  1
  N  N13  1  0.60506115  0.46687421  0.15295673  1
  N  N14  1  0.06707532  0.45999612  0.36679094  1
