# generated using pymatgen
data_LiTiP2S
_symmetry_space_group_name_H-M   'P 1'
_cell_length_a   7.00410518
_cell_length_b   6.60412370
_cell_length_c   7.29974910
_cell_angle_alpha   92.43426722
_cell_angle_beta   94.37598083
_cell_angle_gamma   92.30353470
_symmetry_Int_Tables_number   1
_chemical_formula_structural   LiTiP2S
_chemical_formula_sum   'Li2 Ti2 P4 S2'
_cell_volume   336.04901464
_cell_formula_units_Z   2
loop_
 _symmetry_equiv_pos_site_id
 _symmetry_equiv_pos_as_xyz
  1  'x, y, z'
loop_
 _atom_site_type_symbol
 _atom_site_label
 _atom_site_symmetry_multiplicity
 _atom_site_fract_x
 _atom_site_fract_y
 _atom_site_fract_z
 _atom_site_occupancy
  P  P0  1  0.00000000  0.00000000  0.00000000  1
  P  P1  1  0.50000000  0.50000000  0.50000000  1
  P  P2  1  0.25000000  0.25000000  0.25000000  1
  P  P3  1  0.75000000  0.25000000  0.00000000  1
  Li  Li4  1  0.25000000  0.75000000  0.50000000  1
  Li  Li5  1  0.70664643  0.92764924  0.55982483  1
  S  S6  1  0.38238117  0.37546203  0.64877845  1
  S  S7  1  0.50158612  0.80819395  0.88035959  1
  Ti  Ti8  1  0.05072804  0.87146522  0.09544801  1
  Ti  Ti9  1  0.67464817  0.50386028  0.51542071  1
