# generated using pymatgen
data_Li2I5N5(ClF)2
_symmetry_space_group_name_H-M   'P 1'
_cell_length_a   8.23335755
_cell_length_b   7.91519618
_cell_length_c   8.44624967
_cell_angle_alpha   92.26651195
_cell_angle_beta   93.18812948
_cell_angle_gamma   92.32221649
_symmetry_Int_Tables_number   1
_chemical_formula_structural   Li2I5N5(ClF)2
_chemical_formula_sum   'Li2 I5 N5 Cl2 F2'
_cell_volume   548.64512366
_cell_formula_units_Z   1
loop_
 _symmetry_equiv_pos_site_id
 _symmetry_equiv_pos_as_xyz
  1  'x, y, z'
loop_
 _atom_site_type_symbol
 _atom_site_label
 _atom_site_symmetry_multiplicity
 _atom_site_fract_x
 _atom_site_fract_y
 _atom_site_fract_z
 _atom_site_occupancy
  I  I0  1  0.12500000  0.00000000  0.25000000  1
  I  I1  1  0.00000000  0.00000000  0.00000000  1
  I  I2  1  0.37500000  0.00000000  0.25000000  1
  I  I3  1  0.25000000  0.25000000  0.25000000  1
  I  I4  1  0.00000000  0.25000000  0.12500000  1
  Li  Li5  1  0.34504263  0.34687448  0.49536467  1
  Li  Li6  1  0.64243520  0.41216598  0.84164167  1
  F  F7  1  0.05567345  0.48116488  0.92857395  1
  F  F8  1  0.77233672  0.36089028  0.01220501  1
  Cl  Cl9  1  0.39913504  0.43034175  0.51573283  1
  Cl  Cl10  1  0.84703088  0.44934346  0.35380366  1
  N  N11  1  0.22408237  0.65956787  0.88338686  1
  N  N12  1  0.98616169  0.25774325  0.26673370  1
  N  N13  1  0.54229337  0.40728677  0.68487937  1
  N  N14  1  0.98374498  0.87597148  0.66751042  1
  N  N15  1  0.53308404  0.00461835  0.80166496  1
