# generated using pymatgen
data_Li2Mn(SbP)3
_symmetry_space_group_name_H-M   'P 1'
_cell_length_a   5.11751559
_cell_length_b   5.48558476
_cell_length_c   6.82999970
_cell_angle_alpha   97.26030450
_cell_angle_beta   95.66103095
_cell_angle_gamma   97.79466863
_symmetry_Int_Tables_number   1
_chemical_formula_structural   Li2Mn(SbP)3
_chemical_formula_sum   'Li2 Mn1 Sb3 P3'
_cell_volume   187.12877308
_cell_formula_units_Z   1
loop_
 _symmetry_equiv_pos_site_id
 _symmetry_equiv_pos_as_xyz
  1  'x, y, z'
loop_
 _atom_site_type_symbol
 _atom_site_label
 _atom_site_symmetry_multiplicity
 _atom_site_fract_x
 _atom_site_fract_y
 _atom_site_fract_z
 _atom_site_occupancy
  Mn  Mn0  1  0.12500000  0.12500000  0.12500000  1
  Sb  Sb1  1  0.50000000  0.50000000  0.50000000  1
  Sb  Sb2  1  0.25000000  0.25000000  0.25000000  1
  Sb  Sb3  1  0.75000000  0.75000000  0.75000000  1
  P  P4  1  0.23984228  0.82827372  0.12555396  1
  P  P5  1  0.78542417  0.32160527  0.35754061  1
  P  P6  1  0.30887141  0.50381966  0.57771924  1
  Li  Li7  1  0.21534944  0.81060977  0.23708922  1
  Li  Li8  1  0.29724572  0.98919379  0.44862792  1
