# generated using pymatgen
data_Li3LuI4N5O2
_symmetry_space_group_name_H-M   'P 1'
_cell_length_a   7.26658761
_cell_length_b   6.94159645
_cell_length_c   8.15161176
_cell_angle_alpha   93.45221130
_cell_angle_beta   92.47521406
_cell_angle_gamma   93.65637889
_symmetry_Int_Tables_number   1
_chemical_formula_structural   Li3LuI4N5O2
_chemical_formula_sum   'Li3 Lu1 I4 N5 O2'
_cell_volume   409.14301994
_cell_formula_units_Z   1
loop_
 _symmetry_equiv_pos_site_id
 _symmetry_equiv_pos_as_xyz
  1  'x, y, z'
loop_
 _atom_site_type_symbol
 _atom_site_label
 _atom_site_symmetry_multiplicity
 _atom_site_fract_x
 _atom_site_fract_y
 _atom_site_fract_z
 _atom_site_occupancy
  I  I0  1  0.00000000  0.00000000  0.00000000  1
  I  I1  1  0.50000000  0.50000000  0.50000000  1
  I  I2  1  0.50000000  0.50000000  0.00000000  1
  I  I3  1  0.50000000  0.00000000  0.50000000  1
  Lu  Lu4  1  0.00000000  0.50000000  0.50000000  1
  Li  Li5  1  0.69226791  0.88468166  0.96620545  1
  Li  Li6  1  0.03843890  0.51341888  0.04956691  1
  Li  Li7  1  0.54493311  0.26568102  0.62644970  1
  O  O8  1  0.30745419  0.99428497  0.57633899  1
  O  O9  1  0.94109205  0.04908631  0.95561193  1
  N  N10  1  0.32800002  0.98241267  0.96256770  1
  N  N11  1  0.71167972  0.78924220  0.31771540  1
  N  N12  1  0.19538644  0.56737138  0.71308198  1
  N  N13  1  0.21582059  0.34729749  0.55988924  1
  N  N14  1  0.69674547  0.81510659  0.37742371  1
