# generated using pymatgen
data_Li2Mn2Sb4P2N
_symmetry_space_group_name_H-M   'P 1'
_cell_length_a   5.42833787
_cell_length_b   5.83965618
_cell_length_c   6.64123164
_cell_angle_alpha   98.57331462
_cell_angle_beta   94.93807388
_cell_angle_gamma   97.35672666
_symmetry_Int_Tables_number   1
_chemical_formula_structural   Li2Mn2Sb4P2N
_chemical_formula_sum   'Li2 Mn2 Sb4 P2 N1'
_cell_volume   205.26792115
_cell_formula_units_Z   1
loop_
 _symmetry_equiv_pos_site_id
 _symmetry_equiv_pos_as_xyz
  1  'x, y, z'
loop_
 _atom_site_type_symbol
 _atom_site_label
 _atom_site_symmetry_multiplicity
 _atom_site_fract_x
 _atom_site_fract_y
 _atom_site_fract_z
 _atom_site_occupancy
  N  N0  1  0.12500000  0.00000000  0.25000000  1
  Mn  Mn1  1  0.00000000  0.00000000  0.00000000  1
  Mn  Mn2  1  0.37500000  0.00000000  0.25000000  1
  Sb  Sb3  1  0.25000000  0.25000000  0.25000000  1
  Sb  Sb4  1  0.00000000  0.25000000  0.12500000  1
  Sb  Sb5  1  0.57660878  0.77448295  0.17376882  1
  Sb  Sb6  1  0.47332842  0.95795828  0.24537576  1
  P  P7  1  0.93180904  0.94759037  0.61625674  1
  P  P8  1  0.19016562  0.94843909  0.28270321  1
  Li  Li9  1  0.48801141  0.12104046  0.32256588  1
  Li  Li10  1  0.86534316  0.69900995  0.88334982  1
