# generated using pymatgen
data_Li2Mn2Sb4P3
_symmetry_space_group_name_H-M   'P 1'
_cell_length_a   7.48234009
_cell_length_b   7.43936045
_cell_length_c   7.80185520
_cell_angle_alpha   91.24417218
_cell_angle_beta   91.47383691
_cell_angle_gamma   91.41602156
_symmetry_Int_Tables_number   1
_chemical_formula_structural   Li2Mn2Sb4P3
_chemical_formula_sum   'Li2 Mn2 Sb4 P3'
_cell_volume   433.89631612
_cell_formula_units_Z   1
loop_
 _symmetry_equiv_pos_site_id
 _symmetry_equiv_pos_as_xyz
  1  'x, y, z'
loop_
 _atom_site_type_symbol
 _atom_site_label
 _atom_site_symmetry_multiplicity
 _atom_site_fract_x
 _atom_site_fract_y
 _atom_site_fract_z
 _atom_site_occupancy
  Mn  Mn0  1  0.12500000  0.12500000  0.12500000  1
  Mn  Mn1  1  0.50000000  0.50000000  0.50000000  1
  Sb  Sb2  1  0.25000000  0.25000000  0.25000000  1
  Sb  Sb3  1  0.75000000  0.75000000  0.75000000  1
  Sb  Sb4  1  0.35899883  0.17365602  0.32032872  1
  Sb  Sb5  1  0.39554616  0.50717485  0.13844798  1
  P  P6  1  0.87795778  0.40974116  0.41696836  1
  P  P7  1  0.51329399  0.68603629  0.74729028  1
  P  P8  1  0.71214372  0.04056074  0.46073180  1
  Li  Li9  1  0.47120026  0.85641766  0.37259330  1
  Li  Li10  1  0.44204369  0.19089289  0.65001226  1
