# generated using pymatgen
data_Li3TiI4N5
_symmetry_space_group_name_H-M   'P 1'
_cell_length_a   7.27479487
_cell_length_b   6.97584801
_cell_length_c   7.59357598
_cell_angle_alpha   93.62332295
_cell_angle_beta   93.34052091
_cell_angle_gamma   93.53626072
_symmetry_Int_Tables_number   1
_chemical_formula_structural   Li3TiI4N5
_chemical_formula_sum   'Li3 Ti1 I4 N5'
_cell_volume   383.10686726
_cell_formula_units_Z   1
loop_
 _symmetry_equiv_pos_site_id
 _symmetry_equiv_pos_as_xyz
  1  'x, y, z'
loop_
 _atom_site_type_symbol
 _atom_site_label
 _atom_site_symmetry_multiplicity
 _atom_site_fract_x
 _atom_site_fract_y
 _atom_site_fract_z
 _atom_site_occupancy
  I  I0  1  0.00000000  0.00000000  0.00000000  1
  I  I1  1  0.50000000  0.50000000  0.50000000  1
  I  I2  1  0.50000000  0.50000000  0.00000000  1
  I  I3  1  0.50000000  0.00000000  0.50000000  1
  Li  Li4  1  0.00000000  0.50000000  0.50000000  1
  Li  Li5  1  0.36923474  0.76314346  0.54651583  1
  Li  Li6  1  0.76889401  0.13951163  0.82523991  1
  Ti  Ti7  1  0.19332778  0.17924464  0.36992105  1
  N  N8  1  0.68755472  0.40060369  0.41193461  1
  N  N9  1  0.77120859  0.82355583  0.57208313  1
  N  N10  1  0.19743378  0.26718089  0.03125614  1
  N  N11  1  0.30176674  0.48643590  0.37885542  1
  N  N12  1  0.86364419  0.10282303  0.21872287  1
