# generated using pymatgen
data_Li2Ti2Mo2P2O
_symmetry_space_group_name_H-M   'P 1'
_cell_length_a   6.42029913
_cell_length_b   5.65067225
_cell_length_c   5.79881475
_cell_angle_alpha   90.12414171
_cell_angle_beta   87.95096351
_cell_angle_gamma   89.16952498
_symmetry_Int_Tables_number   1
_chemical_formula_structural   Li2Ti2Mo2P2O
_chemical_formula_sum   'Li2 Ti2 Mo2 P2 O1'
_cell_volume   210.21787714
_cell_formula_units_Z   1
loop_
 _symmetry_equiv_pos_site_id
 _symmetry_equiv_pos_as_xyz
  1  'x, y, z'
loop_
 _atom_site_type_symbol
 _atom_site_label
 _atom_site_symmetry_multiplicity
 _atom_site_fract_x
 _atom_site_fract_y
 _atom_site_fract_z
 _atom_site_occupancy
  O  O0  1  0.00000000  0.00000000  0.00000000  1
  Ti  Ti1  1  0.50000000  0.50000000  0.50000000  1
  Ti  Ti2  1  0.50000000  0.50000000  0.00000000  1
  P  P3  1  0.50000000  0.00000000  0.50000000  1
  P  P4  1  0.00000000  0.50000000  0.50000000  1
  Mo  Mo5  1  0.51547051  0.24977767  0.83526141  1
  Mo  Mo6  1  0.13754624  0.61895440  0.61044262  1
  Li  Li7  1  0.05016890  0.63679992  0.87329317  1
  Li  Li8  1  0.38924468  0.72714227  0.02820447  1
