# generated using pymatgen
data_Li2TiCu2I4N5
_symmetry_space_group_name_H-M   'P 1'
_cell_length_a   7.79326999
_cell_length_b   7.76336794
_cell_length_c   8.25739187
_cell_angle_alpha   91.15799742
_cell_angle_beta   91.47926915
_cell_angle_gamma   91.33910141
_symmetry_Int_Tables_number   1
_chemical_formula_structural   Li2TiCu2I4N5
_chemical_formula_sum   'Li2 Ti1 Cu2 I4 N5'
_cell_volume   499.17773326
_cell_formula_units_Z   1
loop_
 _symmetry_equiv_pos_site_id
 _symmetry_equiv_pos_as_xyz
  1  'x, y, z'
loop_
 _atom_site_type_symbol
 _atom_site_label
 _atom_site_symmetry_multiplicity
 _atom_site_fract_x
 _atom_site_fract_y
 _atom_site_fract_z
 _atom_site_occupancy
  Ti  Ti0  1  0.00000000  0.00000000  0.00000000  1
  I  I1  1  0.50000000  0.50000000  0.50000000  1
  I  I2  1  0.50000000  0.50000000  0.00000000  1
  I  I3  1  0.50000000  0.00000000  0.50000000  1
  I  I4  1  0.00000000  0.50000000  0.50000000  1
  Li  Li5  1  0.19068444  0.06035695  0.74180167  1
  Li  Li6  1  0.03294412  0.06669613  0.46824387  1
  N  N7  1  0.63857147  0.06050813  0.77357733  1
  N  N8  1  0.18035362  0.55609734  0.70059572  1
  N  N9  1  0.81534409  0.08744598  0.46869375  1
  N  N10  1  0.95827657  0.53674341  0.89630654  1
  N  N11  1  0.44169803  0.89829709  0.06123602  1
  Cu  Cu12  1  0.95890200  0.93467581  0.67098717  1
  Cu  Cu13  1  0.90862445  0.42184480  0.45346081  1
