# generated using pymatgen
data_Li2Ti(IO)4
_symmetry_space_group_name_H-M   'P 1'
_cell_length_a   8.56636000
_cell_length_b   8.31839228
_cell_length_c   7.70150426
_cell_angle_alpha   90.11751495
_cell_angle_beta   90.55910046
_cell_angle_gamma   90.13435097
_symmetry_Int_Tables_number   1
_chemical_formula_structural   Li2Ti(IO)4
_chemical_formula_sum   'Li2 Ti1 I4 O4'
_cell_volume   548.76761391
_cell_formula_units_Z   1
loop_
 _symmetry_equiv_pos_site_id
 _symmetry_equiv_pos_as_xyz
  1  'x, y, z'
loop_
 _atom_site_type_symbol
 _atom_site_label
 _atom_site_symmetry_multiplicity
 _atom_site_fract_x
 _atom_site_fract_y
 _atom_site_fract_z
 _atom_site_occupancy
  I  I0  1  0.00000000  0.00000000  0.00000000  1
  I  I1  1  0.50000000  0.50000000  0.50000000  1
  I  I2  1  0.25000000  0.25000000  0.25000000  1
  I  I3  1  0.75000000  0.25000000  0.00000000  1
  Li  Li4  1  0.25000000  0.75000000  0.50000000  1
  Li  Li5  1  0.26616209  0.88355696  0.91132202  1
  Ti  Ti6  1  0.71791345  0.67282376  0.88694197  1
  O  O7  1  0.88130133  0.83137042  0.50393281  1
  O  O8  1  0.17679810  0.48587027  0.37214647  1
  O  O9  1  0.80570433  0.80685592  0.59894312  1
  O  O10  1  0.50782505  0.11285649  0.63846717  1
