# generated using pymatgen
data_Li2Mn3Sb4P3N
_symmetry_space_group_name_H-M   'P 1'
_cell_length_a   6.49643895
_cell_length_b   6.88524718
_cell_length_c   6.81434650
_cell_angle_alpha   94.66466894
_cell_angle_beta   91.69399356
_cell_angle_gamma   94.15266476
_symmetry_Int_Tables_number   1
_chemical_formula_structural   Li2Mn3Sb4P3N
_chemical_formula_sum   'Li2 Mn3 Sb4 P3 N1'
_cell_volume   302.80302227
_cell_formula_units_Z   1
loop_
 _symmetry_equiv_pos_site_id
 _symmetry_equiv_pos_as_xyz
  1  'x, y, z'
loop_
 _atom_site_type_symbol
 _atom_site_label
 _atom_site_symmetry_multiplicity
 _atom_site_fract_x
 _atom_site_fract_y
 _atom_site_fract_z
 _atom_site_occupancy
  N  N0  1  0.12500000  0.00000000  0.25000000  1
  Mn  Mn1  1  0.00000000  0.00000000  0.00000000  1
  Mn  Mn2  1  0.37500000  0.00000000  0.25000000  1
  Mn  Mn3  1  0.25000000  0.25000000  0.25000000  1
  Sb  Sb4  1  0.00000000  0.25000000  0.12500000  1
  Sb  Sb5  1  0.79668229  0.20963622  0.55894151  1
  Sb  Sb6  1  0.72768983  0.16903908  0.98212166  1
  Sb  Sb7  1  0.00269189  0.30250053  0.90103502  1
  P  P8  1  0.15140970  0.48458272  0.55827207  1
  P  P9  1  0.58592562  0.02923274  0.15528247  1
  P  P10  1  0.30321808  0.94707637  0.25389465  1
  Li  Li11  1  0.45340193  0.52141761  0.37765448  1
  Li  Li12  1  0.72857178  0.02101278  0.23398965  1
