# generated using pymatgen
data_LiMn2Sb4P3
_symmetry_space_group_name_H-M   'P 1'
_cell_length_a   5.86008448
_cell_length_b   6.27174221
_cell_length_c   6.84809621
_cell_angle_alpha   95.30957602
_cell_angle_beta   92.50920548
_cell_angle_gamma   95.42446505
_symmetry_Int_Tables_number   1
_chemical_formula_structural   LiMn2Sb4P3
_chemical_formula_sum   'Li1 Mn2 Sb4 P3'
_cell_volume   249.13489958
_cell_formula_units_Z   1
loop_
 _symmetry_equiv_pos_site_id
 _symmetry_equiv_pos_as_xyz
  1  'x, y, z'
loop_
 _atom_site_type_symbol
 _atom_site_label
 _atom_site_symmetry_multiplicity
 _atom_site_fract_x
 _atom_site_fract_y
 _atom_site_fract_z
 _atom_site_occupancy
  Mn  Mn0  1  0.00000000  0.00000000  0.00000000  1
  Mn  Mn1  1  0.50000000  0.50000000  0.50000000  1
  Sb  Sb2  1  0.25000000  0.25000000  0.25000000  1
  Sb  Sb3  1  0.75000000  0.25000000  0.00000000  1
  Sb  Sb4  1  0.25000000  0.75000000  0.50000000  1
  Sb  Sb5  1  0.25759956  0.55001702  0.33362029  1
  P  P6  1  0.12413638  0.13688574  0.97418764  1
  P  P7  1  0.36858939  0.10530769  0.09578956  1
  P  P8  1  0.21025156  0.33618638  0.56011193  1
  Li  Li9  1  0.39667087  0.20565701  0.72775484  1
