# generated using pymatgen
data_Li3Zn2Ni2(IO)4
_symmetry_space_group_name_H-M   'P 1'
_cell_length_a   8.45980135
_cell_length_b   8.64638633
_cell_length_c   8.39447351
_cell_angle_alpha   90.00000000
_cell_angle_beta   90.00000000
_cell_angle_gamma   90.00000000
_symmetry_Int_Tables_number   1
_chemical_formula_structural   Li3Zn2Ni2(IO)4
_chemical_formula_sum   'Li3 Zn2 Ni2 I4 O4'
_cell_volume   614.02812577
_cell_formula_units_Z   1
loop_
 _symmetry_equiv_pos_site_id
 _symmetry_equiv_pos_as_xyz
  1  'x, y, z'
loop_
 _atom_site_type_symbol
 _atom_site_label
 _atom_site_symmetry_multiplicity
 _atom_site_fract_x
 _atom_site_fract_y
 _atom_site_fract_z
 _atom_site_occupancy
  I  I0  1  0.12500000  0.00000000  0.25000000  1
  I  I1  1  0.00000000  0.00000000  0.00000000  1
  I  I2  1  0.37500000  0.00000000  0.25000000  1
  I  I3  1  0.25000000  0.25000000  0.25000000  1
  Li  Li4  1  0.00000000  0.25000000  0.12500000  1
  Li  Li5  1  0.57821462  0.44819640  0.38951607  1
  Li  Li6  1  0.77067005  0.48583629  0.10344531  1
  Zn  Zn7  1  0.50683282  0.23643209  0.18505135  1
  Zn  Zn8  1  0.50227695  0.25304394  0.06488957  1
  Ni  Ni9  1  0.80290924  0.13733935  0.22660122  1
  Ni  Ni10  1  0.86366445  0.41595642  0.23674371  1
  O  O11  1  0.52332789  0.52832236  0.04776291  1
  O  O12  1  0.08771877  0.01393087  0.18368779  1
  O  O13  1  0.83988068  0.43034803  0.72729578  1
  O  O14  1  0.33365362  0.25505424  0.64980122  1
