# generated using pymatgen
data_Li3Ti2(OF)2
_symmetry_space_group_name_H-M   'P 1'
_cell_length_a   6.54009234
_cell_length_b   6.62526866
_cell_length_c   7.21377592
_cell_angle_alpha   96.71683597
_cell_angle_beta   99.36879480
_cell_angle_gamma   98.63250885
_symmetry_Int_Tables_number   1
_chemical_formula_structural   Li3Ti2(OF)2
_chemical_formula_sum   'Li3 Ti2 O2 F2'
_cell_volume   301.68862355
_cell_formula_units_Z   1
loop_
 _symmetry_equiv_pos_site_id
 _symmetry_equiv_pos_as_xyz
  1  'x, y, z'
loop_
 _atom_site_type_symbol
 _atom_site_label
 _atom_site_symmetry_multiplicity
 _atom_site_fract_x
 _atom_site_fract_y
 _atom_site_fract_z
 _atom_site_occupancy
  Li  Li0  1  0.00000000  0.00000000  0.00000000  1
  Li  Li1  1  0.50000000  0.50000000  0.50000000  1
  Li  Li2  1  0.50000000  0.50000000  0.00000000  1
  F  F3  1  0.50000000  0.00000000  0.50000000  1
  F  F4  1  0.00000000  0.50000000  0.50000000  1
  Ti  Ti5  1  0.08289922  0.32969624  0.29166927  1
  Ti  Ti6  1  0.05141468  0.13747866  0.09630136  1
  O  O7  1  0.21211840  0.60618873  0.22719525  1
  O  O8  1  0.25695847  0.35191572  0.75797715  1
