# generated using pymatgen
data_Li3TiI4(OF)3
_symmetry_space_group_name_H-M   'P 1'
_cell_length_a   6.00187425
_cell_length_b   5.75718984
_cell_length_c   6.95003627
_cell_angle_alpha   99.77332677
_cell_angle_beta   102.96936700
_cell_angle_gamma   99.18794529
_symmetry_Int_Tables_number   1
_chemical_formula_structural   Li3TiI4(OF)3
_chemical_formula_sum   'Li3 Ti1 I4 O3 F3'
_cell_volume   225.68501794
_cell_formula_units_Z   1
loop_
 _symmetry_equiv_pos_site_id
 _symmetry_equiv_pos_as_xyz
  1  'x, y, z'
loop_
 _atom_site_type_symbol
 _atom_site_label
 _atom_site_symmetry_multiplicity
 _atom_site_fract_x
 _atom_site_fract_y
 _atom_site_fract_z
 _atom_site_occupancy
  I  I0  1  0.00000000  0.00000000  0.00000000  1
  I  I1  1  0.50000000  0.50000000  0.50000000  1
  I  I2  1  0.50000000  0.50000000  0.00000000  1
  I  I3  1  0.50000000  0.00000000  0.50000000  1
  Li  Li4  1  0.00000000  0.50000000  0.50000000  1
  Li  Li5  1  0.94046565  0.86065524  0.85251021  1
  Li  Li6  1  0.79785637  0.50257381  0.23929041  1
  F  F7  1  0.49134518  0.11479342  0.53280609  1
  F  F8  1  0.85542124  0.43801140  0.58897336  1
  F  F9  1  0.72749982  0.10313855  0.42288574  1
  Ti  Ti10  1  0.32295445  0.98496133  0.92750404  1
  O  O11  1  0.08921644  0.42898971  0.32231656  1
  O  O12  1  0.82457038  0.26862575  0.80527108  1
  O  O13  1  0.23424984  0.24816556  0.28872283  1
