# generated using pymatgen
data_Li2Mn2Sb4P3
_symmetry_space_group_name_H-M   'P 1'
_cell_length_a   7.46364617
_cell_length_b   7.66765759
_cell_length_c   7.70425875
_cell_angle_alpha   90.94728293
_cell_angle_beta   91.12214415
_cell_angle_gamma   91.07812493
_symmetry_Int_Tables_number   1
_chemical_formula_structural   Li2Mn2Sb4P3
_chemical_formula_sum   'Li2 Mn2 Sb4 P3'
_cell_volume   440.67898913
_cell_formula_units_Z   1
loop_
 _symmetry_equiv_pos_site_id
 _symmetry_equiv_pos_as_xyz
  1  'x, y, z'
loop_
 _atom_site_type_symbol
 _atom_site_label
 _atom_site_symmetry_multiplicity
 _atom_site_fract_x
 _atom_site_fract_y
 _atom_site_fract_z
 _atom_site_occupancy
  Mn  Mn0  1  0.12500000  0.00000000  0.25000000  1
  Mn  Mn1  1  0.00000000  0.00000000  0.00000000  1
  Sb  Sb2  1  0.37500000  0.00000000  0.25000000  1
  Sb  Sb3  1  0.25000000  0.25000000  0.25000000  1
  Sb  Sb4  1  0.00000000  0.25000000  0.12500000  1
  Sb  Sb5  1  0.27738394  0.91671934  0.53223548  1
  P  P6  1  0.30516775  0.49267268  0.44528823  1
  P  P7  1  0.31881275  0.62902183  0.29884065  1
  P  P8  1  0.24674097  0.88211157  0.72956177  1
  Li  Li9  1  0.52898639  0.11472302  0.49691551  1
  Li  Li10  1  0.95929858  0.32057553  0.02724287  1
