# generated using pymatgen
data_Li2TiI4N5O2
_symmetry_space_group_name_H-M   'P 1'
_cell_length_a   8.03350721
_cell_length_b   7.84076442
_cell_length_c   8.01496854
_cell_angle_alpha   92.13433457
_cell_angle_beta   93.15725961
_cell_angle_gamma   92.19228233
_symmetry_Int_Tables_number   1
_chemical_formula_structural   Li2TiI4N5O2
_chemical_formula_sum   'Li2 Ti1 I4 N5 O2'
_cell_volume   503.32640941
_cell_formula_units_Z   1
loop_
 _symmetry_equiv_pos_site_id
 _symmetry_equiv_pos_as_xyz
  1  'x, y, z'
loop_
 _atom_site_type_symbol
 _atom_site_label
 _atom_site_symmetry_multiplicity
 _atom_site_fract_x
 _atom_site_fract_y
 _atom_site_fract_z
 _atom_site_occupancy
  I  I0  1  0.12500000  0.00000000  0.25000000  1
  I  I1  1  0.00000000  0.00000000  0.00000000  1
  I  I2  1  0.37500000  0.00000000  0.25000000  1
  I  I3  1  0.25000000  0.25000000  0.25000000  1
  Li  Li4  1  0.00000000  0.25000000  0.12500000  1
  Li  Li5  1  0.68580490  0.14047310  0.00966407  1
  Ti  Ti6  1  0.61610757  0.97115529  0.63887892  1
  O  O7  1  0.67614496  0.21110335  0.27729902  1
  O  O8  1  0.53486967  0.94921655  0.88436750  1
  N  N9  1  0.25641283  0.58480294  0.81035978  1
  N  N10  1  0.34198671  0.48484736  0.74133525  1
  N  N11  1  0.24710548  0.87580347  0.40469858  1
  N  N12  1  0.42269254  0.50093975  0.83077087  1
  N  N13  1  0.51043593  0.69804226  0.47280730  1
