# generated using pymatgen
data_Li3Ti2(P3O)2
_symmetry_space_group_name_H-M   'P 1'
_cell_length_a   6.62736881
_cell_length_b   6.69407810
_cell_length_c   7.24782430
_cell_angle_alpha   96.41211326
_cell_angle_beta   98.97122188
_cell_angle_gamma   98.23971875
_symmetry_Int_Tables_number   1
_chemical_formula_structural   Li3Ti2(P3O)2
_chemical_formula_sum   'Li3 Ti2 P6 O2'
_cell_volume   311.36294938
_cell_formula_units_Z   1
loop_
 _symmetry_equiv_pos_site_id
 _symmetry_equiv_pos_as_xyz
  1  'x, y, z'
loop_
 _atom_site_type_symbol
 _atom_site_label
 _atom_site_symmetry_multiplicity
 _atom_site_fract_x
 _atom_site_fract_y
 _atom_site_fract_z
 _atom_site_occupancy
  P  P0  1  0.12500000  0.12500000  0.12500000  1
  P  P1  1  0.50000000  0.50000000  0.50000000  1
  P  P2  1  0.25000000  0.25000000  0.25000000  1
  P  P3  1  0.75000000  0.75000000  0.75000000  1
  P  P4  1  0.98377449  0.26716599  0.62225258  1
  P  P5  1  0.45711779  0.32184946  0.00097324  1
  Li  Li6  1  0.22026097  0.39467415  0.03312903  1
  Li  Li7  1  0.27653512  0.74831753  0.32321348  1
  Li  Li8  1  0.12447691  0.01286458  0.59515763  1
  Ti  Ti9  1  0.87672361  0.17533636  0.25299218  1
  Ti  Ti10  1  0.96000809  0.17495496  0.83306753  1
  O  O11  1  0.89157347  0.87273144  0.31668508  1
  O  O12  1  0.44179829  0.99023257  0.16490982  1
