# generated using pymatgen
data_Li3LuTiP3N5
_symmetry_space_group_name_H-M   'P 1'
_cell_length_a   8.05412600
_cell_length_b   7.77977408
_cell_length_c   7.68701258
_cell_angle_alpha   91.31800277
_cell_angle_beta   90.97792929
_cell_angle_gamma   91.52679261
_symmetry_Int_Tables_number   1
_chemical_formula_structural   Li3LuTiP3N5
_chemical_formula_sum   'Li3 Lu1 Ti1 P3 N5'
_cell_volume   481.28895582
_cell_formula_units_Z   1
loop_
 _symmetry_equiv_pos_site_id
 _symmetry_equiv_pos_as_xyz
  1  'x, y, z'
loop_
 _atom_site_type_symbol
 _atom_site_label
 _atom_site_symmetry_multiplicity
 _atom_site_fract_x
 _atom_site_fract_y
 _atom_site_fract_z
 _atom_site_occupancy
  P  P0  1  0.00000000  0.00000000  0.00000000  1
  P  P1  1  0.50000000  0.50000000  0.50000000  1
  P  P2  1  0.25000000  0.25000000  0.25000000  1
  Lu  Lu3  1  0.75000000  0.25000000  0.00000000  1
  Li  Li4  1  0.25000000  0.75000000  0.50000000  1
  Li  Li5  1  0.65162104  0.97542231  0.76086370  1
  Li  Li6  1  0.27746577  0.28857531  0.27470661  1
  Ti  Ti7  1  0.81792198  0.08440717  0.83109205  1
  N  N8  1  0.37339307  0.02163511  0.18148866  1
  N  N9  1  0.03821056  0.77263809  0.61460996  1
  N  N10  1  0.81651688  0.37584362  0.67171076  1
  N  N11  1  0.21139428  0.15346785  0.78212462  1
  N  N12  1  0.70777138  0.72429256  0.32522876  1
