# generated using pymatgen
data_LiMn3Sb2Mo2P3
_symmetry_space_group_name_H-M   'P 1'
_cell_length_a   4.88779225
_cell_length_b   5.09119025
_cell_length_c   5.93826610
_cell_angle_alpha   97.72880362
_cell_angle_beta   90.89111529
_cell_angle_gamma   97.83065319
_symmetry_Int_Tables_number   1
_chemical_formula_structural   LiMn3Sb2Mo2P3
_chemical_formula_sum   'Li1 Mn3 Sb2 Mo2 P3'
_cell_volume   144.97761626
_cell_formula_units_Z   1
loop_
 _symmetry_equiv_pos_site_id
 _symmetry_equiv_pos_as_xyz
  1  'x, y, z'
loop_
 _atom_site_type_symbol
 _atom_site_label
 _atom_site_symmetry_multiplicity
 _atom_site_fract_x
 _atom_site_fract_y
 _atom_site_fract_z
 _atom_site_occupancy
  Mn  Mn0  1  0.00000000  0.00000000  0.00000000  1
  Mn  Mn1  1  0.50000000  0.50000000  0.50000000  1
  Mn  Mn2  1  0.25000000  0.25000000  0.25000000  1
  Sb  Sb3  1  0.75000000  0.25000000  0.00000000  1
  Sb  Sb4  1  0.25000000  0.75000000  0.50000000  1
  P  P5  1  0.74643533  0.82422263  0.65358020  1
  P  P6  1  0.93350722  0.68736502  0.29801239  1
  P  P7  1  0.38796865  0.88474181  0.00177529  1
  Mo  Mo8  1  0.48702900  0.53843044  0.80828159  1
  Mo  Mo9  1  0.45488065  0.77296425  0.39232019  1
  Li  Li10  1  0.68895879  0.19737542  0.86805141  1
