# generated using pymatgen
data_Li2MnSb4P3
_symmetry_space_group_name_H-M   'P 1'
_cell_length_a   5.30345300
_cell_length_b   5.37918547
_cell_length_c   7.29082709
_cell_angle_alpha   96.47740140
_cell_angle_beta   97.67308046
_cell_angle_gamma   97.37208255
_symmetry_Int_Tables_number   1
_chemical_formula_structural   Li2MnSb4P3
_chemical_formula_sum   'Li2 Mn1 Sb4 P3'
_cell_volume   202.63374391
_cell_formula_units_Z   1
loop_
 _symmetry_equiv_pos_site_id
 _symmetry_equiv_pos_as_xyz
  1  'x, y, z'
loop_
 _atom_site_type_symbol
 _atom_site_label
 _atom_site_symmetry_multiplicity
 _atom_site_fract_x
 _atom_site_fract_y
 _atom_site_fract_z
 _atom_site_occupancy
  Mn  Mn0  1  0.00000000  0.00000000  0.00000000  1
  Sb  Sb1  1  0.50000000  0.50000000  0.50000000  1
  Sb  Sb2  1  0.50000000  0.50000000  0.00000000  1
  Sb  Sb3  1  0.50000000  0.00000000  0.50000000  1
  Sb  Sb4  1  0.00000000  0.50000000  0.50000000  1
  P  P5  1  0.52309054  0.47591272  0.90196689  1
  P  P6  1  0.60612184  0.17938956  0.51395975  1
  P  P7  1  0.86140440  0.15644616  0.74531045  1
  Li  Li8  1  0.84177387  0.59998801  0.65599130  1
  Li  Li9  1  0.10017134  0.19624591  0.29310673  1
