# generated using pymatgen
data_Li3Zn2Ni2Te6O5
_symmetry_space_group_name_H-M   'P 1'
_cell_length_a   8.45769112
_cell_length_b   8.63951159
_cell_length_c   8.41260647
_cell_angle_alpha   90.00000000
_cell_angle_beta   90.00000000
_cell_angle_gamma   90.00000000
_symmetry_Int_Tables_number   1
_chemical_formula_structural   Li3Zn2Ni2Te6O5
_chemical_formula_sum   'Li3 Zn2 Ni2 Te6 O5'
_cell_volume   614.71185034
_cell_formula_units_Z   1
loop_
 _symmetry_equiv_pos_site_id
 _symmetry_equiv_pos_as_xyz
  1  'x, y, z'
loop_
 _atom_site_type_symbol
 _atom_site_label
 _atom_site_symmetry_multiplicity
 _atom_site_fract_x
 _atom_site_fract_y
 _atom_site_fract_z
 _atom_site_occupancy
  Li  Li0  1  0.12500000  0.00000000  0.25000000  1
  Li  Li1  1  0.00000000  0.00000000  0.00000000  1
  Li  Li2  1  0.37500000  0.00000000  0.25000000  1
  Zn  Zn3  1  0.25000000  0.25000000  0.25000000  1
  Zn  Zn4  1  0.00000000  0.25000000  0.12500000  1
  Te  Te5  1  0.68462627  0.84902176  0.94256979  1
  Te  Te6  1  0.18094435  0.25919020  0.47378498  1
  Te  Te7  1  0.87174107  0.85120199  0.82011321  1
  Te  Te8  1  0.17204062  0.91135135  0.85434899  1
  Te  Te9  1  0.97261191  0.83728821  0.61162648  1
  Te  Te10  1  0.25466214  0.19263950  0.33387642  1
  Ni  Ni11  1  0.68862481  0.29926507  0.96580512  1
  Ni  Ni12  1  0.57520564  0.32841305  0.38067898  1
  O  O13  1  0.49721336  0.42653696  0.37179305  1
  O  O14  1  0.12820035  0.05989578  0.56146944  1
  O  O15  1  0.45968412  0.79355717  0.35483437  1
  O  O16  1  0.31548157  0.77013486  0.89955103  1
  O  O17  1  0.32507612  0.90538165  0.62986266  1
