# generated using pymatgen
data_Li2MnSb4P3
_symmetry_space_group_name_H-M   'P 1'
_cell_length_a   6.19215219
_cell_length_b   6.61853201
_cell_length_c   7.34803194
_cell_angle_alpha   93.78841499
_cell_angle_beta   94.48772760
_cell_angle_gamma   94.31168401
_symmetry_Int_Tables_number   1
_chemical_formula_structural   Li2MnSb4P3
_chemical_formula_sum   'Li2 Mn1 Sb4 P3'
_cell_volume   298.58589710
_cell_formula_units_Z   1
loop_
 _symmetry_equiv_pos_site_id
 _symmetry_equiv_pos_as_xyz
  1  'x, y, z'
loop_
 _atom_site_type_symbol
 _atom_site_label
 _atom_site_symmetry_multiplicity
 _atom_site_fract_x
 _atom_site_fract_y
 _atom_site_fract_z
 _atom_site_occupancy
  Mn  Mn0  1  0.00000000  0.00000000  0.00000000  1
  Sb  Sb1  1  0.50000000  0.50000000  0.50000000  1
  Sb  Sb2  1  0.50000000  0.50000000  0.00000000  1
  Sb  Sb3  1  0.50000000  0.00000000  0.50000000  1
  Sb  Sb4  1  0.00000000  0.50000000  0.50000000  1
  P  P5  1  0.80470300  0.09919320  0.70287520  1
  P  P6  1  0.22821891  0.38547032  0.34294185  1
  P  P7  1  0.10450992  0.08847773  0.54024755  1
  Li  Li8  1  0.65865646  0.62667518  0.20601599  1
  Li  Li9  1  0.67090234  0.89296500  0.44616440  1
