# generated using pymatgen
data_Li2MnSb4P3
_symmetry_space_group_name_H-M   'P 1'
_cell_length_a   3.93866693
_cell_length_b   4.07768582
_cell_length_c   5.73984717
_cell_angle_alpha   105.22571481
_cell_angle_beta   92.98532782
_cell_angle_gamma   104.74587041
_symmetry_Int_Tables_number   1
_chemical_formula_structural   Li2MnSb4P3
_chemical_formula_sum   'Li2 Mn1 Sb4 P3'
_cell_volume   85.31869994
_cell_formula_units_Z   1
loop_
 _symmetry_equiv_pos_site_id
 _symmetry_equiv_pos_as_xyz
  1  'x, y, z'
loop_
 _atom_site_type_symbol
 _atom_site_label
 _atom_site_symmetry_multiplicity
 _atom_site_fract_x
 _atom_site_fract_y
 _atom_site_fract_z
 _atom_site_occupancy
  Mn  Mn0  1  0.12500000  0.00000000  0.25000000  1
  Sb  Sb1  1  0.00000000  0.00000000  0.00000000  1
  Sb  Sb2  1  0.37500000  0.00000000  0.25000000  1
  Sb  Sb3  1  0.25000000  0.25000000  0.25000000  1
  Sb  Sb4  1  0.00000000  0.25000000  0.12500000  1
  P  P5  1  0.13494361  0.76982994  0.56507646  1
  P  P6  1  0.08636924  0.83613683  0.45265415  1
  P  P7  1  0.93025174  0.94719779  0.25818724  1
  Li  Li8  1  0.42056885  0.35756602  0.67327513  1
  Li  Li9  1  0.74574357  0.49262869  0.35566168  1
