# generated using pymatgen
data_Li3Ni2As6O5
_symmetry_space_group_name_H-M   'P 1'
_cell_length_a   8.20638510
_cell_length_b   8.07765315
_cell_length_c   8.62174387
_cell_angle_alpha   90.10011235
_cell_angle_beta   90.47630417
_cell_angle_gamma   90.11445515
_symmetry_Int_Tables_number   1
_chemical_formula_structural   Li3Ni2As6O5
_chemical_formula_sum   'Li3 Ni2 As6 O5'
_cell_volume   571.49924674
_cell_formula_units_Z   1
loop_
 _symmetry_equiv_pos_site_id
 _symmetry_equiv_pos_as_xyz
  1  'x, y, z'
loop_
 _atom_site_type_symbol
 _atom_site_label
 _atom_site_symmetry_multiplicity
 _atom_site_fract_x
 _atom_site_fract_y
 _atom_site_fract_z
 _atom_site_occupancy
  Li  Li0  1  0.00000000  0.00000000  0.00000000  1
  Li  Li1  1  0.50000000  0.50000000  0.50000000  1
  Li  Li2  1  0.50000000  0.50000000  0.00000000  1
  Ni  Ni3  1  0.50000000  0.00000000  0.50000000  1
  Ni  Ni4  1  0.00000000  0.50000000  0.50000000  1
  As  As5  1  0.65665394  0.01985409  0.68560193  1
  As  As6  1  0.46633896  0.86536322  0.74239982  1
  As  As7  1  0.51881835  0.92321837  0.22627017  1
  As  As8  1  0.94368149  0.25210886  0.99937787  1
  As  As9  1  0.68651478  0.23206526  0.19982890  1
  As  As10  1  0.40487470  0.67850422  0.49042625  1
  O  O11  1  0.23490531  0.73301846  0.85829936  1
  O  O12  1  0.40577666  0.09895272  0.25210810  1
  O  O13  1  0.86927747  0.21686559  0.88734263  1
  O  O14  1  0.33331009  0.11902117  0.92944150  1
  O  O15  1  0.54593888  0.29843471  0.52520013  1
