# generated using pymatgen
data_Li2P3N
_symmetry_space_group_name_H-M   'P 1'
_cell_length_a   4.40719378
_cell_length_b   4.60426761
_cell_length_c   5.40452269
_cell_angle_alpha   101.61546155
_cell_angle_beta   93.06135563
_cell_angle_gamma   99.64215926
_symmetry_Int_Tables_number   1
_chemical_formula_structural   Li2P3N
_chemical_formula_sum   'Li2 P3 N1'
_cell_volume   105.47264490
_cell_formula_units_Z   1
loop_
 _symmetry_equiv_pos_site_id
 _symmetry_equiv_pos_as_xyz
  1  'x, y, z'
loop_
 _atom_site_type_symbol
 _atom_site_label
 _atom_site_symmetry_multiplicity
 _atom_site_fract_x
 _atom_site_fract_y
 _atom_site_fract_z
 _atom_site_occupancy
  P  P0  1  0.12500000  0.00000000  0.25000000  1
  P  P1  1  0.00000000  0.00000000  0.00000000  1
  P  P2  1  0.37500000  0.00000000  0.25000000  1
  Li  Li3  1  0.25000000  0.25000000  0.25000000  1
  Li  Li4  1  0.00000000  0.25000000  0.12500000  1
  N  N5  1  0.19607665  0.47901629  0.86005562  1
