# generated using pymatgen
data_Li3Ni2O3
_symmetry_space_group_name_H-M   'P 1'
_cell_length_a   8.43166770
_cell_length_b   8.12271802
_cell_length_c   7.88479214
_cell_angle_alpha   90.00000000
_cell_angle_beta   90.00000000
_cell_angle_gamma   90.00000000
_symmetry_Int_Tables_number   1
_chemical_formula_structural   Li3Ni2O3
_chemical_formula_sum   'Li3 Ni2 O3'
_cell_volume   540.01411017
_cell_formula_units_Z   1
loop_
 _symmetry_equiv_pos_site_id
 _symmetry_equiv_pos_as_xyz
  1  'x, y, z'
loop_
 _atom_site_type_symbol
 _atom_site_label
 _atom_site_symmetry_multiplicity
 _atom_site_fract_x
 _atom_site_fract_y
 _atom_site_fract_z
 _atom_site_occupancy
  Li  Li0  1  0.00000000  0.00000000  0.00000000  1
  Li  Li1  1  0.50000000  0.50000000  0.50000000  1
  Li  Li2  1  0.50000000  0.50000000  0.00000000  1
  Ni  Ni3  1  0.50000000  0.00000000  0.50000000  1
  Ni  Ni4  1  0.00000000  0.50000000  0.50000000  1
  O  O5  1  0.71853450  0.68667082  0.57097300  1
  O  O6  1  0.34393151  0.63459048  0.45868820  1
  O  O7  1  0.14485444  0.09361662  0.99492920  1
