# generated using pymatgen
data_Li2Mn2Sb4P3
_symmetry_space_group_name_H-M   'P 1'
_cell_length_a   5.36711811
_cell_length_b   5.72912435
_cell_length_c   6.60225383
_cell_angle_alpha   99.22685564
_cell_angle_beta   92.16656562
_cell_angle_gamma   99.28086452
_symmetry_Int_Tables_number   1
_chemical_formula_structural   Li2Mn2Sb4P3
_chemical_formula_sum   'Li2 Mn2 Sb4 P3'
_cell_volume   197.33932534
_cell_formula_units_Z   1
loop_
 _symmetry_equiv_pos_site_id
 _symmetry_equiv_pos_as_xyz
  1  'x, y, z'
loop_
 _atom_site_type_symbol
 _atom_site_label
 _atom_site_symmetry_multiplicity
 _atom_site_fract_x
 _atom_site_fract_y
 _atom_site_fract_z
 _atom_site_occupancy
  Mn  Mn0  1  0.00000000  0.00000000  0.00000000  1
  Mn  Mn1  1  0.50000000  0.50000000  0.50000000  1
  Sb  Sb2  1  0.25000000  0.25000000  0.25000000  1
  Sb  Sb3  1  0.75000000  0.25000000  0.00000000  1
  Sb  Sb4  1  0.25000000  0.75000000  0.50000000  1
  Sb  Sb5  1  0.52687096  0.92178084  0.54200126  1
  P  P6  1  0.73852677  0.63261401  0.39969855  1
  P  P7  1  0.82405559  0.45797341  0.76634461  1
  P  P8  1  0.82671854  0.31092797  0.07210701  1
  Li  Li9  1  0.64058768  0.00466252  0.51310053  1
  Li  Li10  1  0.58722375  0.47001035  0.69379995  1
