# generated using pymatgen
data_Li3I5N5Cl2
_symmetry_space_group_name_H-M   'P 1'
_cell_length_a   6.64333427
_cell_length_b   6.23874859
_cell_length_c   8.04667347
_cell_angle_alpha   97.08018448
_cell_angle_beta   98.18067342
_cell_angle_gamma   96.70304897
_symmetry_Int_Tables_number   1
_chemical_formula_structural   Li3I5N5Cl2
_chemical_formula_sum   'Li3 I5 N5 Cl2'
_cell_volume   324.51772429
_cell_formula_units_Z   1
loop_
 _symmetry_equiv_pos_site_id
 _symmetry_equiv_pos_as_xyz
  1  'x, y, z'
loop_
 _atom_site_type_symbol
 _atom_site_label
 _atom_site_symmetry_multiplicity
 _atom_site_fract_x
 _atom_site_fract_y
 _atom_site_fract_z
 _atom_site_occupancy
  I  I0  1  0.12500000  0.12500000  0.12500000  1
  I  I1  1  0.50000000  0.50000000  0.50000000  1
  I  I2  1  0.25000000  0.25000000  0.25000000  1
  I  I3  1  0.75000000  0.75000000  0.75000000  1
  I  I4  1  0.60027593  0.43368126  0.80828596  1
  Li  Li5  1  0.14928345  0.81021174  0.06691779  1
  Li  Li6  1  0.13755300  0.78859611  0.82403908  1
  Li  Li7  1  0.32911627  0.46838018  0.95535235  1
  Cl  Cl8  1  0.84834495  0.25495547  0.45376376  1
  Cl  Cl9  1  0.09318892  0.68301517  0.45551533  1
  N  N10  1  0.05283287  0.31293029  0.04825934  1
  N  N11  1  0.58021819  0.99956800  0.11922988  1
  N  N12  1  0.16888341  0.34872181  0.93516229  1
  N  N13  1  0.79244402  0.59295424  0.82395054  1
  N  N14  1  0.20257334  0.34900230  0.31325883  1
