# generated using pymatgen
data_Li3Ni2P6F2
_symmetry_space_group_name_H-M   'P 1'
_cell_length_a   8.38028792
_cell_length_b   8.12528802
_cell_length_c   8.51447573
_cell_angle_alpha   90.11668835
_cell_angle_beta   90.55516773
_cell_angle_gamma   90.13340594
_symmetry_Int_Tables_number   1
_chemical_formula_structural   Li3Ni2P6F2
_chemical_formula_sum   'Li3 Ni2 P6 F2'
_cell_volume   579.73981890
_cell_formula_units_Z   1
loop_
 _symmetry_equiv_pos_site_id
 _symmetry_equiv_pos_as_xyz
  1  'x, y, z'
loop_
 _atom_site_type_symbol
 _atom_site_label
 _atom_site_symmetry_multiplicity
 _atom_site_fract_x
 _atom_site_fract_y
 _atom_site_fract_z
 _atom_site_occupancy
  P  P0  1  0.00000000  0.00000000  0.00000000  1
  P  P1  1  0.50000000  0.50000000  0.50000000  1
  P  P2  1  0.50000000  0.50000000  0.00000000  1
  P  P3  1  0.50000000  0.00000000  0.50000000  1
  P  P4  1  0.00000000  0.50000000  0.50000000  1
  P  P5  1  0.16957883  0.47698347  0.08658720  1
  Li  Li6  1  0.68931113  0.63491121  0.01148048  1
  Li  Li7  1  0.24536224  0.59189046  0.32149492  1
  Li  Li8  1  0.49696358  0.46294234  0.37398634  1
  F  F9  1  0.05653395  0.87623882  0.04929727  1
  F  F10  1  0.72492619  0.62811288  0.39294191  1
  Ni  Ni11  1  0.81154392  0.56336254  0.69679342  1
  Ni  Ni12  1  0.67956415  0.63710321  0.22107531  1
