# generated using pymatgen
data_LiSe3Br2O3F2
_symmetry_space_group_name_H-M   'P 1'
_cell_length_a   7.83154378
_cell_length_b   8.27469640
_cell_length_c   8.42475563
_cell_angle_alpha   90.22443960
_cell_angle_beta   91.06781546
_cell_angle_gamma   90.25659439
_symmetry_Int_Tables_number   1
_chemical_formula_structural   LiSe3Br2O3F2
_chemical_formula_sum   'Li1 Se3 Br2 O3 F2'
_cell_volume   545.85023609
_cell_formula_units_Z   1
loop_
 _symmetry_equiv_pos_site_id
 _symmetry_equiv_pos_as_xyz
  1  'x, y, z'
loop_
 _atom_site_type_symbol
 _atom_site_label
 _atom_site_symmetry_multiplicity
 _atom_site_fract_x
 _atom_site_fract_y
 _atom_site_fract_z
 _atom_site_occupancy
  Li  Li0  1  0.12500000  0.00000000  0.25000000  1
  Br  Br1  1  0.00000000  0.00000000  0.00000000  1
  Br  Br2  1  0.37500000  0.00000000  0.25000000  1
  F  F3  1  0.25000000  0.25000000  0.25000000  1
  F  F4  1  0.00000000  0.25000000  0.12500000  1
  Se  Se5  1  0.58983936  0.16421351  0.62685249  1
  Se  Se6  1  0.27515800  0.35190224  0.55992752  1
  Se  Se7  1  0.53185917  0.95619662  0.89840099  1
  O  O8  1  0.51439295  0.21962861  0.03741443  1
  O  O9  1  0.61741936  0.53588280  0.72124184  1
  O  O10  1  0.76918182  0.19851375  0.15852728  1
