# generated using pymatgen
data_Li3Ti2(PO)2
_symmetry_space_group_name_H-M   'P 1'
_cell_length_a   4.12092162
_cell_length_b   4.53836434
_cell_length_c   5.01590840
_cell_angle_alpha   96.28049852
_cell_angle_beta   92.43021426
_cell_angle_gamma   100.26396361
_symmetry_Int_Tables_number   1
_chemical_formula_structural   Li3Ti2(PO)2
_chemical_formula_sum   'Li3 Ti2 P2 O2'
_cell_volume   91.56964156
_cell_formula_units_Z   1
loop_
 _symmetry_equiv_pos_site_id
 _symmetry_equiv_pos_as_xyz
  1  'x, y, z'
loop_
 _atom_site_type_symbol
 _atom_site_label
 _atom_site_symmetry_multiplicity
 _atom_site_fract_x
 _atom_site_fract_y
 _atom_site_fract_z
 _atom_site_occupancy
  Ti  Ti0  1  0.00000000  0.00000000  0.00000000  1
  Ti  Ti1  1  0.33300000  0.66700000  0.25000000  1
  P  P2  1  0.66700000  0.33300000  0.50000000  1
  P  P3  1  0.00000000  0.00000000  0.75000000  1
  O  O4  1  0.46470544  0.34673651  0.65943614  1
  O  O5  1  0.49785731  0.69921975  0.56034780  1
  Li  Li6  1  0.66756586  0.44129643  0.04355368  1
  Li  Li7  1  0.81107590  0.94271350  0.48444584  1
  Li  Li8  1  0.92955610  0.02455224  0.51669313  1
