# generated using pymatgen
data_Li3TiCu2(I2O)2
_symmetry_space_group_name_H-M   'P 1'
_cell_length_a   5.60072085
_cell_length_b   5.62661171
_cell_length_c   6.79257077
_cell_angle_alpha   98.98334768
_cell_angle_beta   101.54920414
_cell_angle_gamma   100.41437808
_symmetry_Int_Tables_number   1
_chemical_formula_structural   Li3TiCu2(I2O)2
_chemical_formula_sum   'Li3 Ti1 Cu2 I4 O2'
_cell_volume   202.11533030
_cell_formula_units_Z   1
loop_
 _symmetry_equiv_pos_site_id
 _symmetry_equiv_pos_as_xyz
  1  'x, y, z'
loop_
 _atom_site_type_symbol
 _atom_site_label
 _atom_site_symmetry_multiplicity
 _atom_site_fract_x
 _atom_site_fract_y
 _atom_site_fract_z
 _atom_site_occupancy
  I  I0  1  0.12500000  0.00000000  0.25000000  1
  I  I1  1  0.00000000  0.00000000  0.00000000  1
  I  I2  1  0.37500000  0.00000000  0.25000000  1
  I  I3  1  0.25000000  0.25000000  0.25000000  1
  Li  Li4  1  0.00000000  0.25000000  0.12500000  1
  Li  Li5  1  0.18967282  0.84508507  0.96719539  1
  Li  Li6  1  0.52125180  0.61451709  0.47468645  1
  Cu  Cu7  1  0.48503830  0.15181470  0.09441553  1
  Cu  Cu8  1  0.73334170  0.95599605  0.60759959  1
  Ti  Ti9  1  0.41447906  0.52450123  0.17884060  1
  O  O10  1  0.23645957  0.49378098  0.73374671  1
  O  O11  1  0.63246525  0.84581808  0.25700890  1
