# generated using pymatgen
data_Li3Cu2Ni2(As3P4)2
_symmetry_space_group_name_H-M   'P 1'
_cell_length_a   5.67494849
_cell_length_b   5.32032201
_cell_length_c   7.81449955
_cell_angle_alpha   97.67319916
_cell_angle_beta   98.06749678
_cell_angle_gamma   97.10316476
_symmetry_Int_Tables_number   1
_chemical_formula_structural   Li3Cu2Ni2(As3P4)2
_chemical_formula_sum   'Li3 Cu2 Ni2 As6 P8'
_cell_volume   229.06225203
_cell_formula_units_Z   1
loop_
 _symmetry_equiv_pos_site_id
 _symmetry_equiv_pos_as_xyz
  1  'x, y, z'
loop_
 _atom_site_type_symbol
 _atom_site_label
 _atom_site_symmetry_multiplicity
 _atom_site_fract_x
 _atom_site_fract_y
 _atom_site_fract_z
 _atom_site_occupancy
  Ni  Ni0  1  0.00000000  0.00000000  0.00000000  1
  Ni  Ni1  1  0.50000000  0.50000000  0.50000000  1
  P  P2  1  0.50000000  0.50000000  0.00000000  1
  P  P3  1  0.50000000  0.00000000  0.50000000  1
  P  P4  1  0.00000000  0.50000000  0.50000000  1
  P  P5  1  0.16137421  0.28874230  0.66215027  1
  P  P6  1  0.25280796  0.93525897  0.00812632  1
  P  P7  1  0.57458654  0.15616391  0.01972183  1
  P  P8  1  0.26103613  0.19356972  0.48684352  1
  P  P9  1  0.65278234  0.59124459  0.04829102  1
  As  As10  1  0.11722256  0.93811737  0.48584257  1
  As  As11  1  0.99313994  0.96287644  0.62096277  1
  As  As12  1  0.29241625  0.69271602  0.71167628  1
  As  As13  1  0.37019549  0.74873882  0.67457924  1
  As  As14  1  0.52474619  0.68277471  0.35144697  1
  As  As15  1  0.63941685  0.69183021  0.52391707  1
  Li  Li16  1  0.37351772  0.46233764  0.37121578  1
  Li  Li17  1  0.06330536  0.48626475  0.50797715  1
  Li  Li18  1  0.28011654  0.91518131  0.69727151  1
  Cu  Cu19  1  0.75484472  0.99899791  0.44578766  1
  Cu  Cu20  1  0.14270941  0.30373369  0.38195998  1
