# generated using pymatgen
data_Li2I4N5(ClO2)2
_symmetry_space_group_name_H-M   'P 1'
_cell_length_a   8.44745371
_cell_length_b   8.22888252
_cell_length_c   8.13951793
_cell_angle_alpha   92.50889793
_cell_angle_beta   93.12707786
_cell_angle_gamma   92.55632151
_symmetry_Int_Tables_number   1
_chemical_formula_structural   Li2I4N5(ClO2)2
_chemical_formula_sum   'Li2 I4 N5 Cl2 O4'
_cell_volume   563.79260017
_cell_formula_units_Z   1
loop_
 _symmetry_equiv_pos_site_id
 _symmetry_equiv_pos_as_xyz
  1  'x, y, z'
loop_
 _atom_site_type_symbol
 _atom_site_label
 _atom_site_symmetry_multiplicity
 _atom_site_fract_x
 _atom_site_fract_y
 _atom_site_fract_z
 _atom_site_occupancy
  I  I0  1  0.12500000  0.00000000  0.25000000  1
  I  I1  1  0.00000000  0.00000000  0.00000000  1
  I  I2  1  0.37500000  0.00000000  0.25000000  1
  I  I3  1  0.25000000  0.25000000  0.25000000  1
  Li  Li4  1  0.00000000  0.25000000  0.12500000  1
  Li  Li5  1  0.44843772  0.20162792  0.16967293  1
  Cl  Cl6  1  0.48694284  0.76979106  0.97226648  1
  Cl  Cl7  1  0.55252842  0.41220958  0.45493197  1
  O  O8  1  0.35979557  0.30920326  0.26591525  1
  O  O9  1  0.39442523  0.22531797  0.38700215  1
  O  O10  1  0.78643356  0.88564318  0.99591149  1
  O  O11  1  0.72626086  0.26326450  0.46725151  1
  N  N12  1  0.68562623  0.19106678  0.71554078  1
  N  N13  1  0.47050470  0.81417685  0.84418882  1
  N  N14  1  0.92425981  0.64752619  0.98339423  1
  N  N15  1  0.03450105  0.41732853  0.94652790  1
  N  N16  1  0.67950127  0.74604617  0.99302972  1
