# generated using pymatgen
data_LiTi2FeO3
_symmetry_space_group_name_H-M   'P 1'
_cell_length_a   5.14384853
_cell_length_b   4.31018406
_cell_length_c   7.41638854
_cell_angle_alpha   91.72292914
_cell_angle_beta   98.19717359
_cell_angle_gamma   91.96976807
_symmetry_Int_Tables_number   1
_chemical_formula_structural   LiTi2FeO3
_chemical_formula_sum   'Li1 Ti2 Fe1 O3'
_cell_volume   162.55052077
_cell_formula_units_Z   1
loop_
 _symmetry_equiv_pos_site_id
 _symmetry_equiv_pos_as_xyz
  1  'x, y, z'
loop_
 _atom_site_type_symbol
 _atom_site_label
 _atom_site_symmetry_multiplicity
 _atom_site_fract_x
 _atom_site_fract_y
 _atom_site_fract_z
 _atom_site_occupancy
  Li  Li0  1  0.12500000  0.12500000  0.12500000  1
  Fe  Fe1  1  0.50000000  0.50000000  0.50000000  1
  Ti  Ti2  1  0.25000000  0.25000000  0.25000000  1
  Ti  Ti3  1  0.75000000  0.75000000  0.75000000  1
  O  O4  1  0.94691288  0.40110013  0.18563916  1
  O  O5  1  0.48881047  0.85257575  0.73176554  1
  O  O6  1  0.39936644  0.56880297  0.09306890  1
