# generated using pymatgen
data_Li2Sb4Mo2P3
_symmetry_space_group_name_H-M   'P 1'
_cell_length_a   4.11817979
_cell_length_b   4.29863894
_cell_length_c   6.06708704
_cell_angle_alpha   104.44838326
_cell_angle_beta   93.38012249
_cell_angle_gamma   104.53121326
_symmetry_Int_Tables_number   1
_chemical_formula_structural   Li2Sb4Mo2P3
_chemical_formula_sum   'Li2 Sb4 Mo2 P3'
_cell_volume   99.82895019
_cell_formula_units_Z   1
loop_
 _symmetry_equiv_pos_site_id
 _symmetry_equiv_pos_as_xyz
  1  'x, y, z'
loop_
 _atom_site_type_symbol
 _atom_site_label
 _atom_site_symmetry_multiplicity
 _atom_site_fract_x
 _atom_site_fract_y
 _atom_site_fract_z
 _atom_site_occupancy
  Sb  Sb0  1  0.12500000  0.12500000  0.12500000  1
  Sb  Sb1  1  0.50000000  0.50000000  0.50000000  1
  Sb  Sb2  1  0.25000000  0.25000000  0.25000000  1
  Sb  Sb3  1  0.75000000  0.75000000  0.75000000  1
  P  P4  1  0.70748625  0.92354454  0.61612622  1
  P  P5  1  0.52352826  0.90994750  0.80886430  1
  P  P6  1  0.71019692  0.50741433  0.46621291  1
  Mo  Mo7  1  0.37817116  0.75014721  0.02033647  1
  Mo  Mo8  1  0.53188060  0.02609500  0.43427733  1
  Li  Li9  1  0.13491094  0.56632748  0.96103566  1
  Li  Li10  1  0.02073327  0.24658545  0.20959463  1
