# generated using pymatgen
data_Li3Ti3Cu2(As3O)2
_symmetry_space_group_name_H-M   'P 1'
_cell_length_a   5.91275556
_cell_length_b   6.24550410
_cell_length_c   7.28920897
_cell_angle_alpha   97.79188428
_cell_angle_beta   101.16986565
_cell_angle_gamma   100.00143753
_symmetry_Int_Tables_number   1
_chemical_formula_structural   Li3Ti3Cu2(As3O)2
_chemical_formula_sum   'Li3 Ti3 Cu2 As6 O2'
_cell_volume   256.04481612
_cell_formula_units_Z   1
loop_
 _symmetry_equiv_pos_site_id
 _symmetry_equiv_pos_as_xyz
  1  'x, y, z'
loop_
 _atom_site_type_symbol
 _atom_site_label
 _atom_site_symmetry_multiplicity
 _atom_site_fract_x
 _atom_site_fract_y
 _atom_site_fract_z
 _atom_site_occupancy
  Li  Li0  1  0.00000000  0.00000000  0.00000000  1
  Li  Li1  1  0.50000000  0.50000000  0.50000000  1
  Li  Li2  1  0.25000000  0.25000000  0.25000000  1
  Ti  Ti3  1  0.75000000  0.25000000  0.00000000  1
  Ti  Ti4  1  0.25000000  0.75000000  0.50000000  1
  Ti  Ti5  1  0.27847503  0.86143638  0.11950531  1
  As  As6  1  0.30158004  0.21450384  0.28183566  1
  As  As7  1  0.00297768  0.87963246  0.23132336  1
  As  As8  1  0.15099944  0.44771114  0.85240559  1
  As  As9  1  0.09686865  0.07102431  0.95441786  1
  As  As10  1  0.60152586  0.25808046  0.19812596  1
  As  As11  1  0.08954129  0.34138750  0.88409352  1
  O  O12  1  0.22773956  0.97402870  0.27650021  1
  O  O13  1  0.10430470  0.82098658  0.99915839  1
  Cu  Cu14  1  0.75940907  0.86944619  0.36725394  1
  Cu  Cu15  1  0.18009774  0.46907544  0.96344525  1
