# generated using pymatgen
data_LiMn2(Sb2P)2
_symmetry_space_group_name_H-M   'P 1'
_cell_length_a   5.48101732
_cell_length_b   5.85556093
_cell_length_c   6.65496025
_cell_angle_alpha   96.22909816
_cell_angle_beta   95.05961190
_cell_angle_gamma   95.25933683
_symmetry_Int_Tables_number   1
_chemical_formula_structural   LiMn2(Sb2P)2
_chemical_formula_sum   'Li1 Mn2 Sb4 P2'
_cell_volume   210.39066153
_cell_formula_units_Z   1
loop_
 _symmetry_equiv_pos_site_id
 _symmetry_equiv_pos_as_xyz
  1  'x, y, z'
loop_
 _atom_site_type_symbol
 _atom_site_label
 _atom_site_symmetry_multiplicity
 _atom_site_fract_x
 _atom_site_fract_y
 _atom_site_fract_z
 _atom_site_occupancy
  Mn  Mn0  1  0.00000000  0.00000000  0.00000000  1
  Mn  Mn1  1  0.33300000  0.66700000  0.25000000  1
  Sb  Sb2  1  0.66700000  0.33300000  0.50000000  1
  Sb  Sb3  1  0.00000000  0.00000000  0.75000000  1
  Sb  Sb4  1  0.65933807  0.08072030  0.33316160  1
  Sb  Sb5  1  0.11115181  0.67794416  0.84977842  1
  P  P6  1  0.89517364  0.08677364  0.32724597  1
  P  P7  1  0.17519760  0.67826254  0.63033988  1
  Li  Li8  1  0.82655744  0.64587844  0.30133196  1
