# generated using pymatgen
data_LiNb2As6F3
_symmetry_space_group_name_H-M   'P 1'
_cell_length_a   6.99548012
_cell_length_b   6.99751711
_cell_length_c   8.09849554
_cell_angle_alpha   90.68711140
_cell_angle_beta   93.26906738
_cell_angle_gamma   90.78555181
_symmetry_Int_Tables_number   1
_chemical_formula_structural   LiNb2As6F3
_chemical_formula_sum   'Li1 Nb2 As6 F3'
_cell_volume   395.71469982
_cell_formula_units_Z   1
loop_
 _symmetry_equiv_pos_site_id
 _symmetry_equiv_pos_as_xyz
  1  'x, y, z'
loop_
 _atom_site_type_symbol
 _atom_site_label
 _atom_site_symmetry_multiplicity
 _atom_site_fract_x
 _atom_site_fract_y
 _atom_site_fract_z
 _atom_site_occupancy
  F  F0  1  0.00000000  0.00000000  0.00000000  1
  F  F1  1  0.50000000  0.50000000  0.50000000  1
  F  F2  1  0.25000000  0.25000000  0.25000000  1
  As  As3  1  0.75000000  0.25000000  0.00000000  1
  As  As4  1  0.25000000  0.75000000  0.50000000  1
  As  As5  1  0.05372005  0.43685778  0.86630558  1
  As  As6  1  0.25336410  0.84751922  0.02292160  1
  As  As7  1  0.19706556  0.72807517  0.43133503  1
  As  As8  1  0.31150478  0.95266464  0.86586599  1
  Li  Li9  1  0.58437825  0.21100297  0.63824285  1
  Nb  Nb10  1  0.42253160  0.72855177  0.42152609  1
  Nb  Nb11  1  0.29162237  0.87801190  0.50546084  1
