# generated using pymatgen
data_Li2LuCu2(NiAs3)2
_symmetry_space_group_name_H-M   'P 1'
_cell_length_a   7.45884334
_cell_length_b   7.45605104
_cell_length_c   8.58190942
_cell_angle_alpha   91.51778828
_cell_angle_beta   91.93490414
_cell_angle_gamma   91.75517644
_symmetry_Int_Tables_number   1
_chemical_formula_structural   Li2LuCu2(NiAs3)2
_chemical_formula_sum   'Li2 Lu1 Cu2 Ni2 As6'
_cell_volume   476.59327259
_cell_formula_units_Z   1
loop_
 _symmetry_equiv_pos_site_id
 _symmetry_equiv_pos_as_xyz
  1  'x, y, z'
loop_
 _atom_site_type_symbol
 _atom_site_label
 _atom_site_symmetry_multiplicity
 _atom_site_fract_x
 _atom_site_fract_y
 _atom_site_fract_z
 _atom_site_occupancy
  Lu  Lu0  1  0.00000000  0.00000000  0.00000000  1
  Li  Li1  1  0.50000000  0.50000000  0.50000000  1
  Li  Li2  1  0.25000000  0.25000000  0.25000000  1
  Cu  Cu3  1  0.75000000  0.25000000  0.00000000  1
  Cu  Cu4  1  0.25000000  0.75000000  0.50000000  1
  Ni  Ni5  1  0.11849185  0.14870004  0.17887064  1
  Ni  Ni6  1  0.18374184  0.76436974  0.03547191  1
  As  As7  1  0.16861694  0.72222324  0.85342320  1
  As  As8  1  0.14579186  0.35089948  0.61689869  1
  As  As9  1  0.08986788  0.77067018  0.92661227  1
  As  As10  1  0.58640608  0.01941011  0.91133056  1
  As  As11  1  0.31707323  0.80925699  0.27228369  1
  As  As12  1  0.51522842  0.70003045  0.24976014  1
