# generated using pymatgen
data_Li2MnSb4P3
_symmetry_space_group_name_H-M   'P 1'
_cell_length_a   5.37606855
_cell_length_b   5.52652436
_cell_length_c   6.94673730
_cell_angle_alpha   98.03793389
_cell_angle_beta   94.63139594
_cell_angle_gamma   98.46712315
_symmetry_Int_Tables_number   1
_chemical_formula_structural   Li2MnSb4P3
_chemical_formula_sum   'Li2 Mn1 Sb4 P3'
_cell_volume   201.05425916
_cell_formula_units_Z   1
loop_
 _symmetry_equiv_pos_site_id
 _symmetry_equiv_pos_as_xyz
  1  'x, y, z'
loop_
 _atom_site_type_symbol
 _atom_site_label
 _atom_site_symmetry_multiplicity
 _atom_site_fract_x
 _atom_site_fract_y
 _atom_site_fract_z
 _atom_site_occupancy
  Mn  Mn0  1  0.00000000  0.00000000  0.00000000  1
  Sb  Sb1  1  0.33300000  0.66700000  0.25000000  1
  Sb  Sb2  1  0.66700000  0.33300000  0.50000000  1
  Sb  Sb3  1  0.00000000  0.00000000  0.75000000  1
  Sb  Sb4  1  0.50008628  0.87565894  0.40489698  1
  P  P5  1  0.09125701  0.73088961  0.30819840  1
  P  P6  1  0.89252271  0.99878891  0.18033584  1
  P  P7  1  0.13979224  0.24106940  0.56568502  1
  Li  Li8  1  0.40332398  0.11030785  0.12490698  1
  Li  Li9  1  0.45626866  0.27760201  0.94522368  1
