# generated using pymatgen
data_Li2Mn2Sb4P3
_symmetry_space_group_name_H-M   'P 1'
_cell_length_a   5.23811969
_cell_length_b   5.59454685
_cell_length_c   6.64055218
_cell_angle_alpha   99.19918279
_cell_angle_beta   93.07515445
_cell_angle_gamma   99.38046798
_symmetry_Int_Tables_number   1
_chemical_formula_structural   Li2Mn2Sb4P3
_chemical_formula_sum   'Li2 Mn2 Sb4 P3'
_cell_volume   188.89342869
_cell_formula_units_Z   1
loop_
 _symmetry_equiv_pos_site_id
 _symmetry_equiv_pos_as_xyz
  1  'x, y, z'
loop_
 _atom_site_type_symbol
 _atom_site_label
 _atom_site_symmetry_multiplicity
 _atom_site_fract_x
 _atom_site_fract_y
 _atom_site_fract_z
 _atom_site_occupancy
  Mn  Mn0  1  0.00000000  0.00000000  0.00000000  1
  Mn  Mn1  1  0.50000000  0.50000000  0.50000000  1
  Sb  Sb2  1  0.25000000  0.25000000  0.25000000  1
  Sb  Sb3  1  0.75000000  0.25000000  0.00000000  1
  Sb  Sb4  1  0.25000000  0.75000000  0.50000000  1
  Sb  Sb5  1  0.93730670  0.55211053  0.86622853  1
  P  P6  1  0.81056881  0.61469146  0.38389866  1
  P  P7  1  0.43125177  0.61305040  0.35145563  1
  P  P8  1  0.82585789  0.59219246  0.66431616  1
  Li  Li9  1  0.80108244  0.95431866  0.08224983  1
  Li  Li10  1  0.02064218  0.60488829  0.47842962  1
