# generated using pymatgen
data_Li3P3O2
_symmetry_space_group_name_H-M   'P 1'
_cell_length_a   8.25068293
_cell_length_b   7.51289421
_cell_length_c   8.93747369
_cell_angle_alpha   90.00000000
_cell_angle_beta   90.00000000
_cell_angle_gamma   90.00000000
_symmetry_Int_Tables_number   1
_chemical_formula_structural   Li3P3O2
_chemical_formula_sum   'Li3 P3 O2'
_cell_volume   554.00278507
_cell_formula_units_Z   1
loop_
 _symmetry_equiv_pos_site_id
 _symmetry_equiv_pos_as_xyz
  1  'x, y, z'
loop_
 _atom_site_type_symbol
 _atom_site_label
 _atom_site_symmetry_multiplicity
 _atom_site_fract_x
 _atom_site_fract_y
 _atom_site_fract_z
 _atom_site_occupancy
  O  O0  1  0.12500000  0.00000000  0.25000000  1
  O  O1  1  0.00000000  0.00000000  0.00000000  1
  P  P2  1  0.37500000  0.00000000  0.25000000  1
  P  P3  1  0.25000000  0.25000000  0.25000000  1
  P  P4  1  0.00000000  0.25000000  0.12500000  1
  Li  Li5  1  0.78556911  0.51025437  0.58812308  1
  Li  Li6  1  0.61731018  0.09805558  0.91347826  1
  Li  Li7  1  0.46885899  0.95723416  0.97885485  1
