# generated using pymatgen
data_Li4Ni2As6N5O7
_symmetry_space_group_name_H-M   'P 1'
_cell_length_a   7.97518099
_cell_length_b   7.74100176
_cell_length_c   9.34883606
_cell_angle_alpha   91.34392767
_cell_angle_beta   90.47513486
_cell_angle_gamma   91.55879340
_symmetry_Int_Tables_number   1
_chemical_formula_structural   Li4Ni2As6N5O7
_chemical_formula_sum   'Li4 Ni2 As6 N5 O7'
_cell_volume   576.76339366
_cell_formula_units_Z   1
loop_
 _symmetry_equiv_pos_site_id
 _symmetry_equiv_pos_as_xyz
  1  'x, y, z'
loop_
 _atom_site_type_symbol
 _atom_site_label
 _atom_site_symmetry_multiplicity
 _atom_site_fract_x
 _atom_site_fract_y
 _atom_site_fract_z
 _atom_site_occupancy
  Li  Li0  1  0.00000000  0.00000000  0.00000000  1
  Li  Li1  1  0.50000000  0.50000000  0.50000000  1
  Li  Li2  1  0.50000000  0.50000000  0.00000000  1
  Li  Li3  1  0.50000000  0.00000000  0.50000000  1
  Ni  Ni4  1  0.00000000  0.50000000  0.50000000  1
  Ni  Ni5  1  0.27416455  0.95184745  0.47618401  1
  As  As6  1  0.67400834  0.65429360  0.03620211  1
  As  As7  1  0.20784934  0.96582816  0.02844634  1
  As  As8  1  0.41271371  0.70090370  0.69181381  1
  As  As9  1  0.32437754  0.79176329  0.54086416  1
  As  As10  1  0.70168428  0.01718977  0.23308945  1
  As  As11  1  0.67451042  0.71457982  0.55326738  1
  O  O12  1  0.60248309  0.04713773  0.42365764  1
  O  O13  1  0.77744327  0.91558826  0.21488622  1
  O  O14  1  0.83608052  0.95509785  0.50920653  1
  O  O15  1  0.62341607  0.20426142  0.80944818  1
  O  O16  1  0.63482634  0.50925252  0.41423782  1
  O  O17  1  0.72183401  0.40593325  0.68717698  1
  O  O18  1  0.22290267  0.85244514  0.73273248  1
  N  N19  1  0.81111232  0.55638673  0.64100008  1
  N  N20  1  0.97193348  0.24978939  0.03709225  1
  N  N21  1  0.13066006  0.38583611  0.44722019  1
  N  N22  1  0.01592343  0.37556877  0.78461430  1
  N  N23  1  0.86824725  0.79034116  0.52928804  1
