# generated using pymatgen
data_LiLa(SbP)2
_symmetry_space_group_name_H-M   'P 1'
_cell_length_a   7.76032401
_cell_length_b   7.97748033
_cell_length_c   7.24504298
_cell_angle_alpha   90.00000000
_cell_angle_beta   90.00000000
_cell_angle_gamma   90.00000000
_symmetry_Int_Tables_number   1
_chemical_formula_structural   LiLa(SbP)2
_chemical_formula_sum   'Li2 La2 Sb4 P4'
_cell_volume   448.52490454
_cell_formula_units_Z   2
loop_
 _symmetry_equiv_pos_site_id
 _symmetry_equiv_pos_as_xyz
  1  'x, y, z'
loop_
 _atom_site_type_symbol
 _atom_site_label
 _atom_site_symmetry_multiplicity
 _atom_site_fract_x
 _atom_site_fract_y
 _atom_site_fract_z
 _atom_site_occupancy
  Sb  Sb0  1  0.12500000  0.12500000  0.12500000  1
  Sb  Sb1  1  0.50000000  0.50000000  0.50000000  1
  Sb  Sb2  1  0.25000000  0.25000000  0.25000000  1
  Sb  Sb3  1  0.75000000  0.75000000  0.75000000  1
  La  La4  1  0.55045507  0.77335281  0.78011607  1
  La  La5  1  0.31499987  0.01273627  0.97441667  1
  P  P6  1  0.52829288  0.85656153  0.69856322  1
  P  P7  1  0.39726278  0.65446306  0.61248440  1
  P  P8  1  0.96414001  0.69815649  0.38466367  1
  P  P9  1  0.83026642  0.32531498  0.12758863  1
  Li  Li10  1  0.65326470  0.25214854  0.55255925  1
  Li  Li11  1  0.42990401  0.45326018  0.14049985  1
