# generated using pymatgen
data_Li2Ni3Mo2P3W
_symmetry_space_group_name_H-M   'P 1'
_cell_length_a   5.34020974
_cell_length_b   5.18431165
_cell_length_c   6.54820945
_cell_angle_alpha   97.05377237
_cell_angle_beta   92.12652755
_cell_angle_gamma   96.67015708
_symmetry_Int_Tables_number   1
_chemical_formula_structural   Li2Ni3Mo2P3W
_chemical_formula_sum   'Li2 Ni3 Mo2 P3 W1'
_cell_volume   178.45646158
_cell_formula_units_Z   1
loop_
 _symmetry_equiv_pos_site_id
 _symmetry_equiv_pos_as_xyz
  1  'x, y, z'
loop_
 _atom_site_type_symbol
 _atom_site_label
 _atom_site_symmetry_multiplicity
 _atom_site_fract_x
 _atom_site_fract_y
 _atom_site_fract_z
 _atom_site_occupancy
  W  W0  1  0.00000000  0.00000000  0.00000000  1
  P  P1  1  0.50000000  0.50000000  0.50000000  1
  P  P2  1  0.50000000  0.50000000  0.00000000  1
  P  P3  1  0.50000000  0.00000000  0.50000000  1
  Mo  Mo4  1  0.00000000  0.50000000  0.50000000  1
  Mo  Mo5  1  0.69310865  0.02137296  0.80054013  1
  Li  Li6  1  0.34969232  0.42724182  0.74628334  1
  Li  Li7  1  0.65427464  0.90226824  0.98313137  1
  Ni  Ni8  1  0.09135707  0.39690442  0.31618409  1
  Ni  Ni9  1  0.48386774  0.23913012  0.22343001  1
  Ni  Ni10  1  0.57141570  0.50359577  0.86982649  1
