# generated using pymatgen
data_LiMn3Sb4Mo2P3
_symmetry_space_group_name_H-M   'P 1'
_cell_length_a   5.91348662
_cell_length_b   6.18490029
_cell_length_c   6.31131623
_cell_angle_alpha   91.80287504
_cell_angle_beta   89.90308005
_cell_angle_gamma   91.58875925
_symmetry_Int_Tables_number   1
_chemical_formula_structural   LiMn3Sb4Mo2P3
_chemical_formula_sum   'Li1 Mn3 Sb4 Mo2 P3'
_cell_volume   230.62909412
_cell_formula_units_Z   1
loop_
 _symmetry_equiv_pos_site_id
 _symmetry_equiv_pos_as_xyz
  1  'x, y, z'
loop_
 _atom_site_type_symbol
 _atom_site_label
 _atom_site_symmetry_multiplicity
 _atom_site_fract_x
 _atom_site_fract_y
 _atom_site_fract_z
 _atom_site_occupancy
  Mn  Mn0  1  0.00000000  0.00000000  0.00000000  1
  Mn  Mn1  1  0.50000000  0.50000000  0.50000000  1
  Mn  Mn2  1  0.25000000  0.25000000  0.25000000  1
  Sb  Sb3  1  0.75000000  0.25000000  0.00000000  1
  Sb  Sb4  1  0.25000000  0.75000000  0.50000000  1
  Sb  Sb5  1  0.06827858  0.70179855  0.81777607  1
  Sb  Sb6  1  0.37445630  0.09916545  0.97959886  1
  P  P7  1  0.57423630  0.25573881  0.16016106  1
  P  P8  1  0.43045485  0.60769813  0.03650428  1
  P  P9  1  0.23413176  0.39715682  0.39996269  1
  Mo  Mo10  1  0.98867476  0.69168609  0.66913353  1
  Mo  Mo11  1  0.00278151  0.39037982  0.56047776  1
  Li  Li12  1  0.07524752  0.92841551  0.03122476  1
