# generated using pymatgen
data_LiNiI2O
_symmetry_space_group_name_H-M   'P 1'
_cell_length_a   8.33068844
_cell_length_b   8.20622001
_cell_length_c   8.16030167
_cell_angle_alpha   90.09490568
_cell_angle_beta   90.45153240
_cell_angle_gamma   90.10850253
_symmetry_Int_Tables_number   1
_chemical_formula_structural   LiNiI2O
_chemical_formula_sum   'Li2 Ni2 I4 O2'
_cell_volume   557.84737177
_cell_formula_units_Z   2
loop_
 _symmetry_equiv_pos_site_id
 _symmetry_equiv_pos_as_xyz
  1  'x, y, z'
loop_
 _atom_site_type_symbol
 _atom_site_label
 _atom_site_symmetry_multiplicity
 _atom_site_fract_x
 _atom_site_fract_y
 _atom_site_fract_z
 _atom_site_occupancy
  I  I0  1  0.00000000  0.00000000  0.00000000  1
  I  I1  1  0.50000000  0.50000000  0.50000000  1
  I  I2  1  0.25000000  0.25000000  0.25000000  1
  I  I3  1  0.75000000  0.25000000  0.00000000  1
  Li  Li4  1  0.25000000  0.75000000  0.50000000  1
  Li  Li5  1  0.24049126  0.91044041  0.58613273  1
  Ni  Ni6  1  0.70346506  0.39275196  0.37002298  1
  Ni  Ni7  1  0.23134712  0.56877139  0.05962816  1
  O  O8  1  0.51522676  0.08193462  0.58898860  1
  O  O9  1  0.07087624  0.26677691  0.94997207  1
