# generated using pymatgen
data_Li3Ti2I5Cl2O3
_symmetry_space_group_name_H-M   'P 1'
_cell_length_a   6.61572168
_cell_length_b   6.21922041
_cell_length_c   7.95165178
_cell_angle_alpha   98.27026783
_cell_angle_beta   100.96311753
_cell_angle_gamma   97.58341799
_symmetry_Int_Tables_number   1
_chemical_formula_structural   Li3Ti2I5Cl2O3
_chemical_formula_sum   'Li3 Ti2 I5 Cl2 O3'
_cell_volume   313.55337597
_cell_formula_units_Z   1
loop_
 _symmetry_equiv_pos_site_id
 _symmetry_equiv_pos_as_xyz
  1  'x, y, z'
loop_
 _atom_site_type_symbol
 _atom_site_label
 _atom_site_symmetry_multiplicity
 _atom_site_fract_x
 _atom_site_fract_y
 _atom_site_fract_z
 _atom_site_occupancy
  I  I0  1  0.00000000  0.00000000  0.00000000  1
  I  I1  1  0.50000000  0.50000000  0.50000000  1
  I  I2  1  0.25000000  0.25000000  0.25000000  1
  I  I3  1  0.75000000  0.25000000  0.00000000  1
  I  I4  1  0.25000000  0.75000000  0.50000000  1
  Li  Li5  1  0.68571680  0.21585896  0.14765977  1
  Li  Li6  1  0.61928548  0.65653487  0.14834661  1
  Li  Li7  1  0.05510212  0.88133335  0.97470991  1
  Cl  Cl8  1  0.80115041  0.11248608  0.80371068  1
  Cl  Cl9  1  0.95001624  0.75929227  0.34604801  1
  Ti  Ti10  1  0.35161469  0.91906357  0.58953471  1
  Ti  Ti11  1  0.07017314  0.27042143  0.72491338  1
  O  O12  1  0.10383288  0.06486267  0.71349047  1
  O  O13  1  0.93457667  0.99530494  0.81425853  1
  O  O14  1  0.57455693  0.22419321  0.85626465  1
