# generated using pymatgen
data_Li3TiCu2(P2O)2
_symmetry_space_group_name_H-M   'P 1'
_cell_length_a   6.50662416
_cell_length_b   6.37788253
_cell_length_c   7.74022475
_cell_angle_alpha   95.73717565
_cell_angle_beta   95.75625389
_cell_angle_gamma   96.84532661
_symmetry_Int_Tables_number   1
_chemical_formula_structural   Li3TiCu2(P2O)2
_chemical_formula_sum   'Li3 Ti1 Cu2 P4 O2'
_cell_volume   315.26674522
_cell_formula_units_Z   1
loop_
 _symmetry_equiv_pos_site_id
 _symmetry_equiv_pos_as_xyz
  1  'x, y, z'
loop_
 _atom_site_type_symbol
 _atom_site_label
 _atom_site_symmetry_multiplicity
 _atom_site_fract_x
 _atom_site_fract_y
 _atom_site_fract_z
 _atom_site_occupancy
  P  P0  1  0.12500000  0.00000000  0.25000000  1
  P  P1  1  0.00000000  0.00000000  0.00000000  1
  P  P2  1  0.37500000  0.00000000  0.25000000  1
  P  P3  1  0.25000000  0.25000000  0.25000000  1
  Li  Li4  1  0.00000000  0.25000000  0.12500000  1
  Li  Li5  1  0.09891671  0.74387133  0.44769596  1
  Li  Li6  1  0.61275133  0.17033332  0.99233853  1
  Cu  Cu7  1  0.62130593  0.36764448  0.52487272  1
  Cu  Cu8  1  0.50042156  0.16734484  0.70573735  1
  Ti  Ti9  1  0.36894886  0.15690159  0.58881072  1
  O  O10  1  0.50761957  0.74840844  0.61018342  1
  O  O11  1  0.19576045  0.88681855  0.40924373  1
