# generated using pymatgen
data_LiMn2P8(OF2)3
_symmetry_space_group_name_H-M   'P 1'
_cell_length_a   8.04665505
_cell_length_b   7.69565014
_cell_length_c   7.80718642
_cell_angle_alpha   90.00000000
_cell_angle_beta   90.00000000
_cell_angle_gamma   90.00000000
_symmetry_Int_Tables_number   1
_chemical_formula_structural   LiMn2P8(OF2)3
_chemical_formula_sum   'Li1 Mn2 P8 O3 F6'
_cell_volume   483.45410217
_cell_formula_units_Z   1
loop_
 _symmetry_equiv_pos_site_id
 _symmetry_equiv_pos_as_xyz
  1  'x, y, z'
loop_
 _atom_site_type_symbol
 _atom_site_label
 _atom_site_symmetry_multiplicity
 _atom_site_fract_x
 _atom_site_fract_y
 _atom_site_fract_z
 _atom_site_occupancy
  P  P0  1  0.00000000  0.00000000  0.00000000  1
  P  P1  1  0.50000000  0.50000000  0.50000000  1
  P  P2  1  0.25000000  0.25000000  0.25000000  1
  P  P3  1  0.75000000  0.25000000  0.00000000  1
  P  P4  1  0.25000000  0.75000000  0.50000000  1
  P  P5  1  0.62525285  0.71905848  0.11461123  1
  P  P6  1  0.72134126  0.41628988  0.16968543  1
  P  P7  1  0.90476587  0.78526820  0.94416805  1
  Li  Li8  1  0.23508537  0.76446639  0.78895386  1
  F  F9  1  0.35994964  0.11202367  0.99402325  1
  F  F10  1  0.63041278  0.96979011  0.43132764  1
  F  F11  1  0.78434416  0.09969691  0.34929927  1
  F  F12  1  0.27079702  0.49123042  0.29176780  1
  F  F13  1  0.75849858  0.52957562  0.59977425  1
  F  F14  1  0.75612711  0.24471214  0.50760615  1
  Mn  Mn15  1  0.55115045  0.93646836  0.42992980  1
  Mn  Mn16  1  0.61739848  0.12642393  0.90334097  1
  O  O17  1  0.38939067  0.21116177  0.68425371  1
  O  O18  1  0.70497922  0.87340942  0.82728809  1
  O  O19  1  0.87509920  0.64609849  0.48339927  1
