# generated using pymatgen
data_Li2MnSb4P3
_symmetry_space_group_name_H-M   'P 1'
_cell_length_a   5.92674811
_cell_length_b   6.08454426
_cell_length_c   6.81381868
_cell_angle_alpha   98.40842155
_cell_angle_beta   93.05250726
_cell_angle_gamma   98.74638398
_symmetry_Int_Tables_number   1
_chemical_formula_structural   Li2MnSb4P3
_chemical_formula_sum   'Li2 Mn1 Sb4 P3'
_cell_volume   239.53190851
_cell_formula_units_Z   1
loop_
 _symmetry_equiv_pos_site_id
 _symmetry_equiv_pos_as_xyz
  1  'x, y, z'
loop_
 _atom_site_type_symbol
 _atom_site_label
 _atom_site_symmetry_multiplicity
 _atom_site_fract_x
 _atom_site_fract_y
 _atom_site_fract_z
 _atom_site_occupancy
  Mn  Mn0  1  0.12500000  0.00000000  0.25000000  1
  Sb  Sb1  1  0.00000000  0.00000000  0.00000000  1
  Sb  Sb2  1  0.37500000  0.00000000  0.25000000  1
  Sb  Sb3  1  0.25000000  0.25000000  0.25000000  1
  Sb  Sb4  1  0.00000000  0.25000000  0.12500000  1
  P  P5  1  0.64830425  0.08219233  0.48823475  1
  P  P6  1  0.07410635  0.68168798  0.47336578  1
  P  P7  1  0.80752307  0.55661572  0.08070979  1
  Li  Li8  1  0.94451264  0.08947639  0.62084346  1
  Li  Li9  1  0.35245685  0.83707764  0.08284185  1
