# generated using pymatgen
data_Li2TiI4(OF)2
_symmetry_space_group_name_H-M   'P 1'
_cell_length_a   7.29550506
_cell_length_b   6.98571700
_cell_length_c   7.28046429
_cell_angle_alpha   91.80597839
_cell_angle_beta   93.44464061
_cell_angle_gamma   91.72217106
_symmetry_Int_Tables_number   1
_chemical_formula_structural   Li2TiI4(OF)2
_chemical_formula_sum   'Li2 Ti1 I4 O2 F2'
_cell_volume   369.99985397
_cell_formula_units_Z   1
loop_
 _symmetry_equiv_pos_site_id
 _symmetry_equiv_pos_as_xyz
  1  'x, y, z'
loop_
 _atom_site_type_symbol
 _atom_site_label
 _atom_site_symmetry_multiplicity
 _atom_site_fract_x
 _atom_site_fract_y
 _atom_site_fract_z
 _atom_site_occupancy
  I  I0  1  0.00000000  0.00000000  0.00000000  1
  I  I1  1  0.50000000  0.50000000  0.50000000  1
  I  I2  1  0.50000000  0.50000000  0.00000000  1
  I  I3  1  0.50000000  0.00000000  0.50000000  1
  Li  Li4  1  0.00000000  0.50000000  0.50000000  1
  Li  Li5  1  0.26991114  0.44529066  0.54136293  1
  F  F6  1  0.71488454  0.72677736  0.98864370  1
  F  F7  1  0.02413765  0.78020259  0.90203284  1
  Ti  Ti8  1  0.33470001  0.87592523  0.51653407  1
  O  O9  1  0.60427552  0.45646753  0.97401394  1
  O  O10  1  0.31160981  0.72782307  0.20274804  1
