# generated using pymatgen
data_Li2MnSb4P3N5
_symmetry_space_group_name_H-M   'P 1'
_cell_length_a   5.38942421
_cell_length_b   5.70895246
_cell_length_c   6.78414166
_cell_angle_alpha   99.38771500
_cell_angle_beta   92.41979534
_cell_angle_gamma   99.47267095
_symmetry_Int_Tables_number   1
_chemical_formula_structural   Li2MnSb4P3N5
_chemical_formula_sum   'Li2 Mn1 Sb4 P3 N5'
_cell_volume   202.61834448
_cell_formula_units_Z   1
loop_
 _symmetry_equiv_pos_site_id
 _symmetry_equiv_pos_as_xyz
  1  'x, y, z'
loop_
 _atom_site_type_symbol
 _atom_site_label
 _atom_site_symmetry_multiplicity
 _atom_site_fract_x
 _atom_site_fract_y
 _atom_site_fract_z
 _atom_site_occupancy
  N  N0  1  0.00000000  0.00000000  0.00000000  1
  N  N1  1  0.50000000  0.50000000  0.50000000  1
  N  N2  1  0.50000000  0.50000000  0.00000000  1
  N  N3  1  0.50000000  0.00000000  0.50000000  1
  N  N4  1  0.00000000  0.50000000  0.50000000  1
  Mn  Mn5  1  0.55754257  0.16634120  0.82582232  1
  Sb  Sb6  1  0.07299795  0.87155191  0.65744196  1
  Sb  Sb7  1  0.29716457  0.54571277  0.18016754  1
  Sb  Sb8  1  0.89025856  0.98389923  0.57431841  1
  Sb  Sb9  1  0.35255312  0.07617329  0.41891144  1
  P  P10  1  0.77230331  0.86302616  0.91223678  1
  P  P11  1  0.91976100  0.89710809  0.21866024  1
  P  P12  1  0.65152189  0.42264178  0.88324770  1
  Li  Li13  1  0.79927665  0.75042164  0.06220881  1
  Li  Li14  1  0.87136102  0.12392271  0.18515182  1
