# generated using pymatgen
data_Li2Mn2Sb4P3W
_symmetry_space_group_name_H-M   'P 1'
_cell_length_a   6.20928678
_cell_length_b   6.14256114
_cell_length_c   7.16935954
_cell_angle_alpha   94.19626794
_cell_angle_beta   92.50180364
_cell_angle_gamma   93.98749284
_symmetry_Int_Tables_number   1
_chemical_formula_structural   Li2Mn2Sb4P3W
_chemical_formula_sum   'Li2 Mn2 Sb4 P3 W1'
_cell_volume   271.72613821
_cell_formula_units_Z   1
loop_
 _symmetry_equiv_pos_site_id
 _symmetry_equiv_pos_as_xyz
  1  'x, y, z'
loop_
 _atom_site_type_symbol
 _atom_site_label
 _atom_site_symmetry_multiplicity
 _atom_site_fract_x
 _atom_site_fract_y
 _atom_site_fract_z
 _atom_site_occupancy
  Mn  Mn0  1  0.00000000  0.00000000  0.00000000  1
  Mn  Mn1  1  0.50000000  0.50000000  0.50000000  1
  W  W2  1  0.25000000  0.25000000  0.25000000  1
  Sb  Sb3  1  0.75000000  0.25000000  0.00000000  1
  Sb  Sb4  1  0.25000000  0.75000000  0.50000000  1
  Sb  Sb5  1  0.93510713  0.65265564  0.80666952  1
  Sb  Sb6  1  0.89550392  0.79192477  0.94480524  1
  P  P7  1  0.14159328  0.07929982  0.21516834  1
  P  P8  1  0.73281143  0.60595754  0.53260240  1
  P  P9  1  0.53061877  0.48869372  0.57854983  1
  Li  Li10  1  0.07773177  0.52797434  0.68164856  1
  Li  Li11  1  0.76027302  0.18267070  0.14652974  1
