# generated using pymatgen
data_Li3TiSe(O2F)2
_symmetry_space_group_name_H-M   'P 1'
_cell_length_a   7.12545631
_cell_length_b   6.87536036
_cell_length_c   7.18832979
_cell_angle_alpha   96.33603263
_cell_angle_beta   98.33024589
_cell_angle_gamma   95.95192495
_symmetry_Int_Tables_number   1
_chemical_formula_structural   Li3TiSe(O2F)2
_chemical_formula_sum   'Li3 Ti1 Se1 O4 F2'
_cell_volume   343.73876915
_cell_formula_units_Z   1
loop_
 _symmetry_equiv_pos_site_id
 _symmetry_equiv_pos_as_xyz
  1  'x, y, z'
loop_
 _atom_site_type_symbol
 _atom_site_label
 _atom_site_symmetry_multiplicity
 _atom_site_fract_x
 _atom_site_fract_y
 _atom_site_fract_z
 _atom_site_occupancy
  Li  Li0  1  0.00000000  0.00000000  0.00000000  1
  Li  Li1  1  0.50000000  0.50000000  0.50000000  1
  Li  Li2  1  0.25000000  0.25000000  0.25000000  1
  F  F3  1  0.75000000  0.25000000  0.00000000  1
  F  F4  1  0.25000000  0.75000000  0.50000000  1
  Se  Se5  1  0.90943869  0.09605928  0.42631385  1
  Ti  Ti6  1  0.12419569  0.08841849  0.79918172  1
  O  O7  1  0.86172569  0.81614548  0.16490300  1
  O  O8  1  0.60047950  0.37344964  0.69977742  1
  O  O9  1  0.07271187  0.00326625  0.22392063  1
  O  O10  1  0.47453812  0.12084297  0.24864819  1
