# generated using pymatgen
data_Li3Cu2Ni2(As3O2)2
_symmetry_space_group_name_H-M   'P 1'
_cell_length_a   6.33869499
_cell_length_b   6.48080742
_cell_length_c   7.81382652
_cell_angle_alpha   97.96798042
_cell_angle_beta   100.68462341
_cell_angle_gamma   99.98721035
_symmetry_Int_Tables_number   1
_chemical_formula_structural   Li3Cu2Ni2(As3O2)2
_chemical_formula_sum   'Li3 Cu2 Ni2 As6 O4'
_cell_volume   305.77119395
_cell_formula_units_Z   1
loop_
 _symmetry_equiv_pos_site_id
 _symmetry_equiv_pos_as_xyz
  1  'x, y, z'
loop_
 _atom_site_type_symbol
 _atom_site_label
 _atom_site_symmetry_multiplicity
 _atom_site_fract_x
 _atom_site_fract_y
 _atom_site_fract_z
 _atom_site_occupancy
  Li  Li0  1  0.12500000  0.00000000  0.25000000  1
  Li  Li1  1  0.00000000  0.00000000  0.00000000  1
  Li  Li2  1  0.37500000  0.00000000  0.25000000  1
  Cu  Cu3  1  0.25000000  0.25000000  0.25000000  1
  Cu  Cu4  1  0.00000000  0.25000000  0.12500000  1
  Ni  Ni5  1  0.38089536  0.89212222  0.21181940  1
  Ni  Ni6  1  0.94693297  0.32099529  0.41750848  1
  As  As7  1  0.59522222  0.48192124  0.39355259  1
  As  As8  1  0.98031219  0.12189042  0.33067083  1
  As  As9  1  0.72720045  0.32638174  0.66918378  1
  As  As10  1  0.02220391  0.18288041  0.81333219  1
  As  As11  1  0.05466693  0.51456789  0.45473770  1
  As  As12  1  0.78594984  0.57406178  0.08159953  1
  O  O13  1  0.48817285  0.69833462  0.23738905  1
  O  O14  1  0.47906578  0.72226974  0.43872978  1
  O  O15  1  0.14069885  0.60707029  0.00530246  1
  O  O16  1  0.54904596  0.50179625  0.33405677  1
