# generated using pymatgen
data_LiMn3Sb4P3
_symmetry_space_group_name_H-M   'P 1'
_cell_length_a   4.70774398
_cell_length_b   4.74909199
_cell_length_c   6.21263168
_cell_angle_alpha   93.81981264
_cell_angle_beta   94.48549877
_cell_angle_gamma   94.58386923
_symmetry_Int_Tables_number   1
_chemical_formula_structural   LiMn3Sb4P3
_chemical_formula_sum   'Li1 Mn3 Sb4 P3'
_cell_volume   137.65903534
_cell_formula_units_Z   1
loop_
 _symmetry_equiv_pos_site_id
 _symmetry_equiv_pos_as_xyz
  1  'x, y, z'
loop_
 _atom_site_type_symbol
 _atom_site_label
 _atom_site_symmetry_multiplicity
 _atom_site_fract_x
 _atom_site_fract_y
 _atom_site_fract_z
 _atom_site_occupancy
  Mn  Mn0  1  0.00000000  0.00000000  0.00000000  1
  Mn  Mn1  1  0.33300000  0.66700000  0.25000000  1
  Mn  Mn2  1  0.66700000  0.33300000  0.50000000  1
  Sb  Sb3  1  0.00000000  0.00000000  0.75000000  1
  Sb  Sb4  1  0.30936240  0.43899100  0.72644199  1
  Sb  Sb5  1  0.05831406  0.28587502  0.64789123  1
  Sb  Sb6  1  0.69607310  0.65495390  0.87115824  1
  P  P7  1  0.35578561  0.94384756  0.66679545  1
  P  P8  1  0.73594857  0.74688482  0.84233884  1
  P  P9  1  0.77098942  0.81479151  0.95923359  1
  Li  Li10  1  0.84233665  0.82310067  0.28304909  1
