# generated using pymatgen
data_Li2Mn2Sb4P3
_symmetry_space_group_name_H-M   'P 1'
_cell_length_a   6.93426577
_cell_length_b   7.43328770
_cell_length_c   7.43161318
_cell_angle_alpha   92.11398541
_cell_angle_beta   91.80128831
_cell_angle_gamma   92.30808484
_symmetry_Int_Tables_number   1
_chemical_formula_structural   Li2Mn2Sb4P3
_chemical_formula_sum   'Li2 Mn2 Sb4 P3'
_cell_volume   382.27881344
_cell_formula_units_Z   1
loop_
 _symmetry_equiv_pos_site_id
 _symmetry_equiv_pos_as_xyz
  1  'x, y, z'
loop_
 _atom_site_type_symbol
 _atom_site_label
 _atom_site_symmetry_multiplicity
 _atom_site_fract_x
 _atom_site_fract_y
 _atom_site_fract_z
 _atom_site_occupancy
  Mn  Mn0  1  0.12500000  0.00000000  0.25000000  1
  Mn  Mn1  1  0.00000000  0.00000000  0.00000000  1
  Sb  Sb2  1  0.37500000  0.00000000  0.25000000  1
  Sb  Sb3  1  0.25000000  0.25000000  0.25000000  1
  Sb  Sb4  1  0.00000000  0.25000000  0.12500000  1
  Sb  Sb5  1  0.11402754  0.71568760  0.01754252  1
  P  P6  1  0.60442445  0.82564150  0.10680950  1
  P  P7  1  0.98989226  0.92669105  0.51131256  1
  P  P8  1  0.03191653  0.97857000  0.64546751  1
  Li  Li9  1  0.25770822  0.45723114  0.45844559  1
  Li  Li10  1  0.03919499  0.93742852  0.02075598  1
