# generated using pymatgen
data_Li4Ti2Zn2O3
_symmetry_space_group_name_H-M   'P 1'
_cell_length_a   8.17331730
_cell_length_b   8.35960375
_cell_length_c   6.99277122
_cell_angle_alpha   90.00000000
_cell_angle_beta   90.00000000
_cell_angle_gamma   90.00000000
_symmetry_Int_Tables_number   1
_chemical_formula_structural   Li4Ti2Zn2O3
_chemical_formula_sum   'Li4 Ti2 Zn2 O3'
_cell_volume   477.78594613
_cell_formula_units_Z   1
loop_
 _symmetry_equiv_pos_site_id
 _symmetry_equiv_pos_as_xyz
  1  'x, y, z'
loop_
 _atom_site_type_symbol
 _atom_site_label
 _atom_site_symmetry_multiplicity
 _atom_site_fract_x
 _atom_site_fract_y
 _atom_site_fract_z
 _atom_site_occupancy
  Li  Li0  1  0.00000000  0.00000000  0.00000000  1
  Li  Li1  1  0.33300000  0.66700000  0.25000000  1
  Li  Li2  1  0.66700000  0.33300000  0.50000000  1
  Li  Li3  1  0.00000000  0.00000000  0.75000000  1
  Zn  Zn4  1  0.66827357  0.30741751  0.05824831  1
  Zn  Zn5  1  0.30154499  0.45552773  0.81442835  1
  Ti  Ti6  1  0.50394059  0.58592003  0.19270452  1
  Ti  Ti7  1  0.48481256  0.98928191  0.11586556  1
  O  O8  1  0.04946006  0.47941137  0.08377456  1
  O  O9  1  0.80551215  0.80628664  0.26070010  1
  O  O10  1  0.11820335  0.70150112  0.28794722  1
