# generated using pymatgen
data_LiMnSb4(MoP)2
_symmetry_space_group_name_H-M   'P 1'
_cell_length_a   5.09855638
_cell_length_b   5.29984455
_cell_length_c   6.58132467
_cell_angle_alpha   99.62607488
_cell_angle_beta   94.06823232
_cell_angle_gamma   99.54358006
_symmetry_Int_Tables_number   1
_chemical_formula_structural   LiMnSb4(MoP)2
_chemical_formula_sum   'Li1 Mn1 Sb4 Mo2 P2'
_cell_volume   172.01437144
_cell_formula_units_Z   1
loop_
 _symmetry_equiv_pos_site_id
 _symmetry_equiv_pos_as_xyz
  1  'x, y, z'
loop_
 _atom_site_type_symbol
 _atom_site_label
 _atom_site_symmetry_multiplicity
 _atom_site_fract_x
 _atom_site_fract_y
 _atom_site_fract_z
 _atom_site_occupancy
  Mn  Mn0  1  0.00000000  0.00000000  0.00000000  1
  Sb  Sb1  1  0.50000000  0.50000000  0.50000000  1
  Sb  Sb2  1  0.50000000  0.50000000  0.00000000  1
  Sb  Sb3  1  0.50000000  0.00000000  0.50000000  1
  Sb  Sb4  1  0.00000000  0.50000000  0.50000000  1
  P  P5  1  0.71407551  0.02178070  0.65818898  1
  P  P6  1  0.52456860  0.25973298  0.45145152  1
  Mo  Mo7  1  0.15177904  0.80156117  0.41134522  1
  Mo  Mo8  1  0.38427801  0.41141670  0.44177984  1
  Li  Li9  1  0.67495843  0.34721704  0.21432027  1
