# generated using pymatgen
data_Li4ZrTi(As3I2)2
_symmetry_space_group_name_H-M   'P 1'
_cell_length_a   7.29616860
_cell_length_b   7.06947717
_cell_length_c   7.54552820
_cell_angle_alpha   96.53317753
_cell_angle_beta   98.34136718
_cell_angle_gamma   96.14586387
_symmetry_Int_Tables_number   1
_chemical_formula_structural   Li4ZrTi(As3I2)2
_chemical_formula_sum   'Li4 Zr1 Ti1 As6 I4'
_cell_volume   379.54651147
_cell_formula_units_Z   1
loop_
 _symmetry_equiv_pos_site_id
 _symmetry_equiv_pos_as_xyz
  1  'x, y, z'
loop_
 _atom_site_type_symbol
 _atom_site_label
 _atom_site_symmetry_multiplicity
 _atom_site_fract_x
 _atom_site_fract_y
 _atom_site_fract_z
 _atom_site_occupancy
  Ti  Ti0  1  0.00000000  0.00000000  0.00000000  1
  I  I1  1  0.50000000  0.50000000  0.50000000  1
  I  I2  1  0.50000000  0.50000000  0.00000000  1
  I  I3  1  0.50000000  0.00000000  0.50000000  1
  I  I4  1  0.00000000  0.50000000  0.50000000  1
  As  As5  1  0.53184695  0.04522929  0.58006650  1
  As  As6  1  0.87292528  0.95777308  0.74626041  1
  As  As7  1  0.24155343  0.87801151  0.39090890  1
  As  As8  1  0.27431269  0.11853259  0.33932954  1
  As  As9  1  0.98579355  0.65280720  0.10946306  1
  As  As10  1  0.27951695  0.62045228  0.32382784  1
  Li  Li11  1  0.81768151  0.35673290  0.93278902  1
  Li  Li12  1  0.46235403  0.44712254  0.72618183  1
  Li  Li13  1  0.12193704  0.25405111  0.35935965  1
  Li  Li14  1  0.50168549  0.73520796  0.57234445  1
  Zr  Zr15  1  0.04315929  0.48185847  0.83310172  1
