# generated using pymatgen
data_LiMn2Sb4P3
_symmetry_space_group_name_H-M   'P 1'
_cell_length_a   5.35679559
_cell_length_b   5.61647766
_cell_length_c   6.44860113
_cell_angle_alpha   95.28454011
_cell_angle_beta   92.50719184
_cell_angle_gamma   95.21861153
_symmetry_Int_Tables_number   1
_chemical_formula_structural   LiMn2Sb4P3
_chemical_formula_sum   'Li1 Mn2 Sb4 P3'
_cell_volume   192.12331030
_cell_formula_units_Z   1
loop_
 _symmetry_equiv_pos_site_id
 _symmetry_equiv_pos_as_xyz
  1  'x, y, z'
loop_
 _atom_site_type_symbol
 _atom_site_label
 _atom_site_symmetry_multiplicity
 _atom_site_fract_x
 _atom_site_fract_y
 _atom_site_fract_z
 _atom_site_occupancy
  Mn  Mn0  1  0.00000000  0.00000000  0.00000000  1
  Mn  Mn1  1  0.50000000  0.50000000  0.50000000  1
  Sb  Sb2  1  0.25000000  0.25000000  0.25000000  1
  Sb  Sb3  1  0.75000000  0.25000000  0.00000000  1
  Sb  Sb4  1  0.25000000  0.75000000  0.50000000  1
  Sb  Sb5  1  0.26325524  0.93979535  0.17691087  1
  P  P6  1  0.18228120  0.82150560  0.08270503  1
  P  P7  1  0.25721257  0.23852788  0.86331752  1
  P  P8  1  0.94142643  0.57772402  0.64645944  1
  Li  Li9  1  0.29711559  0.07027880  0.87997106  1
