# generated using pymatgen
data_Li4LuCu2P4N5
_symmetry_space_group_name_H-M   'P 1'
_cell_length_a   6.65731554
_cell_length_b   6.52843192
_cell_length_c   8.15307516
_cell_angle_alpha   96.23678754
_cell_angle_beta   96.05252840
_cell_angle_gamma   97.72223156
_symmetry_Int_Tables_number   1
_chemical_formula_structural   Li4LuCu2P4N5
_chemical_formula_sum   'Li4 Lu1 Cu2 P4 N5'
_cell_volume   346.45452126
_cell_formula_units_Z   1
loop_
 _symmetry_equiv_pos_site_id
 _symmetry_equiv_pos_as_xyz
  1  'x, y, z'
loop_
 _atom_site_type_symbol
 _atom_site_label
 _atom_site_symmetry_multiplicity
 _atom_site_fract_x
 _atom_site_fract_y
 _atom_site_fract_z
 _atom_site_occupancy
  P  P0  1  0.12500000  0.00000000  0.25000000  1
  P  P1  1  0.00000000  0.00000000  0.00000000  1
  P  P2  1  0.37500000  0.00000000  0.25000000  1
  P  P3  1  0.25000000  0.25000000  0.25000000  1
  Lu  Lu4  1  0.00000000  0.25000000  0.12500000  1
  Li  Li5  1  0.59006807  0.15495292  0.08126804  1
  Li  Li6  1  0.95078431  0.21163150  0.43192954  1
  Li  Li7  1  0.71579474  0.23750386  0.37499988  1
  Li  Li8  1  0.06769838  0.00315551  0.09380259  1
  Cu  Cu9  1  0.92524773  0.91433125  0.83429263  1
  Cu  Cu10  1  0.17295503  0.71313905  0.39029800  1
  N  N11  1  0.68382663  0.61080247  0.21509517  1
  N  N12  1  0.54615908  0.46003399  0.84588991  1
  N  N13  1  0.45054943  0.66053118  0.43344329  1
  N  N14  1  0.65094178  0.42597648  0.41981211  1
  N  N15  1  0.36399308  0.34906135  0.32382464  1
