# generated using pymatgen
data_Li2Ni2P7N5O2
_symmetry_space_group_name_H-M   'P 1'
_cell_length_a   7.93605697
_cell_length_b   7.91721745
_cell_length_c   8.40434862
_cell_angle_alpha   91.02825319
_cell_angle_beta   91.77954642
_cell_angle_gamma   91.06532554
_symmetry_Int_Tables_number   1
_chemical_formula_structural   Li2Ni2P7N5O2
_chemical_formula_sum   'Li2 Ni2 P7 N5 O2'
_cell_volume   527.62117233
_cell_formula_units_Z   1
loop_
 _symmetry_equiv_pos_site_id
 _symmetry_equiv_pos_as_xyz
  1  'x, y, z'
loop_
 _atom_site_type_symbol
 _atom_site_label
 _atom_site_symmetry_multiplicity
 _atom_site_fract_x
 _atom_site_fract_y
 _atom_site_fract_z
 _atom_site_occupancy
  P  P0  1  0.12500000  0.00000000  0.25000000  1
  P  P1  1  0.00000000  0.00000000  0.00000000  1
  P  P2  1  0.37500000  0.00000000  0.25000000  1
  P  P3  1  0.25000000  0.25000000  0.25000000  1
  P  P4  1  0.00000000  0.25000000  0.12500000  1
  P  P5  1  0.47791198  0.77374104  0.86555608  1
  P  P6  1  0.23637904  0.14979811  0.31961743  1
  Li  Li7  1  0.20090138  0.23832749  0.39759691  1
  Li  Li8  1  0.48829284  0.37762191  0.63549407  1
  Ni  Ni9  1  0.77894993  0.99901545  0.17426078  1
  Ni  Ni10  1  0.02589080  0.78373344  0.13310532  1
  O  O11  1  0.76352871  0.61318220  0.25466551  1
  O  O12  1  0.40492791  0.14239882  0.12476064  1
  N  N13  1  0.75594354  0.96829694  0.48061032  1
  N  N14  1  0.82279694  0.65137568  0.69189545  1
  N  N15  1  0.12129602  0.30426988  0.81886181  1
  N  N16  1  0.96244765  0.30885304  0.57844958  1
  N  N17  1  0.73417241  0.50439825  0.71133912  1
