# generated using pymatgen
data_LiMnP3N
_symmetry_space_group_name_H-M   'P 1'
_cell_length_a   4.61037878
_cell_length_b   4.78008063
_cell_length_c   5.93725995
_cell_angle_alpha   97.49737478
_cell_angle_beta   94.16996660
_cell_angle_gamma   96.76475245
_symmetry_Int_Tables_number   1
_chemical_formula_structural   LiMnP3N
_chemical_formula_sum   'Li1 Mn1 P3 N1'
_cell_volume   128.30686108
_cell_formula_units_Z   1
loop_
 _symmetry_equiv_pos_site_id
 _symmetry_equiv_pos_as_xyz
  1  'x, y, z'
loop_
 _atom_site_type_symbol
 _atom_site_label
 _atom_site_symmetry_multiplicity
 _atom_site_fract_x
 _atom_site_fract_y
 _atom_site_fract_z
 _atom_site_occupancy
  Mn  Mn0  1  0.00000000  0.00000000  0.00000000  1
  P  P1  1  0.50000000  0.50000000  0.50000000  1
  P  P2  1  0.50000000  0.50000000  0.00000000  1
  P  P3  1  0.50000000  0.00000000  0.50000000  1
  Li  Li4  1  0.00000000  0.50000000  0.50000000  1
  N  N5  1  0.48948581  0.01147406  0.89992225  1
