# generated using pymatgen
data_Li4LuTi3(NiP2)2
_symmetry_space_group_name_H-M   'P 1'
_cell_length_a   6.53072160
_cell_length_b   6.44289650
_cell_length_c   8.03630241
_cell_angle_alpha   96.68412256
_cell_angle_beta   96.83902244
_cell_angle_gamma   98.32083204
_symmetry_Int_Tables_number   1
_chemical_formula_structural   Li4LuTi3(NiP2)2
_chemical_formula_sum   'Li4 Lu1 Ti3 Ni2 P4'
_cell_volume   329.11403753
_cell_formula_units_Z   1
loop_
 _symmetry_equiv_pos_site_id
 _symmetry_equiv_pos_as_xyz
  1  'x, y, z'
loop_
 _atom_site_type_symbol
 _atom_site_label
 _atom_site_symmetry_multiplicity
 _atom_site_fract_x
 _atom_site_fract_y
 _atom_site_fract_z
 _atom_site_occupancy
  P  P0  1  0.00000000  0.00000000  0.00000000  1
  P  P1  1  0.50000000  0.50000000  0.50000000  1
  P  P2  1  0.50000000  0.50000000  0.00000000  1
  P  P3  1  0.50000000  0.00000000  0.50000000  1
  Lu  Lu4  1  0.00000000  0.50000000  0.50000000  1
  Li  Li5  1  0.31816043  0.45959366  0.42935494  1
  Li  Li6  1  0.62964428  0.59383611  0.86247449  1
  Li  Li7  1  0.97617654  0.06158947  0.32510251  1
  Li  Li8  1  0.76765556  0.27652250  0.09726570  1
  Ni  Ni9  1  0.99212947  0.46114949  0.94917627  1
  Ni  Ni10  1  0.42775661  0.71234220  0.72493957  1
  Ti  Ti11  1  0.75609207  0.15909752  0.62412797  1
  Ti  Ti12  1  0.15762640  0.74381149  0.40264551  1
  Ti  Ti13  1  0.95850530  0.10263167  0.55573343  1
