# generated using pymatgen
data_Li3LuNi2N5O4
_symmetry_space_group_name_H-M   'P 1'
_cell_length_a   8.04541280
_cell_length_b   7.77588578
_cell_length_c   8.16319895
_cell_angle_alpha   92.01340028
_cell_angle_beta   90.71182154
_cell_angle_gamma   92.33530059
_symmetry_Int_Tables_number   1
_chemical_formula_structural   Li3LuNi2N5O4
_chemical_formula_sum   'Li3 Lu1 Ni2 N5 O4'
_cell_volume   509.90319988
_cell_formula_units_Z   1
loop_
 _symmetry_equiv_pos_site_id
 _symmetry_equiv_pos_as_xyz
  1  'x, y, z'
loop_
 _atom_site_type_symbol
 _atom_site_label
 _atom_site_symmetry_multiplicity
 _atom_site_fract_x
 _atom_site_fract_y
 _atom_site_fract_z
 _atom_site_occupancy
  Lu  Lu0  1  0.12500000  0.00000000  0.25000000  1
  Li  Li1  1  0.00000000  0.00000000  0.00000000  1
  Li  Li2  1  0.37500000  0.00000000  0.25000000  1
  Li  Li3  1  0.25000000  0.25000000  0.25000000  1
  Ni  Ni4  1  0.00000000  0.25000000  0.12500000  1
  Ni  Ni5  1  0.67815167  0.34597436  0.75775664  1
  O  O6  1  0.05905784  0.23898929  0.54317305  1
  O  O7  1  0.51661217  0.48551671  0.49943536  1
  O  O8  1  0.62518038  0.31590222  0.16448503  1
  O  O9  1  0.65438922  0.70578049  0.43496982  1
  N  N10  1  0.02390105  0.76049491  0.03339617  1
  N  N11  1  0.57096564  0.56343218  0.87358476  1
  N  N12  1  0.05839576  0.28267588  0.32283725  1
  N  N13  1  0.52958420  0.19026157  0.27410778  1
  N  N14  1  0.77640739  0.75998870  0.02148896  1
