# generated using pymatgen
data_LiLa3Ti3F3
_symmetry_space_group_name_H-M   'P 1'
_cell_length_a   7.48630532
_cell_length_b   7.02930146
_cell_length_c   9.04950712
_cell_angle_alpha   91.63494680
_cell_angle_beta   97.77858035
_cell_angle_gamma   91.86918076
_symmetry_Int_Tables_number   1
_chemical_formula_structural   LiLa3Ti3F3
_chemical_formula_sum   'Li1 La3 Ti3 F3'
_cell_volume   471.32268178
_cell_formula_units_Z   1
loop_
 _symmetry_equiv_pos_site_id
 _symmetry_equiv_pos_as_xyz
  1  'x, y, z'
loop_
 _atom_site_type_symbol
 _atom_site_label
 _atom_site_symmetry_multiplicity
 _atom_site_fract_x
 _atom_site_fract_y
 _atom_site_fract_z
 _atom_site_occupancy
  Li  Li0  1  0.00000000  0.00000000  0.00000000  1
  F  F1  1  0.50000000  0.50000000  0.50000000  1
  F  F2  1  0.50000000  0.50000000  0.00000000  1
  F  F3  1  0.50000000  0.00000000  0.50000000  1
  La  La4  1  0.00000000  0.50000000  0.50000000  1
  La  La5  1  0.92355053  0.34200404  0.98207022  1
  La  La6  1  0.53308537  0.13887836  0.79488047  1
  Ti  Ti7  1  0.10911812  0.83395488  0.23900167  1
  Ti  Ti8  1  0.28308255  0.23537531  0.15570746  1
  Ti  Ti9  1  0.68035019  0.68336017  0.39697275  1
