# generated using pymatgen
data_Li2Sb4P3N
_symmetry_space_group_name_H-M   'P 1'
_cell_length_a   4.84383442
_cell_length_b   4.98124104
_cell_length_c   6.00909415
_cell_angle_alpha   100.07746556
_cell_angle_beta   94.91538597
_cell_angle_gamma   99.15846963
_symmetry_Int_Tables_number   1
_chemical_formula_structural   Li2Sb4P3N
_chemical_formula_sum   'Li2 Sb4 P3 N1'
_cell_volume   139.96788785
_cell_formula_units_Z   1
loop_
 _symmetry_equiv_pos_site_id
 _symmetry_equiv_pos_as_xyz
  1  'x, y, z'
loop_
 _atom_site_type_symbol
 _atom_site_label
 _atom_site_symmetry_multiplicity
 _atom_site_fract_x
 _atom_site_fract_y
 _atom_site_fract_z
 _atom_site_occupancy
  N  N0  1  0.00000000  0.00000000  0.00000000  1
  Sb  Sb1  1  0.33300000  0.66700000  0.25000000  1
  Sb  Sb2  1  0.66700000  0.33300000  0.50000000  1
  Sb  Sb3  1  0.00000000  0.00000000  0.75000000  1
  Sb  Sb4  1  0.27250953  0.85925589  0.75399828  1
  P  P5  1  0.53700400  0.24951608  0.57922820  1
  P  P6  1  0.35810270  0.26955197  0.49192981  1
  P  P7  1  0.03782264  0.23403503  0.52605012  1
  Li  Li8  1  0.72280416  0.44505867  0.74728673  1
  Li  Li9  1  0.27543562  0.93316605  0.48161520  1
