# generated using pymatgen
data_LiMnSb4P2N
_symmetry_space_group_name_H-M   'P 1'
_cell_length_a   5.99800379
_cell_length_b   6.41950087
_cell_length_c   6.81559047
_cell_angle_alpha   94.62968671
_cell_angle_beta   92.59697680
_cell_angle_gamma   94.59144311
_symmetry_Int_Tables_number   1
_chemical_formula_structural   LiMnSb4P2N
_chemical_formula_sum   'Li1 Mn1 Sb4 P2 N1'
_cell_volume   260.37889149
_cell_formula_units_Z   1
loop_
 _symmetry_equiv_pos_site_id
 _symmetry_equiv_pos_as_xyz
  1  'x, y, z'
loop_
 _atom_site_type_symbol
 _atom_site_label
 _atom_site_symmetry_multiplicity
 _atom_site_fract_x
 _atom_site_fract_y
 _atom_site_fract_z
 _atom_site_occupancy
  N  N0  1  0.00000000  0.00000000  0.00000000  1
  Mn  Mn1  1  0.50000000  0.50000000  0.50000000  1
  Sb  Sb2  1  0.25000000  0.25000000  0.25000000  1
  Sb  Sb3  1  0.75000000  0.25000000  0.00000000  1
  Sb  Sb4  1  0.25000000  0.75000000  0.50000000  1
  Sb  Sb5  1  0.89968361  0.51286444  0.97540750  1
  P  P6  1  0.91337829  0.85826149  0.80783744  1
  P  P7  1  0.72868428  0.30211222  0.89232107  1
  Li  Li8  1  0.68254227  0.54777909  0.43392360  1
