# generated using pymatgen
data_Li2Se3Br2O3
_symmetry_space_group_name_H-M   'P 1'
_cell_length_a   8.32066414
_cell_length_b   8.88511147
_cell_length_c   7.98888394
_cell_angle_alpha   90.00000000
_cell_angle_beta   90.00000000
_cell_angle_gamma   90.00000000
_symmetry_Int_Tables_number   1
_chemical_formula_structural   Li2Se3Br2O3
_chemical_formula_sum   'Li2 Se3 Br2 O3'
_cell_volume   590.61841598
_cell_formula_units_Z   1
loop_
 _symmetry_equiv_pos_site_id
 _symmetry_equiv_pos_as_xyz
  1  'x, y, z'
loop_
 _atom_site_type_symbol
 _atom_site_label
 _atom_site_symmetry_multiplicity
 _atom_site_fract_x
 _atom_site_fract_y
 _atom_site_fract_z
 _atom_site_occupancy
  Li  Li0  1  0.00000000  0.00000000  0.00000000  1
  Li  Li1  1  0.33300000  0.66700000  0.25000000  1
  Br  Br2  1  0.66700000  0.33300000  0.50000000  1
  Br  Br3  1  0.00000000  0.00000000  0.75000000  1
  Se  Se4  1  0.01277661  0.02288270  0.76084933  1
  Se  Se5  1  0.49926998  0.04263273  0.04226192  1
  Se  Se6  1  0.71021419  0.47400851  0.78372878  1
  O  O7  1  0.76159784  0.10545342  0.02177512  1
  O  O8  1  0.99226609  0.33441617  0.56363672  1
  O  O9  1  0.30438995  0.25828987  0.35968774  1
