# generated using pymatgen
data_Li2TiI4
_symmetry_space_group_name_H-M   'P 1'
_cell_length_a   8.10237462
_cell_length_b   7.89141266
_cell_length_c   7.84152819
_cell_angle_alpha   91.33605610
_cell_angle_beta   90.78524563
_cell_angle_gamma   91.54848315
_symmetry_Int_Tables_number   1
_chemical_formula_structural   Li2TiI4
_chemical_formula_sum   'Li2 Ti1 I4'
_cell_volume   501.00999232
_cell_formula_units_Z   1
loop_
 _symmetry_equiv_pos_site_id
 _symmetry_equiv_pos_as_xyz
  1  'x, y, z'
loop_
 _atom_site_type_symbol
 _atom_site_label
 _atom_site_symmetry_multiplicity
 _atom_site_fract_x
 _atom_site_fract_y
 _atom_site_fract_z
 _atom_site_occupancy
  I  I0  1  0.12500000  0.12500000  0.12500000  1
  I  I1  1  0.50000000  0.50000000  0.50000000  1
  I  I2  1  0.25000000  0.25000000  0.25000000  1
  I  I3  1  0.75000000  0.75000000  0.75000000  1
  Li  Li4  1  0.75554625  0.79949479  0.41882844  1
  Li  Li5  1  0.66181554  0.01283574  0.18799666  1
  Ti  Ti6  1  0.91001357  0.01682274  0.40490157  1
