# generated using pymatgen
data_Li3(PN)5
_symmetry_space_group_name_H-M   'P 1'
_cell_length_a   6.46023232
_cell_length_b   6.05963428
_cell_length_c   8.31283473
_cell_angle_alpha   95.98254867
_cell_angle_beta   94.94227377
_cell_angle_gamma   95.94798601
_symmetry_Int_Tables_number   1
_chemical_formula_structural   Li3(PN)5
_chemical_formula_sum   'Li3 P5 N5'
_cell_volume   320.35499456
_cell_formula_units_Z   1
loop_
 _symmetry_equiv_pos_site_id
 _symmetry_equiv_pos_as_xyz
  1  'x, y, z'
loop_
 _atom_site_type_symbol
 _atom_site_label
 _atom_site_symmetry_multiplicity
 _atom_site_fract_x
 _atom_site_fract_y
 _atom_site_fract_z
 _atom_site_occupancy
  P  P0  1  0.12500000  0.12500000  0.12500000  1
  P  P1  1  0.50000000  0.50000000  0.50000000  1
  P  P2  1  0.25000000  0.25000000  0.25000000  1
  P  P3  1  0.75000000  0.75000000  0.75000000  1
  P  P4  1  0.04500299  0.51527650  0.42886535  1
  Li  Li5  1  0.30540018  0.02281025  0.22810915  1
  Li  Li6  1  0.24395293  0.33451695  0.87732966  1
  Li  Li7  1  0.49228787  0.68617908  0.39405510  1
  N  N8  1  0.51762835  0.33596124  0.46756970  1
  N  N9  1  0.79917979  0.32400411  0.38499809  1
  N  N10  1  0.25840862  0.35870876  0.62067552  1
  N  N11  1  0.36450733  0.87446501  0.35637363  1
  N  N12  1  0.15824223  0.78076359  0.88023991  1
