# generated using pymatgen
data_Li2TiCu2(I2O)2
_symmetry_space_group_name_H-M   'P 1'
_cell_length_a   7.07727600
_cell_length_b   7.13562023
_cell_length_c   7.08697943
_cell_angle_alpha   94.06130966
_cell_angle_beta   96.02644090
_cell_angle_gamma   95.20435049
_symmetry_Int_Tables_number   1
_chemical_formula_structural   Li2TiCu2(I2O)2
_chemical_formula_sum   'Li2 Ti1 Cu2 I4 O2'
_cell_volume   353.28423840
_cell_formula_units_Z   1
loop_
 _symmetry_equiv_pos_site_id
 _symmetry_equiv_pos_as_xyz
  1  'x, y, z'
loop_
 _atom_site_type_symbol
 _atom_site_label
 _atom_site_symmetry_multiplicity
 _atom_site_fract_x
 _atom_site_fract_y
 _atom_site_fract_z
 _atom_site_occupancy
  I  I0  1  0.00000000  0.00000000  0.00000000  1
  I  I1  1  0.50000000  0.50000000  0.50000000  1
  I  I2  1  0.25000000  0.25000000  0.25000000  1
  I  I3  1  0.75000000  0.25000000  0.00000000  1
  Li  Li4  1  0.25000000  0.75000000  0.50000000  1
  Li  Li5  1  0.48175038  0.18142210  0.45056011  1
  Cu  Cu6  1  0.46854078  0.12199984  0.08066547  1
  Cu  Cu7  1  0.54096237  0.37389293  0.27319168  1
  Ti  Ti8  1  0.46386599  0.88072429  0.47176391  1
  O  O9  1  0.44841712  0.45483969  0.66579885  1
  O  O10  1  0.41873498  0.32987962  0.39931420  1
