# generated using pymatgen
data_LiLaP2N
_symmetry_space_group_name_H-M   'P 1'
_cell_length_a   3.32712272
_cell_length_b   3.62292504
_cell_length_c   5.22140681
_cell_angle_alpha   102.42805872
_cell_angle_beta   102.65271487
_cell_angle_gamma   99.26936402
_symmetry_Int_Tables_number   1
_chemical_formula_structural   LiLaP2N
_chemical_formula_sum   'Li1 La1 P2 N1'
_cell_volume   58.52161767
_cell_formula_units_Z   1
loop_
 _symmetry_equiv_pos_site_id
 _symmetry_equiv_pos_as_xyz
  1  'x, y, z'
loop_
 _atom_site_type_symbol
 _atom_site_label
 _atom_site_symmetry_multiplicity
 _atom_site_fract_x
 _atom_site_fract_y
 _atom_site_fract_z
 _atom_site_occupancy
  La  La0  1  0.12500000  0.00000000  0.25000000  1
  P  P1  1  0.00000000  0.00000000  0.00000000  1
  P  P2  1  0.37500000  0.00000000  0.25000000  1
  Li  Li3  1  0.25000000  0.25000000  0.25000000  1
  N  N4  1  0.00000000  0.25000000  0.12500000  1
