# generated using pymatgen
data_Li2Sb2P3
_symmetry_space_group_name_H-M   'P 1'
_cell_length_a   5.11341839
_cell_length_b   5.38447712
_cell_length_c   6.19240481
_cell_angle_alpha   99.70774287
_cell_angle_beta   90.99514456
_cell_angle_gamma   99.44102288
_symmetry_Int_Tables_number   1
_chemical_formula_structural   Li2Sb2P3
_chemical_formula_sum   'Li2 Sb2 P3'
_cell_volume   165.60046392
_cell_formula_units_Z   1
loop_
 _symmetry_equiv_pos_site_id
 _symmetry_equiv_pos_as_xyz
  1  'x, y, z'
loop_
 _atom_site_type_symbol
 _atom_site_label
 _atom_site_symmetry_multiplicity
 _atom_site_fract_x
 _atom_site_fract_y
 _atom_site_fract_z
 _atom_site_occupancy
  Sb  Sb0  1  0.00000000  0.00000000  0.00000000  1
  Sb  Sb1  1  0.50000000  0.50000000  0.50000000  1
  P  P2  1  0.50000000  0.50000000  0.00000000  1
  P  P3  1  0.50000000  0.00000000  0.50000000  1
  P  P4  1  0.00000000  0.50000000  0.50000000  1
  Li  Li5  1  0.21194448  0.65823134  0.66068417  1
  Li  Li6  1  0.53000812  0.93850632  0.03613377  1
