# generated using pymatgen
data_Li3LuI4N5
_symmetry_space_group_name_H-M   'P 1'
_cell_length_a   8.24360179
_cell_length_b   8.00989340
_cell_length_c   7.93526171
_cell_angle_alpha   91.53348034
_cell_angle_beta   90.54214969
_cell_angle_gamma   91.77865155
_symmetry_Int_Tables_number   1
_chemical_formula_structural   Li3LuI4N5
_chemical_formula_sum   'Li3 Lu1 I4 N5'
_cell_volume   523.50048441
_cell_formula_units_Z   1
loop_
 _symmetry_equiv_pos_site_id
 _symmetry_equiv_pos_as_xyz
  1  'x, y, z'
loop_
 _atom_site_type_symbol
 _atom_site_label
 _atom_site_symmetry_multiplicity
 _atom_site_fract_x
 _atom_site_fract_y
 _atom_site_fract_z
 _atom_site_occupancy
  I  I0  1  0.00000000  0.00000000  0.00000000  1
  I  I1  1  0.50000000  0.50000000  0.50000000  1
  I  I2  1  0.50000000  0.50000000  0.00000000  1
  I  I3  1  0.50000000  0.00000000  0.50000000  1
  Lu  Lu4  1  0.00000000  0.50000000  0.50000000  1
  Li  Li5  1  0.27837994  0.10959428  0.44440647  1
  Li  Li6  1  0.19949120  0.13566335  0.09509026  1
  Li  Li7  1  0.89664157  0.39061986  0.29535188  1
  N  N8  1  0.89891760  0.00087882  0.93963524  1
  N  N9  1  0.56256400  0.89606573  0.05395101  1
  N  N10  1  0.32888493  0.03324152  0.10833978  1
  N  N11  1  0.08497467  0.92567710  0.50782703  1
  N  N12  1  0.19177380  0.40898988  0.04341323  1
