# generated using pymatgen
data_LiMnSb4Mo2P3
_symmetry_space_group_name_H-M   'P 1'
_cell_length_a   5.73222916
_cell_length_b   6.09350674
_cell_length_c   6.76768726
_cell_angle_alpha   96.55116642
_cell_angle_beta   92.83565967
_cell_angle_gamma   96.72499434
_symmetry_Int_Tables_number   1
_chemical_formula_structural   LiMnSb4Mo2P3
_chemical_formula_sum   'Li1 Mn1 Sb4 Mo2 P3'
_cell_volume   232.75830340
_cell_formula_units_Z   1
loop_
 _symmetry_equiv_pos_site_id
 _symmetry_equiv_pos_as_xyz
  1  'x, y, z'
loop_
 _atom_site_type_symbol
 _atom_site_label
 _atom_site_symmetry_multiplicity
 _atom_site_fract_x
 _atom_site_fract_y
 _atom_site_fract_z
 _atom_site_occupancy
  Mn  Mn0  1  0.00000000  0.00000000  0.00000000  1
  Sb  Sb1  1  0.50000000  0.50000000  0.50000000  1
  Sb  Sb2  1  0.25000000  0.25000000  0.25000000  1
  Sb  Sb3  1  0.75000000  0.25000000  0.00000000  1
  Sb  Sb4  1  0.25000000  0.75000000  0.50000000  1
  P  P5  1  0.37564243  0.91757170  0.24822618  1
  P  P6  1  0.55682389  0.66938334  0.19478979  1
  P  P7  1  0.26993698  0.40405590  0.72956202  1
  Mo  Mo8  1  0.68762987  0.35795870  0.36709933  1
  Mo  Mo9  1  0.27589128  0.86536635  0.99508318  1
  Li  Li10  1  0.30216505  0.55730167  0.16359906  1
