# generated using pymatgen
data_Li2Cu2As6N5
_symmetry_space_group_name_H-M   'P 1'
_cell_length_a   7.79315541
_cell_length_b   7.79311098
_cell_length_c   8.89809593
_cell_angle_alpha   91.34081201
_cell_angle_beta   92.58109841
_cell_angle_gamma   91.39838410
_symmetry_Int_Tables_number   1
_chemical_formula_structural   Li2Cu2As6N5
_chemical_formula_sum   'Li2 Cu2 As6 N5'
_cell_volume   539.53595059
_cell_formula_units_Z   1
loop_
 _symmetry_equiv_pos_site_id
 _symmetry_equiv_pos_as_xyz
  1  'x, y, z'
loop_
 _atom_site_type_symbol
 _atom_site_label
 _atom_site_symmetry_multiplicity
 _atom_site_fract_x
 _atom_site_fract_y
 _atom_site_fract_z
 _atom_site_occupancy
  Li  Li0  1  0.12500000  0.00000000  0.25000000  1
  Li  Li1  1  0.00000000  0.00000000  0.00000000  1
  Cu  Cu2  1  0.37500000  0.00000000  0.25000000  1
  Cu  Cu3  1  0.25000000  0.25000000  0.25000000  1
  As  As4  1  0.00000000  0.25000000  0.12500000  1
  As  As5  1  0.49152773  0.77810750  0.85686557  1
  As  As6  1  0.76537498  0.65758605  0.35023302  1
  As  As7  1  0.17266476  0.03736117  0.23917487  1
  As  As8  1  0.57579497  0.93446170  0.72088783  1
  As  As9  1  0.80444796  0.29970808  0.45206747  1
  N  N10  1  0.29705113  0.99421090  0.16579761  1
  N  N11  1  0.47559456  0.92368177  0.31427916  1
  N  N12  1  0.06048213  0.62077545  0.51600186  1
  N  N13  1  0.98894450  0.32763567  0.90616662  1
  N  N14  1  0.01053935  0.74228142  0.32640180  1
