# generated using pymatgen
data_Li2Ni3P2W
_symmetry_space_group_name_H-M   'P 1'
_cell_length_a   6.09358598
_cell_length_b   5.91493733
_cell_length_c   6.91571332
_cell_angle_alpha   95.81394668
_cell_angle_beta   91.41962672
_cell_angle_gamma   94.99291505
_symmetry_Int_Tables_number   1
_chemical_formula_structural   Li2Ni3P2W
_chemical_formula_sum   'Li2 Ni3 P2 W1'
_cell_volume   246.89918866
_cell_formula_units_Z   1
loop_
 _symmetry_equiv_pos_site_id
 _symmetry_equiv_pos_as_xyz
  1  'x, y, z'
loop_
 _atom_site_type_symbol
 _atom_site_label
 _atom_site_symmetry_multiplicity
 _atom_site_fract_x
 _atom_site_fract_y
 _atom_site_fract_z
 _atom_site_occupancy
  Ni  Ni0  1  0.12500000  0.12500000  0.12500000  1
  Ni  Ni1  1  0.50000000  0.50000000  0.50000000  1
  Ni  Ni2  1  0.25000000  0.25000000  0.25000000  1
  W  W3  1  0.75000000  0.75000000  0.75000000  1
  P  P4  1  0.58813299  0.75342736  0.18371193  1
  P  P5  1  0.73775864  0.65974526  0.24678028  1
  Li  Li6  1  0.70029323  0.76588038  0.78448085  1
  Li  Li7  1  0.74391871  0.48878153  0.41185674  1
