# generated using pymatgen
data_Li4P8N5O3
_symmetry_space_group_name_H-M   'P 1'
_cell_length_a   7.43418627
_cell_length_b   7.41109312
_cell_length_c   8.68133557
_cell_angle_alpha   94.70924512
_cell_angle_beta   95.98530543
_cell_angle_gamma   94.50038092
_symmetry_Int_Tables_number   1
_chemical_formula_structural   Li4P8N5O3
_chemical_formula_sum   'Li4 P8 N5 O3'
_cell_volume   472.25793775
_cell_formula_units_Z   1
loop_
 _symmetry_equiv_pos_site_id
 _symmetry_equiv_pos_as_xyz
  1  'x, y, z'
loop_
 _atom_site_type_symbol
 _atom_site_label
 _atom_site_symmetry_multiplicity
 _atom_site_fract_x
 _atom_site_fract_y
 _atom_site_fract_z
 _atom_site_occupancy
  P  P0  1  0.00000000  0.00000000  0.00000000  1
  P  P1  1  0.33300000  0.66700000  0.25000000  1
  P  P2  1  0.66700000  0.33300000  0.50000000  1
  P  P3  1  0.00000000  0.00000000  0.75000000  1
  P  P4  1  0.13977601  0.85839168  0.92809647  1
  P  P5  1  0.18921712  0.57074296  0.09785025  1
  P  P6  1  0.36548008  0.57280267  0.82474126  1
  P  P7  1  0.99956918  0.48773187  0.56272228  1
  Li  Li8  1  0.43273648  0.57838166  0.28320021  1
  Li  Li9  1  0.59334592  0.77149583  0.20505186  1
  Li  Li10  1  0.36498451  0.25183819  0.00400768  1
  Li  Li11  1  0.39305915  0.78059390  0.67688289  1
  O  O12  1  0.41419989  0.08677831  0.66787290  1
  O  O13  1  0.17181572  0.63256649  0.08335983  1
  O  O14  1  0.28048203  0.76787691  0.25510092  1
  N  N15  1  0.09748458  0.71133713  0.96576635  1
  N  N16  1  0.29098947  0.45545644  0.11669574  1
  N  N17  1  0.50988635  0.67365625  0.62890821  1
  N  N18  1  0.04518817  0.72836623  0.16436721  1
  N  N19  1  0.25047963  0.04312918  0.65060269  1
