# generated using pymatgen
data_LiSb4Mo2P3
_symmetry_space_group_name_H-M   'P 1'
_cell_length_a   5.18172664
_cell_length_b   5.37017294
_cell_length_c   6.16277319
_cell_angle_alpha   96.30678222
_cell_angle_beta   91.23161767
_cell_angle_gamma   95.98061695
_symmetry_Int_Tables_number   1
_chemical_formula_structural   LiSb4Mo2P3
_chemical_formula_sum   'Li1 Sb4 Mo2 P3'
_cell_volume   169.43031801
_cell_formula_units_Z   1
loop_
 _symmetry_equiv_pos_site_id
 _symmetry_equiv_pos_as_xyz
  1  'x, y, z'
loop_
 _atom_site_type_symbol
 _atom_site_label
 _atom_site_symmetry_multiplicity
 _atom_site_fract_x
 _atom_site_fract_y
 _atom_site_fract_z
 _atom_site_occupancy
  Sb  Sb0  1  0.12500000  0.12500000  0.12500000  1
  Sb  Sb1  1  0.50000000  0.50000000  0.50000000  1
  Sb  Sb2  1  0.25000000  0.25000000  0.25000000  1
  Sb  Sb3  1  0.75000000  0.75000000  0.75000000  1
  P  P4  1  0.97366390  0.01282399  0.08072482  1
  P  P5  1  0.20943190  0.47460539  0.95974307  1
  P  P6  1  0.05326421  0.50024334  0.24755170  1
  Mo  Mo7  1  0.45150697  0.93160051  0.52971302  1
  Mo  Mo8  1  0.41120009  0.45126020  0.63811933  1
  Li  Li9  1  0.46484747  0.43499666  0.69690496  1
