# generated using pymatgen
data_Li2Mn2Sb4P3
_symmetry_space_group_name_H-M   'P 1'
_cell_length_a   5.60785301
_cell_length_b   5.88261312
_cell_length_c   6.56947358
_cell_angle_alpha   99.53843247
_cell_angle_beta   91.40487237
_cell_angle_gamma   99.52875031
_symmetry_Int_Tables_number   1
_chemical_formula_structural   Li2Mn2Sb4P3
_chemical_formula_sum   'Li2 Mn2 Sb4 P3'
_cell_volume   210.47332643
_cell_formula_units_Z   1
loop_
 _symmetry_equiv_pos_site_id
 _symmetry_equiv_pos_as_xyz
  1  'x, y, z'
loop_
 _atom_site_type_symbol
 _atom_site_label
 _atom_site_symmetry_multiplicity
 _atom_site_fract_x
 _atom_site_fract_y
 _atom_site_fract_z
 _atom_site_occupancy
  Mn  Mn0  1  0.00000000  0.00000000  0.00000000  1
  Mn  Mn1  1  0.33300000  0.66700000  0.25000000  1
  Sb  Sb2  1  0.66700000  0.33300000  0.50000000  1
  Sb  Sb3  1  0.00000000  0.00000000  0.75000000  1
  Sb  Sb4  1  0.35417768  0.93027820  0.06601220  1
  Sb  Sb5  1  0.96407631  0.20234479  0.85854937  1
  P  P6  1  0.66067132  0.40649435  0.52856006  1
  P  P7  1  0.03695644  0.38192581  0.65649038  1
  P  P8  1  0.25071700  0.65224567  0.31566449  1
  Li  Li9  1  0.73473807  0.63622625  0.96892003  1
  Li  Li10  1  0.94676025  0.06993031  0.40759507  1
