# generated using pymatgen
data_LiMn2Sb4P3
_symmetry_space_group_name_H-M   'P 1'
_cell_length_a   6.52733901
_cell_length_b   7.03588916
_cell_length_c   7.12964759
_cell_angle_alpha   92.57787979
_cell_angle_beta   91.81413944
_cell_angle_gamma   92.67106934
_symmetry_Int_Tables_number   1
_chemical_formula_structural   LiMn2Sb4P3
_chemical_formula_sum   'Li1 Mn2 Sb4 P3'
_cell_volume   326.55987152
_cell_formula_units_Z   1
loop_
 _symmetry_equiv_pos_site_id
 _symmetry_equiv_pos_as_xyz
  1  'x, y, z'
loop_
 _atom_site_type_symbol
 _atom_site_label
 _atom_site_symmetry_multiplicity
 _atom_site_fract_x
 _atom_site_fract_y
 _atom_site_fract_z
 _atom_site_occupancy
  Mn  Mn0  1  0.00000000  0.00000000  0.00000000  1
  Mn  Mn1  1  0.50000000  0.50000000  0.50000000  1
  Sb  Sb2  1  0.50000000  0.50000000  0.00000000  1
  Sb  Sb3  1  0.50000000  0.00000000  0.50000000  1
  Sb  Sb4  1  0.00000000  0.50000000  0.50000000  1
  Sb  Sb5  1  0.79189972  0.51148006  0.57989442  1
  P  P6  1  0.37277301  0.82490882  0.50240515  1
  P  P7  1  0.91699209  0.55819632  0.20972343  1
  P  P8  1  0.43570044  0.71555684  0.48749290  1
  Li  Li9  1  0.99472788  0.78805730  0.72376730  1
