# generated using pymatgen
data_Li5Ti2(PO)3
_symmetry_space_group_name_H-M   'P 1'
_cell_length_a   8.09037448
_cell_length_b   7.65019411
_cell_length_c   6.80556501
_cell_angle_alpha   90.00000000
_cell_angle_beta   90.00000000
_cell_angle_gamma   90.00000000
_symmetry_Int_Tables_number   1
_chemical_formula_structural   Li5Ti2(PO)3
_chemical_formula_sum   'Li5 Ti2 P3 O3'
_cell_volume   421.21639370
_cell_formula_units_Z   1
loop_
 _symmetry_equiv_pos_site_id
 _symmetry_equiv_pos_as_xyz
  1  'x, y, z'
loop_
 _atom_site_type_symbol
 _atom_site_label
 _atom_site_symmetry_multiplicity
 _atom_site_fract_x
 _atom_site_fract_y
 _atom_site_fract_z
 _atom_site_occupancy
  P  P0  1  0.00000000  0.00000000  0.00000000  1
  P  P1  1  0.50000000  0.50000000  0.50000000  1
  P  P2  1  0.25000000  0.25000000  0.25000000  1
  Li  Li3  1  0.75000000  0.25000000  0.00000000  1
  Li  Li4  1  0.25000000  0.75000000  0.50000000  1
  Li  Li5  1  0.50076494  0.45813588  0.35777259  1
  Li  Li6  1  0.03352402  0.35877303  0.31080904  1
  Li  Li7  1  0.60590115  0.67673776  0.65228170  1
  Ti  Ti8  1  0.08123957  0.27033587  0.21415235  1
  Ti  Ti9  1  0.01604234  0.39814194  0.59430519  1
  O  O10  1  0.11608815  0.15467134  0.24408495  1
  O  O11  1  0.76983913  0.67114122  0.52840851  1
  O  O12  1  0.37863536  0.21175138  0.67753191  1
