# generated using pymatgen
data_Li2MnMo2P3
_symmetry_space_group_name_H-M   'P 1'
_cell_length_a   4.02369649
_cell_length_b   4.17069238
_cell_length_c   5.71019891
_cell_angle_alpha   104.04128373
_cell_angle_beta   93.67550143
_cell_angle_gamma   103.28207319
_symmetry_Int_Tables_number   1
_chemical_formula_structural   Li2MnMo2P3
_chemical_formula_sum   'Li2 Mn1 Mo2 P3'
_cell_volume   89.74457066
_cell_formula_units_Z   1
loop_
 _symmetry_equiv_pos_site_id
 _symmetry_equiv_pos_as_xyz
  1  'x, y, z'
loop_
 _atom_site_type_symbol
 _atom_site_label
 _atom_site_symmetry_multiplicity
 _atom_site_fract_x
 _atom_site_fract_y
 _atom_site_fract_z
 _atom_site_occupancy
  Mn  Mn0  1  0.00000000  0.00000000  0.00000000  1
  P  P1  1  0.33300000  0.66700000  0.25000000  1
  P  P2  1  0.66700000  0.33300000  0.50000000  1
  P  P3  1  0.00000000  0.00000000  0.75000000  1
  Mo  Mo4  1  0.82546519  0.38352817  0.43756695  1
  Mo  Mo5  1  0.09619053  0.58326225  0.49434167  1
  Li  Li6  1  0.62146743  0.64217831  0.86564112  1
  Li  Li7  1  0.87135354  0.62013617  0.27042327  1
