# generated using pymatgen
data_LiTi2Zn2Se5I4
_symmetry_space_group_name_H-M   'P 1'
_cell_length_a   8.17808209
_cell_length_b   9.09400607
_cell_length_c   7.37639881
_cell_angle_alpha   90.00000000
_cell_angle_beta   90.00000000
_cell_angle_gamma   90.00000000
_symmetry_Int_Tables_number   1
_chemical_formula_structural   LiTi2Zn2Se5I4
_chemical_formula_sum   'Li1 Ti2 Zn2 Se5 I4'
_cell_volume   548.59405240
_cell_formula_units_Z   1
loop_
 _symmetry_equiv_pos_site_id
 _symmetry_equiv_pos_as_xyz
  1  'x, y, z'
loop_
 _atom_site_type_symbol
 _atom_site_label
 _atom_site_symmetry_multiplicity
 _atom_site_fract_x
 _atom_site_fract_y
 _atom_site_fract_z
 _atom_site_occupancy
  I  I0  1  0.00000000  0.00000000  0.00000000  1
  I  I1  1  0.50000000  0.50000000  0.50000000  1
  I  I2  1  0.25000000  0.25000000  0.25000000  1
  I  I3  1  0.75000000  0.25000000  0.00000000  1
  Li  Li4  1  0.25000000  0.75000000  0.50000000  1
  Zn  Zn5  1  0.65360213  0.96604333  0.49658112  1
  Zn  Zn6  1  0.33844785  0.06781816  0.04184543  1
  Se  Se7  1  0.10249722  0.00622614  0.97802308  1
  Se  Se8  1  0.53662686  0.53031081  0.53353475  1
  Se  Se9  1  0.44104551  0.30313338  0.42175368  1
  Se  Se10  1  0.34021331  0.42883839  0.43860840  1
  Se  Se11  1  0.20173317  0.13234421  0.45040726  1
  Ti  Ti12  1  0.25569492  0.73259570  0.07898487  1
  Ti  Ti13  1  0.10293458  0.01665158  0.34431487  1
