# generated using pymatgen
data_Li4ZrAs6(P2O)4
_symmetry_space_group_name_H-M   'P 1'
_cell_length_a   7.53331109
_cell_length_b   7.53418296
_cell_length_c   8.80767922
_cell_angle_alpha   93.61895620
_cell_angle_beta   94.62057587
_cell_angle_gamma   93.40440958
_symmetry_Int_Tables_number   1
_chemical_formula_structural   Li4ZrAs6(P2O)4
_chemical_formula_sum   'Li4 Zr1 As6 P8 O4'
_cell_volume   496.23680542
_cell_formula_units_Z   1
loop_
 _symmetry_equiv_pos_site_id
 _symmetry_equiv_pos_as_xyz
  1  'x, y, z'
loop_
 _atom_site_type_symbol
 _atom_site_label
 _atom_site_symmetry_multiplicity
 _atom_site_fract_x
 _atom_site_fract_y
 _atom_site_fract_z
 _atom_site_occupancy
  P  P0  1  0.00000000  0.00000000  0.00000000  1
  P  P1  1  0.50000000  0.50000000  0.50000000  1
  P  P2  1  0.50000000  0.50000000  0.00000000  1
  P  P3  1  0.50000000  0.00000000  0.50000000  1
  P  P4  1  0.00000000  0.50000000  0.50000000  1
  P  P5  1  0.51540233  0.19500432  0.76949519  1
  P  P6  1  0.25099630  0.46444882  0.59486225  1
  P  P7  1  0.06360033  0.19565972  0.58160182  1
  Li  Li8  1  0.71508693  0.19138018  0.84391000  1
  Li  Li9  1  0.28723042  0.54302974  0.48452424  1
  Li  Li10  1  0.08166765  0.52665909  0.54957439  1
  Li  Li11  1  0.27007878  0.42565230  0.64685829  1
  As  As12  1  0.11777647  0.86414551  0.81723699  1
  As  As13  1  0.41957186  0.11354729  0.11869376  1
  As  As14  1  0.17980022  0.82328896  0.30384676  1
  As  As15  1  0.32503173  0.40594904  0.35927895  1
  As  As16  1  0.74487907  0.88527592  0.02390126  1
  As  As17  1  0.93140411  0.43678269  0.61299483  1
  O  O18  1  0.96645397  0.89345058  0.24315694  1
  O  O19  1  0.14097898  0.55621013  0.85292349  1
  O  O20  1  0.87675111  0.42051811  0.37244318  1
  O  O21  1  0.62356477  0.22535939  0.84130096  1
  Zr  Zr22  1  0.58339160  0.71285505  0.92279485  1
