# generated using pymatgen
data_Li2MnSb4P3N5
_symmetry_space_group_name_H-M   'P 1'
_cell_length_a   6.79696761
_cell_length_b   7.43434627
_cell_length_c   7.78403789
_cell_angle_alpha   92.44248647
_cell_angle_beta   92.89335091
_cell_angle_gamma   92.77985118
_symmetry_Int_Tables_number   1
_chemical_formula_structural   Li2MnSb4P3N5
_chemical_formula_sum   'Li2 Mn1 Sb4 P3 N5'
_cell_volume   391.97104019
_cell_formula_units_Z   1
loop_
 _symmetry_equiv_pos_site_id
 _symmetry_equiv_pos_as_xyz
  1  'x, y, z'
loop_
 _atom_site_type_symbol
 _atom_site_label
 _atom_site_symmetry_multiplicity
 _atom_site_fract_x
 _atom_site_fract_y
 _atom_site_fract_z
 _atom_site_occupancy
  N  N0  1  0.00000000  0.00000000  0.00000000  1
  N  N1  1  0.50000000  0.50000000  0.50000000  1
  N  N2  1  0.50000000  0.50000000  0.00000000  1
  N  N3  1  0.50000000  0.00000000  0.50000000  1
  N  N4  1  0.00000000  0.50000000  0.50000000  1
  Mn  Mn5  1  0.55455049  0.71232798  0.35078179  1
  Sb  Sb6  1  0.61306215  0.48411497  0.63848382  1
  Sb  Sb7  1  0.45871930  0.65341998  0.53540333  1
  Sb  Sb8  1  0.32667545  0.76001157  0.43071792  1
  Sb  Sb9  1  0.79809983  0.58016211  0.00697783  1
  P  P10  1  0.11996780  0.07215411  0.02650159  1
  P  P11  1  0.78786247  0.17652472  0.34861673  1
  P  P12  1  0.80783878  0.28145475  0.26341148  1
  Li  Li13  1  0.64788145  0.14815281  0.02705220  1
  Li  Li14  1  0.64609618  0.89540922  0.53756571  1
