# generated using pymatgen
data_Li4LuNi2P4N5
_symmetry_space_group_name_H-M   'P 1'
_cell_length_a   7.43249497
_cell_length_b   7.05219556
_cell_length_c   8.86811598
_cell_angle_alpha   93.49759716
_cell_angle_beta   91.23654746
_cell_angle_gamma   94.05678930
_symmetry_Int_Tables_number   1
_chemical_formula_structural   Li4LuNi2P4N5
_chemical_formula_sum   'Li4 Lu1 Ni2 P4 N5'
_cell_volume   462.64105756
_cell_formula_units_Z   1
loop_
 _symmetry_equiv_pos_site_id
 _symmetry_equiv_pos_as_xyz
  1  'x, y, z'
loop_
 _atom_site_type_symbol
 _atom_site_label
 _atom_site_symmetry_multiplicity
 _atom_site_fract_x
 _atom_site_fract_y
 _atom_site_fract_z
 _atom_site_occupancy
  P  P0  1  0.12500000  0.00000000  0.25000000  1
  P  P1  1  0.00000000  0.00000000  0.00000000  1
  P  P2  1  0.37500000  0.00000000  0.25000000  1
  P  P3  1  0.25000000  0.25000000  0.25000000  1
  Lu  Lu4  1  0.00000000  0.25000000  0.12500000  1
  Li  Li5  1  0.16356568  0.45955426  0.76689600  1
  Li  Li6  1  0.64213980  0.16954484  0.71005992  1
  Li  Li7  1  0.36699551  0.73751073  0.01414963  1
  Li  Li8  1  0.22109869  0.17804900  0.06754790  1
  Ni  Ni9  1  0.27383787  0.03838201  0.54533387  1
  Ni  Ni10  1  0.14303426  0.68276281  0.18715560  1
  N  N11  1  0.46186669  0.00488316  0.74883742  1
  N  N12  1  0.68673592  0.66592182  0.21959821  1
  N  N13  1  0.50180895  0.20735150  0.48650655  1
  N  N14  1  0.69510353  0.47096818  0.63866711  1
  N  N15  1  0.98005051  0.94613188  0.93072796  1
