# generated using pymatgen
data_Li3LuNi2As6N5
_symmetry_space_group_name_H-M   'P 1'
_cell_length_a   7.44205878
_cell_length_b   7.19878513
_cell_length_c   8.76423007
_cell_angle_alpha   92.77897544
_cell_angle_beta   91.49003368
_cell_angle_gamma   93.22136069
_symmetry_Int_Tables_number   1
_chemical_formula_structural   Li3LuNi2As6N5
_chemical_formula_sum   'Li3 Lu1 Ni2 As6 N5'
_cell_volume   468.04541344
_cell_formula_units_Z   1
loop_
 _symmetry_equiv_pos_site_id
 _symmetry_equiv_pos_as_xyz
  1  'x, y, z'
loop_
 _atom_site_type_symbol
 _atom_site_label
 _atom_site_symmetry_multiplicity
 _atom_site_fract_x
 _atom_site_fract_y
 _atom_site_fract_z
 _atom_site_occupancy
  Lu  Lu0  1  0.12500000  0.00000000  0.25000000  1
  Li  Li1  1  0.00000000  0.00000000  0.00000000  1
  Li  Li2  1  0.37500000  0.00000000  0.25000000  1
  Li  Li3  1  0.25000000  0.25000000  0.25000000  1
  Ni  Ni4  1  0.00000000  0.25000000  0.12500000  1
  Ni  Ni5  1  0.40235609  0.23404947  0.90629064  1
  As  As6  1  0.08407791  0.04350434  0.15306659  1
  As  As7  1  0.89294533  0.17440410  0.28469539  1
  As  As8  1  0.24601785  0.45865570  0.48125180  1
  As  As9  1  0.41466819  0.68450335  0.96228136  1
  As  As10  1  0.55003709  0.91889880  0.45941750  1
  As  As11  1  0.68534779  0.78842454  0.12781301  1
  N  N12  1  0.23719160  0.18396443  0.55130080  1
  N  N13  1  0.34895700  0.71091896  0.63319683  1
  N  N14  1  0.00460392  0.81216110  0.85480892  1
  N  N15  1  0.81996922  0.12529370  0.81784862  1
  N  N16  1  0.35245304  0.99063013  0.53165308  1
