# generated using pymatgen
data_Li2TiI4(O2F)2
_symmetry_space_group_name_H-M   'P 1'
_cell_length_a   8.72394752
_cell_length_b   8.54130126
_cell_length_c   7.45050726
_cell_angle_alpha   90.05787507
_cell_angle_beta   90.27535200
_cell_angle_gamma   90.06616666
_symmetry_Int_Tables_number   1
_chemical_formula_structural   Li2TiI4(O2F)2
_chemical_formula_sum   'Li2 Ti1 I4 O4 F2'
_cell_volume   555.15901686
_cell_formula_units_Z   1
loop_
 _symmetry_equiv_pos_site_id
 _symmetry_equiv_pos_as_xyz
  1  'x, y, z'
loop_
 _atom_site_type_symbol
 _atom_site_label
 _atom_site_symmetry_multiplicity
 _atom_site_fract_x
 _atom_site_fract_y
 _atom_site_fract_z
 _atom_site_occupancy
  I  I0  1  0.00000000  0.00000000  0.00000000  1
  I  I1  1  0.50000000  0.50000000  0.50000000  1
  I  I2  1  0.25000000  0.25000000  0.25000000  1
  I  I3  1  0.75000000  0.25000000  0.00000000  1
  Li  Li4  1  0.25000000  0.75000000  0.50000000  1
  Li  Li5  1  0.55515485  0.02259639  0.14769026  1
  F  F6  1  0.41500711  0.89714792  0.06112097  1
  F  F7  1  0.19498890  0.73794310  0.64525830  1
  Ti  Ti8  1  0.84815189  0.65211888  0.62020467  1
  O  O9  1  0.86406253  0.43586337  0.13872457  1
  O  O10  1  0.51474044  0.52908244  0.59139170  1
  O  O11  1  0.83949240  0.79488235  0.88780588  1
  O  O12  1  0.41871283  0.51110070  0.14827036  1
