# generated using pymatgen
data_Li4Ti3Cu2Ni2O5
_symmetry_space_group_name_H-M   'P 1'
_cell_length_a   6.09529715
_cell_length_b   6.32385156
_cell_length_c   7.62385720
_cell_angle_alpha   98.09441124
_cell_angle_beta   100.96345491
_cell_angle_gamma   100.41676887
_symmetry_Int_Tables_number   1
_chemical_formula_structural   Li4Ti3Cu2Ni2O5
_chemical_formula_sum   'Li4 Ti3 Cu2 Ni2 O5'
_cell_volume   279.03934219
_cell_formula_units_Z   1
loop_
 _symmetry_equiv_pos_site_id
 _symmetry_equiv_pos_as_xyz
  1  'x, y, z'
loop_
 _atom_site_type_symbol
 _atom_site_label
 _atom_site_symmetry_multiplicity
 _atom_site_fract_x
 _atom_site_fract_y
 _atom_site_fract_z
 _atom_site_occupancy
  Li  Li0  1  0.12500000  0.00000000  0.25000000  1
  Li  Li1  1  0.00000000  0.00000000  0.00000000  1
  Li  Li2  1  0.37500000  0.00000000  0.25000000  1
  Li  Li3  1  0.25000000  0.25000000  0.25000000  1
  Cu  Cu4  1  0.00000000  0.25000000  0.12500000  1
  Cu  Cu5  1  0.40671520  0.49147707  0.62323291  1
  Ni  Ni6  1  0.45843247  0.48915582  0.30358865  1
  Ni  Ni7  1  0.00118283  0.62585436  0.98291003  1
  Ti  Ti8  1  0.27453276  0.33902324  0.88615779  1
  Ti  Ti9  1  0.75606722  0.14772643  0.19005047  1
  Ti  Ti10  1  0.50202848  0.44400473  0.06965214  1
  O  O11  1  0.99650507  0.26983906  0.09892925  1
  O  O12  1  0.77500357  0.13280368  0.30471678  1
  O  O13  1  0.82638345  0.89595416  0.56690668  1
  O  O14  1  0.74889883  0.97974035  0.44496971  1
  O  O15  1  0.65760580  0.60730395  0.26368631  1
