# generated using pymatgen
data_LiMn2Sb4Mo2P3
_symmetry_space_group_name_H-M   'P 1'
_cell_length_a   6.26129257
_cell_length_b   6.48187582
_cell_length_c   6.48192447
_cell_angle_alpha   92.29107439
_cell_angle_beta   89.78423458
_cell_angle_gamma   91.87089551
_symmetry_Int_Tables_number   1
_chemical_formula_structural   LiMn2Sb4Mo2P3
_chemical_formula_sum   'Li1 Mn2 Sb4 Mo2 P3'
_cell_volume   262.71718426
_cell_formula_units_Z   1
loop_
 _symmetry_equiv_pos_site_id
 _symmetry_equiv_pos_as_xyz
  1  'x, y, z'
loop_
 _atom_site_type_symbol
 _atom_site_label
 _atom_site_symmetry_multiplicity
 _atom_site_fract_x
 _atom_site_fract_y
 _atom_site_fract_z
 _atom_site_occupancy
  Mn  Mn0  1  0.00000000  0.00000000  0.00000000  1
  Mn  Mn1  1  0.50000000  0.50000000  0.50000000  1
  Sb  Sb2  1  0.25000000  0.25000000  0.25000000  1
  Sb  Sb3  1  0.75000000  0.25000000  0.00000000  1
  Sb  Sb4  1  0.25000000  0.75000000  0.50000000  1
  Sb  Sb5  1  0.14039184  0.21568688  0.90728014  1
  P  P6  1  0.25090500  0.05416930  0.14088956  1
  P  P7  1  0.37015393  0.53347345  0.33875559  1
  P  P8  1  0.81392140  0.79833671  0.43543429  1
  Mo  Mo9  1  0.35078617  0.06313802  0.89384125  1
  Mo  Mo10  1  0.79008912  0.85838253  0.23420033  1
  Li  Li11  1  0.97544778  0.50895241  0.28229280  1
