# generated using pymatgen
data_Li4TiTe4P3O
_symmetry_space_group_name_H-M   'P 1'
_cell_length_a   5.11085127
_cell_length_b   5.13006509
_cell_length_c   7.39298625
_cell_angle_alpha   109.40718024
_cell_angle_beta   92.63402053
_cell_angle_gamma   109.79229860
_symmetry_Int_Tables_number   1
_chemical_formula_structural   Li4TiTe4P3O
_chemical_formula_sum   'Li4 Ti1 Te4 P3 O1'
_cell_volume   169.25833717
_cell_formula_units_Z   1
loop_
 _symmetry_equiv_pos_site_id
 _symmetry_equiv_pos_as_xyz
  1  'x, y, z'
loop_
 _atom_site_type_symbol
 _atom_site_label
 _atom_site_symmetry_multiplicity
 _atom_site_fract_x
 _atom_site_fract_y
 _atom_site_fract_z
 _atom_site_occupancy
  Ti  Ti0  1  0.00000000  0.00000000  0.00000000  1
  P  P1  1  0.50000000  0.50000000  0.50000000  1
  P  P2  1  0.50000000  0.50000000  0.00000000  1
  P  P3  1  0.50000000  0.00000000  0.50000000  1
  O  O4  1  0.00000000  0.50000000  0.50000000  1
  Li  Li5  1  0.15602597  0.22046222  0.07968841  1
  Li  Li6  1  0.58344150  0.34901097  0.73735485  1
  Li  Li7  1  0.46439565  0.23305727  0.25346492  1
  Li  Li8  1  0.25398954  0.79976292  0.39081830  1
  Te  Te9  1  0.34396229  0.71964373  0.99916057  1
  Te  Te10  1  0.16241077  0.64843168  0.29469004  1
  Te  Te11  1  0.33898118  0.21271387  0.64038619  1
  Te  Te12  1  0.28181877  0.88256141  0.59968017  1
