# generated using pymatgen
data_Li2TiP3S2
_symmetry_space_group_name_H-M   'P 1'
_cell_length_a   6.40699396
_cell_length_b   6.04247592
_cell_length_c   6.87138424
_cell_angle_alpha   93.22721881
_cell_angle_beta   95.67397384
_cell_angle_gamma   93.04541889
_symmetry_Int_Tables_number   1
_chemical_formula_structural   Li2TiP3S2
_chemical_formula_sum   'Li2 Ti1 P3 S2'
_cell_volume   263.83475968
_cell_formula_units_Z   1
loop_
 _symmetry_equiv_pos_site_id
 _symmetry_equiv_pos_as_xyz
  1  'x, y, z'
loop_
 _atom_site_type_symbol
 _atom_site_label
 _atom_site_symmetry_multiplicity
 _atom_site_fract_x
 _atom_site_fract_y
 _atom_site_fract_z
 _atom_site_occupancy
  P  P0  1  0.00000000  0.00000000  0.00000000  1
  P  P1  1  0.50000000  0.50000000  0.50000000  1
  P  P2  1  0.50000000  0.50000000  0.00000000  1
  Li  Li3  1  0.50000000  0.00000000  0.50000000  1
  Li  Li4  1  0.00000000  0.50000000  0.50000000  1
  S  S5  1  0.84830416  0.73034335  0.81529009  1
  S  S6  1  0.74334864  0.68979066  0.11856896  1
  Ti  Ti7  1  0.22204641  0.45310177  0.01221357  1
