# generated using pymatgen
data_Li2Cu2As6O7
_symmetry_space_group_name_H-M   'P 1'
_cell_length_a   7.80394713
_cell_length_b   7.71631039
_cell_length_c   8.90841438
_cell_angle_alpha   91.25440502
_cell_angle_beta   92.74461310
_cell_angle_gamma   91.30099626
_symmetry_Int_Tables_number   1
_chemical_formula_structural   Li2Cu2As6O7
_chemical_formula_sum   'Li2 Cu2 As6 O7'
_cell_volume   535.54869611
_cell_formula_units_Z   1
loop_
 _symmetry_equiv_pos_site_id
 _symmetry_equiv_pos_as_xyz
  1  'x, y, z'
loop_
 _atom_site_type_symbol
 _atom_site_label
 _atom_site_symmetry_multiplicity
 _atom_site_fract_x
 _atom_site_fract_y
 _atom_site_fract_z
 _atom_site_occupancy
  Li  Li0  1  0.00000000  0.00000000  0.00000000  1
  Li  Li1  1  0.50000000  0.50000000  0.50000000  1
  Cu  Cu2  1  0.50000000  0.50000000  0.00000000  1
  Cu  Cu3  1  0.50000000  0.00000000  0.50000000  1
  As  As4  1  0.00000000  0.50000000  0.50000000  1
  As  As5  1  0.39712434  0.04045397  0.90038712  1
  As  As6  1  0.13351693  0.88295429  0.21844708  1
  As  As7  1  0.80330478  0.35826035  0.47015109  1
  As  As8  1  0.97133662  0.01139795  0.39179997  1
  As  As9  1  0.90630720  0.70010227  0.71356309  1
  O  O10  1  0.57880683  0.05170432  0.54713858  1
  O  O11  1  0.84739736  0.89436662  0.88178574  1
  O  O12  1  0.01959636  0.21618992  0.02731202  1
  O  O13  1  0.21189575  0.51405972  0.78003803  1
  O  O14  1  0.41500013  0.75701025  0.98517335  1
  O  O15  1  0.16009967  0.42220831  0.92246748  1
  O  O16  1  0.64958313  0.51365602  0.88563566  1
