# generated using pymatgen
data_LiLa3Ti2OF2
_symmetry_space_group_name_H-M   'P 1'
_cell_length_a   7.51282765
_cell_length_b   7.59748159
_cell_length_c   7.96517054
_cell_angle_alpha   90.76347630
_cell_angle_beta   95.23577418
_cell_angle_gamma   90.81841311
_symmetry_Int_Tables_number   1
_chemical_formula_structural   LiLa3Ti2OF2
_chemical_formula_sum   'Li1 La3 Ti2 O1 F2'
_cell_volume   452.64856614
_cell_formula_units_Z   1
loop_
 _symmetry_equiv_pos_site_id
 _symmetry_equiv_pos_as_xyz
  1  'x, y, z'
loop_
 _atom_site_type_symbol
 _atom_site_label
 _atom_site_symmetry_multiplicity
 _atom_site_fract_x
 _atom_site_fract_y
 _atom_site_fract_z
 _atom_site_occupancy
  Li  Li0  1  0.00000000  0.00000000  0.00000000  1
  F  F1  1  0.50000000  0.50000000  0.50000000  1
  F  F2  1  0.50000000  0.50000000  0.00000000  1
  La  La3  1  0.50000000  0.00000000  0.50000000  1
  La  La4  1  0.00000000  0.50000000  0.50000000  1
  La  La5  1  0.84263571  0.34541739  0.38942369  1
  Ti  Ti6  1  0.14184617  0.83507270  0.08003189  1
  Ti  Ti7  1  0.90248771  0.90592439  0.16725303  1
  O  O8  1  0.04973808  0.33234246  0.59556273  1
