# generated using pymatgen
data_Li2MnSb4P3
_symmetry_space_group_name_H-M   'P 1'
_cell_length_a   6.22120169
_cell_length_b   6.62322842
_cell_length_c   7.37922633
_cell_angle_alpha   95.80000810
_cell_angle_beta   92.40794414
_cell_angle_gamma   95.97963337
_symmetry_Int_Tables_number   1
_chemical_formula_structural   Li2MnSb4P3
_chemical_formula_sum   'Li2 Mn1 Sb4 P3'
_cell_volume   300.42995770
_cell_formula_units_Z   1
loop_
 _symmetry_equiv_pos_site_id
 _symmetry_equiv_pos_as_xyz
  1  'x, y, z'
loop_
 _atom_site_type_symbol
 _atom_site_label
 _atom_site_symmetry_multiplicity
 _atom_site_fract_x
 _atom_site_fract_y
 _atom_site_fract_z
 _atom_site_occupancy
  Mn  Mn0  1  0.12500000  0.00000000  0.25000000  1
  Sb  Sb1  1  0.00000000  0.00000000  0.00000000  1
  Sb  Sb2  1  0.37500000  0.00000000  0.25000000  1
  Sb  Sb3  1  0.25000000  0.25000000  0.25000000  1
  Sb  Sb4  1  0.00000000  0.25000000  0.12500000  1
  P  P5  1  0.35091188  0.26208084  0.32505452  1
  P  P6  1  0.20732885  0.06141225  0.76146293  1
  P  P7  1  0.23050066  0.89467982  0.39531099  1
  Li  Li8  1  0.51188639  0.81581184  0.24311983  1
  Li  Li9  1  0.57125971  0.64071075  0.97634541  1
