# generated using pymatgen
data_Li2Mn2Sb4Mo2P3
_symmetry_space_group_name_H-M   'P 1'
_cell_length_a   4.80563906
_cell_length_b   5.11113721
_cell_length_c   6.52367798
_cell_angle_alpha   100.58921432
_cell_angle_beta   94.05859921
_cell_angle_gamma   100.87013919
_symmetry_Int_Tables_number   1
_chemical_formula_structural   Li2Mn2Sb4Mo2P3
_chemical_formula_sum   'Li2 Mn2 Sb4 Mo2 P3'
_cell_volume   153.75610133
_cell_formula_units_Z   1
loop_
 _symmetry_equiv_pos_site_id
 _symmetry_equiv_pos_as_xyz
  1  'x, y, z'
loop_
 _atom_site_type_symbol
 _atom_site_label
 _atom_site_symmetry_multiplicity
 _atom_site_fract_x
 _atom_site_fract_y
 _atom_site_fract_z
 _atom_site_occupancy
  Mn  Mn0  1  0.00000000  0.00000000  0.00000000  1
  Mn  Mn1  1  0.50000000  0.50000000  0.50000000  1
  Sb  Sb2  1  0.25000000  0.25000000  0.25000000  1
  Sb  Sb3  1  0.75000000  0.25000000  0.00000000  1
  Sb  Sb4  1  0.25000000  0.75000000  0.50000000  1
  Sb  Sb5  1  0.70995136  0.85516023  0.53296199  1
  P  P6  1  0.94250608  0.33913561  0.44143330  1
  P  P7  1  0.96385819  0.87594177  0.88330677  1
  P  P8  1  0.51886952  0.25497438  0.05590951  1
  Mo  Mo9  1  0.59811827  0.98291513  0.44504509  1
  Mo  Mo10  1  0.70496646  0.96393269  0.21854492  1
  Li  Li11  1  0.26283117  0.68938341  0.94495002  1
  Li  Li12  1  0.72327696  0.77447080  0.24639859  1
