# generated using pymatgen
data_Li2Mn2Sb4P3
_symmetry_space_group_name_H-M   'P 1'
_cell_length_a   5.20750298
_cell_length_b   5.28846309
_cell_length_c   7.26832333
_cell_angle_alpha   96.70785319
_cell_angle_beta   97.94607190
_cell_angle_gamma   97.63436514
_symmetry_Int_Tables_number   1
_chemical_formula_structural   Li2Mn2Sb4P3
_chemical_formula_sum   'Li2 Mn2 Sb4 P3'
_cell_volume   194.61638799
_cell_formula_units_Z   1
loop_
 _symmetry_equiv_pos_site_id
 _symmetry_equiv_pos_as_xyz
  1  'x, y, z'
loop_
 _atom_site_type_symbol
 _atom_site_label
 _atom_site_symmetry_multiplicity
 _atom_site_fract_x
 _atom_site_fract_y
 _atom_site_fract_z
 _atom_site_occupancy
  Mn  Mn0  1  0.00000000  0.00000000  0.00000000  1
  Mn  Mn1  1  0.50000000  0.50000000  0.50000000  1
  Sb  Sb2  1  0.50000000  0.50000000  0.00000000  1
  Sb  Sb3  1  0.50000000  0.00000000  0.50000000  1
  Sb  Sb4  1  0.00000000  0.50000000  0.50000000  1
  Sb  Sb5  1  0.04518197  0.75385689  0.84482987  1
  P  P6  1  0.62383329  0.87184005  0.68542995  1
  P  P7  1  0.47638240  0.42076205  0.19555413  1
  P  P8  1  0.69096876  0.86901158  0.73287336  1
  Li  Li9  1  0.19415382  0.34411788  0.18553907  1
  Li  Li10  1  0.86680639  0.86238351  0.96448304  1
