# generated using pymatgen
data_LiTiCuAs3
_symmetry_space_group_name_H-M   'P 1'
_cell_length_a   8.02987364
_cell_length_b   7.92485945
_cell_length_c   8.14358907
_cell_angle_alpha   90.30094669
_cell_angle_beta   91.43181297
_cell_angle_gamma   90.34406243
_symmetry_Int_Tables_number   1
_chemical_formula_structural   LiTiCuAs3
_chemical_formula_sum   'Li2 Ti2 Cu2 As6'
_cell_volume   518.04362930
_cell_formula_units_Z   2
loop_
 _symmetry_equiv_pos_site_id
 _symmetry_equiv_pos_as_xyz
  1  'x, y, z'
loop_
 _atom_site_type_symbol
 _atom_site_label
 _atom_site_symmetry_multiplicity
 _atom_site_fract_x
 _atom_site_fract_y
 _atom_site_fract_z
 _atom_site_occupancy
  Ti  Ti0  1  0.00000000  0.00000000  0.00000000  1
  Ti  Ti1  1  0.50000000  0.50000000  0.50000000  1
  As  As2  1  0.25000000  0.25000000  0.25000000  1
  As  As3  1  0.75000000  0.25000000  0.00000000  1
  As  As4  1  0.25000000  0.75000000  0.50000000  1
  As  As5  1  0.27292084  0.61113138  0.79997137  1
  As  As6  1  0.22902899  0.67687529  0.16480392  1
  As  As7  1  0.18552634  0.48963805  0.01667559  1
  Li  Li8  1  0.67236072  0.25242497  0.09526824  1
  Li  Li9  1  0.03235388  0.34677176  0.70905765  1
  Cu  Cu10  1  0.49996559  0.17987791  0.73598702  1
  Cu  Cu11  1  0.22889193  0.49129246  0.23677577  1
