# generated using pymatgen
data_Li2TiP6(O2F)2
_symmetry_space_group_name_H-M   'P 1'
_cell_length_a   8.65852781
_cell_length_b   8.44876449
_cell_length_c   7.55470428
_cell_angle_alpha   90.08263352
_cell_angle_beta   90.39314521
_cell_angle_gamma   90.09447218
_symmetry_Int_Tables_number   1
_chemical_formula_structural   Li2TiP6(O2F)2
_chemical_formula_sum   'Li2 Ti1 P6 O4 F2'
_cell_volume   552.64145171
_cell_formula_units_Z   1
loop_
 _symmetry_equiv_pos_site_id
 _symmetry_equiv_pos_as_xyz
  1  'x, y, z'
loop_
 _atom_site_type_symbol
 _atom_site_label
 _atom_site_symmetry_multiplicity
 _atom_site_fract_x
 _atom_site_fract_y
 _atom_site_fract_z
 _atom_site_occupancy
  P  P0  1  0.12500000  0.00000000  0.25000000  1
  P  P1  1  0.00000000  0.00000000  0.00000000  1
  P  P2  1  0.37500000  0.00000000  0.25000000  1
  P  P3  1  0.25000000  0.25000000  0.25000000  1
  P  P4  1  0.00000000  0.25000000  0.12500000  1
  P  P5  1  0.63636597  0.39726608  0.41293297  1
  Li  Li6  1  0.27422007  0.45046935  0.33119946  1
  Li  Li7  1  0.78617924  0.86752463  0.21317014  1
  F  F8  1  0.14260696  0.35439331  0.64873721  1
  F  F9  1  0.26445163  0.36034490  0.43918300  1
  Ti  Ti10  1  0.95067838  0.78658326  0.97129911  1
  O  O11  1  0.03955238  0.16714068  0.83470911  1
  O  O12  1  0.12015900  0.78918252  0.04528274  1
  O  O13  1  0.75812226  0.67115068  0.26278032  1
  O  O14  1  0.07680674  0.61974201  0.75565568  1
