# generated using pymatgen
data_LiMnSb4Mo2P3
_symmetry_space_group_name_H-M   'P 1'
_cell_length_a   4.64823787
_cell_length_b   4.64865382
_cell_length_c   5.60586251
_cell_angle_alpha   96.58949211
_cell_angle_beta   90.27382645
_cell_angle_gamma   95.90236880
_symmetry_Int_Tables_number   1
_chemical_formula_structural   LiMnSb4Mo2P3
_chemical_formula_sum   'Li1 Mn1 Sb4 Mo2 P3'
_cell_volume   119.67675326
_cell_formula_units_Z   1
loop_
 _symmetry_equiv_pos_site_id
 _symmetry_equiv_pos_as_xyz
  1  'x, y, z'
loop_
 _atom_site_type_symbol
 _atom_site_label
 _atom_site_symmetry_multiplicity
 _atom_site_fract_x
 _atom_site_fract_y
 _atom_site_fract_z
 _atom_site_occupancy
  Mn  Mn0  1  0.12500000  0.00000000  0.25000000  1
  Sb  Sb1  1  0.00000000  0.00000000  0.00000000  1
  Sb  Sb2  1  0.37500000  0.00000000  0.25000000  1
  Sb  Sb3  1  0.25000000  0.25000000  0.25000000  1
  Sb  Sb4  1  0.00000000  0.25000000  0.12500000  1
  P  P5  1  0.98844160  0.47511496  0.53824699  1
  P  P6  1  0.09999710  0.44035860  0.75008320  1
  P  P7  1  0.04186311  0.48350829  0.69409254  1
  Mo  Mo8  1  0.08975975  0.11706246  0.23135464  1
  Mo  Mo9  1  0.28848522  0.73335726  0.27980081  1
  Li  Li10  1  0.42506194  0.68469167  0.43780447  1
