# generated using pymatgen
data_Li2Mn3Sb4P3
_symmetry_space_group_name_H-M   'P 1'
_cell_length_a   7.34390770
_cell_length_b   7.46931217
_cell_length_c   7.57525211
_cell_angle_alpha   92.09455528
_cell_angle_beta   90.51530814
_cell_angle_gamma   92.11008609
_symmetry_Int_Tables_number   1
_chemical_formula_structural   Li2Mn3Sb4P3
_chemical_formula_sum   'Li2 Mn3 Sb4 P3'
_cell_volume   414.95097465
_cell_formula_units_Z   1
loop_
 _symmetry_equiv_pos_site_id
 _symmetry_equiv_pos_as_xyz
  1  'x, y, z'
loop_
 _atom_site_type_symbol
 _atom_site_label
 _atom_site_symmetry_multiplicity
 _atom_site_fract_x
 _atom_site_fract_y
 _atom_site_fract_z
 _atom_site_occupancy
  Mn  Mn0  1  0.00000000  0.00000000  0.00000000  1
  Mn  Mn1  1  0.50000000  0.50000000  0.50000000  1
  Mn  Mn2  1  0.25000000  0.25000000  0.25000000  1
  Sb  Sb3  1  0.75000000  0.25000000  0.00000000  1
  Sb  Sb4  1  0.25000000  0.75000000  0.50000000  1
  Sb  Sb5  1  0.06290136  0.89894715  0.03889644  1
  Sb  Sb6  1  0.82143140  0.81756492  0.79405487  1
  P  P7  1  0.50707571  0.45714782  0.90166522  1
  P  P8  1  0.29879648  0.03694078  0.08308343  1
  P  P9  1  0.84764539  0.83293372  0.56353452  1
  Li  Li10  1  0.89639339  0.64079569  0.50527209  1
  Li  Li11  1  0.59828805  0.99970297  0.50848352  1
