# generated using pymatgen
data_LiMn3Sb4P3
_symmetry_space_group_name_H-M   'P 1'
_cell_length_a   6.26049808
_cell_length_b   6.42105786
_cell_length_c   6.79666633
_cell_angle_alpha   96.28032995
_cell_angle_beta   92.04673623
_cell_angle_gamma   96.62059507
_symmetry_Int_Tables_number   1
_chemical_formula_structural   LiMn3Sb4P3
_chemical_formula_sum   'Li1 Mn3 Sb4 P3'
_cell_volume   269.44523468
_cell_formula_units_Z   1
loop_
 _symmetry_equiv_pos_site_id
 _symmetry_equiv_pos_as_xyz
  1  'x, y, z'
loop_
 _atom_site_type_symbol
 _atom_site_label
 _atom_site_symmetry_multiplicity
 _atom_site_fract_x
 _atom_site_fract_y
 _atom_site_fract_z
 _atom_site_occupancy
  Mn  Mn0  1  0.00000000  0.00000000  0.00000000  1
  Mn  Mn1  1  0.50000000  0.50000000  0.50000000  1
  Mn  Mn2  1  0.25000000  0.25000000  0.25000000  1
  Sb  Sb3  1  0.75000000  0.25000000  0.00000000  1
  Sb  Sb4  1  0.25000000  0.75000000  0.50000000  1
  Sb  Sb5  1  0.01553638  0.94476853  0.14205305  1
  Sb  Sb6  1  0.68803902  0.07796484  0.01533886  1
  P  P7  1  0.36039774  0.90390072  0.39624993  1
  P  P8  1  0.00152953  0.95153281  0.64321804  1
  P  P9  1  0.24053495  0.83797185  0.20140097  1
  Li  Li10  1  0.85390302  0.66467529  0.59309778  1
