# generated using pymatgen
data_Li2MnSb4Mo2P3
_symmetry_space_group_name_H-M   'P 1'
_cell_length_a   4.71873528
_cell_length_b   5.05231080
_cell_length_c   6.79199130
_cell_angle_alpha   99.10449334
_cell_angle_beta   96.71028214
_cell_angle_gamma   99.79456174
_symmetry_Int_Tables_number   1
_chemical_formula_structural   Li2MnSb4Mo2P3
_chemical_formula_sum   'Li2 Mn1 Sb4 Mo2 P3'
_cell_volume   155.82476874
_cell_formula_units_Z   1
loop_
 _symmetry_equiv_pos_site_id
 _symmetry_equiv_pos_as_xyz
  1  'x, y, z'
loop_
 _atom_site_type_symbol
 _atom_site_label
 _atom_site_symmetry_multiplicity
 _atom_site_fract_x
 _atom_site_fract_y
 _atom_site_fract_z
 _atom_site_occupancy
  Mn  Mn0  1  0.00000000  0.00000000  0.00000000  1
  Sb  Sb1  1  0.50000000  0.50000000  0.50000000  1
  Sb  Sb2  1  0.50000000  0.50000000  0.00000000  1
  Sb  Sb3  1  0.50000000  0.00000000  0.50000000  1
  Sb  Sb4  1  0.00000000  0.50000000  0.50000000  1
  P  P5  1  0.56723094  0.23445447  0.72174421  1
  P  P6  1  0.64862781  0.10732911  0.18983866  1
  P  P7  1  0.48953218  0.43349641  0.35026462  1
  Mo  Mo8  1  0.97861192  0.42784555  0.16067993  1
  Mo  Mo9  1  0.70121401  0.86359540  0.70056116  1
  Li  Li10  1  0.86575396  0.38637227  0.89580513  1
  Li  Li11  1  0.18893841  0.43257788  0.36109095  1
