# generated using pymatgen
data_Li2P3N
_symmetry_space_group_name_H-M   'P 1'
_cell_length_a   4.91774807
_cell_length_b   5.19995962
_cell_length_c   5.50410613
_cell_angle_alpha   98.12823769
_cell_angle_beta   93.69282443
_cell_angle_gamma   95.65853114
_symmetry_Int_Tables_number   1
_chemical_formula_structural   Li2P3N
_chemical_formula_sum   'Li2 P3 N1'
_cell_volume   138.21934982
_cell_formula_units_Z   1
loop_
 _symmetry_equiv_pos_site_id
 _symmetry_equiv_pos_as_xyz
  1  'x, y, z'
loop_
 _atom_site_type_symbol
 _atom_site_label
 _atom_site_symmetry_multiplicity
 _atom_site_fract_x
 _atom_site_fract_y
 _atom_site_fract_z
 _atom_site_occupancy
  P  P0  1  0.12500000  0.12500000  0.12500000  1
  P  P1  1  0.50000000  0.50000000  0.50000000  1
  P  P2  1  0.25000000  0.25000000  0.25000000  1
  Li  Li3  1  0.75000000  0.75000000  0.75000000  1
  Li  Li4  1  0.88420934  0.48954002  0.36023310  1
  N  N5  1  0.53524609  0.86099790  0.16460875  1
