# generated using pymatgen
data_LiMn3Sb4Mo2P3
_symmetry_space_group_name_H-M   'P 1'
_cell_length_a   4.81048926
_cell_length_b   5.05774359
_cell_length_c   6.31095996
_cell_angle_alpha   94.79624781
_cell_angle_beta   94.49383502
_cell_angle_gamma   95.59938170
_symmetry_Int_Tables_number   1
_chemical_formula_structural   LiMn3Sb4Mo2P3
_chemical_formula_sum   'Li1 Mn3 Sb4 Mo2 P3'
_cell_volume   151.69882792
_cell_formula_units_Z   1
loop_
 _symmetry_equiv_pos_site_id
 _symmetry_equiv_pos_as_xyz
  1  'x, y, z'
loop_
 _atom_site_type_symbol
 _atom_site_label
 _atom_site_symmetry_multiplicity
 _atom_site_fract_x
 _atom_site_fract_y
 _atom_site_fract_z
 _atom_site_occupancy
  Mn  Mn0  1  0.00000000  0.00000000  0.00000000  1
  Mn  Mn1  1  0.50000000  0.50000000  0.50000000  1
  Mn  Mn2  1  0.25000000  0.25000000  0.25000000  1
  Sb  Sb3  1  0.75000000  0.25000000  0.00000000  1
  Sb  Sb4  1  0.25000000  0.75000000  0.50000000  1
  Sb  Sb5  1  0.11290547  0.08495198  0.58106516  1
  Sb  Sb6  1  0.80529417  0.55556720  0.05157705  1
  P  P7  1  0.34966689  0.85207676  0.60617694  1
  P  P8  1  0.20959906  0.54516269  0.21038080  1
  P  P9  1  0.76436088  0.14070362  0.32143296  1
  Mo  Mo10  1  0.98171942  0.38835347  0.16017674  1
  Mo  Mo11  1  0.61808678  0.25317736  0.98727978  1
  Li  Li12  1  0.42218647  0.46398012  0.57969689  1
