# generated using pymatgen
data_Li3TiAs6I4O5
_symmetry_space_group_name_H-M   'P 1'
_cell_length_a   8.57665602
_cell_length_b   8.44474014
_cell_length_c   8.50894646
_cell_angle_alpha   90.00000000
_cell_angle_beta   90.00000000
_cell_angle_gamma   90.00000000
_symmetry_Int_Tables_number   1
_chemical_formula_structural   Li3TiAs6I4O5
_chemical_formula_sum   'Li3 Ti1 As6 I4 O5'
_cell_volume   616.28283687
_cell_formula_units_Z   1
loop_
 _symmetry_equiv_pos_site_id
 _symmetry_equiv_pos_as_xyz
  1  'x, y, z'
loop_
 _atom_site_type_symbol
 _atom_site_label
 _atom_site_symmetry_multiplicity
 _atom_site_fract_x
 _atom_site_fract_y
 _atom_site_fract_z
 _atom_site_occupancy
  I  I0  1  0.00000000  0.00000000  0.00000000  1
  I  I1  1  0.50000000  0.50000000  0.50000000  1
  I  I2  1  0.25000000  0.25000000  0.25000000  1
  I  I3  1  0.75000000  0.25000000  0.00000000  1
  Li  Li4  1  0.25000000  0.75000000  0.50000000  1
  Li  Li5  1  0.82474493  0.83902518  0.23893900  1
  Li  Li6  1  0.90233411  0.35986416  0.06630680  1
  Ti  Ti7  1  0.79383401  0.80935256  0.21800021  1
  As  As8  1  0.30791727  0.79983235  0.83563694  1
  As  As9  1  0.46612380  0.25384350  0.29359397  1
  As  As10  1  0.61717544  0.83438189  0.70161207  1
  As  As11  1  0.91799292  0.41437512  0.89799273  1
  As  As12  1  0.13840317  0.02873644  0.92126822  1
  As  As13  1  0.65096068  0.61466890  0.29919823  1
  O  O14  1  0.55986398  0.35359980  0.18707247  1
  O  O15  1  0.75711735  0.80286266  0.73564756  1
  O  O16  1  0.70072969  0.33425961  0.17426800  1
  O  O17  1  0.95467934  0.25772601  0.46279708  1
  O  O18  1  0.87376908  0.38408316  0.30472793  1
