# generated using pymatgen
data_Li3Ni2N5
_symmetry_space_group_name_H-M   'P 1'
_cell_length_a   7.65655585
_cell_length_b   7.32391185
_cell_length_c   9.04224932
_cell_angle_alpha   93.14027403
_cell_angle_beta   91.74825242
_cell_angle_gamma   93.54159556
_symmetry_Int_Tables_number   1
_chemical_formula_structural   Li3Ni2N5
_chemical_formula_sum   'Li3 Ni2 N5'
_cell_volume   505.03204144
_cell_formula_units_Z   1
loop_
 _symmetry_equiv_pos_site_id
 _symmetry_equiv_pos_as_xyz
  1  'x, y, z'
loop_
 _atom_site_type_symbol
 _atom_site_label
 _atom_site_symmetry_multiplicity
 _atom_site_fract_x
 _atom_site_fract_y
 _atom_site_fract_z
 _atom_site_occupancy
  Li  Li0  1  0.12500000  0.00000000  0.25000000  1
  Li  Li1  1  0.00000000  0.00000000  0.00000000  1
  Li  Li2  1  0.37500000  0.00000000  0.25000000  1
  Ni  Ni3  1  0.25000000  0.25000000  0.25000000  1
  Ni  Ni4  1  0.00000000  0.25000000  0.12500000  1
  N  N5  1  0.84253221  0.61229718  0.21678035  1
  N  N6  1  0.98425050  0.00024760  0.86752765  1
  N  N7  1  0.28027009  0.61562496  0.21354046  1
  N  N8  1  0.62682576  0.05666468  0.90262604  1
  N  N9  1  0.17278536  0.24386422  0.42089046  1
