# generated using pymatgen
data_Li2TiP4SeCl2
_symmetry_space_group_name_H-M   'P 1'
_cell_length_a   7.77473245
_cell_length_b   7.44446753
_cell_length_c   7.53699106
_cell_angle_alpha   93.29928306
_cell_angle_beta   94.60121661
_cell_angle_gamma   93.12631123
_symmetry_Int_Tables_number   1
_chemical_formula_structural   Li2TiP4SeCl2
_chemical_formula_sum   'Li2 Ti1 P4 Se1 Cl2'
_cell_volume   433.33731385
_cell_formula_units_Z   1
loop_
 _symmetry_equiv_pos_site_id
 _symmetry_equiv_pos_as_xyz
  1  'x, y, z'
loop_
 _atom_site_type_symbol
 _atom_site_label
 _atom_site_symmetry_multiplicity
 _atom_site_fract_x
 _atom_site_fract_y
 _atom_site_fract_z
 _atom_site_occupancy
  P  P0  1  0.00000000  0.00000000  0.00000000  1
  P  P1  1  0.50000000  0.50000000  0.50000000  1
  P  P2  1  0.50000000  0.50000000  0.00000000  1
  P  P3  1  0.50000000  0.00000000  0.50000000  1
  Li  Li4  1  0.00000000  0.50000000  0.50000000  1
  Li  Li5  1  0.02158077  0.96661955  0.61241983  1
  Se  Se6  1  0.18131768  0.04368758  0.42883247  1
  Cl  Cl7  1  0.81545836  0.26664033  0.07069336  1
  Cl  Cl8  1  0.98719551  0.71001150  0.14199744  1
  Ti  Ti9  1  0.63853509  0.72714149  0.19947625  1
