# generated using pymatgen
data_Li3TiCu2I4O3
_symmetry_space_group_name_H-M   'P 1'
_cell_length_a   6.75639803
_cell_length_b   6.92806357
_cell_length_c   6.87929977
_cell_angle_alpha   96.61920523
_cell_angle_beta   98.96536584
_cell_angle_gamma   98.51831330
_symmetry_Int_Tables_number   1
_chemical_formula_structural   Li3TiCu2I4O3
_chemical_formula_sum   'Li3 Ti1 Cu2 I4 O3'
_cell_volume   311.39767713
_cell_formula_units_Z   1
loop_
 _symmetry_equiv_pos_site_id
 _symmetry_equiv_pos_as_xyz
  1  'x, y, z'
loop_
 _atom_site_type_symbol
 _atom_site_label
 _atom_site_symmetry_multiplicity
 _atom_site_fract_x
 _atom_site_fract_y
 _atom_site_fract_z
 _atom_site_occupancy
  I  I0  1  0.00000000  0.00000000  0.00000000  1
  I  I1  1  0.50000000  0.50000000  0.50000000  1
  I  I2  1  0.50000000  0.50000000  0.00000000  1
  I  I3  1  0.50000000  0.00000000  0.50000000  1
  Li  Li4  1  0.00000000  0.50000000  0.50000000  1
  Li  Li5  1  0.98691965  0.80213425  0.28473017  1
  Li  Li6  1  0.27198865  0.57092705  0.61597135  1
  Cu  Cu7  1  0.34502318  0.57295520  0.18813956  1
  Cu  Cu8  1  0.38650931  0.16392014  0.95260234  1
  Ti  Ti9  1  0.68139819  0.15466054  0.11750611  1
  O  O10  1  0.55559200  0.08402428  0.03908773  1
  O  O11  1  0.34206007  0.81602771  0.48498009  1
  O  O12  1  0.46825916  0.98808917  0.79555539  1
