# generated using pymatgen
data_Li3TiP3W
_symmetry_space_group_name_H-M   'P 1'
_cell_length_a   3.97219207
_cell_length_b   3.85475904
_cell_length_c   5.33261535
_cell_angle_alpha   102.50769378
_cell_angle_beta   91.20797124
_cell_angle_gamma   99.89005624
_symmetry_Int_Tables_number   1
_chemical_formula_structural   Li3TiP3W
_chemical_formula_sum   'Li3 Ti1 P3 W1'
_cell_volume   78.38538073
_cell_formula_units_Z   1
loop_
 _symmetry_equiv_pos_site_id
 _symmetry_equiv_pos_as_xyz
  1  'x, y, z'
loop_
 _atom_site_type_symbol
 _atom_site_label
 _atom_site_symmetry_multiplicity
 _atom_site_fract_x
 _atom_site_fract_y
 _atom_site_fract_z
 _atom_site_occupancy
  Ti  Ti0  1  0.00000000  0.00000000  0.00000000  1
  W  W1  1  0.50000000  0.50000000  0.50000000  1
  P  P2  1  0.25000000  0.25000000  0.25000000  1
  P  P3  1  0.75000000  0.25000000  0.00000000  1
  P  P4  1  0.25000000  0.75000000  0.50000000  1
  Li  Li5  1  0.30188883  0.70959662  0.95343638  1
  Li  Li6  1  0.17920321  0.76143136  0.03956511  1
  Li  Li7  1  0.02694530  0.48576893  0.45076817  1
