# generated using pymatgen
data_Li3Ti2Cu2P6O
_symmetry_space_group_name_H-M   'P 1'
_cell_length_a   7.26025183
_cell_length_b   7.27252982
_cell_length_c   7.84413161
_cell_angle_alpha   93.65178490
_cell_angle_beta   95.19667691
_cell_angle_gamma   93.46637576
_symmetry_Int_Tables_number   1
_chemical_formula_structural   Li3Ti2Cu2P6O
_chemical_formula_sum   'Li3 Ti2 Cu2 P6 O1'
_cell_volume   410.71834504
_cell_formula_units_Z   1
loop_
 _symmetry_equiv_pos_site_id
 _symmetry_equiv_pos_as_xyz
  1  'x, y, z'
loop_
 _atom_site_type_symbol
 _atom_site_label
 _atom_site_symmetry_multiplicity
 _atom_site_fract_x
 _atom_site_fract_y
 _atom_site_fract_z
 _atom_site_occupancy
  P  P0  1  0.00000000  0.00000000  0.00000000  1
  P  P1  1  0.50000000  0.50000000  0.50000000  1
  P  P2  1  0.25000000  0.25000000  0.25000000  1
  P  P3  1  0.75000000  0.25000000  0.00000000  1
  P  P4  1  0.25000000  0.75000000  0.50000000  1
  P  P5  1  0.43530434  0.29079374  0.42157201  1
  Li  Li6  1  0.95990009  0.10265840  0.89850612  1
  Li  Li7  1  0.02163534  0.58330562  0.55517310  1
  Li  Li8  1  0.16856316  0.57628187  0.67071489  1
  Cu  Cu9  1  0.35206792  0.99098253  0.02099334  1
  Cu  Cu10  1  0.68869718  0.31025517  0.15075464  1
  Ti  Ti11  1  0.07803404  0.12388364  0.04089928  1
  Ti  Ti12  1  0.88321043  0.95438864  0.24318227  1
  O  O13  1  0.57705590  0.54855028  0.24744678  1
