# generated using pymatgen
data_LiMnSb4P3
_symmetry_space_group_name_H-M   'P 1'
_cell_length_a   5.74731216
_cell_length_b   6.09007977
_cell_length_c   6.86760348
_cell_angle_alpha   95.24870807
_cell_angle_beta   94.18652628
_cell_angle_gamma   95.61784091
_symmetry_Int_Tables_number   1
_chemical_formula_structural   LiMnSb4P3
_chemical_formula_sum   'Li1 Mn1 Sb4 P3'
_cell_volume   237.40339101
_cell_formula_units_Z   1
loop_
 _symmetry_equiv_pos_site_id
 _symmetry_equiv_pos_as_xyz
  1  'x, y, z'
loop_
 _atom_site_type_symbol
 _atom_site_label
 _atom_site_symmetry_multiplicity
 _atom_site_fract_x
 _atom_site_fract_y
 _atom_site_fract_z
 _atom_site_occupancy
  Mn  Mn0  1  0.00000000  0.00000000  0.00000000  1
  Sb  Sb1  1  0.50000000  0.50000000  0.50000000  1
  Sb  Sb2  1  0.50000000  0.50000000  0.00000000  1
  Sb  Sb3  1  0.50000000  0.00000000  0.50000000  1
  Sb  Sb4  1  0.00000000  0.50000000  0.50000000  1
  P  P5  1  0.20953582  0.02706946  0.66410502  1
  P  P6  1  0.36566127  0.12117780  0.58250767  1
  P  P7  1  0.18299212  0.80205628  0.37823250  1
  Li  Li8  1  0.26050319  0.58101257  0.10122826  1
