# generated using pymatgen
data_Li2Mn2Sb4P3
_symmetry_space_group_name_H-M   'P 1'
_cell_length_a   6.09560264
_cell_length_b   6.24183776
_cell_length_c   6.88374047
_cell_angle_alpha   97.47746027
_cell_angle_beta   90.74229836
_cell_angle_gamma   97.38008683
_symmetry_Int_Tables_number   1
_chemical_formula_structural   Li2Mn2Sb4P3
_chemical_formula_sum   'Li2 Mn2 Sb4 P3'
_cell_volume   257.41513565
_cell_formula_units_Z   1
loop_
 _symmetry_equiv_pos_site_id
 _symmetry_equiv_pos_as_xyz
  1  'x, y, z'
loop_
 _atom_site_type_symbol
 _atom_site_label
 _atom_site_symmetry_multiplicity
 _atom_site_fract_x
 _atom_site_fract_y
 _atom_site_fract_z
 _atom_site_occupancy
  Mn  Mn0  1  0.00000000  0.00000000  0.00000000  1
  Mn  Mn1  1  0.50000000  0.50000000  0.50000000  1
  Sb  Sb2  1  0.25000000  0.25000000  0.25000000  1
  Sb  Sb3  1  0.75000000  0.25000000  0.00000000  1
  Sb  Sb4  1  0.25000000  0.75000000  0.50000000  1
  Sb  Sb5  1  0.55069513  0.52341543  0.86709428  1
  P  P6  1  0.00090758  0.17386912  0.00983477  1
  P  P7  1  0.18048479  0.72890121  0.96202927  1
  P  P8  1  0.98455763  0.70236772  0.21369282  1
  Li  Li9  1  0.22072956  0.72467859  0.95352727  1
  Li  Li10  1  0.08638021  0.21250855  0.50513784  1
