# generated using pymatgen
data_LiMn2Sb4P3
_symmetry_space_group_name_H-M   'P 1'
_cell_length_a   5.67772133
_cell_length_b   6.03109456
_cell_length_c   6.56507311
_cell_angle_alpha   97.13360602
_cell_angle_beta   91.02957000
_cell_angle_gamma   96.98341856
_symmetry_Int_Tables_number   1
_chemical_formula_structural   LiMn2Sb4P3
_chemical_formula_sum   'Li1 Mn2 Sb4 P3'
_cell_volume   221.28713114
_cell_formula_units_Z   1
loop_
 _symmetry_equiv_pos_site_id
 _symmetry_equiv_pos_as_xyz
  1  'x, y, z'
loop_
 _atom_site_type_symbol
 _atom_site_label
 _atom_site_symmetry_multiplicity
 _atom_site_fract_x
 _atom_site_fract_y
 _atom_site_fract_z
 _atom_site_occupancy
  Mn  Mn0  1  0.12500000  0.12500000  0.12500000  1
  Mn  Mn1  1  0.50000000  0.50000000  0.50000000  1
  Sb  Sb2  1  0.25000000  0.25000000  0.25000000  1
  Sb  Sb3  1  0.75000000  0.75000000  0.75000000  1
  Sb  Sb4  1  0.96577644  0.83549306  0.59689934  1
  Sb  Sb5  1  0.63858664  0.87529993  0.40821150  1
  P  P6  1  0.71284662  0.04233952  0.24593144  1
  P  P7  1  0.21291051  0.40845957  0.32755424  1
  P  P8  1  0.42171833  0.73836692  0.33190052  1
  Li  Li9  1  0.50427540  0.78554310  0.74952403  1
