# generated using pymatgen
data_Li3Ti2P3O2
_symmetry_space_group_name_H-M   'P 1'
_cell_length_a   6.89071940
_cell_length_b   6.94957347
_cell_length_c   6.86557372
_cell_angle_alpha   95.42659995
_cell_angle_beta   97.68889842
_cell_angle_gamma   96.96923703
_symmetry_Int_Tables_number   1
_chemical_formula_structural   Li3Ti2P3O2
_chemical_formula_sum   'Li3 Ti2 P3 O2'
_cell_volume   321.35394885
_cell_formula_units_Z   1
loop_
 _symmetry_equiv_pos_site_id
 _symmetry_equiv_pos_as_xyz
  1  'x, y, z'
loop_
 _atom_site_type_symbol
 _atom_site_label
 _atom_site_symmetry_multiplicity
 _atom_site_fract_x
 _atom_site_fract_y
 _atom_site_fract_z
 _atom_site_occupancy
  P  P0  1  0.00000000  0.00000000  0.00000000  1
  P  P1  1  0.33300000  0.66700000  0.25000000  1
  P  P2  1  0.66700000  0.33300000  0.50000000  1
  Li  Li3  1  0.00000000  0.00000000  0.75000000  1
  Li  Li4  1  0.35461778  0.40035764  0.78216021  1
  Li  Li5  1  0.86970313  0.49778776  0.27478984  1
  Ti  Ti6  1  0.23423164  0.10615147  0.65393737  1
  Ti  Ti7  1  0.11929958  0.99282180  0.26034381  1
  O  O8  1  0.85032150  0.99865052  0.47992485  1
  O  O9  1  0.49494794  0.11286293  0.03425281  1
