# generated using pymatgen
data_Li2Mn2Sb4P3
_symmetry_space_group_name_H-M   'P 1'
_cell_length_a   6.03017293
_cell_length_b   6.48881619
_cell_length_c   6.88817986
_cell_angle_alpha   96.44381418
_cell_angle_beta   91.53743461
_cell_angle_gamma   96.48492476
_symmetry_Int_Tables_number   1
_chemical_formula_structural   Li2Mn2Sb4P3
_chemical_formula_sum   'Li2 Mn2 Sb4 P3'
_cell_volume   265.89591305
_cell_formula_units_Z   1
loop_
 _symmetry_equiv_pos_site_id
 _symmetry_equiv_pos_as_xyz
  1  'x, y, z'
loop_
 _atom_site_type_symbol
 _atom_site_label
 _atom_site_symmetry_multiplicity
 _atom_site_fract_x
 _atom_site_fract_y
 _atom_site_fract_z
 _atom_site_occupancy
  Mn  Mn0  1  0.00000000  0.00000000  0.00000000  1
  Mn  Mn1  1  0.33300000  0.66700000  0.25000000  1
  Sb  Sb2  1  0.66700000  0.33300000  0.50000000  1
  Sb  Sb3  1  0.00000000  0.00000000  0.75000000  1
  Sb  Sb4  1  0.20535776  0.21505691  0.33681128  1
  Sb  Sb5  1  0.71902053  0.82588843  0.51840347  1
  P  P6  1  0.21130762  0.84391296  0.26362705  1
  P  P7  1  0.66532943  0.52836509  0.90250744  1
  P  P8  1  0.87580071  0.95795315  0.01174245  1
  Li  Li9  1  0.40787056  0.17806734  0.61631745  1
  Li  Li10  1  0.47913704  0.28993646  0.84562692  1
