# generated using pymatgen
data_Li2Mn2P3
_symmetry_space_group_name_H-M   'P 1'
_cell_length_a   5.56023881
_cell_length_b   5.96964041
_cell_length_c   6.43509435
_cell_angle_alpha   95.85126949
_cell_angle_beta   94.06851002
_cell_angle_gamma   94.92684240
_symmetry_Int_Tables_number   1
_chemical_formula_structural   Li2Mn2P3
_chemical_formula_sum   'Li2 Mn2 P3'
_cell_volume   211.01404725
_cell_formula_units_Z   1
loop_
 _symmetry_equiv_pos_site_id
 _symmetry_equiv_pos_as_xyz
  1  'x, y, z'
loop_
 _atom_site_type_symbol
 _atom_site_label
 _atom_site_symmetry_multiplicity
 _atom_site_fract_x
 _atom_site_fract_y
 _atom_site_fract_z
 _atom_site_occupancy
  Mn  Mn0  1  0.12500000  0.00000000  0.25000000  1
  Mn  Mn1  1  0.00000000  0.00000000  0.00000000  1
  P  P2  1  0.37500000  0.00000000  0.25000000  1
  P  P3  1  0.25000000  0.25000000  0.25000000  1
  P  P4  1  0.00000000  0.25000000  0.12500000  1
  Li  Li5  1  0.08434397  0.33520077  0.51149085  1
  Li  Li6  1  0.46297654  0.24704693  0.04137932  1
