# generated using pymatgen
data_Li2TiNi2N5
_symmetry_space_group_name_H-M   'P 1'
_cell_length_a   7.89475425
_cell_length_b   7.66299140
_cell_length_c   8.29185157
_cell_angle_alpha   92.04414526
_cell_angle_beta   90.96650207
_cell_angle_gamma   92.37004142
_symmetry_Int_Tables_number   1
_chemical_formula_structural   Li2TiNi2N5
_chemical_formula_sum   'Li2 Ti1 Ni2 N5'
_cell_volume   500.80316700
_cell_formula_units_Z   1
loop_
 _symmetry_equiv_pos_site_id
 _symmetry_equiv_pos_as_xyz
  1  'x, y, z'
loop_
 _atom_site_type_symbol
 _atom_site_label
 _atom_site_symmetry_multiplicity
 _atom_site_fract_x
 _atom_site_fract_y
 _atom_site_fract_z
 _atom_site_occupancy
  Li  Li0  1  0.12500000  0.00000000  0.25000000  1
  Li  Li1  1  0.00000000  0.00000000  0.00000000  1
  Ni  Ni2  1  0.37500000  0.00000000  0.25000000  1
  Ni  Ni3  1  0.25000000  0.25000000  0.25000000  1
  Ti  Ti4  1  0.00000000  0.25000000  0.12500000  1
  N  N5  1  0.87121753  0.64986698  0.44042642  1
  N  N6  1  0.70065287  0.73814218  0.53658657  1
  N  N7  1  0.07639438  0.77439867  0.80113897  1
  N  N8  1  0.53370244  0.58955192  0.93513421  1
  N  N9  1  0.75859558  0.14832444  0.34805215  1
