# generated using pymatgen
data_Li2TiP3(I2O)2
_symmetry_space_group_name_H-M   'P 1'
_cell_length_a   6.89657499
_cell_length_b   6.63360450
_cell_length_c   7.10123801
_cell_angle_alpha   93.78913414
_cell_angle_beta   94.65220653
_cell_angle_gamma   93.44194627
_symmetry_Int_Tables_number   1
_chemical_formula_structural   Li2TiP3(I2O)2
_chemical_formula_sum   'Li2 Ti1 P3 I4 O2'
_cell_volume   322.39814718
_cell_formula_units_Z   1
loop_
 _symmetry_equiv_pos_site_id
 _symmetry_equiv_pos_as_xyz
  1  'x, y, z'
loop_
 _atom_site_type_symbol
 _atom_site_label
 _atom_site_symmetry_multiplicity
 _atom_site_fract_x
 _atom_site_fract_y
 _atom_site_fract_z
 _atom_site_occupancy
  I  I0  1  0.00000000  0.00000000  0.00000000  1
  I  I1  1  0.50000000  0.50000000  0.50000000  1
  I  I2  1  0.50000000  0.50000000  0.00000000  1
  I  I3  1  0.50000000  0.00000000  0.50000000  1
  P  P4  1  0.00000000  0.50000000  0.50000000  1
  P  P5  1  0.57014364  0.75474011  0.48160624  1
  P  P6  1  0.75854959  0.99256058  0.95472172  1
  Li  Li7  1  0.59116655  0.17154310  0.58898097  1
  Li  Li8  1  0.91935749  0.59428796  0.66039630  1
  Ti  Ti9  1  0.63061950  0.37843648  0.45977460  1
  O  O10  1  0.35970522  0.02894674  0.82795424  1
  O  O11  1  0.80510378  0.39604848  0.28858843  1
