# generated using pymatgen
data_Li2MnMo2P3
_symmetry_space_group_name_H-M   'P 1'
_cell_length_a   5.07257936
_cell_length_b   5.29225828
_cell_length_c   6.78624181
_cell_angle_alpha   99.07968787
_cell_angle_beta   94.84179892
_cell_angle_gamma   99.51021047
_symmetry_Int_Tables_number   1
_chemical_formula_structural   Li2MnMo2P3
_chemical_formula_sum   'Li2 Mn1 Mo2 P3'
_cell_volume   176.27888075
_cell_formula_units_Z   1
loop_
 _symmetry_equiv_pos_site_id
 _symmetry_equiv_pos_as_xyz
  1  'x, y, z'
loop_
 _atom_site_type_symbol
 _atom_site_label
 _atom_site_symmetry_multiplicity
 _atom_site_fract_x
 _atom_site_fract_y
 _atom_site_fract_z
 _atom_site_occupancy
  Mn  Mn0  1  0.00000000  0.00000000  0.00000000  1
  P  P1  1  0.33300000  0.66700000  0.25000000  1
  P  P2  1  0.66700000  0.33300000  0.50000000  1
  P  P3  1  0.00000000  0.00000000  0.75000000  1
  Mo  Mo4  1  0.07874072  0.18682431  0.75240838  1
  Mo  Mo5  1  0.39515755  0.13555595  0.30773748  1
  Li  Li6  1  0.00182775  0.24291317  0.53762875  1
  Li  Li7  1  0.83064135  0.62812878  0.25508189  1
