# generated using pymatgen
data_Li2Sb4P3N5
_symmetry_space_group_name_H-M   'P 1'
_cell_length_a   7.18222576
_cell_length_b   7.66650724
_cell_length_c   7.74251157
_cell_angle_alpha   93.68012478
_cell_angle_beta   91.08157040
_cell_angle_gamma   93.81879494
_symmetry_Int_Tables_number   1
_chemical_formula_structural   Li2Sb4P3N5
_chemical_formula_sum   'Li2 Sb4 P3 N5'
_cell_volume   424.38423151
_cell_formula_units_Z   1
loop_
 _symmetry_equiv_pos_site_id
 _symmetry_equiv_pos_as_xyz
  1  'x, y, z'
loop_
 _atom_site_type_symbol
 _atom_site_label
 _atom_site_symmetry_multiplicity
 _atom_site_fract_x
 _atom_site_fract_y
 _atom_site_fract_z
 _atom_site_occupancy
  Sb  Sb0  1  0.00000000  0.00000000  0.00000000  1
  Sb  Sb1  1  0.50000000  0.50000000  0.50000000  1
  Sb  Sb2  1  0.50000000  0.50000000  0.00000000  1
  Sb  Sb3  1  0.50000000  0.00000000  0.50000000  1
  P  P4  1  0.00000000  0.50000000  0.50000000  1
  P  P5  1  0.34281299  0.12507333  0.51306949  1
  P  P6  1  0.99707702  0.53042701  0.29972223  1
  Li  Li7  1  0.60727527  0.59745518  0.97497907  1
  Li  Li8  1  0.90877441  0.97650733  0.40298873  1
  N  N9  1  0.83300933  0.90160151  0.28316064  1
  N  N10  1  0.28753857  0.79507883  0.79068361  1
  N  N11  1  0.92556669  0.11808515  0.05141025  1
  N  N12  1  0.41412689  0.38525507  0.86767263  1
  N  N13  1  0.88244456  0.05492280  0.47384268  1
