# generated using pymatgen
data_Li2Mn(Sb2P)2
_symmetry_space_group_name_H-M   'P 1'
_cell_length_a   5.50420443
_cell_length_b   5.85548871
_cell_length_c   6.82296592
_cell_angle_alpha   97.67677952
_cell_angle_beta   95.94133639
_cell_angle_gamma   96.64826828
_symmetry_Int_Tables_number   1
_chemical_formula_structural   Li2Mn(Sb2P)2
_chemical_formula_sum   'Li2 Mn1 Sb4 P2'
_cell_volume   214.87959985
_cell_formula_units_Z   1
loop_
 _symmetry_equiv_pos_site_id
 _symmetry_equiv_pos_as_xyz
  1  'x, y, z'
loop_
 _atom_site_type_symbol
 _atom_site_label
 _atom_site_symmetry_multiplicity
 _atom_site_fract_x
 _atom_site_fract_y
 _atom_site_fract_z
 _atom_site_occupancy
  Mn  Mn0  1  0.12500000  0.12500000  0.12500000  1
  Sb  Sb1  1  0.50000000  0.50000000  0.50000000  1
  Sb  Sb2  1  0.25000000  0.25000000  0.25000000  1
  Sb  Sb3  1  0.75000000  0.75000000  0.75000000  1
  Sb  Sb4  1  0.89369172  0.67605124  0.14408230  1
  P  P5  1  0.24278537  0.92107909  0.97049764  1
  P  P6  1  0.38353088  0.98382685  0.47245294  1
  Li  Li7  1  0.02180902  0.55014404  0.84800511  1
  Li  Li8  1  0.41804949  0.94485717  0.79652455  1
