# generated using pymatgen
data_LiMn2Sb4P3
_symmetry_space_group_name_H-M   'P 1'
_cell_length_a   5.45277560
_cell_length_b   5.79337424
_cell_length_c   6.55263610
_cell_angle_alpha   98.06195535
_cell_angle_beta   91.79041667
_cell_angle_gamma   98.02054960
_symmetry_Int_Tables_number   1
_chemical_formula_structural   LiMn2Sb4P3
_chemical_formula_sum   'Li1 Mn2 Sb4 P3'
_cell_volume   202.67426714
_cell_formula_units_Z   1
loop_
 _symmetry_equiv_pos_site_id
 _symmetry_equiv_pos_as_xyz
  1  'x, y, z'
loop_
 _atom_site_type_symbol
 _atom_site_label
 _atom_site_symmetry_multiplicity
 _atom_site_fract_x
 _atom_site_fract_y
 _atom_site_fract_z
 _atom_site_occupancy
  Mn  Mn0  1  0.00000000  0.00000000  0.00000000  1
  Mn  Mn1  1  0.50000000  0.50000000  0.50000000  1
  Sb  Sb2  1  0.25000000  0.25000000  0.25000000  1
  Sb  Sb3  1  0.75000000  0.25000000  0.00000000  1
  Sb  Sb4  1  0.25000000  0.75000000  0.50000000  1
  Sb  Sb5  1  0.60365951  0.01708445  0.31191851  1
  P  P6  1  0.61220964  0.08788581  0.81147049  1
  P  P7  1  0.53831502  0.05426272  0.76668468  1
  P  P8  1  0.91992252  0.73195140  0.92127199  1
  Li  Li9  1  0.69471821  0.32895680  0.23618456  1
