# generated using pymatgen
data_Li2Cu2Ni2As6F3
_symmetry_space_group_name_H-M   'P 1'
_cell_length_a   7.47887963
_cell_length_b   7.36847212
_cell_length_c   8.64393658
_cell_angle_alpha   91.72772248
_cell_angle_beta   91.97464567
_cell_angle_gamma   91.99357292
_symmetry_Int_Tables_number   1
_chemical_formula_structural   Li2Cu2Ni2As6F3
_chemical_formula_sum   'Li2 Cu2 Ni2 As6 F3'
_cell_volume   475.54391547
_cell_formula_units_Z   1
loop_
 _symmetry_equiv_pos_site_id
 _symmetry_equiv_pos_as_xyz
  1  'x, y, z'
loop_
 _atom_site_type_symbol
 _atom_site_label
 _atom_site_symmetry_multiplicity
 _atom_site_fract_x
 _atom_site_fract_y
 _atom_site_fract_z
 _atom_site_occupancy
  Li  Li0  1  0.00000000  0.00000000  0.00000000  1
  Li  Li1  1  0.50000000  0.50000000  0.50000000  1
  Cu  Cu2  1  0.50000000  0.50000000  0.00000000  1
  Cu  Cu3  1  0.50000000  0.00000000  0.50000000  1
  F  F4  1  0.00000000  0.50000000  0.50000000  1
  F  F5  1  0.40016056  0.11561751  0.42323827  1
  F  F6  1  0.24312011  0.57425871  0.51044092  1
  Ni  Ni7  1  0.20340973  0.97336492  0.49476815  1
  Ni  Ni8  1  0.81399034  0.42822911  0.85614050  1
  As  As9  1  0.95898277  0.10223085  0.72187951  1
  As  As10  1  0.34679566  0.68828056  0.39621749  1
  As  As11  1  0.11697217  0.41477177  0.54105675  1
  As  As12  1  0.65070751  0.12939488  0.82175765  1
  As  As13  1  0.31239186  0.16721030  0.39984044  1
  As  As14  1  0.63670090  0.46639116  0.92810143  1
