# generated using pymatgen
data_Li4Ni2As6P4N5
_symmetry_space_group_name_H-M   'P 1'
_cell_length_a   7.75869291
_cell_length_b   7.46622348
_cell_length_c   9.15706740
_cell_angle_alpha   92.20306861
_cell_angle_beta   90.77887726
_cell_angle_gamma   92.55529289
_symmetry_Int_Tables_number   1
_chemical_formula_structural   Li4Ni2As6P4N5
_chemical_formula_sum   'Li4 Ni2 As6 P4 N5'
_cell_volume   529.47044213
_cell_formula_units_Z   1
loop_
 _symmetry_equiv_pos_site_id
 _symmetry_equiv_pos_as_xyz
  1  'x, y, z'
loop_
 _atom_site_type_symbol
 _atom_site_label
 _atom_site_symmetry_multiplicity
 _atom_site_fract_x
 _atom_site_fract_y
 _atom_site_fract_z
 _atom_site_occupancy
  P  P0  1  0.00000000  0.00000000  0.00000000  1
  P  P1  1  0.50000000  0.50000000  0.50000000  1
  P  P2  1  0.25000000  0.25000000  0.25000000  1
  P  P3  1  0.75000000  0.25000000  0.00000000  1
  Li  Li4  1  0.25000000  0.75000000  0.50000000  1
  Li  Li5  1  0.88053856  0.75673507  0.14209458  1
  Li  Li6  1  0.24631069  0.06040407  0.84933361  1
  Li  Li7  1  0.79462150  0.15342505  0.69494611  1
  Ni  Ni8  1  0.75492280  0.34494156  0.51525787  1
  Ni  Ni9  1  0.00133241  0.47591834  0.79055605  1
  As  As10  1  0.76751913  0.21690981  0.85320610  1
  As  As11  1  0.67463946  0.94776491  0.04390096  1
  As  As12  1  0.78383859  0.48707031  0.87312096  1
  As  As13  1  0.79685372  0.01465442  0.91766975  1
  As  As14  1  0.16290817  0.85189936  0.24309191  1
  As  As15  1  0.65896240  0.60158457  0.76186119  1
  N  N16  1  0.41009706  0.06731632  0.40015172  1
  N  N17  1  0.03065100  0.62693364  0.88476725  1
  N  N18  1  0.97537880  0.81188161  0.45454011  1
  N  N19  1  0.25458491  0.38223253  0.37450641  1
  N  N20  1  0.12239537  0.07425592  0.94209828  1
