# generated using pymatgen
data_Li2Mn2Sb4P3
_symmetry_space_group_name_H-M   'P 1'
_cell_length_a   5.41245494
_cell_length_b   5.79485105
_cell_length_c   6.71971122
_cell_angle_alpha   98.44332165
_cell_angle_beta   92.94306327
_cell_angle_gamma   98.62650407
_symmetry_Int_Tables_number   1
_chemical_formula_structural   Li2Mn2Sb4P3
_chemical_formula_sum   'Li2 Mn2 Sb4 P3'
_cell_volume   205.53592839
_cell_formula_units_Z   1
loop_
 _symmetry_equiv_pos_site_id
 _symmetry_equiv_pos_as_xyz
  1  'x, y, z'
loop_
 _atom_site_type_symbol
 _atom_site_label
 _atom_site_symmetry_multiplicity
 _atom_site_fract_x
 _atom_site_fract_y
 _atom_site_fract_z
 _atom_site_occupancy
  Mn  Mn0  1  0.12500000  0.00000000  0.25000000  1
  Mn  Mn1  1  0.00000000  0.00000000  0.00000000  1
  Sb  Sb2  1  0.37500000  0.00000000  0.25000000  1
  Sb  Sb3  1  0.25000000  0.25000000  0.25000000  1
  Sb  Sb4  1  0.00000000  0.25000000  0.12500000  1
  Sb  Sb5  1  0.69860452  0.45880608  0.85161760  1
  P  P6  1  0.49277193  0.48596322  0.37334422  1
  P  P7  1  0.00632823  0.27953617  0.81325968  1
  P  P8  1  0.72626274  0.47801505  0.61775134  1
  Li  Li9  1  0.17610392  0.69383799  0.70761605  1
  Li  Li10  1  0.79213642  0.90068319  0.08719241  1
