# generated using pymatgen
data_LiMnSb4P3
_symmetry_space_group_name_H-M   'P 1'
_cell_length_a   5.50813318
_cell_length_b   5.80273018
_cell_length_c   6.95938360
_cell_angle_alpha   94.73568147
_cell_angle_beta   95.16404459
_cell_angle_gamma   95.19252193
_symmetry_Int_Tables_number   1
_chemical_formula_structural   LiMnSb4P3
_chemical_formula_sum   'Li1 Mn1 Sb4 P3'
_cell_volume   219.70080660
_cell_formula_units_Z   1
loop_
 _symmetry_equiv_pos_site_id
 _symmetry_equiv_pos_as_xyz
  1  'x, y, z'
loop_
 _atom_site_type_symbol
 _atom_site_label
 _atom_site_symmetry_multiplicity
 _atom_site_fract_x
 _atom_site_fract_y
 _atom_site_fract_z
 _atom_site_occupancy
  Mn  Mn0  1  0.00000000  0.00000000  0.00000000  1
  Sb  Sb1  1  0.33300000  0.66700000  0.25000000  1
  Sb  Sb2  1  0.66700000  0.33300000  0.50000000  1
  Sb  Sb3  1  0.00000000  0.00000000  0.75000000  1
  Sb  Sb4  1  0.90471932  0.07900392  0.19149547  1
  P  P5  1  0.74141704  0.78681780  0.40073816  1
  P  P6  1  0.37809513  0.64094773  0.16008322  1
  P  P7  1  0.12527640  0.37814432  0.91094739  1
  Li  Li8  1  0.41692762  0.59457014  0.42992056  1
