# generated using pymatgen
data_Li3Lu(NiP2)2
_symmetry_space_group_name_H-M   'P 1'
_cell_length_a   7.48947357
_cell_length_b   7.18457138
_cell_length_c   8.77423038
_cell_angle_alpha   92.43676069
_cell_angle_beta   91.82437737
_cell_angle_gamma   92.81289355
_symmetry_Int_Tables_number   1
_chemical_formula_structural   Li3Lu(NiP2)2
_chemical_formula_sum   'Li3 Lu1 Ni2 P4'
_cell_volume   470.86199097
_cell_formula_units_Z   1
loop_
 _symmetry_equiv_pos_site_id
 _symmetry_equiv_pos_as_xyz
  1  'x, y, z'
loop_
 _atom_site_type_symbol
 _atom_site_label
 _atom_site_symmetry_multiplicity
 _atom_site_fract_x
 _atom_site_fract_y
 _atom_site_fract_z
 _atom_site_occupancy
  P  P0  1  0.12500000  0.12500000  0.12500000  1
  P  P1  1  0.50000000  0.50000000  0.50000000  1
  P  P2  1  0.25000000  0.25000000  0.25000000  1
  P  P3  1  0.75000000  0.75000000  0.75000000  1
  Lu  Lu4  1  0.16254245  0.30506857  0.22986088  1
  Li  Li5  1  0.76091468  0.41304056  0.91966584  1
  Li  Li6  1  0.55088278  0.34074301  0.22606895  1
  Li  Li7  1  0.65381813  0.56175833  0.38080319  1
  Ni  Ni8  1  0.56295432  0.58911425  0.30451367  1
  Ni  Ni9  1  0.61445074  0.85674236  0.27307735  1
