# generated using pymatgen
data_Li4P3O2
_symmetry_space_group_name_H-M   'P 1'
_cell_length_a   7.33729436
_cell_length_b   7.07356601
_cell_length_c   7.38865883
_cell_angle_alpha   95.22661526
_cell_angle_beta   97.04616769
_cell_angle_gamma   94.93846330
_symmetry_Int_Tables_number   1
_chemical_formula_structural   Li4P3O2
_chemical_formula_sum   'Li4 P3 O2'
_cell_volume   377.15935556
_cell_formula_units_Z   1
loop_
 _symmetry_equiv_pos_site_id
 _symmetry_equiv_pos_as_xyz
  1  'x, y, z'
loop_
 _atom_site_type_symbol
 _atom_site_label
 _atom_site_symmetry_multiplicity
 _atom_site_fract_x
 _atom_site_fract_y
 _atom_site_fract_z
 _atom_site_occupancy
  P  P0  1  0.00000000  0.00000000  0.00000000  1
  P  P1  1  0.50000000  0.50000000  0.50000000  1
  P  P2  1  0.50000000  0.50000000  0.00000000  1
  Li  Li3  1  0.50000000  0.00000000  0.50000000  1
  Li  Li4  1  0.00000000  0.50000000  0.50000000  1
  Li  Li5  1  0.66781568  0.45388317  0.28726203  1
  Li  Li6  1  0.07476825  0.75271489  0.44843437  1
  O  O7  1  0.90722081  0.73307161  0.01952975  1
  O  O8  1  0.92923408  0.79707524  0.02492943  1
