# generated using pymatgen
data_Li3Ti2P3S2
_symmetry_space_group_name_H-M   'P 1'
_cell_length_a   5.59337360
_cell_length_b   5.10459581
_cell_length_c   6.65426644
_cell_angle_alpha   94.69510125
_cell_angle_beta   97.92086196
_cell_angle_gamma   94.40839254
_symmetry_Int_Tables_number   1
_chemical_formula_structural   Li3Ti2P3S2
_chemical_formula_sum   'Li3 Ti2 P3 S2'
_cell_volume   186.79873397
_cell_formula_units_Z   1
loop_
 _symmetry_equiv_pos_site_id
 _symmetry_equiv_pos_as_xyz
  1  'x, y, z'
loop_
 _atom_site_type_symbol
 _atom_site_label
 _atom_site_symmetry_multiplicity
 _atom_site_fract_x
 _atom_site_fract_y
 _atom_site_fract_z
 _atom_site_occupancy
  P  P0  1  0.12500000  0.12500000  0.12500000  1
  P  P1  1  0.50000000  0.50000000  0.50000000  1
  P  P2  1  0.25000000  0.25000000  0.25000000  1
  Li  Li3  1  0.75000000  0.75000000  0.75000000  1
  Li  Li4  1  0.03426957  0.03561370  0.26933717  1
  Li  Li5  1  0.36645833  0.71273646  0.20438823  1
  S  S6  1  0.71998274  0.52196856  0.45618179  1
  S  S7  1  0.02523645  0.69026027  0.54828991  1
  Ti  Ti8  1  0.47153868  0.98586339  0.03970110  1
  Ti  Ti9  1  0.37393535  0.16056857  0.50698654  1
