# generated using pymatgen
data_Li2TiP3(I2O)2
_symmetry_space_group_name_H-M   'P 1'
_cell_length_a   8.27893400
_cell_length_b   8.09520376
_cell_length_c   7.14873174
_cell_angle_alpha   90.19345058
_cell_angle_beta   90.92037911
_cell_angle_gamma   90.22116567
_symmetry_Int_Tables_number   1
_chemical_formula_structural   Li2TiP3(I2O)2
_chemical_formula_sum   'Li2 Ti1 P3 I4 O2'
_cell_volume   479.03733921
_cell_formula_units_Z   1
loop_
 _symmetry_equiv_pos_site_id
 _symmetry_equiv_pos_as_xyz
  1  'x, y, z'
loop_
 _atom_site_type_symbol
 _atom_site_label
 _atom_site_symmetry_multiplicity
 _atom_site_fract_x
 _atom_site_fract_y
 _atom_site_fract_z
 _atom_site_occupancy
  I  I0  1  0.00000000  0.00000000  0.00000000  1
  I  I1  1  0.50000000  0.50000000  0.50000000  1
  I  I2  1  0.25000000  0.25000000  0.25000000  1
  I  I3  1  0.75000000  0.25000000  0.00000000  1
  P  P4  1  0.25000000  0.75000000  0.50000000  1
  P  P5  1  0.14773618  0.36604940  0.55936816  1
  P  P6  1  0.61590160  0.93717213  0.54736420  1
  Li  Li7  1  0.87481761  0.88199212  0.39853893  1
  Li  Li8  1  0.55925656  0.19873294  0.48393213  1
  Ti  Ti9  1  0.80947214  0.14360041  0.64364036  1
  O  O10  1  0.81625657  0.37976500  0.71145287  1
  O  O11  1  0.74560935  0.80015446  0.63408630  1
