# generated using pymatgen
data_LiMnSb2Mo2P3
_symmetry_space_group_name_H-M   'P 1'
_cell_length_a   5.07706925
_cell_length_b   5.33173100
_cell_length_c   6.18853443
_cell_angle_alpha   95.89631714
_cell_angle_beta   92.12855412
_cell_angle_gamma   96.22017061
_symmetry_Int_Tables_number   1
_chemical_formula_structural   LiMnSb2Mo2P3
_chemical_formula_sum   'Li1 Mn1 Sb2 Mo2 P3'
_cell_volume   165.45617223
_cell_formula_units_Z   1
loop_
 _symmetry_equiv_pos_site_id
 _symmetry_equiv_pos_as_xyz
  1  'x, y, z'
loop_
 _atom_site_type_symbol
 _atom_site_label
 _atom_site_symmetry_multiplicity
 _atom_site_fract_x
 _atom_site_fract_y
 _atom_site_fract_z
 _atom_site_occupancy
  Mn  Mn0  1  0.00000000  0.00000000  0.00000000  1
  Sb  Sb1  1  0.50000000  0.50000000  0.50000000  1
  Sb  Sb2  1  0.50000000  0.50000000  0.00000000  1
  P  P3  1  0.50000000  0.00000000  0.50000000  1
  P  P4  1  0.00000000  0.50000000  0.50000000  1
  P  P5  1  0.54964613  0.78362043  0.62753339  1
  Mo  Mo6  1  0.21380044  0.67891282  0.67123472  1
  Mo  Mo7  1  0.02230171  0.35964226  0.44773040  1
  Li  Li8  1  0.37956685  0.83228723  0.34546494  1
