# generated using pymatgen
data_Li2TiCu2(As3I2)2
_symmetry_space_group_name_H-M   'P 1'
_cell_length_a   7.66460932
_cell_length_b   7.76097061
_cell_length_c   8.07309582
_cell_angle_alpha   90.40109247
_cell_angle_beta   91.90827614
_cell_angle_gamma   90.45855579
_symmetry_Int_Tables_number   1
_chemical_formula_structural   Li2TiCu2(As3I2)2
_chemical_formula_sum   'Li2 Ti1 Cu2 As6 I4'
_cell_volume   479.93216801
_cell_formula_units_Z   1
loop_
 _symmetry_equiv_pos_site_id
 _symmetry_equiv_pos_as_xyz
  1  'x, y, z'
loop_
 _atom_site_type_symbol
 _atom_site_label
 _atom_site_symmetry_multiplicity
 _atom_site_fract_x
 _atom_site_fract_y
 _atom_site_fract_z
 _atom_site_occupancy
  Ti  Ti0  1  0.12500000  0.00000000  0.25000000  1
  I  I1  1  0.00000000  0.00000000  0.00000000  1
  I  I2  1  0.37500000  0.00000000  0.25000000  1
  I  I3  1  0.25000000  0.25000000  0.25000000  1
  I  I4  1  0.00000000  0.25000000  0.12500000  1
  As  As5  1  0.60507670  0.72129703  0.99294351  1
  As  As6  1  0.93676608  0.06275997  0.70942931  1
  As  As7  1  0.08151134  0.06065709  0.19733566  1
  As  As8  1  0.97405663  0.76106587  0.44439249  1
  As  As9  1  0.48488186  0.25604255  0.48434622  1
  As  As10  1  0.94489953  0.38063484  0.71212924  1
  Li  Li11  1  0.38806775  0.81440610  0.66358872  1
  Li  Li12  1  0.31466340  0.86799506  0.96625900  1
  Cu  Cu13  1  0.13890938  0.86826739  0.48485136  1
  Cu  Cu14  1  0.11919612  0.98088740  0.97737032  1
