# generated using pymatgen
data_Li2Mn2Sb4(PN)3
_symmetry_space_group_name_H-M   'P 1'
_cell_length_a   6.98152273
_cell_length_b   7.62734711
_cell_length_c   7.69629404
_cell_angle_alpha   93.32852090
_cell_angle_beta   91.19966667
_cell_angle_gamma   93.03690359
_symmetry_Int_Tables_number   1
_chemical_formula_structural   Li2Mn2Sb4(PN)3
_chemical_formula_sum   'Li2 Mn2 Sb4 P3 N3'
_cell_volume   408.44698620
_cell_formula_units_Z   1
loop_
 _symmetry_equiv_pos_site_id
 _symmetry_equiv_pos_as_xyz
  1  'x, y, z'
loop_
 _atom_site_type_symbol
 _atom_site_label
 _atom_site_symmetry_multiplicity
 _atom_site_fract_x
 _atom_site_fract_y
 _atom_site_fract_z
 _atom_site_occupancy
  N  N0  1  0.00000000  0.00000000  0.00000000  1
  N  N1  1  0.50000000  0.50000000  0.50000000  1
  N  N2  1  0.50000000  0.50000000  0.00000000  1
  Mn  Mn3  1  0.50000000  0.00000000  0.50000000  1
  Mn  Mn4  1  0.00000000  0.50000000  0.50000000  1
  Sb  Sb5  1  0.14519720  0.39238620  0.12903930  1
  Sb  Sb6  1  0.03140429  0.12367851  0.80024296  1
  Sb  Sb7  1  0.06871304  0.88615199  0.98321751  1
  Sb  Sb8  1  0.46602853  0.25391981  0.27089399  1
  P  P9  1  0.32734172  0.40712146  0.57765916  1
  P  P10  1  0.41502587  0.81950604  0.60070002  1
  P  P11  1  0.71081165  0.82544384  0.01349378  1
  Li  Li12  1  0.31641730  0.64523141  0.48565353  1
  Li  Li13  1  0.30833386  0.36075892  0.51772212  1
