# generated using pymatgen
data_LiAs3I2
_symmetry_space_group_name_H-M   'P 1'
_cell_length_a   6.64862525
_cell_length_b   6.59704738
_cell_length_c   7.60188871
_cell_angle_alpha   95.68810448
_cell_angle_beta   98.27745225
_cell_angle_gamma   95.39059611
_symmetry_Int_Tables_number   1
_chemical_formula_structural   LiAs3I2
_chemical_formula_sum   'Li2 As6 I4'
_cell_volume   326.34195667
_cell_formula_units_Z   2
loop_
 _symmetry_equiv_pos_site_id
 _symmetry_equiv_pos_as_xyz
  1  'x, y, z'
loop_
 _atom_site_type_symbol
 _atom_site_label
 _atom_site_symmetry_multiplicity
 _atom_site_fract_x
 _atom_site_fract_y
 _atom_site_fract_z
 _atom_site_occupancy
  I  I0  1  0.00000000  0.00000000  0.00000000  1
  I  I1  1  0.33300000  0.66700000  0.25000000  1
  I  I2  1  0.66700000  0.33300000  0.50000000  1
  I  I3  1  0.00000000  0.00000000  0.75000000  1
  Li  Li4  1  0.12365300  0.02144189  0.63462778  1
  Li  Li5  1  0.07124492  0.89389303  0.32858088  1
  As  As6  1  0.38625808  0.97413764  0.07857791  1
  As  As7  1  0.73727813  0.04463159  0.04937229  1
  As  As8  1  0.14194891  0.65986529  0.10187709  1
  As  As9  1  0.04700553  0.48510818  0.02337395  1
  As  As10  1  0.14033831  0.27227164  0.53299448  1
  As  As11  1  0.63131924  0.20444497  0.95374590  1
