# generated using pymatgen
data_Li2Ni2As6O7
_symmetry_space_group_name_H-M   'P 1'
_cell_length_a   7.87556004
_cell_length_b   7.90836807
_cell_length_c   9.01505870
_cell_angle_alpha   90.25183729
_cell_angle_beta   91.19816535
_cell_angle_gamma   90.28791727
_symmetry_Int_Tables_number   1
_chemical_formula_structural   Li2Ni2As6O7
_chemical_formula_sum   'Li2 Ni2 As6 O7'
_cell_volume   561.34780478
_cell_formula_units_Z   1
loop_
 _symmetry_equiv_pos_site_id
 _symmetry_equiv_pos_as_xyz
  1  'x, y, z'
loop_
 _atom_site_type_symbol
 _atom_site_label
 _atom_site_symmetry_multiplicity
 _atom_site_fract_x
 _atom_site_fract_y
 _atom_site_fract_z
 _atom_site_occupancy
  Ni  Ni0  1  0.12500000  0.00000000  0.25000000  1
  Ni  Ni1  1  0.00000000  0.00000000  0.00000000  1
  O  O2  1  0.37500000  0.00000000  0.25000000  1
  O  O3  1  0.25000000  0.25000000  0.25000000  1
  O  O4  1  0.00000000  0.25000000  0.12500000  1
  O  O5  1  0.37709497  0.40716501  0.37843289  1
  O  O6  1  0.87722783  0.89599666  0.53829644  1
  O  O7  1  0.26948343  0.43257027  0.76530710  1
  O  O8  1  0.99401798  0.79495867  0.38964914  1
  As  As9  1  0.10251401  0.00383220  0.06035390  1
  As  As10  1  0.75710606  0.83474286  0.50829804  1
  As  As11  1  0.66000527  0.89261151  0.41907130  1
  As  As12  1  0.76077007  0.63061464  0.64801649  1
  As  As13  1  0.73005123  0.46993946  0.50036446  1
  As  As14  1  0.03268647  0.16402110  0.60738775  1
  Li  Li15  1  0.92045646  0.20292598  0.51321594  1
  Li  Li16  1  0.35341015  0.28361981  0.13597356  1
