# generated using pymatgen
data_Li3TiP3O2
_symmetry_space_group_name_H-M   'P 1'
_cell_length_a   7.10505287
_cell_length_b   6.86916354
_cell_length_c   7.13924084
_cell_angle_alpha   93.15618421
_cell_angle_beta   94.01778496
_cell_angle_gamma   92.87648751
_symmetry_Int_Tables_number   1
_chemical_formula_structural   Li3TiP3O2
_chemical_formula_sum   'Li3 Ti1 P3 O2'
_cell_volume   346.54139772
_cell_formula_units_Z   1
loop_
 _symmetry_equiv_pos_site_id
 _symmetry_equiv_pos_as_xyz
  1  'x, y, z'
loop_
 _atom_site_type_symbol
 _atom_site_label
 _atom_site_symmetry_multiplicity
 _atom_site_fract_x
 _atom_site_fract_y
 _atom_site_fract_z
 _atom_site_occupancy
  P  P0  1  0.00000000  0.00000000  0.00000000  1
  P  P1  1  0.33300000  0.66700000  0.25000000  1
  P  P2  1  0.66700000  0.33300000  0.50000000  1
  Li  Li3  1  0.00000000  0.00000000  0.75000000  1
  Li  Li4  1  0.57732729  0.39061258  0.81449536  1
  Li  Li5  1  0.72805262  0.38726193  0.72198395  1
  Ti  Ti6  1  0.77810038  0.41238222  0.79837424  1
  O  O7  1  0.31648779  0.95270340  0.95537285  1
  O  O8  1  0.31451587  0.41732217  0.15231480  1
