# generated using pymatgen
data_Li3Ni2P3O4
_symmetry_space_group_name_H-M   'P 1'
_cell_length_a   7.51412669
_cell_length_b   7.29156929
_cell_length_c   8.63482983
_cell_angle_alpha   92.23310000
_cell_angle_beta   92.56227816
_cell_angle_gamma   92.01654478
_symmetry_Int_Tables_number   1
_chemical_formula_structural   Li3Ni2P3O4
_chemical_formula_sum   'Li3 Ni2 P3 O4'
_cell_volume   471.94517193
_cell_formula_units_Z   1
loop_
 _symmetry_equiv_pos_site_id
 _symmetry_equiv_pos_as_xyz
  1  'x, y, z'
loop_
 _atom_site_type_symbol
 _atom_site_label
 _atom_site_symmetry_multiplicity
 _atom_site_fract_x
 _atom_site_fract_y
 _atom_site_fract_z
 _atom_site_occupancy
  P  P0  1  0.12500000  0.00000000  0.25000000  1
  P  P1  1  0.00000000  0.00000000  0.00000000  1
  P  P2  1  0.37500000  0.00000000  0.25000000  1
  Li  Li3  1  0.25000000  0.25000000  0.25000000  1
  Li  Li4  1  0.00000000  0.25000000  0.12500000  1
  Li  Li5  1  0.53537537  0.38207954  0.76203158  1
  Ni  Ni6  1  0.85371860  0.90512051  0.85751529  1
  Ni  Ni7  1  0.82443477  0.41057720  0.54241126  1
  O  O8  1  0.19265129  0.35116629  0.15687598  1
  O  O9  1  0.48672580  0.91317933  0.43726198  1
  O  O10  1  0.91466553  0.38360560  0.18250716  1
  O  O11  1  0.96115300  0.56189820  0.25199753  1
