# generated using pymatgen
data_Li3LuCu2(NiAs3)2
_symmetry_space_group_name_H-M   'P 1'
_cell_length_a   7.44634934
_cell_length_b   7.26454875
_cell_length_c   8.71762434
_cell_angle_alpha   92.45658434
_cell_angle_beta   91.60375374
_cell_angle_gamma   92.84656719
_symmetry_Int_Tables_number   1
_chemical_formula_structural   Li3LuCu2(NiAs3)2
_chemical_formula_sum   'Li3 Lu1 Cu2 Ni2 As6'
_cell_volume   470.34529646
_cell_formula_units_Z   1
loop_
 _symmetry_equiv_pos_site_id
 _symmetry_equiv_pos_as_xyz
  1  'x, y, z'
loop_
 _atom_site_type_symbol
 _atom_site_label
 _atom_site_symmetry_multiplicity
 _atom_site_fract_x
 _atom_site_fract_y
 _atom_site_fract_z
 _atom_site_occupancy
  Lu  Lu0  1  0.00000000  0.00000000  0.00000000  1
  Li  Li1  1  0.50000000  0.50000000  0.50000000  1
  Li  Li2  1  0.25000000  0.25000000  0.25000000  1
  Li  Li3  1  0.75000000  0.25000000  0.00000000  1
  Cu  Cu4  1  0.25000000  0.75000000  0.50000000  1
  Cu  Cu5  1  0.10822559  0.70382031  0.78858154  1
  Ni  Ni6  1  0.43168052  0.81337235  0.93843289  1
  Ni  Ni7  1  0.43657358  0.31779302  0.89296935  1
  As  As8  1  0.14623243  0.58069208  0.96211202  1
  As  As9  1  0.27356789  0.07763932  0.71192911  1
  As  As10  1  0.33329226  0.98340485  0.83347541  1
  As  As11  1  0.30319237  0.70438296  0.17518177  1
  As  As12  1  0.15054560  0.68238535  0.79512727  1
  As  As13  1  0.62818105  0.14136330  0.70153988  1
