# generated using pymatgen
data_Li2MnSb4P3N
_symmetry_space_group_name_H-M   'P 1'
_cell_length_a   5.58204723
_cell_length_b   5.66526013
_cell_length_c   6.55445750
_cell_angle_alpha   99.43097768
_cell_angle_beta   93.84496482
_cell_angle_gamma   99.46718102
_symmetry_Int_Tables_number   1
_chemical_formula_structural   Li2MnSb4P3N
_chemical_formula_sum   'Li2 Mn1 Sb4 P3 N1'
_cell_volume   200.74646240
_cell_formula_units_Z   1
loop_
 _symmetry_equiv_pos_site_id
 _symmetry_equiv_pos_as_xyz
  1  'x, y, z'
loop_
 _atom_site_type_symbol
 _atom_site_label
 _atom_site_symmetry_multiplicity
 _atom_site_fract_x
 _atom_site_fract_y
 _atom_site_fract_z
 _atom_site_occupancy
  Mn  Mn0  1  0.00000000  0.00000000  0.00000000  1
  Sb  Sb1  1  0.50000000  0.50000000  0.50000000  1
  Sb  Sb2  1  0.25000000  0.25000000  0.25000000  1
  Sb  Sb3  1  0.75000000  0.25000000  0.00000000  1
  Sb  Sb4  1  0.25000000  0.75000000  0.50000000  1
  P  P5  1  0.80921789  0.00211184  0.07191931  1
  P  P6  1  0.42537977  0.20489130  0.40426600  1
  P  P7  1  0.95908492  0.92276241  0.82737951  1
  Li  Li8  1  0.94756367  0.10640883  0.41453449  1
  Li  Li9  1  0.03335807  0.55305726  0.17482431  1
  N  N10  1  0.92916302  0.18317745  0.94637697  1
