# generated using pymatgen
data_Li2Mn3Sb2P3
_symmetry_space_group_name_H-M   'P 1'
_cell_length_a   5.02915217
_cell_length_b   5.28975062
_cell_length_c   6.12971955
_cell_angle_alpha   101.35964350
_cell_angle_beta   90.33240413
_cell_angle_gamma   101.02478946
_symmetry_Int_Tables_number   1
_chemical_formula_structural   Li2Mn3Sb2P3
_chemical_formula_sum   'Li2 Mn3 Sb2 P3'
_cell_volume   156.76347318
_cell_formula_units_Z   1
loop_
 _symmetry_equiv_pos_site_id
 _symmetry_equiv_pos_as_xyz
  1  'x, y, z'
loop_
 _atom_site_type_symbol
 _atom_site_label
 _atom_site_symmetry_multiplicity
 _atom_site_fract_x
 _atom_site_fract_y
 _atom_site_fract_z
 _atom_site_occupancy
  Mn  Mn0  1  0.12500000  0.00000000  0.25000000  1
  Mn  Mn1  1  0.00000000  0.00000000  0.00000000  1
  Mn  Mn2  1  0.37500000  0.00000000  0.25000000  1
  Sb  Sb3  1  0.25000000  0.25000000  0.25000000  1
  Sb  Sb4  1  0.00000000  0.25000000  0.12500000  1
  P  P5  1  0.04222913  0.99906714  0.16989393  1
  P  P6  1  0.93110257  0.62720460  0.88568688  1
  P  P7  1  0.82333492  0.34185434  0.26852584  1
  Li  Li8  1  0.83675570  0.35658091  0.21057454  1
  Li  Li9  1  0.49664040  0.92469420  0.74322319  1
