# generated using pymatgen
data_Li2LuP4(OF)3
_symmetry_space_group_name_H-M   'P 1'
_cell_length_a   7.09057325
_cell_length_b   6.75269248
_cell_length_c   8.47913492
_cell_angle_alpha   92.67614743
_cell_angle_beta   92.30067289
_cell_angle_gamma   93.09889789
_symmetry_Int_Tables_number   1
_chemical_formula_structural   Li2LuP4(OF)3
_chemical_formula_sum   'Li2 Lu1 P4 O3 F3'
_cell_volume   404.57843075
_cell_formula_units_Z   1
loop_
 _symmetry_equiv_pos_site_id
 _symmetry_equiv_pos_as_xyz
  1  'x, y, z'
loop_
 _atom_site_type_symbol
 _atom_site_label
 _atom_site_symmetry_multiplicity
 _atom_site_fract_x
 _atom_site_fract_y
 _atom_site_fract_z
 _atom_site_occupancy
  P  P0  1  0.12500000  0.00000000  0.25000000  1
  P  P1  1  0.00000000  0.00000000  0.00000000  1
  P  P2  1  0.37500000  0.00000000  0.25000000  1
  P  P3  1  0.25000000  0.25000000  0.25000000  1
  Lu  Lu4  1  0.00000000  0.25000000  0.12500000  1
  Li  Li5  1  0.70633142  0.39771822  0.53007174  1
  Li  Li6  1  0.09067958  0.92619669  0.17640814  1
  F  F7  1  0.86151621  0.85067422  0.08322893  1
  F  F8  1  0.68619975  0.12288315  0.35830193  1
  F  F9  1  0.52964740  0.32187666  0.27772282  1
  O  O10  1  0.80139332  0.69130147  0.68652558  1
  O  O11  1  0.70306932  0.35205116  0.70749421  1
  O  O12  1  0.86677697  0.28540593  0.28456241  1
