# generated using pymatgen
data_Li6Zr(CuP4)2
_symmetry_space_group_name_H-M   'P 1'
_cell_length_a   5.27908813
_cell_length_b   5.07227256
_cell_length_c   7.32007907
_cell_angle_alpha   105.03939272
_cell_angle_beta   109.20185031
_cell_angle_gamma   104.14779562
_symmetry_Int_Tables_number   1
_chemical_formula_structural   Li6Zr(CuP4)2
_chemical_formula_sum   'Li6 Zr1 Cu2 P8'
_cell_volume   166.66948634
_cell_formula_units_Z   1
loop_
 _symmetry_equiv_pos_site_id
 _symmetry_equiv_pos_as_xyz
  1  'x, y, z'
loop_
 _atom_site_type_symbol
 _atom_site_label
 _atom_site_symmetry_multiplicity
 _atom_site_fract_x
 _atom_site_fract_y
 _atom_site_fract_z
 _atom_site_occupancy
  P  P0  1  0.12500000  0.00000000  0.25000000  1
  P  P1  1  0.00000000  0.00000000  0.00000000  1
  P  P2  1  0.37500000  0.00000000  0.25000000  1
  P  P3  1  0.25000000  0.25000000  0.25000000  1
  P  P4  1  0.00000000  0.25000000  0.12500000  1
  P  P5  1  0.24236726  0.85341541  0.23698800  1
  P  P6  1  0.71580381  0.86394263  0.86420074  1
  P  P7  1  0.97724571  0.08647581  0.10573308  1
  Li  Li8  1  0.93708455  0.98536027  0.89393475  1
  Li  Li9  1  0.62803699  0.67635198  0.91148513  1
  Li  Li10  1  0.26623782  0.57254250  0.78707521  1
  Li  Li11  1  0.14039131  0.10755894  0.31217941  1
  Li  Li12  1  0.14800059  0.71168086  0.08905791  1
  Li  Li13  1  0.41877700  0.85900916  0.56864260  1
  Cu  Cu14  1  0.97883111  0.99343005  0.37419246  1
  Cu  Cu15  1  0.71458205  0.83085395  0.06720464  1
  Zr  Zr16  1  0.61442365  0.61585613  0.32663880  1
