# generated using pymatgen
data_Li2Mn3Sb4P3
_symmetry_space_group_name_H-M   'P 1'
_cell_length_a   7.07338983
_cell_length_b   7.67686360
_cell_length_c   7.28679925
_cell_angle_alpha   92.37560582
_cell_angle_beta   90.11867758
_cell_angle_gamma   92.32835501
_symmetry_Int_Tables_number   1
_chemical_formula_structural   Li2Mn3Sb4P3
_chemical_formula_sum   'Li2 Mn3 Sb4 P3'
_cell_volume   395.01450796
_cell_formula_units_Z   1
loop_
 _symmetry_equiv_pos_site_id
 _symmetry_equiv_pos_as_xyz
  1  'x, y, z'
loop_
 _atom_site_type_symbol
 _atom_site_label
 _atom_site_symmetry_multiplicity
 _atom_site_fract_x
 _atom_site_fract_y
 _atom_site_fract_z
 _atom_site_occupancy
  Mn  Mn0  1  0.00000000  0.00000000  0.00000000  1
  Mn  Mn1  1  0.50000000  0.50000000  0.50000000  1
  Mn  Mn2  1  0.50000000  0.50000000  0.00000000  1
  Sb  Sb3  1  0.50000000  0.00000000  0.50000000  1
  Sb  Sb4  1  0.00000000  0.50000000  0.50000000  1
  Sb  Sb5  1  0.52136588  0.86814080  0.05314205  1
  Sb  Sb6  1  0.99324022  0.44527528  0.83874439  1
  P  P7  1  0.07893267  0.63567274  0.80552102  1
  P  P8  1  0.87684116  0.52006432  0.46919566  1
  P  P9  1  0.54394265  0.11281742  0.08851848  1
  Li  Li10  1  0.57331416  0.37720228  0.33414708  1
  Li  Li11  1  0.36837877  0.19881692  0.68980355  1
