# generated using pymatgen
data_Li2Ti(CuP2)2
_symmetry_space_group_name_H-M   'P 1'
_cell_length_a   6.81353685
_cell_length_b   6.81810908
_cell_length_c   7.13203063
_cell_angle_alpha   90.65798597
_cell_angle_beta   91.84246416
_cell_angle_gamma   89.88845875
_symmetry_Int_Tables_number   1
_chemical_formula_structural   Li2Ti(CuP2)2
_chemical_formula_sum   'Li2 Ti1 Cu2 P4'
_cell_volume   331.12806303
_cell_formula_units_Z   1
loop_
 _symmetry_equiv_pos_site_id
 _symmetry_equiv_pos_as_xyz
  1  'x, y, z'
loop_
 _atom_site_type_symbol
 _atom_site_label
 _atom_site_symmetry_multiplicity
 _atom_site_fract_x
 _atom_site_fract_y
 _atom_site_fract_z
 _atom_site_occupancy
  P  P0  1  0.00000000  0.00000000  0.00000000  1
  P  P1  1  0.50000000  0.50000000  0.50000000  1
  P  P2  1  0.25000000  0.25000000  0.25000000  1
  P  P3  1  0.75000000  0.25000000  0.00000000  1
  Li  Li4  1  0.25000000  0.75000000  0.50000000  1
  Li  Li5  1  0.60617586  0.31154879  0.25754854  1
  Cu  Cu6  1  0.57056580  0.83782424  0.64950150  1
  Cu  Cu7  1  0.17021525  0.70330384  0.38045233  1
  Ti  Ti8  1  0.44936911  0.29464496  0.85710541  1
