# generated using pymatgen
data_Li3Ti3Zn2(CuO)2
_symmetry_space_group_name_H-M   'P 1'
_cell_length_a   6.27397692
_cell_length_b   6.71620642
_cell_length_c   6.83218632
_cell_angle_alpha   97.80895633
_cell_angle_beta   100.57682122
_cell_angle_gamma   100.04941444
_symmetry_Int_Tables_number   1
_chemical_formula_structural   Li3Ti3Zn2(CuO)2
_chemical_formula_sum   'Li3 Ti3 Zn2 Cu2 O2'
_cell_volume   274.43248399
_cell_formula_units_Z   1
loop_
 _symmetry_equiv_pos_site_id
 _symmetry_equiv_pos_as_xyz
  1  'x, y, z'
loop_
 _atom_site_type_symbol
 _atom_site_label
 _atom_site_symmetry_multiplicity
 _atom_site_fract_x
 _atom_site_fract_y
 _atom_site_fract_z
 _atom_site_occupancy
  Li  Li0  1  0.12500000  0.00000000  0.25000000  1
  Li  Li1  1  0.00000000  0.00000000  0.00000000  1
  Li  Li2  1  0.37500000  0.00000000  0.25000000  1
  Cu  Cu3  1  0.25000000  0.25000000  0.25000000  1
  Cu  Cu4  1  0.00000000  0.25000000  0.12500000  1
  Zn  Zn5  1  0.85955510  0.99649038  0.93695597  1
  Zn  Zn6  1  0.53427585  0.67182215  0.18797774  1
  Ti  Ti7  1  0.51480998  0.91129268  0.09231590  1
  Ti  Ti8  1  0.57223136  0.91064530  0.59817907  1
  Ti  Ti9  1  0.49162782  0.41046001  0.59850724  1
  O  O10  1  0.98620266  0.60587714  0.28102591  1
  O  O11  1  0.62645878  0.11350355  0.37738106  1
