# generated using pymatgen
data_LiMn2Sb4P3
_symmetry_space_group_name_H-M   'P 1'
_cell_length_a   5.40828184
_cell_length_b   5.62138653
_cell_length_c   6.17883850
_cell_angle_alpha   93.87378267
_cell_angle_beta   90.94881380
_cell_angle_gamma   93.74173812
_symmetry_Int_Tables_number   1
_chemical_formula_structural   LiMn2Sb4P3
_chemical_formula_sum   'Li1 Mn2 Sb4 P3'
_cell_volume   186.97913421
_cell_formula_units_Z   1
loop_
 _symmetry_equiv_pos_site_id
 _symmetry_equiv_pos_as_xyz
  1  'x, y, z'
loop_
 _atom_site_type_symbol
 _atom_site_label
 _atom_site_symmetry_multiplicity
 _atom_site_fract_x
 _atom_site_fract_y
 _atom_site_fract_z
 _atom_site_occupancy
  Mn  Mn0  1  0.00000000  0.00000000  0.00000000  1
  Mn  Mn1  1  0.33300000  0.66700000  0.25000000  1
  Sb  Sb2  1  0.66700000  0.33300000  0.50000000  1
  Sb  Sb3  1  0.00000000  0.00000000  0.75000000  1
  Sb  Sb4  1  0.17641055  0.44047788  0.12295080  1
  Sb  Sb5  1  0.77820901  0.56422584  0.61886396  1
  P  P6  1  0.60936035  0.97932541  0.85951440  1
  P  P7  1  0.45159899  0.77016285  0.19903888  1
  P  P8  1  0.22680378  0.09452211  0.09768664  1
  Li  Li9  1  0.06331700  0.88182988  0.13279576  1
