# generated using pymatgen
data_Li2TiMnP3S4
_symmetry_space_group_name_H-M   'P 1'
_cell_length_a   6.30667553
_cell_length_b   5.42467693
_cell_length_c   8.81178956
_cell_angle_alpha   94.83194425
_cell_angle_beta   95.72388443
_cell_angle_gamma   95.49934915
_symmetry_Int_Tables_number   1
_chemical_formula_structural   Li2TiMnP3S4
_chemical_formula_sum   'Li2 Ti1 Mn1 P3 S4'
_cell_volume   297.24057668
_cell_formula_units_Z   1
loop_
 _symmetry_equiv_pos_site_id
 _symmetry_equiv_pos_as_xyz
  1  'x, y, z'
loop_
 _atom_site_type_symbol
 _atom_site_label
 _atom_site_symmetry_multiplicity
 _atom_site_fract_x
 _atom_site_fract_y
 _atom_site_fract_z
 _atom_site_occupancy
  Ti  Ti0  1  0.00000000  0.00000000  0.00000000  1
  S  S1  1  0.50000000  0.50000000  0.50000000  1
  S  S2  1  0.50000000  0.50000000  0.00000000  1
  S  S3  1  0.50000000  0.00000000  0.50000000  1
  S  S4  1  0.00000000  0.50000000  0.50000000  1
  Mn  Mn5  1  0.23319640  0.81429694  0.81929376  1
  P  P6  1  0.73187499  0.61105477  0.57228508  1
  P  P7  1  0.97806297  0.54503898  0.19930771  1
  P  P8  1  0.26782364  0.18199560  0.75487834  1
  Li  Li9  1  0.21292431  0.65563740  0.07402106  1
  Li  Li10  1  0.56885228  0.56136656  0.69353938  1
