# generated using pymatgen
data_Li2Mn2Ni3Sb4P3
_symmetry_space_group_name_H-M   'P 1'
_cell_length_a   4.45816016
_cell_length_b   4.46199036
_cell_length_c   6.67037870
_cell_angle_alpha   100.12405000
_cell_angle_beta   96.59339354
_cell_angle_gamma   100.54791681
_symmetry_Int_Tables_number   1
_chemical_formula_structural   Li2Mn2Ni3Sb4P3
_chemical_formula_sum   'Li2 Mn2 Ni3 Sb4 P3'
_cell_volume   126.92567833
_cell_formula_units_Z   1
loop_
 _symmetry_equiv_pos_site_id
 _symmetry_equiv_pos_as_xyz
  1  'x, y, z'
loop_
 _atom_site_type_symbol
 _atom_site_label
 _atom_site_symmetry_multiplicity
 _atom_site_fract_x
 _atom_site_fract_y
 _atom_site_fract_z
 _atom_site_occupancy
  Mn  Mn0  1  0.00000000  0.00000000  0.00000000  1
  Mn  Mn1  1  0.50000000  0.50000000  0.50000000  1
  Sb  Sb2  1  0.50000000  0.50000000  0.00000000  1
  Sb  Sb3  1  0.50000000  0.00000000  0.50000000  1
  Sb  Sb4  1  0.00000000  0.50000000  0.50000000  1
  Sb  Sb5  1  0.30990700  0.01918216  0.02910660  1
  P  P6  1  0.55740808  0.76473886  0.25364694  1
  P  P7  1  0.01887347  0.63036596  0.77937868  1
  P  P8  1  0.53166391  0.40814102  0.83734886  1
  Li  Li9  1  0.76913649  0.89821651  0.70481398  1
  Li  Li10  1  0.79788606  0.15327993  0.22157269  1
  Ni  Ni11  1  0.61406955  0.20266879  0.34986000  1
  Ni  Ni12  1  0.44264577  0.50487894  0.23206793  1
  Ni  Ni13  1  0.22647619  0.95084096  0.11403244  1
