# generated using pymatgen
data_Li2Mn3Sb2Mo2P3
_symmetry_space_group_name_H-M   'P 1'
_cell_length_a   4.90316909
_cell_length_b   5.13549806
_cell_length_c   6.02297324
_cell_angle_alpha   101.68534849
_cell_angle_beta   90.25197547
_cell_angle_gamma   101.29921723
_symmetry_Int_Tables_number   1
_chemical_formula_structural   Li2Mn3Sb2Mo2P3
_chemical_formula_sum   'Li2 Mn3 Sb2 Mo2 P3'
_cell_volume   145.48438856
_cell_formula_units_Z   1
loop_
 _symmetry_equiv_pos_site_id
 _symmetry_equiv_pos_as_xyz
  1  'x, y, z'
loop_
 _atom_site_type_symbol
 _atom_site_label
 _atom_site_symmetry_multiplicity
 _atom_site_fract_x
 _atom_site_fract_y
 _atom_site_fract_z
 _atom_site_occupancy
  Mn  Mn0  1  0.00000000  0.00000000  0.00000000  1
  Mn  Mn1  1  0.50000000  0.50000000  0.50000000  1
  Mn  Mn2  1  0.25000000  0.25000000  0.25000000  1
  Sb  Sb3  1  0.75000000  0.25000000  0.00000000  1
  Sb  Sb4  1  0.25000000  0.75000000  0.50000000  1
  P  P5  1  0.41484457  0.31140982  0.73172640  1
  P  P6  1  0.42360385  0.78705036  0.55456057  1
  P  P7  1  0.14932855  0.32775191  0.35814744  1
  Mo  Mo8  1  0.12622217  0.80188998  0.17571983  1
  Mo  Mo9  1  0.51975557  0.50014562  0.77940218  1
  Li  Li10  1  0.99435836  0.29064310  0.72747165  1
  Li  Li11  1  0.59477798  0.59292975  0.93478372  1
