# generated using pymatgen
data_Li4LuNi2(As3P2)2
_symmetry_space_group_name_H-M   'P 1'
_cell_length_a   7.95904696
_cell_length_b   7.72052359
_cell_length_c   9.33454428
_cell_angle_alpha   91.40795614
_cell_angle_beta   90.49777162
_cell_angle_gamma   91.63305867
_symmetry_Int_Tables_number   1
_chemical_formula_structural   Li4LuNi2(As3P2)2
_chemical_formula_sum   'Li4 Lu1 Ni2 As6 P4'
_cell_volume   573.15780065
_cell_formula_units_Z   1
loop_
 _symmetry_equiv_pos_site_id
 _symmetry_equiv_pos_as_xyz
  1  'x, y, z'
loop_
 _atom_site_type_symbol
 _atom_site_label
 _atom_site_symmetry_multiplicity
 _atom_site_fract_x
 _atom_site_fract_y
 _atom_site_fract_z
 _atom_site_occupancy
  P  P0  1  0.12500000  0.00000000  0.25000000  1
  P  P1  1  0.00000000  0.00000000  0.00000000  1
  P  P2  1  0.37500000  0.00000000  0.25000000  1
  P  P3  1  0.25000000  0.25000000  0.25000000  1
  Lu  Lu4  1  0.00000000  0.25000000  0.12500000  1
  Li  Li5  1  0.54583919  0.49547240  0.37926396  1
  Li  Li6  1  0.17464942  0.97613791  0.88703561  1
  Li  Li7  1  0.68513881  0.94556580  0.53906211  1
  Li  Li8  1  0.88727580  0.37966376  0.58342501  1
  Ni  Ni9  1  0.83358922  0.90273631  0.47038063  1
  Ni  Ni10  1  0.73708916  0.42000415  0.42865016  1
  As  As11  1  0.24924798  0.74592206  0.18493727  1
  As  As12  1  0.61169686  0.40503031  0.47250764  1
  As  As13  1  0.86273356  0.59068087  0.29618963  1
  As  As14  1  0.69883487  0.57067538  0.15084692  1
  As  As15  1  0.71151249  0.80235613  0.58091927  1
  As  As16  1  0.95097388  0.30580627  0.84500459  1
