# generated using pymatgen
data_Li2Mo2P3
_symmetry_space_group_name_H-M   'P 1'
_cell_length_a   3.70043428
_cell_length_b   3.77185110
_cell_length_c   5.54483782
_cell_angle_alpha   108.27469320
_cell_angle_beta   90.91294452
_cell_angle_gamma   107.91120947
_symmetry_Int_Tables_number   1
_chemical_formula_structural   Li2Mo2P3
_chemical_formula_sum   'Li2 Mo2 P3'
_cell_volume   69.38409424
_cell_formula_units_Z   1
loop_
 _symmetry_equiv_pos_site_id
 _symmetry_equiv_pos_as_xyz
  1  'x, y, z'
loop_
 _atom_site_type_symbol
 _atom_site_label
 _atom_site_symmetry_multiplicity
 _atom_site_fract_x
 _atom_site_fract_y
 _atom_site_fract_z
 _atom_site_occupancy
  P  P0  1  0.12500000  0.00000000  0.25000000  1
  P  P1  1  0.00000000  0.00000000  0.00000000  1
  P  P2  1  0.37500000  0.00000000  0.25000000  1
  Mo  Mo3  1  0.25000000  0.25000000  0.25000000  1
  Mo  Mo4  1  0.00000000  0.25000000  0.12500000  1
  Li  Li5  1  0.77989581  0.01535930  0.15046850  1
  Li  Li6  1  0.60033908  0.41164060  0.13126655  1
