# generated using pymatgen
data_Li3TiP3O2
_symmetry_space_group_name_H-M   'P 1'
_cell_length_a   7.42603093
_cell_length_b   6.77132925
_cell_length_c   6.99935719
_cell_angle_alpha   90.29236169
_cell_angle_beta   90.39038071
_cell_angle_gamma   89.66322263
_symmetry_Int_Tables_number   1
_chemical_formula_structural   Li3TiP3O2
_chemical_formula_sum   'Li3 Ti1 P3 O2'
_cell_volume   351.93762032
_cell_formula_units_Z   1
loop_
 _symmetry_equiv_pos_site_id
 _symmetry_equiv_pos_as_xyz
  1  'x, y, z'
loop_
 _atom_site_type_symbol
 _atom_site_label
 _atom_site_symmetry_multiplicity
 _atom_site_fract_x
 _atom_site_fract_y
 _atom_site_fract_z
 _atom_site_occupancy
  P  P0  1  0.12500000  0.00000000  0.25000000  1
  P  P1  1  0.00000000  0.00000000  0.00000000  1
  P  P2  1  0.37500000  0.00000000  0.25000000  1
  Li  Li3  1  0.25000000  0.25000000  0.25000000  1
  Li  Li4  1  0.00000000  0.25000000  0.12500000  1
  Li  Li5  1  0.72713606  0.07793059  0.97532625  1
  Ti  Ti6  1  0.65502537  0.02651171  0.10157866  1
  O  O7  1  0.26313349  0.55873212  0.26978051  1
  O  O8  1  0.44637820  0.35711275  0.41959281  1
