# generated using pymatgen
data_Li2Mn3Sb4P2N
_symmetry_space_group_name_H-M   'P 1'
_cell_length_a   5.24607761
_cell_length_b   5.65726544
_cell_length_c   6.29846272
_cell_angle_alpha   100.41123519
_cell_angle_beta   97.38778842
_cell_angle_gamma   96.72854368
_symmetry_Int_Tables_number   1
_chemical_formula_structural   Li2Mn3Sb4P2N
_chemical_formula_sum   'Li2 Mn3 Sb4 P2 N1'
_cell_volume   180.42597517
_cell_formula_units_Z   1
loop_
 _symmetry_equiv_pos_site_id
 _symmetry_equiv_pos_as_xyz
  1  'x, y, z'
loop_
 _atom_site_type_symbol
 _atom_site_label
 _atom_site_symmetry_multiplicity
 _atom_site_fract_x
 _atom_site_fract_y
 _atom_site_fract_z
 _atom_site_occupancy
  N  N0  1  0.00000000  0.00000000  0.00000000  1
  Mn  Mn1  1  0.50000000  0.50000000  0.50000000  1
  Mn  Mn2  1  0.50000000  0.50000000  0.00000000  1
  Mn  Mn3  1  0.50000000  0.00000000  0.50000000  1
  Sb  Sb4  1  0.00000000  0.50000000  0.50000000  1
  Sb  Sb5  1  0.77088793  0.88314846  0.31676495  1
  Sb  Sb6  1  0.88385636  0.15510859  0.64437114  1
  Sb  Sb7  1  0.16043191  0.96486198  0.54384116  1
  P  P8  1  0.48402911  0.24023395  0.46877375  1
  P  P9  1  0.41583357  0.49201830  0.11986228  1
  Li  Li10  1  0.36353050  0.91378437  0.83379905  1
  Li  Li11  1  0.33233264  0.60168511  0.58297821  1
