# generated using pymatgen
data_Li2Mn2Sb4P3
_symmetry_space_group_name_H-M   'P 1'
_cell_length_a   6.36471962
_cell_length_b   6.87119138
_cell_length_c   7.02583790
_cell_angle_alpha   95.07965376
_cell_angle_beta   91.16470183
_cell_angle_gamma   95.10548006
_symmetry_Int_Tables_number   1
_chemical_formula_structural   Li2Mn2Sb4P3
_chemical_formula_sum   'Li2 Mn2 Sb4 P3'
_cell_volume   304.71819192
_cell_formula_units_Z   1
loop_
 _symmetry_equiv_pos_site_id
 _symmetry_equiv_pos_as_xyz
  1  'x, y, z'
loop_
 _atom_site_type_symbol
 _atom_site_label
 _atom_site_symmetry_multiplicity
 _atom_site_fract_x
 _atom_site_fract_y
 _atom_site_fract_z
 _atom_site_occupancy
  Mn  Mn0  1  0.12500000  0.00000000  0.25000000  1
  Mn  Mn1  1  0.00000000  0.00000000  0.00000000  1
  Sb  Sb2  1  0.37500000  0.00000000  0.25000000  1
  Sb  Sb3  1  0.25000000  0.25000000  0.25000000  1
  Sb  Sb4  1  0.00000000  0.25000000  0.12500000  1
  Sb  Sb5  1  0.06081024  0.40899209  0.44566458  1
  P  P6  1  0.48339108  0.52034447  0.75813090  1
  P  P7  1  0.32771946  0.95981543  0.27093114  1
  P  P8  1  0.66787367  0.90960681  0.59847579  1
  Li  Li9  1  0.46882495  0.19863427  0.46394634  1
  Li  Li10  1  0.56621620  0.04054983  0.43354232  1
