# generated using pymatgen
data_LiMnSb4Mo2P3
_symmetry_space_group_name_H-M   'P 1'
_cell_length_a   5.82248905
_cell_length_b   6.24152632
_cell_length_c   6.73481801
_cell_angle_alpha   95.07554997
_cell_angle_beta   92.40725621
_cell_angle_gamma   95.13485937
_symmetry_Int_Tables_number   1
_chemical_formula_structural   LiMnSb4Mo2P3
_chemical_formula_sum   'Li1 Mn1 Sb4 Mo2 P3'
_cell_volume   242.50582240
_cell_formula_units_Z   1
loop_
 _symmetry_equiv_pos_site_id
 _symmetry_equiv_pos_as_xyz
  1  'x, y, z'
loop_
 _atom_site_type_symbol
 _atom_site_label
 _atom_site_symmetry_multiplicity
 _atom_site_fract_x
 _atom_site_fract_y
 _atom_site_fract_z
 _atom_site_occupancy
  Mn  Mn0  1  0.00000000  0.00000000  0.00000000  1
  Sb  Sb1  1  0.50000000  0.50000000  0.50000000  1
  Sb  Sb2  1  0.50000000  0.50000000  0.00000000  1
  Sb  Sb3  1  0.50000000  0.00000000  0.50000000  1
  Sb  Sb4  1  0.00000000  0.50000000  0.50000000  1
  P  P5  1  0.83028412  0.66803560  0.85901853  1
  P  P6  1  0.78676485  0.93787826  0.62181992  1
  P  P7  1  0.71987168  0.20486132  0.81215616  1
  Mo  Mo8  1  0.15329795  0.22429013  0.69499903  1
  Mo  Mo9  1  0.43412971  0.72606957  0.13289912  1
  Li  Li10  1  0.80583416  0.70765628  0.52469171  1
