# generated using pymatgen
data_Li4LuNi2(As3P2)2
_symmetry_space_group_name_H-M   'P 1'
_cell_length_a   7.78684294
_cell_length_b   7.50195301
_cell_length_c   9.18200317
_cell_angle_alpha   92.09135414
_cell_angle_beta   90.73938151
_cell_angle_gamma   92.42571763
_symmetry_Int_Tables_number   1
_chemical_formula_structural   Li4LuNi2(As3P2)2
_chemical_formula_sum   'Li4 Lu1 Ni2 As6 P4'
_cell_volume   535.48709253
_cell_formula_units_Z   1
loop_
 _symmetry_equiv_pos_site_id
 _symmetry_equiv_pos_as_xyz
  1  'x, y, z'
loop_
 _atom_site_type_symbol
 _atom_site_label
 _atom_site_symmetry_multiplicity
 _atom_site_fract_x
 _atom_site_fract_y
 _atom_site_fract_z
 _atom_site_occupancy
  P  P0  1  0.00000000  0.00000000  0.00000000  1
  P  P1  1  0.50000000  0.50000000  0.50000000  1
  P  P2  1  0.25000000  0.25000000  0.25000000  1
  P  P3  1  0.75000000  0.25000000  0.00000000  1
  Lu  Lu4  1  0.25000000  0.75000000  0.50000000  1
  Li  Li5  1  0.57245412  0.76429499  0.65167795  1
  Li  Li6  1  0.22452381  0.47535462  0.78136336  1
  Li  Li7  1  0.79850831  0.79288906  0.76321579  1
  Li  Li8  1  0.85573530  0.88614553  0.11127979  1
  Ni  Ni9  1  0.49393067  0.75931965  0.98536965  1
  Ni  Ni10  1  0.67104457  0.49472008  0.63763174  1
  As  As11  1  0.19570230  0.31150382  0.62829578  1
  As  As12  1  0.77798347  0.13194061  0.07589813  1
  As  As13  1  0.64137848  0.46386659  0.88984721  1
  As  As14  1  0.72440437  0.28995239  0.33209399  1
  As  As15  1  0.21069328  0.20529931  0.25147161  1
  As  As16  1  0.97784018  0.63716669  0.49026531  1
