# generated using pymatgen
data_Li3Cu2Ni2As6O7
_symmetry_space_group_name_H-M   'P 1'
_cell_length_a   7.93641950
_cell_length_b   7.94481444
_cell_length_c   9.10306448
_cell_angle_alpha   90.21686615
_cell_angle_beta   91.03178330
_cell_angle_gamma   90.24793592
_symmetry_Int_Tables_number   1
_chemical_formula_structural   Li3Cu2Ni2As6O7
_chemical_formula_sum   'Li3 Cu2 Ni2 As6 O7'
_cell_volume   573.87626474
_cell_formula_units_Z   1
loop_
 _symmetry_equiv_pos_site_id
 _symmetry_equiv_pos_as_xyz
  1  'x, y, z'
loop_
 _atom_site_type_symbol
 _atom_site_label
 _atom_site_symmetry_multiplicity
 _atom_site_fract_x
 _atom_site_fract_y
 _atom_site_fract_z
 _atom_site_occupancy
  Ni  Ni0  1  0.00000000  0.00000000  0.00000000  1
  Ni  Ni1  1  0.50000000  0.50000000  0.50000000  1
  O  O2  1  0.25000000  0.25000000  0.25000000  1
  O  O3  1  0.75000000  0.25000000  0.00000000  1
  O  O4  1  0.25000000  0.75000000  0.50000000  1
  O  O5  1  0.92804948  0.34196157  0.99987354  1
  O  O6  1  0.68466487  0.75114967  0.45502465  1
  O  O7  1  0.43849829  0.24252688  0.70498277  1
  O  O8  1  0.06796481  0.94539896  0.06791508  1
  As  As9  1  0.08891620  0.73857648  0.35031593  1
  As  As10  1  0.27238340  0.79490363  0.79444349  1
  As  As11  1  0.74814475  0.82755176  0.01313468  1
  As  As12  1  0.55249573  0.43039015  0.38727378  1
  As  As13  1  0.71733208  0.21944700  0.11422468  1
  As  As14  1  0.73558643  0.60302540  0.79696355  1
  Li  Li15  1  0.06138277  0.75866653  0.63459060  1
  Li  Li16  1  0.58779084  0.19935929  0.35227608  1
  Li  Li17  1  0.88823348  0.37780345  0.61378184  1
  Cu  Cu18  1  0.35654087  0.68750060  0.76459063  1
  Cu  Cu19  1  0.86736055  0.47698350  0.65617052  1
