# generated using pymatgen
data_Li3Ti2(I2O)2
_symmetry_space_group_name_H-M   'P 1'
_cell_length_a   6.24359399
_cell_length_b   6.44384535
_cell_length_c   6.89536126
_cell_angle_alpha   97.28191998
_cell_angle_beta   100.17979213
_cell_angle_gamma   99.35779489
_symmetry_Int_Tables_number   1
_chemical_formula_structural   Li3Ti2(I2O)2
_chemical_formula_sum   'Li3 Ti2 I4 O2'
_cell_volume   265.94294720
_cell_formula_units_Z   1
loop_
 _symmetry_equiv_pos_site_id
 _symmetry_equiv_pos_as_xyz
  1  'x, y, z'
loop_
 _atom_site_type_symbol
 _atom_site_label
 _atom_site_symmetry_multiplicity
 _atom_site_fract_x
 _atom_site_fract_y
 _atom_site_fract_z
 _atom_site_occupancy
  I  I0  1  0.00000000  0.00000000  0.00000000  1
  I  I1  1  0.50000000  0.50000000  0.50000000  1
  I  I2  1  0.25000000  0.25000000  0.25000000  1
  I  I3  1  0.75000000  0.25000000  0.00000000  1
  Li  Li4  1  0.25000000  0.75000000  0.50000000  1
  Li  Li5  1  0.45758838  0.16470343  0.53659034  1
  Li  Li6  1  0.79413137  0.54999062  0.38196252  1
  Ti  Ti7  1  0.23802791  0.11487621  0.75151673  1
  Ti  Ti8  1  0.14166063  0.50959506  0.80199926  1
  O  O9  1  0.91708072  0.91041598  0.66858419  1
  O  O10  1  0.83484303  0.41289578  0.52294433  1
