# generated using pymatgen
data_Li2Sb4Mo2P3
_symmetry_space_group_name_H-M   'P 1'
_cell_length_a   4.80851805
_cell_length_b   5.11258868
_cell_length_c   6.51114277
_cell_angle_alpha   100.66047201
_cell_angle_beta   93.94016438
_cell_angle_gamma   100.92299014
_symmetry_Int_Tables_number   1
_chemical_formula_structural   Li2Sb4Mo2P3
_chemical_formula_sum   'Li2 Sb4 Mo2 P3'
_cell_volume   153.56138742
_cell_formula_units_Z   1
loop_
 _symmetry_equiv_pos_site_id
 _symmetry_equiv_pos_as_xyz
  1  'x, y, z'
loop_
 _atom_site_type_symbol
 _atom_site_label
 _atom_site_symmetry_multiplicity
 _atom_site_fract_x
 _atom_site_fract_y
 _atom_site_fract_z
 _atom_site_occupancy
  Sb  Sb0  1  0.00000000  0.00000000  0.00000000  1
  Sb  Sb1  1  0.50000000  0.50000000  0.50000000  1
  Sb  Sb2  1  0.50000000  0.50000000  0.00000000  1
  Sb  Sb3  1  0.50000000  0.00000000  0.50000000  1
  P  P4  1  0.00000000  0.50000000  0.50000000  1
  P  P5  1  0.66554297  0.57220081  0.13926800  1
  P  P6  1  0.56359077  0.85014348  0.35436864  1
  Mo  Mo7  1  0.87163732  0.14161014  0.62229139  1
  Mo  Mo8  1  0.07996007  0.46218642  0.81235471  1
  Li  Li9  1  0.05318025  0.16749251  0.61933418  1
  Li  Li10  1  0.74020658  0.54891643  0.89221805  1
