# generated using pymatgen
data_Li3Cu2(NiO)2
_symmetry_space_group_name_H-M   'P 1'
_cell_length_a   5.78102218
_cell_length_b   5.99939518
_cell_length_c   7.29405529
_cell_angle_alpha   99.02515847
_cell_angle_beta   101.63748478
_cell_angle_gamma   101.51026181
_symmetry_Int_Tables_number   1
_chemical_formula_structural   Li3Cu2(NiO)2
_chemical_formula_sum   'Li3 Cu2 Ni2 O2'
_cell_volume   237.61751698
_cell_formula_units_Z   1
loop_
 _symmetry_equiv_pos_site_id
 _symmetry_equiv_pos_as_xyz
  1  'x, y, z'
loop_
 _atom_site_type_symbol
 _atom_site_label
 _atom_site_symmetry_multiplicity
 _atom_site_fract_x
 _atom_site_fract_y
 _atom_site_fract_z
 _atom_site_occupancy
  Li  Li0  1  0.12500000  0.00000000  0.25000000  1
  Li  Li1  1  0.00000000  0.00000000  0.00000000  1
  Li  Li2  1  0.37500000  0.00000000  0.25000000  1
  Cu  Cu3  1  0.25000000  0.25000000  0.25000000  1
  Cu  Cu4  1  0.00000000  0.25000000  0.12500000  1
  Ni  Ni5  1  0.87776402  0.29009256  0.94958627  1
  Ni  Ni6  1  0.11858833  0.35335793  0.16956687  1
  O  O7  1  0.13882674  0.89526365  0.62335952  1
  O  O8  1  0.92244381  0.74449426  0.26342953  1
