# generated using pymatgen
data_LiTiNF6
_symmetry_space_group_name_H-M   'P 1'
_cell_length_a   3.49403728
_cell_length_b   3.36181427
_cell_length_c   4.81304099
_cell_angle_alpha   90.77319224
_cell_angle_beta   92.73723554
_cell_angle_gamma   92.09638926
_symmetry_Int_Tables_number   1
_chemical_formula_structural   LiTiNF6
_chemical_formula_sum   'Li1 Ti1 N1 F6'
_cell_volume   56.42656561
_cell_formula_units_Z   1
loop_
 _symmetry_equiv_pos_site_id
 _symmetry_equiv_pos_as_xyz
  1  'x, y, z'
loop_
 _atom_site_type_symbol
 _atom_site_label
 _atom_site_symmetry_multiplicity
 _atom_site_fract_x
 _atom_site_fract_y
 _atom_site_fract_z
 _atom_site_occupancy
  F  F0  1  0.00000000  0.00000000  0.00000000  1
  F  F1  1  0.50000000  0.50000000  0.50000000  1
  F  F2  1  0.50000000  0.50000000  0.00000000  1
  F  F3  1  0.50000000  0.00000000  0.50000000  1
  F  F4  1  0.00000000  0.50000000  0.50000000  1
  F  F5  1  0.74761806  0.83737860  0.09294375  1
  N  N6  1  0.35540364  0.30732860  0.87179878  1
  Ti  Ti7  1  0.25858196  0.41258545  0.27978988  1
  Li  Li8  1  0.97986964  0.68570768  0.21449484  1
