# generated using pymatgen
data_LiSb4P2N
_symmetry_space_group_name_H-M   'P 1'
_cell_length_a   4.99617835
_cell_length_b   5.24657603
_cell_length_c   6.16654030
_cell_angle_alpha   99.00710172
_cell_angle_beta   93.56839759
_cell_angle_gamma   97.65136145
_symmetry_Int_Tables_number   1
_chemical_formula_structural   LiSb4P2N
_chemical_formula_sum   'Li1 Sb4 P2 N1'
_cell_volume   157.65683824
_cell_formula_units_Z   1
loop_
 _symmetry_equiv_pos_site_id
 _symmetry_equiv_pos_as_xyz
  1  'x, y, z'
loop_
 _atom_site_type_symbol
 _atom_site_label
 _atom_site_symmetry_multiplicity
 _atom_site_fract_x
 _atom_site_fract_y
 _atom_site_fract_z
 _atom_site_occupancy
  Sb  Sb0  1  0.00000000  0.00000000  0.00000000  1
  Sb  Sb1  1  0.33300000  0.66700000  0.25000000  1
  Sb  Sb2  1  0.66700000  0.33300000  0.50000000  1
  Sb  Sb3  1  0.00000000  0.00000000  0.75000000  1
  P  P4  1  0.46077620  0.55270594  0.56993039  1
  P  P5  1  0.86867536  0.02200679  0.70959725  1
  Li  Li6  1  0.23614618  0.41136029  0.49719554  1
  N  N7  1  0.39610740  0.19787009  0.08495089  1
