# generated using pymatgen
data_Li3Ti2I4O4F3
_symmetry_space_group_name_H-M   'P 1'
_cell_length_a   6.81027334
_cell_length_b   6.69337091
_cell_length_c   7.70503529
_cell_angle_alpha   93.70835870
_cell_angle_beta   95.16164794
_cell_angle_gamma   93.40907163
_symmetry_Int_Tables_number   1
_chemical_formula_structural   Li3Ti2I4O4F3
_chemical_formula_sum   'Li3 Ti2 I4 O4 F3'
_cell_volume   348.31334502
_cell_formula_units_Z   1
loop_
 _symmetry_equiv_pos_site_id
 _symmetry_equiv_pos_as_xyz
  1  'x, y, z'
loop_
 _atom_site_type_symbol
 _atom_site_label
 _atom_site_symmetry_multiplicity
 _atom_site_fract_x
 _atom_site_fract_y
 _atom_site_fract_z
 _atom_site_occupancy
  I  I0  1  0.00000000  0.00000000  0.00000000  1
  I  I1  1  0.50000000  0.50000000  0.50000000  1
  I  I2  1  0.25000000  0.25000000  0.25000000  1
  I  I3  1  0.75000000  0.25000000  0.00000000  1
  Li  Li4  1  0.25000000  0.75000000  0.50000000  1
  Li  Li5  1  0.85008359  0.43839538  0.87332738  1
  Li  Li6  1  0.13475712  0.31392280  0.46048713  1
  F  F7  1  0.92321694  0.52533712  0.62387010  1
  F  F8  1  0.17322109  0.18457508  0.60019608  1
  F  F9  1  0.26665769  0.79829570  0.35654389  1
  Ti  Ti10  1  0.27400411  0.31147532  0.97730888  1
  Ti  Ti11  1  0.11795593  0.18028917  0.94597913  1
  O  O12  1  0.20249826  0.91745406  0.35028341  1
  O  O13  1  0.45793417  0.80421128  0.85338508  1
  O  O14  1  0.70014501  0.90960720  0.37387883  1
  O  O15  1  0.76261191  0.44948652  0.41694586  1
