# generated using pymatgen
data_Li2TiAs6(I2O)2
_symmetry_space_group_name_H-M   'P 1'
_cell_length_a   7.84624874
_cell_length_b   7.84981696
_cell_length_c   7.73320517
_cell_angle_alpha   90.32324407
_cell_angle_beta   91.53789710
_cell_angle_gamma   90.36955428
_symmetry_Int_Tables_number   1
_chemical_formula_structural   Li2TiAs6(I2O)2
_chemical_formula_sum   'Li2 Ti1 As6 I4 O2'
_cell_volume   476.11108012
_cell_formula_units_Z   1
loop_
 _symmetry_equiv_pos_site_id
 _symmetry_equiv_pos_as_xyz
  1  'x, y, z'
loop_
 _atom_site_type_symbol
 _atom_site_label
 _atom_site_symmetry_multiplicity
 _atom_site_fract_x
 _atom_site_fract_y
 _atom_site_fract_z
 _atom_site_occupancy
  O  O0  1  0.00000000  0.00000000  0.00000000  1
  O  O1  1  0.50000000  0.50000000  0.50000000  1
  Ti  Ti2  1  0.50000000  0.50000000  0.00000000  1
  I  I3  1  0.50000000  0.00000000  0.50000000  1
  I  I4  1  0.00000000  0.50000000  0.50000000  1
  I  I5  1  0.11946182  0.19607465  0.66205800  1
  I  I6  1  0.82777322  0.66782241  0.17078647  1
  As  As7  1  0.35456435  0.19344829  0.02148179  1
  As  As8  1  0.01813538  0.76970929  0.63610664  1
  As  As9  1  0.50581442  0.68159876  0.99118446  1
  As  As10  1  0.20633741  0.59400172  0.40832229  1
  As  As11  1  0.54838172  0.61883121  0.62521622  1
  As  As12  1  0.86744882  0.43282097  0.87689101  1
  Li  Li13  1  0.73238075  0.54661626  0.74824689  1
  Li  Li14  1  0.60727873  0.20447853  0.31507214  1
