# generated using pymatgen
data_LiMn2(SbP)3
_symmetry_space_group_name_H-M   'P 1'
_cell_length_a   5.13772191
_cell_length_b   5.35679834
_cell_length_c   6.19163285
_cell_angle_alpha   95.29821503
_cell_angle_beta   92.00502576
_cell_angle_gamma   95.36550102
_symmetry_Int_Tables_number   1
_chemical_formula_structural   LiMn2(SbP)3
_chemical_formula_sum   'Li1 Mn2 Sb3 P3'
_cell_volume   168.76940509
_cell_formula_units_Z   1
loop_
 _symmetry_equiv_pos_site_id
 _symmetry_equiv_pos_as_xyz
  1  'x, y, z'
loop_
 _atom_site_type_symbol
 _atom_site_label
 _atom_site_symmetry_multiplicity
 _atom_site_fract_x
 _atom_site_fract_y
 _atom_site_fract_z
 _atom_site_occupancy
  Mn  Mn0  1  0.00000000  0.00000000  0.00000000  1
  Mn  Mn1  1  0.50000000  0.50000000  0.50000000  1
  Sb  Sb2  1  0.25000000  0.25000000  0.25000000  1
  Sb  Sb3  1  0.75000000  0.25000000  0.00000000  1
  Sb  Sb4  1  0.25000000  0.75000000  0.50000000  1
  P  P5  1  0.90752659  0.69762380  0.53017702  1
  P  P6  1  0.63290377  0.25076440  0.86556412  1
  P  P7  1  0.58441060  0.56163240  0.28998551  1
  Li  Li8  1  0.87290181  0.74899582  0.58151524  1
