# generated using pymatgen
data_Li2Sb4Mo2P3
_symmetry_space_group_name_H-M   'P 1'
_cell_length_a   4.08766131
_cell_length_b   4.15371678
_cell_length_c   5.87087646
_cell_angle_alpha   105.98020102
_cell_angle_beta   91.75492747
_cell_angle_gamma   105.79557550
_symmetry_Int_Tables_number   1
_chemical_formula_structural   Li2Sb4Mo2P3
_chemical_formula_sum   'Li2 Sb4 Mo2 P3'
_cell_volume   91.60853431
_cell_formula_units_Z   1
loop_
 _symmetry_equiv_pos_site_id
 _symmetry_equiv_pos_as_xyz
  1  'x, y, z'
loop_
 _atom_site_type_symbol
 _atom_site_label
 _atom_site_symmetry_multiplicity
 _atom_site_fract_x
 _atom_site_fract_y
 _atom_site_fract_z
 _atom_site_occupancy
  Sb  Sb0  1  0.00000000  0.00000000  0.00000000  1
  Sb  Sb1  1  0.50000000  0.50000000  0.50000000  1
  Sb  Sb2  1  0.25000000  0.25000000  0.25000000  1
  Sb  Sb3  1  0.75000000  0.25000000  0.00000000  1
  P  P4  1  0.25000000  0.75000000  0.50000000  1
  P  P5  1  0.26449560  0.81311730  0.71793912  1
  P  P6  1  0.61328664  0.72469350  0.14065814  1
  Mo  Mo7  1  0.71591972  0.23906058  0.53002788  1
  Mo  Mo8  1  0.36334947  0.34995684  0.87746638  1
  Li  Li9  1  0.67161312  0.87845300  0.38223418  1
  Li  Li10  1  0.94524139  0.10032610  0.76830032  1
