# generated using pymatgen
data_Li2Ti2As6P2O3
_symmetry_space_group_name_H-M   'P 1'
_cell_length_a   7.48680905
_cell_length_b   7.74763989
_cell_length_c   8.09776435
_cell_angle_alpha   90.97801498
_cell_angle_beta   92.35065624
_cell_angle_gamma   91.21531201
_symmetry_Int_Tables_number   1
_chemical_formula_structural   Li2Ti2As6P2O3
_chemical_formula_sum   'Li2 Ti2 As6 P2 O3'
_cell_volume   469.13514821
_cell_formula_units_Z   1
loop_
 _symmetry_equiv_pos_site_id
 _symmetry_equiv_pos_as_xyz
  1  'x, y, z'
loop_
 _atom_site_type_symbol
 _atom_site_label
 _atom_site_symmetry_multiplicity
 _atom_site_fract_x
 _atom_site_fract_y
 _atom_site_fract_z
 _atom_site_occupancy
  O  O0  1  0.00000000  0.00000000  0.00000000  1
  O  O1  1  0.50000000  0.50000000  0.50000000  1
  O  O2  1  0.50000000  0.50000000  0.00000000  1
  P  P3  1  0.50000000  0.00000000  0.50000000  1
  P  P4  1  0.00000000  0.50000000  0.50000000  1
  Li  Li5  1  0.18676652  0.14994304  0.95952112  1
  Li  Li6  1  0.81203350  0.41198034  0.13610205  1
  Ti  Ti7  1  0.92578459  0.51637604  0.63717566  1
  Ti  Ti8  1  0.34998165  0.11440443  0.20125494  1
  As  As9  1  0.76307876  0.82768384  0.35148499  1
  As  As10  1  0.64750578  0.53999439  0.34703117  1
  As  As11  1  0.92912512  0.39441298  0.09331931  1
  As  As12  1  0.42305050  0.73247563  0.54923713  1
  As  As13  1  0.04597704  0.86148610  0.19712481  1
  As  As14  1  0.57376572  0.27558877  0.88836136  1
