# generated using pymatgen
data_Li2Mn2Sb4P3
_symmetry_space_group_name_H-M   'P 1'
_cell_length_a   6.15306177
_cell_length_b   6.48102763
_cell_length_c   6.86434510
_cell_angle_alpha   97.05413708
_cell_angle_beta   91.59292555
_cell_angle_gamma   97.15440480
_symmetry_Int_Tables_number   1
_chemical_formula_structural   Li2Mn2Sb4P3
_chemical_formula_sum   'Li2 Mn2 Sb4 P3'
_cell_volume   269.29204326
_cell_formula_units_Z   1
loop_
 _symmetry_equiv_pos_site_id
 _symmetry_equiv_pos_as_xyz
  1  'x, y, z'
loop_
 _atom_site_type_symbol
 _atom_site_label
 _atom_site_symmetry_multiplicity
 _atom_site_fract_x
 _atom_site_fract_y
 _atom_site_fract_z
 _atom_site_occupancy
  Mn  Mn0  1  0.00000000  0.00000000  0.00000000  1
  Mn  Mn1  1  0.33300000  0.66700000  0.25000000  1
  Sb  Sb2  1  0.66700000  0.33300000  0.50000000  1
  Sb  Sb3  1  0.00000000  0.00000000  0.75000000  1
  Sb  Sb4  1  0.20469476  0.59550440  0.90212476  1
  Sb  Sb5  1  0.65017144  0.67631035  0.86920684  1
  P  P6  1  0.31693602  0.39166003  0.04581746  1
  P  P7  1  0.19929542  0.60502596  0.67511770  1
  P  P8  1  0.77144848  0.86877148  0.38287272  1
  Li  Li9  1  0.09192563  0.94890193  0.03586825  1
  Li  Li10  1  0.55216271  0.70799701  0.48289631  1
