# generated using pymatgen
data_Li2Mn2Sb4P3
_symmetry_space_group_name_H-M   'P 1'
_cell_length_a   6.85723007
_cell_length_b   7.46147734
_cell_length_c   7.42288192
_cell_angle_alpha   91.89353366
_cell_angle_beta   92.24306558
_cell_angle_gamma   92.15507510
_symmetry_Int_Tables_number   1
_chemical_formula_structural   Li2Mn2Sb4P3
_chemical_formula_sum   'Li2 Mn2 Sb4 P3'
_cell_volume   379.00621582
_cell_formula_units_Z   1
loop_
 _symmetry_equiv_pos_site_id
 _symmetry_equiv_pos_as_xyz
  1  'x, y, z'
loop_
 _atom_site_type_symbol
 _atom_site_label
 _atom_site_symmetry_multiplicity
 _atom_site_fract_x
 _atom_site_fract_y
 _atom_site_fract_z
 _atom_site_occupancy
  Mn  Mn0  1  0.00000000  0.00000000  0.00000000  1
  Mn  Mn1  1  0.50000000  0.50000000  0.50000000  1
  Sb  Sb2  1  0.50000000  0.50000000  0.00000000  1
  Sb  Sb3  1  0.50000000  0.00000000  0.50000000  1
  Sb  Sb4  1  0.00000000  0.50000000  0.50000000  1
  Sb  Sb5  1  0.45695649  0.68103143  0.91701400  1
  P  P6  1  0.04824188  0.41641502  0.59367052  1
  P  P7  1  0.55675653  0.57891357  0.58413143  1
  P  P8  1  0.04678577  0.72802450  0.19814029  1
  Li  Li9  1  0.63105035  0.93099335  0.81603320  1
  Li  Li10  1  0.26167876  0.94423838  0.63922428  1
