# generated using pymatgen
data_Li2Mn2Sb4P3
_symmetry_space_group_name_H-M   'P 1'
_cell_length_a   6.00730526
_cell_length_b   6.51863920
_cell_length_c   7.27630143
_cell_angle_alpha   94.12832559
_cell_angle_beta   94.89038311
_cell_angle_gamma   94.69854424
_symmetry_Int_Tables_number   1
_chemical_formula_structural   Li2Mn2Sb4P3
_chemical_formula_sum   'Li2 Mn2 Sb4 P3'
_cell_volume   282.04845420
_cell_formula_units_Z   1
loop_
 _symmetry_equiv_pos_site_id
 _symmetry_equiv_pos_as_xyz
  1  'x, y, z'
loop_
 _atom_site_type_symbol
 _atom_site_label
 _atom_site_symmetry_multiplicity
 _atom_site_fract_x
 _atom_site_fract_y
 _atom_site_fract_z
 _atom_site_occupancy
  Mn  Mn0  1  0.00000000  0.00000000  0.00000000  1
  Mn  Mn1  1  0.50000000  0.50000000  0.50000000  1
  Sb  Sb2  1  0.50000000  0.50000000  0.00000000  1
  Sb  Sb3  1  0.50000000  0.00000000  0.50000000  1
  Sb  Sb4  1  0.00000000  0.50000000  0.50000000  1
  Sb  Sb5  1  0.98236646  0.09017921  0.43696329  1
  P  P6  1  0.46663492  0.02032272  0.12045247  1
  P  P7  1  0.61129452  0.36859303  0.77730833  1
  P  P8  1  0.96371076  0.30991611  0.58614966  1
  Li  Li9  1  0.05814643  0.74537205  0.20445804  1
  Li  Li10  1  0.37447864  0.49644143  0.55206438  1
