# generated using pymatgen
data_Li3TiNi2As6O5
_symmetry_space_group_name_H-M   'P 1'
_cell_length_a   8.55762309
_cell_length_b   8.42490472
_cell_length_c   8.59149053
_cell_angle_alpha   90.00000000
_cell_angle_beta   90.00000000
_cell_angle_gamma   90.00000000
_symmetry_Int_Tables_number   1
_chemical_formula_structural   Li3TiNi2As6O5
_chemical_formula_sum   'Li3 Ti1 Ni2 As6 O5'
_cell_volume   619.42206046
_cell_formula_units_Z   1
loop_
 _symmetry_equiv_pos_site_id
 _symmetry_equiv_pos_as_xyz
  1  'x, y, z'
loop_
 _atom_site_type_symbol
 _atom_site_label
 _atom_site_symmetry_multiplicity
 _atom_site_fract_x
 _atom_site_fract_y
 _atom_site_fract_z
 _atom_site_occupancy
  Li  Li0  1  0.00000000  0.00000000  0.00000000  1
  Li  Li1  1  0.50000000  0.50000000  0.50000000  1
  Li  Li2  1  0.50000000  0.50000000  0.00000000  1
  Ni  Ni3  1  0.50000000  0.00000000  0.50000000  1
  Ni  Ni4  1  0.00000000  0.50000000  0.50000000  1
  Ti  Ti5  1  0.46495373  0.01989905  0.99171673  1
  As  As6  1  0.51326191  0.64498370  0.46956840  1
  As  As7  1  0.52764418  0.07658605  0.44189712  1
  As  As8  1  0.25563051  0.53730829  0.58557220  1
  As  As9  1  0.11843542  0.63347625  0.68954134  1
  As  As10  1  0.78395505  0.97945488  0.39705169  1
  As  As11  1  0.44409649  0.31060664  0.19027412  1
  O  O12  1  0.04915402  0.24184463  0.70476823  1
  O  O13  1  0.08793461  0.63347475  0.61153092  1
  O  O14  1  0.34310027  0.41644745  0.81540310  1
  O  O15  1  0.03270630  0.80875493  0.76695060  1
  O  O16  1  0.86550053  0.70854147  0.48558997  1
