# generated using pymatgen
data_Li2Ti(CuAs3)2
_symmetry_space_group_name_H-M   'P 1'
_cell_length_a   7.70167365
_cell_length_b   7.77910011
_cell_length_c   8.00373962
_cell_angle_alpha   90.38520715
_cell_angle_beta   91.83269865
_cell_angle_gamma   90.44039464
_symmetry_Int_Tables_number   1
_chemical_formula_structural   Li2Ti(CuAs3)2
_chemical_formula_sum   'Li2 Ti1 Cu2 As6'
_cell_volume   479.24967428
_cell_formula_units_Z   1
loop_
 _symmetry_equiv_pos_site_id
 _symmetry_equiv_pos_as_xyz
  1  'x, y, z'
loop_
 _atom_site_type_symbol
 _atom_site_label
 _atom_site_symmetry_multiplicity
 _atom_site_fract_x
 _atom_site_fract_y
 _atom_site_fract_z
 _atom_site_occupancy
  Li  Li0  1  0.12500000  0.12500000  0.12500000  1
  Li  Li1  1  0.50000000  0.50000000  0.50000000  1
  Ti  Ti2  1  0.25000000  0.25000000  0.25000000  1
  As  As3  1  0.75000000  0.75000000  0.75000000  1
  As  As4  1  0.72210800  0.20706753  0.69375152  1
  As  As5  1  0.47616958  0.00214774  0.24879901  1
  As  As6  1  0.55983685  0.45159938  0.66627898  1
  As  As7  1  0.40404074  0.76266960  0.07715036  1
  As  As8  1  0.65793594  0.29361954  0.14427798  1
  Cu  Cu9  1  0.07382150  0.30310176  0.74170368  1
  Cu  Cu10  1  0.51600035  0.32115064  0.38124255  1
