# generated using pymatgen
data_Li3Ti2Cu2P6O
_symmetry_space_group_name_H-M   'P 1'
_cell_length_a   7.41175633
_cell_length_b   7.37534795
_cell_length_c   7.65045900
_cell_angle_alpha   92.29159674
_cell_angle_beta   93.74492350
_cell_angle_gamma   92.20340283
_symmetry_Int_Tables_number   1
_chemical_formula_structural   Li3Ti2Cu2P6O
_chemical_formula_sum   'Li3 Ti2 Cu2 P6 O1'
_cell_volume   416.62641898
_cell_formula_units_Z   1
loop_
 _symmetry_equiv_pos_site_id
 _symmetry_equiv_pos_as_xyz
  1  'x, y, z'
loop_
 _atom_site_type_symbol
 _atom_site_label
 _atom_site_symmetry_multiplicity
 _atom_site_fract_x
 _atom_site_fract_y
 _atom_site_fract_z
 _atom_site_occupancy
  P  P0  1  0.00000000  0.00000000  0.00000000  1
  P  P1  1  0.50000000  0.50000000  0.50000000  1
  P  P2  1  0.25000000  0.25000000  0.25000000  1
  P  P3  1  0.75000000  0.25000000  0.00000000  1
  P  P4  1  0.25000000  0.75000000  0.50000000  1
  P  P5  1  0.93289472  0.61063903  0.29876180  1
  Li  Li6  1  0.57659216  0.30093554  0.19577816  1
  Li  Li7  1  0.25357523  0.67763499  0.47440566  1
  Li  Li8  1  0.70948577  0.68528486  0.02241786  1
  Cu  Cu9  1  0.02967315  0.62261099  0.93738751  1
  Cu  Cu10  1  0.26335085  0.43837333  0.75129885  1
  Ti  Ti11  1  0.76112860  0.43415439  0.56000963  1
  Ti  Ti12  1  0.24789111  0.74669933  0.54960807  1
  O  O13  1  0.49478969  0.14915554  0.51843988  1
