# generated using pymatgen
data_Li2Mo2P3
_symmetry_space_group_name_H-M   'P 1'
_cell_length_a   4.94761100
_cell_length_b   5.21576004
_cell_length_c   6.18894169
_cell_angle_alpha   102.39588117
_cell_angle_beta   90.61925810
_cell_angle_gamma   102.14932705
_symmetry_Int_Tables_number   1
_chemical_formula_structural   Li2Mo2P3
_chemical_formula_sum   'Li2 Mo2 P3'
_cell_volume   152.22979069
_cell_formula_units_Z   1
loop_
 _symmetry_equiv_pos_site_id
 _symmetry_equiv_pos_as_xyz
  1  'x, y, z'
loop_
 _atom_site_type_symbol
 _atom_site_label
 _atom_site_symmetry_multiplicity
 _atom_site_fract_x
 _atom_site_fract_y
 _atom_site_fract_z
 _atom_site_occupancy
  P  P0  1  0.12500000  0.12500000  0.12500000  1
  P  P1  1  0.50000000  0.50000000  0.50000000  1
  P  P2  1  0.25000000  0.25000000  0.25000000  1
  Mo  Mo3  1  0.75000000  0.75000000  0.75000000  1
  Mo  Mo4  1  0.03329138  0.36073299  0.12937634  1
  Li  Li5  1  0.77507276  0.60344362  0.50469114  1
  Li  Li6  1  0.86853844  0.56039509  0.63424892  1
