# generated using pymatgen
data_Li2Mn2Sb4P3
_symmetry_space_group_name_H-M   'P 1'
_cell_length_a   7.06006051
_cell_length_b   7.16576876
_cell_length_c   7.65518817
_cell_angle_alpha   92.08376075
_cell_angle_beta   92.46840715
_cell_angle_gamma   92.37157702
_symmetry_Int_Tables_number   1
_chemical_formula_structural   Li2Mn2Sb4P3
_chemical_formula_sum   'Li2 Mn2 Sb4 P3'
_cell_volume   386.30871160
_cell_formula_units_Z   1
loop_
 _symmetry_equiv_pos_site_id
 _symmetry_equiv_pos_as_xyz
  1  'x, y, z'
loop_
 _atom_site_type_symbol
 _atom_site_label
 _atom_site_symmetry_multiplicity
 _atom_site_fract_x
 _atom_site_fract_y
 _atom_site_fract_z
 _atom_site_occupancy
  Mn  Mn0  1  0.12500000  0.00000000  0.25000000  1
  Mn  Mn1  1  0.00000000  0.00000000  0.00000000  1
  Sb  Sb2  1  0.37500000  0.00000000  0.25000000  1
  Sb  Sb3  1  0.25000000  0.25000000  0.25000000  1
  Sb  Sb4  1  0.00000000  0.25000000  0.12500000  1
  Sb  Sb5  1  0.48561934  0.39245411  0.63613952  1
  P  P6  1  0.16379767  0.48809893  0.20427643  1
  P  P7  1  0.32828133  0.51083617  0.17502885  1
  P  P8  1  0.72757840  0.23723585  0.03243365  1
  Li  Li9  1  0.76162670  0.78870348  0.82860019  1
  Li  Li10  1  0.86479976  0.77786990  0.83991683  1
