# generated using pymatgen
data_Li2MnSb4P3
_symmetry_space_group_name_H-M   'P 1'
_cell_length_a   5.22099580
_cell_length_b   5.57618148
_cell_length_c   7.16729069
_cell_angle_alpha   96.29337805
_cell_angle_beta   97.45508779
_cell_angle_gamma   97.16264125
_symmetry_Int_Tables_number   1
_chemical_formula_structural   Li2MnSb4P3
_chemical_formula_sum   'Li2 Mn1 Sb4 P3'
_cell_volume   203.59932956
_cell_formula_units_Z   1
loop_
 _symmetry_equiv_pos_site_id
 _symmetry_equiv_pos_as_xyz
  1  'x, y, z'
loop_
 _atom_site_type_symbol
 _atom_site_label
 _atom_site_symmetry_multiplicity
 _atom_site_fract_x
 _atom_site_fract_y
 _atom_site_fract_z
 _atom_site_occupancy
  Mn  Mn0  1  0.12500000  0.12500000  0.12500000  1
  Sb  Sb1  1  0.50000000  0.50000000  0.50000000  1
  Sb  Sb2  1  0.25000000  0.25000000  0.25000000  1
  Sb  Sb3  1  0.75000000  0.75000000  0.75000000  1
  Sb  Sb4  1  0.52971651  0.97530131  0.20009698  1
  P  P5  1  0.60598183  0.98811445  0.33541521  1
  P  P6  1  0.11388632  0.31450109  0.33516081  1
  P  P7  1  0.04112740  0.27177684  0.97667457  1
  Li  Li8  1  0.57433291  0.98593250  0.64750305  1
  Li  Li9  1  0.06352085  0.13439358  0.47601257  1
