# generated using pymatgen
data_Li3TiCu2I4O3
_symmetry_space_group_name_H-M   'P 1'
_cell_length_a   7.06770726
_cell_length_b   7.19666201
_cell_length_c   6.92740066
_cell_angle_alpha   95.64743198
_cell_angle_beta   97.64915002
_cell_angle_gamma   97.26772979
_symmetry_Int_Tables_number   1
_chemical_formula_structural   Li3TiCu2I4O3
_chemical_formula_sum   'Li3 Ti1 Cu2 I4 O3'
_cell_volume   344.02532088
_cell_formula_units_Z   1
loop_
 _symmetry_equiv_pos_site_id
 _symmetry_equiv_pos_as_xyz
  1  'x, y, z'
loop_
 _atom_site_type_symbol
 _atom_site_label
 _atom_site_symmetry_multiplicity
 _atom_site_fract_x
 _atom_site_fract_y
 _atom_site_fract_z
 _atom_site_occupancy
  I  I0  1  0.12500000  0.00000000  0.25000000  1
  I  I1  1  0.00000000  0.00000000  0.00000000  1
  I  I2  1  0.37500000  0.00000000  0.25000000  1
  I  I3  1  0.25000000  0.25000000  0.25000000  1
  Li  Li4  1  0.00000000  0.25000000  0.12500000  1
  Li  Li5  1  0.96695134  0.64410448  0.46509024  1
  Li  Li6  1  0.83344894  0.21246703  0.44769660  1
  Cu  Cu7  1  0.15451508  0.32481130  0.92396912  1
  Cu  Cu8  1  0.61228634  0.53584319  0.52915754  1
  Ti  Ti9  1  0.27581669  0.28623034  0.96518112  1
  O  O10  1  0.93261308  0.30979848  0.43932905  1
  O  O11  1  0.08512627  0.08739987  0.91673623  1
  O  O12  1  0.47460566  0.16867783  0.73445647  1
