# generated using pymatgen
data_Li2MnSb4P3N
_symmetry_space_group_name_H-M   'P 1'
_cell_length_a   4.51804403
_cell_length_b   4.60231260
_cell_length_c   5.59190532
_cell_angle_alpha   99.33418602
_cell_angle_beta   95.48016731
_cell_angle_gamma   97.24818911
_symmetry_Int_Tables_number   1
_chemical_formula_structural   Li2MnSb4P3N
_chemical_formula_sum   'Li2 Mn1 Sb4 P3 N1'
_cell_volume   113.01705068
_cell_formula_units_Z   1
loop_
 _symmetry_equiv_pos_site_id
 _symmetry_equiv_pos_as_xyz
  1  'x, y, z'
loop_
 _atom_site_type_symbol
 _atom_site_label
 _atom_site_symmetry_multiplicity
 _atom_site_fract_x
 _atom_site_fract_y
 _atom_site_fract_z
 _atom_site_occupancy
  Mn  Mn0  1  0.00000000  0.00000000  0.00000000  1
  Sb  Sb1  1  0.50000000  0.50000000  0.50000000  1
  Sb  Sb2  1  0.50000000  0.50000000  0.00000000  1
  Sb  Sb3  1  0.50000000  0.00000000  0.50000000  1
  Sb  Sb4  1  0.00000000  0.50000000  0.50000000  1
  P  P5  1  0.34640411  0.17595510  0.88377579  1
  P  P6  1  0.08194693  0.79328354  0.99036647  1
  P  P7  1  0.71980288  0.40789291  0.40444148  1
  Li  Li8  1  0.05251605  0.85142538  0.52529462  1
  Li  Li9  1  0.79588295  0.92217797  0.06344765  1
  N  N10  1  0.22291348  0.91053354  0.64811578  1
