# generated using pymatgen
data_Li2Ti(CuAs3)2
_symmetry_space_group_name_H-M   'P 1'
_cell_length_a   7.03196486
_cell_length_b   6.97220675
_cell_length_c   7.67933032
_cell_angle_alpha   91.27880853
_cell_angle_beta   91.76006844
_cell_angle_gamma   90.90950962
_symmetry_Int_Tables_number   1
_chemical_formula_structural   Li2Ti(CuAs3)2
_chemical_formula_sum   'Li2 Ti1 Cu2 As6'
_cell_volume   376.18158931
_cell_formula_units_Z   1
loop_
 _symmetry_equiv_pos_site_id
 _symmetry_equiv_pos_as_xyz
  1  'x, y, z'
loop_
 _atom_site_type_symbol
 _atom_site_label
 _atom_site_symmetry_multiplicity
 _atom_site_fract_x
 _atom_site_fract_y
 _atom_site_fract_z
 _atom_site_occupancy
  Li  Li0  1  0.12500000  0.12500000  0.12500000  1
  Li  Li1  1  0.50000000  0.50000000  0.50000000  1
  Cu  Cu2  1  0.25000000  0.25000000  0.25000000  1
  Cu  Cu3  1  0.75000000  0.75000000  0.75000000  1
  Ti  Ti4  1  0.46525235  0.29226309  0.79858649  1
  As  As5  1  0.06515932  0.68379685  0.90989480  1
  As  As6  1  0.99496756  0.52666074  0.89789728  1
  As  As7  1  0.45222595  0.48580792  0.44785060  1
  As  As8  1  0.69675082  0.40116897  0.45769786  1
  As  As9  1  0.90330428  0.02492634  0.24339238  1
  As  As10  1  0.42578147  0.99135586  0.11451706  1
