# generated using pymatgen
data_LiMn2Sb4P3
_symmetry_space_group_name_H-M   'P 1'
_cell_length_a   5.82421373
_cell_length_b   6.17188813
_cell_length_c   6.62186664
_cell_angle_alpha   93.33613242
_cell_angle_beta   91.86056866
_cell_angle_gamma   93.43168871
_symmetry_Int_Tables_number   1
_chemical_formula_structural   LiMn2Sb4P3
_chemical_formula_sum   'Li1 Mn2 Sb4 P3'
_cell_volume   237.04833878
_cell_formula_units_Z   1
loop_
 _symmetry_equiv_pos_site_id
 _symmetry_equiv_pos_as_xyz
  1  'x, y, z'
loop_
 _atom_site_type_symbol
 _atom_site_label
 _atom_site_symmetry_multiplicity
 _atom_site_fract_x
 _atom_site_fract_y
 _atom_site_fract_z
 _atom_site_occupancy
  Mn  Mn0  1  0.00000000  0.00000000  0.00000000  1
  Mn  Mn1  1  0.50000000  0.50000000  0.50000000  1
  Sb  Sb2  1  0.50000000  0.50000000  0.00000000  1
  Sb  Sb3  1  0.50000000  0.00000000  0.50000000  1
  Sb  Sb4  1  0.00000000  0.50000000  0.50000000  1
  Sb  Sb5  1  0.59740416  0.26619319  0.44208178  1
  P  P6  1  0.80236907  0.64923024  0.82164669  1
  P  P7  1  0.47186187  0.21875046  0.77067511  1
  P  P8  1  0.90137839  0.74444613  0.06211517  1
  Li  Li9  1  0.80671950  0.75438037  0.91875155  1
