# generated using pymatgen
data_Li3LuNi2N5O4
_symmetry_space_group_name_H-M   'P 1'
_cell_length_a   8.16461764
_cell_length_b   7.91663447
_cell_length_c   8.02610141
_cell_angle_alpha   91.72474257
_cell_angle_beta   90.60976892
_cell_angle_gamma   92.00049259
_symmetry_Int_Tables_number   1
_chemical_formula_structural   Li3LuNi2N5O4
_chemical_formula_sum   'Li3 Lu1 Ni2 N5 O4'
_cell_volume   518.19087529
_cell_formula_units_Z   1
loop_
 _symmetry_equiv_pos_site_id
 _symmetry_equiv_pos_as_xyz
  1  'x, y, z'
loop_
 _atom_site_type_symbol
 _atom_site_label
 _atom_site_symmetry_multiplicity
 _atom_site_fract_x
 _atom_site_fract_y
 _atom_site_fract_z
 _atom_site_occupancy
  Lu  Lu0  1  0.00000000  0.00000000  0.00000000  1
  Li  Li1  1  0.50000000  0.50000000  0.50000000  1
  Li  Li2  1  0.25000000  0.25000000  0.25000000  1
  Li  Li3  1  0.75000000  0.25000000  0.00000000  1
  Ni  Ni4  1  0.25000000  0.75000000  0.50000000  1
  Ni  Ni5  1  0.98443243  0.17987953  0.76194004  1
  O  O6  1  0.86387058  0.43745210  0.81324613  1
  O  O7  1  0.10766041  0.86718546  0.59262279  1
  O  O8  1  0.98522057  0.25572706  0.81425266  1
  O  O9  1  0.75694440  0.02063506  0.67469114  1
  N  N10  1  0.83986120  0.36324358  0.48832985  1
  N  N11  1  0.47667334  0.36338401  0.00640583  1
  N  N12  1  0.94828909  0.72663564  0.83858842  1
  N  N13  1  0.31263960  0.33648283  0.02847011  1
  N  N14  1  0.16884025  0.99971780  0.82186235  1
