# generated using pymatgen
data_LiMn2Sb4P3
_symmetry_space_group_name_H-M   'P 1'
_cell_length_a   5.66131739
_cell_length_b   6.03880475
_cell_length_c   6.83607083
_cell_angle_alpha   94.74328371
_cell_angle_beta   93.62283044
_cell_angle_gamma   94.97515346
_symmetry_Int_Tables_number   1
_chemical_formula_structural   LiMn2Sb4P3
_chemical_formula_sum   'Li1 Mn2 Sb4 P3'
_cell_volume   231.44747835
_cell_formula_units_Z   1
loop_
 _symmetry_equiv_pos_site_id
 _symmetry_equiv_pos_as_xyz
  1  'x, y, z'
loop_
 _atom_site_type_symbol
 _atom_site_label
 _atom_site_symmetry_multiplicity
 _atom_site_fract_x
 _atom_site_fract_y
 _atom_site_fract_z
 _atom_site_occupancy
  Mn  Mn0  1  0.12500000  0.12500000  0.12500000  1
  Mn  Mn1  1  0.50000000  0.50000000  0.50000000  1
  Sb  Sb2  1  0.25000000  0.25000000  0.25000000  1
  Sb  Sb3  1  0.75000000  0.75000000  0.75000000  1
  Sb  Sb4  1  0.71846286  0.07572206  0.87531418  1
  Sb  Sb5  1  0.38806076  0.04981134  0.34501818  1
  P  P6  1  0.70670721  0.69026079  0.03997828  1
  P  P7  1  0.71900949  0.55343441  0.50700237  1
  P  P8  1  0.84911908  0.35026315  0.72154628  1
  Li  Li9  1  0.68980386  0.00488251  0.38132400  1
