# generated using pymatgen
data_Li2Cu2Ni2As6O7
_symmetry_space_group_name_H-M   'P 1'
_cell_length_a   7.86068722
_cell_length_b   7.89946131
_cell_length_c   8.99355186
_cell_angle_alpha   90.26038353
_cell_angle_beta   91.23882576
_cell_angle_gamma   90.29768790
_symmetry_Int_Tables_number   1
_chemical_formula_structural   Li2Cu2Ni2As6O7
_chemical_formula_sum   'Li2 Cu2 Ni2 As6 O7'
_cell_volume   558.31222809
_cell_formula_units_Z   1
loop_
 _symmetry_equiv_pos_site_id
 _symmetry_equiv_pos_as_xyz
  1  'x, y, z'
loop_
 _atom_site_type_symbol
 _atom_site_label
 _atom_site_symmetry_multiplicity
 _atom_site_fract_x
 _atom_site_fract_y
 _atom_site_fract_z
 _atom_site_occupancy
  Ni  Ni0  1  0.12500000  0.00000000  0.25000000  1
  Ni  Ni1  1  0.00000000  0.00000000  0.00000000  1
  O  O2  1  0.37500000  0.00000000  0.25000000  1
  O  O3  1  0.25000000  0.25000000  0.25000000  1
  O  O4  1  0.00000000  0.25000000  0.12500000  1
  O  O5  1  0.60257994  0.10695003  0.61413052  1
  O  O6  1  0.10899897  0.87626094  0.47504443  1
  O  O7  1  0.81364566  0.04154973  0.39490008  1
  O  O8  1  0.55358254  0.07517414  0.89911560  1
  As  As9  1  0.91943216  0.61480393  0.76116657  1
  As  As10  1  0.06231202  0.58617094  0.08035866  1
  As  As11  1  0.90716092  0.27771094  0.07837442  1
  As  As12  1  0.97141145  0.60199309  0.95361312  1
  As  As13  1  0.93714371  0.25506312  0.37322319  1
  As  As14  1  0.21777013  0.90989781  0.89311612  1
  Li  Li15  1  0.02638358  0.64530663  0.50086547  1
  Li  Li16  1  0.17458343  0.63819852  0.84229411  1
  Cu  Cu17  1  0.27272707  0.81903733  0.49824119  1
  Cu  Cu18  1  0.16907539  0.35590294  0.52021743  1
