# generated using pymatgen
data_LiMn(SbP)2
_symmetry_space_group_name_H-M   'P 1'
_cell_length_a   5.41245494
_cell_length_b   5.79485105
_cell_length_c   6.71971122
_cell_angle_alpha   98.44332165
_cell_angle_beta   92.94306327
_cell_angle_gamma   98.62650407
_symmetry_Int_Tables_number   1
_chemical_formula_structural   LiMn(SbP)2
_chemical_formula_sum   'Li2 Mn2 Sb4 P4'
_cell_volume   205.53592839
_cell_formula_units_Z   2
loop_
 _symmetry_equiv_pos_site_id
 _symmetry_equiv_pos_as_xyz
  1  'x, y, z'
loop_
 _atom_site_type_symbol
 _atom_site_label
 _atom_site_symmetry_multiplicity
 _atom_site_fract_x
 _atom_site_fract_y
 _atom_site_fract_z
 _atom_site_occupancy
  Mn  Mn0  1  0.00000000  0.00000000  0.00000000  1
  Mn  Mn1  1  0.50000000  0.50000000  0.50000000  1
  Sb  Sb2  1  0.50000000  0.50000000  0.00000000  1
  Sb  Sb3  1  0.50000000  0.00000000  0.50000000  1
  Sb  Sb4  1  0.00000000  0.50000000  0.50000000  1
  Sb  Sb5  1  0.95849556  0.38601044  0.24830935  1
  P  P6  1  0.37160075  0.27452206  0.00683510  1
  P  P7  1  0.95725173  0.00586502  0.64267188  1
  P  P8  1  0.18061475  0.46998122  0.76505876  1
  P  P9  1  0.02865487  0.47738274  0.98416173  1
  Li  Li10  1  0.04966923  0.69686026  0.16652490  1
  Li  Li11  1  0.04601423  0.80361955  0.26015871  1
