# generated using pymatgen
data_Li2Ni2P3(SeO)2
_symmetry_space_group_name_H-M   'P 1'
_cell_length_a   8.01731181
_cell_length_b   7.80933658
_cell_length_c   7.71096677
_cell_angle_alpha   91.07947541
_cell_angle_beta   91.13139663
_cell_angle_gamma   91.24923280
_symmetry_Int_Tables_number   1
_chemical_formula_structural   Li2Ni2P3(SeO)2
_chemical_formula_sum   'Li2 Ni2 P3 Se2 O2'
_cell_volume   482.48422406
_cell_formula_units_Z   1
loop_
 _symmetry_equiv_pos_site_id
 _symmetry_equiv_pos_as_xyz
  1  'x, y, z'
loop_
 _atom_site_type_symbol
 _atom_site_label
 _atom_site_symmetry_multiplicity
 _atom_site_fract_x
 _atom_site_fract_y
 _atom_site_fract_z
 _atom_site_occupancy
  P  P0  1  0.00000000  0.00000000  0.00000000  1
  P  P1  1  0.50000000  0.50000000  0.50000000  1
  P  P2  1  0.25000000  0.25000000  0.25000000  1
  Li  Li3  1  0.75000000  0.25000000  0.00000000  1
  Li  Li4  1  0.25000000  0.75000000  0.50000000  1
  Se  Se5  1  0.71921933  0.90826032  0.27146062  1
  Se  Se6  1  0.41070447  0.87282255  0.44291683  1
  Ni  Ni7  1  0.58076994  0.28230476  0.87982065  1
  Ni  Ni8  1  0.07943044  0.26802758  0.66795440  1
  O  O9  1  0.75744985  0.78673102  0.68477336  1
  O  O10  1  0.95261363  0.75207191  0.79849133  1
