# generated using pymatgen
data_LiMnSb4Mo2P3
_symmetry_space_group_name_H-M   'P 1'
_cell_length_a   5.09393658
_cell_length_b   5.25049995
_cell_length_c   6.53888159
_cell_angle_alpha   98.44676539
_cell_angle_beta   93.64260756
_cell_angle_gamma   98.61017232
_symmetry_Int_Tables_number   1
_chemical_formula_structural   LiMnSb4Mo2P3
_chemical_formula_sum   'Li1 Mn1 Sb4 Mo2 P3'
_cell_volume   170.38515687
_cell_formula_units_Z   1
loop_
 _symmetry_equiv_pos_site_id
 _symmetry_equiv_pos_as_xyz
  1  'x, y, z'
loop_
 _atom_site_type_symbol
 _atom_site_label
 _atom_site_symmetry_multiplicity
 _atom_site_fract_x
 _atom_site_fract_y
 _atom_site_fract_z
 _atom_site_occupancy
  Mn  Mn0  1  0.12500000  0.00000000  0.25000000  1
  Sb  Sb1  1  0.00000000  0.00000000  0.00000000  1
  Sb  Sb2  1  0.37500000  0.00000000  0.25000000  1
  Sb  Sb3  1  0.25000000  0.25000000  0.25000000  1
  Sb  Sb4  1  0.00000000  0.25000000  0.12500000  1
  P  P5  1  0.48438858  0.61430173  0.34197024  1
  P  P6  1  0.14720075  0.99791003  0.94844664  1
  P  P7  1  0.99743968  0.17392258  0.55417060  1
  Mo  Mo8  1  0.97547345  0.49136164  0.48423627  1
  Mo  Mo9  1  0.39704003  0.13306203  0.49708878  1
  Li  Li10  1  0.62123673  0.98399373  0.69779506  1
