# generated using pymatgen
data_LiSb4Mo2P3
_symmetry_space_group_name_H-M   'P 1'
_cell_length_a   4.95965272
_cell_length_b   5.27478600
_cell_length_c   6.70887452
_cell_angle_alpha   97.55825178
_cell_angle_beta   95.45530887
_cell_angle_gamma   98.02185110
_symmetry_Int_Tables_number   1
_chemical_formula_structural   LiSb4Mo2P3
_chemical_formula_sum   'Li1 Sb4 Mo2 P3'
_cell_volume   171.13018918
_cell_formula_units_Z   1
loop_
 _symmetry_equiv_pos_site_id
 _symmetry_equiv_pos_as_xyz
  1  'x, y, z'
loop_
 _atom_site_type_symbol
 _atom_site_label
 _atom_site_symmetry_multiplicity
 _atom_site_fract_x
 _atom_site_fract_y
 _atom_site_fract_z
 _atom_site_occupancy
  Sb  Sb0  1  0.12500000  0.00000000  0.25000000  1
  Sb  Sb1  1  0.00000000  0.00000000  0.00000000  1
  Sb  Sb2  1  0.37500000  0.00000000  0.25000000  1
  Sb  Sb3  1  0.25000000  0.25000000  0.25000000  1
  P  P4  1  0.00000000  0.25000000  0.12500000  1
  P  P5  1  0.77429072  0.30032137  0.32123352  1
  P  P6  1  0.02037152  0.37658668  0.75742379  1
  Mo  Mo7  1  0.83269641  0.00479855  0.48802129  1
  Mo  Mo8  1  0.41278875  0.59388931  0.13691079  1
  Li  Li9  1  0.72449866  0.64582439  0.70248290  1
