# generated using pymatgen
data_LiMnSb2P
_symmetry_space_group_name_H-M   'P 1'
_cell_length_a   5.67055516
_cell_length_b   6.04629353
_cell_length_c   6.96812303
_cell_angle_alpha   96.53451823
_cell_angle_beta   96.88160119
_cell_angle_gamma   95.35504930
_symmetry_Int_Tables_number   1
_chemical_formula_structural   LiMnSb2P
_chemical_formula_sum   'Li2 Mn2 Sb4 P2'
_cell_volume   234.25625125
_cell_formula_units_Z   2
loop_
 _symmetry_equiv_pos_site_id
 _symmetry_equiv_pos_as_xyz
  1  'x, y, z'
loop_
 _atom_site_type_symbol
 _atom_site_label
 _atom_site_symmetry_multiplicity
 _atom_site_fract_x
 _atom_site_fract_y
 _atom_site_fract_z
 _atom_site_occupancy
  Mn  Mn0  1  0.00000000  0.00000000  0.00000000  1
  Mn  Mn1  1  0.33300000  0.66700000  0.25000000  1
  Sb  Sb2  1  0.66700000  0.33300000  0.50000000  1
  Sb  Sb3  1  0.00000000  0.00000000  0.75000000  1
  Sb  Sb4  1  0.23263874  0.44370302  0.57467460  1
  Sb  Sb5  1  0.22585090  0.77118852  0.11894110  1
  P  P6  1  0.57771486  0.22575193  0.02802611  1
  P  P7  1  0.86602876  0.23248734  0.34962391  1
  Li  Li8  1  0.65962322  0.65430688  0.93783997  1
  Li  Li9  1  0.86333459  0.10988330  0.68339820  1
