# generated using pymatgen
data_Li3Ti2As6O4F3
_symmetry_space_group_name_H-M   'P 1'
_cell_length_a   5.81848606
_cell_length_b   5.54319373
_cell_length_c   7.63401049
_cell_angle_alpha   100.33494271
_cell_angle_beta   102.57059010
_cell_angle_gamma   99.95475337
_symmetry_Int_Tables_number   1
_chemical_formula_structural   Li3Ti2As6O4F3
_chemical_formula_sum   'Li3 Ti2 As6 O4 F3'
_cell_volume   230.58878057
_cell_formula_units_Z   1
loop_
 _symmetry_equiv_pos_site_id
 _symmetry_equiv_pos_as_xyz
  1  'x, y, z'
loop_
 _atom_site_type_symbol
 _atom_site_label
 _atom_site_symmetry_multiplicity
 _atom_site_fract_x
 _atom_site_fract_y
 _atom_site_fract_z
 _atom_site_occupancy
  Li  Li0  1  0.00000000  0.00000000  0.00000000  1
  Li  Li1  1  0.50000000  0.50000000  0.50000000  1
  Li  Li2  1  0.25000000  0.25000000  0.25000000  1
  F  F3  1  0.75000000  0.25000000  0.00000000  1
  F  F4  1  0.25000000  0.75000000  0.50000000  1
  F  F5  1  0.98646953  0.97396256  0.02115794  1
  Ti  Ti6  1  0.12566662  0.05207658  0.41792044  1
  Ti  Ti7  1  0.28527300  0.59583480  0.78646766  1
  As  As8  1  0.46294032  0.36837520  0.40176712  1
  As  As9  1  0.16566520  0.75365463  0.94113027  1
  As  As10  1  0.77154651  0.37696551  0.62806829  1
  As  As11  1  0.36320750  0.68763467  0.55415664  1
  As  As12  1  0.89818169  0.79348374  0.72065295  1
  As  As13  1  0.72986093  0.64044669  0.21055920  1
  O  O14  1  0.79173034  0.22336680  0.38076756  1
  O  O15  1  0.35355848  0.72795787  0.57081490  1
  O  O16  1  0.94028245  0.93905781  0.55522602  1
  O  O17  1  0.35416159  0.50216397  0.92997467  1
