# generated using pymatgen
data_Li3TiI4
_symmetry_space_group_name_H-M   'P 1'
_cell_length_a   6.54126825
_cell_length_b   5.91763778
_cell_length_c   7.87988281
_cell_angle_alpha   95.21536041
_cell_angle_beta   95.28037360
_cell_angle_gamma   94.84454435
_symmetry_Int_Tables_number   1
_chemical_formula_structural   Li3TiI4
_chemical_formula_sum   'Li3 Ti1 I4'
_cell_volume   301.14151016
_cell_formula_units_Z   1
loop_
 _symmetry_equiv_pos_site_id
 _symmetry_equiv_pos_as_xyz
  1  'x, y, z'
loop_
 _atom_site_type_symbol
 _atom_site_label
 _atom_site_symmetry_multiplicity
 _atom_site_fract_x
 _atom_site_fract_y
 _atom_site_fract_z
 _atom_site_occupancy
  I  I0  1  0.00000000  0.00000000  0.00000000  1
  I  I1  1  0.50000000  0.50000000  0.50000000  1
  I  I2  1  0.25000000  0.25000000  0.25000000  1
  I  I3  1  0.75000000  0.25000000  0.00000000  1
  Li  Li4  1  0.25000000  0.75000000  0.50000000  1
  Li  Li5  1  0.48764425  0.19521155  0.38816433  1
  Li  Li6  1  0.56883702  0.49126847  0.82977832  1
  Ti  Ti7  1  0.82603033  0.79096499  0.56023375  1
