# generated using pymatgen
data_Li2TiP3Se2O
_symmetry_space_group_name_H-M   'P 1'
_cell_length_a   8.13506974
_cell_length_b   7.95294160
_cell_length_c   7.16811575
_cell_angle_alpha   90.23397457
_cell_angle_beta   91.11317994
_cell_angle_gamma   90.26749541
_symmetry_Int_Tables_number   1
_chemical_formula_structural   Li2TiP3Se2O
_chemical_formula_sum   'Li2 Ti1 P3 Se2 O1'
_cell_volume   463.66422969
_cell_formula_units_Z   1
loop_
 _symmetry_equiv_pos_site_id
 _symmetry_equiv_pos_as_xyz
  1  'x, y, z'
loop_
 _atom_site_type_symbol
 _atom_site_label
 _atom_site_symmetry_multiplicity
 _atom_site_fract_x
 _atom_site_fract_y
 _atom_site_fract_z
 _atom_site_occupancy
  P  P0  1  0.00000000  0.00000000  0.00000000  1
  P  P1  1  0.50000000  0.50000000  0.50000000  1
  P  P2  1  0.25000000  0.25000000  0.25000000  1
  Li  Li3  1  0.75000000  0.25000000  0.00000000  1
  Li  Li4  1  0.25000000  0.75000000  0.50000000  1
  Se  Se5  1  0.60874227  0.88578254  0.41416552  1
  Se  Se6  1  0.66917146  0.36658551  0.58109754  1
  Ti  Ti7  1  0.73649599  0.51982636  0.95007023  1
  O  O8  1  0.07063685  0.79361441  0.26090608  1
