# generated using pymatgen
data_Li5La5P3
_symmetry_space_group_name_H-M   'P 1'
_cell_length_a   8.60768707
_cell_length_b   8.42376728
_cell_length_c   8.95143361
_cell_angle_alpha   101.78566884
_cell_angle_beta   91.59959836
_cell_angle_gamma   102.01954503
_symmetry_Int_Tables_number   1
_chemical_formula_structural   Li5La5P3
_chemical_formula_sum   'Li5 La5 P3'
_cell_volume   619.76355404
_cell_formula_units_Z   1
loop_
 _symmetry_equiv_pos_site_id
 _symmetry_equiv_pos_as_xyz
  1  'x, y, z'
loop_
 _atom_site_type_symbol
 _atom_site_label
 _atom_site_symmetry_multiplicity
 _atom_site_fract_x
 _atom_site_fract_y
 _atom_site_fract_z
 _atom_site_occupancy
  La  La0  1  0.00000000  0.00000000  0.00000000  1
  La  La1  1  0.33300000  0.66700000  0.25000000  1
  La  La2  1  0.66700000  0.33300000  0.50000000  1
  La  La3  1  0.00000000  0.00000000  0.75000000  1
  La  La4  1  0.48977139  0.32334447  0.58691120  1
  P  P5  1  0.13018639  0.76477951  0.99476576  1
  P  P6  1  0.30529497  0.12014565  0.07762135  1
  P  P7  1  0.54472951  0.61228132  0.01980657  1
  Li  Li8  1  0.06815838  0.18181891  0.45541195  1
  Li  Li9  1  0.53543166  0.53775482  0.77605209  1
  Li  Li10  1  0.24858292  0.21171153  0.95452621  1
  Li  Li11  1  0.91950829  0.02854071  0.79870583  1
  Li  Li12  1  0.34812835  0.51783183  0.59865722  1
