# generated using pymatgen
data_Li2Mn2Sb4P3
_symmetry_space_group_name_H-M   'P 1'
_cell_length_a   6.48764812
_cell_length_b   7.02992861
_cell_length_c   7.20595330
_cell_angle_alpha   93.79352328
_cell_angle_beta   92.11197926
_cell_angle_gamma   93.98579983
_symmetry_Int_Tables_number   1
_chemical_formula_structural   Li2Mn2Sb4P3
_chemical_formula_sum   'Li2 Mn2 Sb4 P3'
_cell_volume   326.84997069
_cell_formula_units_Z   1
loop_
 _symmetry_equiv_pos_site_id
 _symmetry_equiv_pos_as_xyz
  1  'x, y, z'
loop_
 _atom_site_type_symbol
 _atom_site_label
 _atom_site_symmetry_multiplicity
 _atom_site_fract_x
 _atom_site_fract_y
 _atom_site_fract_z
 _atom_site_occupancy
  Mn  Mn0  1  0.12500000  0.12500000  0.12500000  1
  Mn  Mn1  1  0.50000000  0.50000000  0.50000000  1
  Sb  Sb2  1  0.25000000  0.25000000  0.25000000  1
  Sb  Sb3  1  0.75000000  0.75000000  0.75000000  1
  Sb  Sb4  1  0.87245758  0.58241153  0.49913119  1
  Sb  Sb5  1  0.73000225  0.61625248  0.25962044  1
  P  P6  1  0.45722719  0.05557951  0.74749031  1
  P  P7  1  0.39096909  0.72096174  0.66668438  1
  P  P8  1  0.58564535  0.09639581  0.88214268  1
  Li  Li9  1  0.60126078  0.93243676  0.66543568  1
  Li  Li10  1  0.41953220  0.75082393  0.63356404  1
