# generated using pymatgen
data_Li2Cu2As6F3
_symmetry_space_group_name_H-M   'P 1'
_cell_length_a   7.87676403
_cell_length_b   7.82231308
_cell_length_c   9.01178651
_cell_angle_alpha   90.25355271
_cell_angle_beta   91.47423042
_cell_angle_gamma   90.28078159
_symmetry_Int_Tables_number   1
_chemical_formula_structural   Li2Cu2As6F3
_chemical_formula_sum   'Li2 Cu2 As6 F3'
_cell_volume   555.06063886
_cell_formula_units_Z   1
loop_
 _symmetry_equiv_pos_site_id
 _symmetry_equiv_pos_as_xyz
  1  'x, y, z'
loop_
 _atom_site_type_symbol
 _atom_site_label
 _atom_site_symmetry_multiplicity
 _atom_site_fract_x
 _atom_site_fract_y
 _atom_site_fract_z
 _atom_site_occupancy
  Li  Li0  1  0.12500000  0.12500000  0.12500000  1
  Li  Li1  1  0.50000000  0.50000000  0.50000000  1
  Cu  Cu2  1  0.25000000  0.25000000  0.25000000  1
  Cu  Cu3  1  0.75000000  0.75000000  0.75000000  1
  F  F4  1  0.58684217  0.48044716  0.31776829  1
  F  F5  1  0.13929175  0.87963830  0.47812688  1
  F  F6  1  0.53827522  0.58956647  0.53704115  1
  As  As7  1  0.31904511  0.03641414  0.44654613  1
  As  As8  1  0.41679720  0.34439546  0.30800246  1
  As  As9  1  0.78792887  0.57744868  0.03575930  1
  As  As10  1  0.38637126  0.93734549  0.81385486  1
  As  As11  1  0.57573028  0.96153470  0.37059460  1
  As  As12  1  0.08554798  0.27425400  0.29639076  1
