# generated using pymatgen
data_Li2Mn3Sb4P3
_symmetry_space_group_name_H-M   'P 1'
_cell_length_a   7.75643864
_cell_length_b   8.12013681
_cell_length_c   7.70637030
_cell_angle_alpha   90.00000000
_cell_angle_beta   90.00000000
_cell_angle_gamma   90.00000000
_symmetry_Int_Tables_number   1
_chemical_formula_structural   Li2Mn3Sb4P3
_chemical_formula_sum   'Li2 Mn3 Sb4 P3'
_cell_volume   485.37296367
_cell_formula_units_Z   1
loop_
 _symmetry_equiv_pos_site_id
 _symmetry_equiv_pos_as_xyz
  1  'x, y, z'
loop_
 _atom_site_type_symbol
 _atom_site_label
 _atom_site_symmetry_multiplicity
 _atom_site_fract_x
 _atom_site_fract_y
 _atom_site_fract_z
 _atom_site_occupancy
  Mn  Mn0  1  0.12500000  0.00000000  0.25000000  1
  Mn  Mn1  1  0.00000000  0.00000000  0.00000000  1
  Mn  Mn2  1  0.37500000  0.00000000  0.25000000  1
  Sb  Sb3  1  0.25000000  0.25000000  0.25000000  1
  Sb  Sb4  1  0.00000000  0.25000000  0.12500000  1
  Sb  Sb5  1  0.47025477  0.85601163  0.13982788  1
  Sb  Sb6  1  0.41829684  0.33776678  0.99292542  1
  P  P7  1  0.78837899  0.00302654  0.34856598  1
  P  P8  1  0.72014531  0.73636089  0.73581666  1
  P  P9  1  0.87557096  0.15067189  0.56893450  1
  Li  Li10  1  0.94117184  0.22688965  0.42165725  1
  Li  Li11  1  0.36621326  0.20801157  0.39051711  1
