# generated using pymatgen
data_Li2I5N5Cl2
_symmetry_space_group_name_H-M   'P 1'
_cell_length_a   7.97388983
_cell_length_b   7.64579543
_cell_length_c   9.16797094
_cell_angle_alpha   95.27571967
_cell_angle_beta   96.57563066
_cell_angle_gamma   95.37544214
_symmetry_Int_Tables_number   1
_chemical_formula_structural   Li2I5N5Cl2
_chemical_formula_sum   'Li2 I5 N5 Cl2'
_cell_volume   549.83532520
_cell_formula_units_Z   1
loop_
 _symmetry_equiv_pos_site_id
 _symmetry_equiv_pos_as_xyz
  1  'x, y, z'
loop_
 _atom_site_type_symbol
 _atom_site_label
 _atom_site_symmetry_multiplicity
 _atom_site_fract_x
 _atom_site_fract_y
 _atom_site_fract_z
 _atom_site_occupancy
  I  I0  1  0.00000000  0.00000000  0.00000000  1
  I  I1  1  0.33300000  0.66700000  0.25000000  1
  I  I2  1  0.66700000  0.33300000  0.50000000  1
  I  I3  1  0.00000000  0.00000000  0.75000000  1
  I  I4  1  0.80974930  0.60084052  0.86858089  1
  Li  Li5  1  0.71453093  0.86805916  0.26841285  1
  Li  Li6  1  0.00848321  0.91979903  0.64560715  1
  Cl  Cl7  1  0.87558156  0.22387564  0.27907402  1
  Cl  Cl8  1  0.87654086  0.11897011  0.98793449  1
  N  N9  1  0.20710566  0.40976680  0.70374044  1
  N  N10  1  0.25046345  0.01209438  0.81251703  1
  N  N11  1  0.09970136  0.12079848  0.98257875  1
  N  N12  1  0.67487783  0.69461903  0.60823937  1
  N  N13  1  0.04206205  0.52808529  0.04540405  1
