# generated using pymatgen
data_LiMnSb4P3N
_symmetry_space_group_name_H-M   'P 1'
_cell_length_a   4.46295755
_cell_length_b   4.71672115
_cell_length_c   5.99465962
_cell_angle_alpha   98.00238964
_cell_angle_beta   96.43018339
_cell_angle_gamma   97.27133117
_symmetry_Int_Tables_number   1
_chemical_formula_structural   LiMnSb4P3N
_chemical_formula_sum   'Li1 Mn1 Sb4 P3 N1'
_cell_volume   122.87316626
_cell_formula_units_Z   1
loop_
 _symmetry_equiv_pos_site_id
 _symmetry_equiv_pos_as_xyz
  1  'x, y, z'
loop_
 _atom_site_type_symbol
 _atom_site_label
 _atom_site_symmetry_multiplicity
 _atom_site_fract_x
 _atom_site_fract_y
 _atom_site_fract_z
 _atom_site_occupancy
  N  N0  1  0.12500000  0.00000000  0.25000000  1
  Mn  Mn1  1  0.00000000  0.00000000  0.00000000  1
  Sb  Sb2  1  0.37500000  0.00000000  0.25000000  1
  Sb  Sb3  1  0.25000000  0.25000000  0.25000000  1
  Sb  Sb4  1  0.00000000  0.25000000  0.12500000  1
  Sb  Sb5  1  0.11750912  0.52401242  0.89320146  1
  P  P6  1  0.06990106  0.22148198  0.37591341  1
  P  P7  1  0.74307123  0.10853190  0.75342975  1
  P  P8  1  0.47133713  0.78702965  0.76792142  1
  Li  Li9  1  0.83596951  0.28350708  0.41938279  1
