# generated using pymatgen
data_LiTiS3(I2F)2
_symmetry_space_group_name_H-M   'P 1'
_cell_length_a   7.73932509
_cell_length_b   7.68081729
_cell_length_c   7.62913508
_cell_angle_alpha   90.68186679
_cell_angle_beta   94.60542022
_cell_angle_gamma   90.73333168
_symmetry_Int_Tables_number   1
_chemical_formula_structural   LiTiS3(I2F)2
_chemical_formula_sum   'Li1 Ti1 S3 I4 F2'
_cell_volume   451.96961208
_cell_formula_units_Z   1
loop_
 _symmetry_equiv_pos_site_id
 _symmetry_equiv_pos_as_xyz
  1  'x, y, z'
loop_
 _atom_site_type_symbol
 _atom_site_label
 _atom_site_symmetry_multiplicity
 _atom_site_fract_x
 _atom_site_fract_y
 _atom_site_fract_z
 _atom_site_occupancy
  I  I0  1  0.00000000  0.00000000  0.00000000  1
  I  I1  1  0.50000000  0.50000000  0.50000000  1
  I  I2  1  0.50000000  0.50000000  0.00000000  1
  I  I3  1  0.50000000  0.00000000  0.50000000  1
  Li  Li4  1  0.00000000  0.50000000  0.50000000  1
  F  F5  1  0.71208023  0.69208788  0.85840261  1
  F  F6  1  0.18478493  0.25606586  0.53418834  1
  S  S7  1  0.95412651  0.75372803  0.88958692  1
  S  S8  1  0.69827316  0.69249011  0.33588450  1
  S  S9  1  0.85597424  0.41570089  0.36884039  1
  Ti  Ti10  1  0.06175482  0.02636264  0.02385150  1
