# generated using pymatgen
data_Li2MnSb4P3
_symmetry_space_group_name_H-M   'P 1'
_cell_length_a   6.22578493
_cell_length_b   6.46130819
_cell_length_c   7.42755131
_cell_angle_alpha   93.97029237
_cell_angle_beta   94.70317816
_cell_angle_gamma   94.51868293
_symmetry_Int_Tables_number   1
_chemical_formula_structural   Li2MnSb4P3
_chemical_formula_sum   'Li2 Mn1 Sb4 P3'
_cell_volume   295.99144261
_cell_formula_units_Z   1
loop_
 _symmetry_equiv_pos_site_id
 _symmetry_equiv_pos_as_xyz
  1  'x, y, z'
loop_
 _atom_site_type_symbol
 _atom_site_label
 _atom_site_symmetry_multiplicity
 _atom_site_fract_x
 _atom_site_fract_y
 _atom_site_fract_z
 _atom_site_occupancy
  Mn  Mn0  1  0.00000000  0.00000000  0.00000000  1
  Sb  Sb1  1  0.50000000  0.50000000  0.50000000  1
  Sb  Sb2  1  0.50000000  0.50000000  0.00000000  1
  Sb  Sb3  1  0.50000000  0.00000000  0.50000000  1
  Sb  Sb4  1  0.00000000  0.50000000  0.50000000  1
  P  P5  1  0.35968669  0.32637172  0.01472054  1
  P  P6  1  0.38283065  0.77265698  0.04847971  1
  P  P7  1  0.01218499  0.19422668  0.19281179  1
  Li  Li8  1  0.97395827  0.32032118  0.84425839  1
  Li  Li9  1  0.76435409  0.10699062  0.46153225  1
