# generated using pymatgen
data_LiMnSb2P
_symmetry_space_group_name_H-M   'P 1'
_cell_length_a   5.04695022
_cell_length_b   5.31293320
_cell_length_c   6.42635321
_cell_angle_alpha   100.80009459
_cell_angle_beta   94.36840579
_cell_angle_gamma   99.67983568
_symmetry_Int_Tables_number   1
_chemical_formula_structural   LiMnSb2P
_chemical_formula_sum   'Li2 Mn2 Sb4 P2'
_cell_volume   165.81996026
_cell_formula_units_Z   2
loop_
 _symmetry_equiv_pos_site_id
 _symmetry_equiv_pos_as_xyz
  1  'x, y, z'
loop_
 _atom_site_type_symbol
 _atom_site_label
 _atom_site_symmetry_multiplicity
 _atom_site_fract_x
 _atom_site_fract_y
 _atom_site_fract_z
 _atom_site_occupancy
  Mn  Mn0  1  0.12500000  0.12500000  0.12500000  1
  Mn  Mn1  1  0.50000000  0.50000000  0.50000000  1
  Sb  Sb2  1  0.25000000  0.25000000  0.25000000  1
  Sb  Sb3  1  0.75000000  0.75000000  0.75000000  1
  Sb  Sb4  1  0.87793367  0.27197713  0.00442299  1
  Sb  Sb5  1  0.48512444  0.28889303  0.79002333  1
  P  P6  1  0.84894571  0.49917774  0.96444398  1
  P  P7  1  0.83935127  0.79639541  0.37158607  1
  Li  Li8  1  0.08166500  0.86651984  0.71533832  1
  Li  Li9  1  0.62952048  0.19345554  0.65941840  1
