# generated using pymatgen
data_LiMn2Sb4Mo2P3
_symmetry_space_group_name_H-M   'P 1'
_cell_length_a   5.32844086
_cell_length_b   5.67581273
_cell_length_c   6.81100641
_cell_angle_alpha   95.52801681
_cell_angle_beta   94.89632957
_cell_angle_gamma   95.92206291
_symmetry_Int_Tables_number   1
_chemical_formula_structural   LiMn2Sb4Mo2P3
_chemical_formula_sum   'Li1 Mn2 Sb4 Mo2 P3'
_cell_volume   202.98779010
_cell_formula_units_Z   1
loop_
 _symmetry_equiv_pos_site_id
 _symmetry_equiv_pos_as_xyz
  1  'x, y, z'
loop_
 _atom_site_type_symbol
 _atom_site_label
 _atom_site_symmetry_multiplicity
 _atom_site_fract_x
 _atom_site_fract_y
 _atom_site_fract_z
 _atom_site_occupancy
  Mn  Mn0  1  0.00000000  0.00000000  0.00000000  1
  Mn  Mn1  1  0.50000000  0.50000000  0.50000000  1
  Sb  Sb2  1  0.50000000  0.50000000  0.00000000  1
  Sb  Sb3  1  0.50000000  0.00000000  0.50000000  1
  Sb  Sb4  1  0.00000000  0.50000000  0.50000000  1
  Sb  Sb5  1  0.87973641  0.26222709  0.93723396  1
  P  P6  1  0.25334130  0.96577936  0.98098547  1
  P  P7  1  0.24204363  0.63406731  0.37652547  1
  P  P8  1  0.95460182  0.44319975  0.07263108  1
  Mo  Mo9  1  0.47508776  0.96063625  0.90207875  1
  Mo  Mo10  1  0.96705902  0.41079534  0.51770572  1
  Li  Li11  1  0.24226788  0.73373515  0.25375202  1
