# generated using pymatgen
data_LiCuF
_symmetry_space_group_name_H-M   'P 1'
_cell_length_a   7.88989311
_cell_length_b   7.86010133
_cell_length_c   8.21612937
_cell_angle_alpha   90.34677286
_cell_angle_beta   91.64983993
_cell_angle_gamma   90.39645397
_symmetry_Int_Tables_number   1
_chemical_formula_structural   LiCuF
_chemical_formula_sum   'Li2 Cu2 F2'
_cell_volume   509.29283701
_cell_formula_units_Z   2
loop_
 _symmetry_equiv_pos_site_id
 _symmetry_equiv_pos_as_xyz
  1  'x, y, z'
loop_
 _atom_site_type_symbol
 _atom_site_label
 _atom_site_symmetry_multiplicity
 _atom_site_fract_x
 _atom_site_fract_y
 _atom_site_fract_z
 _atom_site_occupancy
  F  F0  1  0.00000000  0.00000000  0.00000000  1
  F  F1  1  0.33300000  0.66700000  0.25000000  1
  Li  Li2  1  0.66700000  0.33300000  0.50000000  1
  Li  Li3  1  0.00000000  0.00000000  0.75000000  1
  Cu  Cu4  1  0.21277283  0.85132718  0.55647205  1
  Cu  Cu5  1  0.47942587  0.04630655  0.24155678  1
