# generated using pymatgen
data_Li4ZrNi2P4N5
_symmetry_space_group_name_H-M   'P 1'
_cell_length_a   6.63831691
_cell_length_b   6.28049630
_cell_length_c   8.40367714
_cell_angle_alpha   97.94046352
_cell_angle_beta   98.42485506
_cell_angle_gamma   97.87643489
_symmetry_Int_Tables_number   1
_chemical_formula_structural   Li4ZrNi2P4N5
_chemical_formula_sum   'Li4 Zr1 Ni2 P4 N5'
_cell_volume   338.80976045
_cell_formula_units_Z   1
loop_
 _symmetry_equiv_pos_site_id
 _symmetry_equiv_pos_as_xyz
  1  'x, y, z'
loop_
 _atom_site_type_symbol
 _atom_site_label
 _atom_site_symmetry_multiplicity
 _atom_site_fract_x
 _atom_site_fract_y
 _atom_site_fract_z
 _atom_site_occupancy
  P  P0  1  0.00000000  0.00000000  0.00000000  1
  P  P1  1  0.50000000  0.50000000  0.50000000  1
  P  P2  1  0.50000000  0.50000000  0.00000000  1
  P  P3  1  0.50000000  0.00000000  0.50000000  1
  Li  Li4  1  0.00000000  0.50000000  0.50000000  1
  Li  Li5  1  0.52565276  0.90504372  0.90625233  1
  Li  Li6  1  0.49535017  0.70952099  0.28555299  1
  Li  Li7  1  0.42726465  0.83850413  0.41664027  1
  Ni  Ni8  1  0.44958210  0.10788743  0.06362666  1
  Ni  Ni9  1  0.39150376  0.77346310  0.09490498  1
  N  N10  1  0.27056069  0.71348297  0.14131588  1
  N  N11  1  0.38263724  0.22657911  0.58865029  1
  N  N12  1  0.29224713  0.43225261  0.05737165  1
  N  N13  1  0.43733667  0.25721465  0.91891424  1
  N  N14  1  0.20104491  0.80614728  0.98723994  1
  Zr  Zr15  1  0.58495318  0.72265594  0.22545408  1
