# generated using pymatgen
data_Li2Mn3Sb4P3
_symmetry_space_group_name_H-M   'P 1'
_cell_length_a   7.26938086
_cell_length_b   7.22945914
_cell_length_c   7.47293631
_cell_angle_alpha   93.55966038
_cell_angle_beta   91.04616652
_cell_angle_gamma   93.69379135
_symmetry_Int_Tables_number   1
_chemical_formula_structural   Li2Mn3Sb4P3
_chemical_formula_sum   'Li2 Mn3 Sb4 P3'
_cell_volume   391.06072513
_cell_formula_units_Z   1
loop_
 _symmetry_equiv_pos_site_id
 _symmetry_equiv_pos_as_xyz
  1  'x, y, z'
loop_
 _atom_site_type_symbol
 _atom_site_label
 _atom_site_symmetry_multiplicity
 _atom_site_fract_x
 _atom_site_fract_y
 _atom_site_fract_z
 _atom_site_occupancy
  Mn  Mn0  1  0.12500000  0.00000000  0.25000000  1
  Mn  Mn1  1  0.00000000  0.00000000  0.00000000  1
  Mn  Mn2  1  0.37500000  0.00000000  0.25000000  1
  Sb  Sb3  1  0.25000000  0.25000000  0.25000000  1
  Sb  Sb4  1  0.00000000  0.25000000  0.12500000  1
  Sb  Sb5  1  0.36091252  0.44864802  0.86646688  1
  Sb  Sb6  1  0.27271533  0.84210263  0.92217091  1
  P  P7  1  0.06202030  0.53834311  0.79951643  1
  P  P8  1  0.66885612  0.11997808  0.29417015  1
  P  P9  1  0.82098498  0.60207142  0.68988320  1
  Li  Li10  1  0.97250311  0.46772387  0.85150016  1
  Li  Li11  1  0.15674003  0.34824239  0.33525309  1
