# generated using pymatgen
data_Li2Mn3P4S3
_symmetry_space_group_name_H-M   'P 1'
_cell_length_a   5.07449399
_cell_length_b   5.44996937
_cell_length_c   6.21826399
_cell_angle_alpha   95.06893891
_cell_angle_beta   93.16465003
_cell_angle_gamma   100.93904137
_symmetry_Int_Tables_number   1
_chemical_formula_structural   Li2Mn3P4S3
_chemical_formula_sum   'Li2 Mn3 P4 S3'
_cell_volume   167.73012759
_cell_formula_units_Z   1
loop_
 _symmetry_equiv_pos_site_id
 _symmetry_equiv_pos_as_xyz
  1  'x, y, z'
loop_
 _atom_site_type_symbol
 _atom_site_label
 _atom_site_symmetry_multiplicity
 _atom_site_fract_x
 _atom_site_fract_y
 _atom_site_fract_z
 _atom_site_occupancy
  Mn  Mn0  1  0.00000000  0.00000000  0.00000000  1
  Mn  Mn1  1  0.50000000  0.50000000  0.50000000  1
  Mn  Mn2  1  0.25000000  0.25000000  0.25000000  1
  S  S3  1  0.75000000  0.25000000  0.00000000  1
  S  S4  1  0.25000000  0.75000000  0.50000000  1
  S  S5  1  0.60372977  0.61394187  0.95261998  1
  P  P6  1  0.61967202  0.79393850  0.43624940  1
  P  P7  1  0.57671350  0.51952429  0.40581468  1
  P  P8  1  0.53736279  0.64737121  0.12431806  1
  P  P9  1  0.32360668  0.85662342  0.15377802  1
  Li  Li10  1  0.87727634  0.44966630  0.98084889  1
  Li  Li11  1  0.47381107  0.27304954  0.00347278  1
