# generated using pymatgen
data_Li4La5(PS)3
_symmetry_space_group_name_H-M   'P 1'
_cell_length_a   10.19463483
_cell_length_b   10.17472981
_cell_length_c   9.37614535
_cell_angle_alpha   90.00000000
_cell_angle_beta   90.00000000
_cell_angle_gamma   90.00000000
_symmetry_Int_Tables_number   1
_chemical_formula_structural   Li4La5(PS)3
_chemical_formula_sum   'Li4 La5 P3 S3'
_cell_volume   972.56557023
_cell_formula_units_Z   1
loop_
 _symmetry_equiv_pos_site_id
 _symmetry_equiv_pos_as_xyz
  1  'x, y, z'
loop_
 _atom_site_type_symbol
 _atom_site_label
 _atom_site_symmetry_multiplicity
 _atom_site_fract_x
 _atom_site_fract_y
 _atom_site_fract_z
 _atom_site_occupancy
  S  S0  1  0.00000000  0.00000000  0.00000000  1
  S  S1  1  0.33300000  0.66700000  0.25000000  1
  S  S2  1  0.66700000  0.33300000  0.50000000  1
  La  La3  1  0.00000000  0.00000000  0.75000000  1
  La  La4  1  0.14344750  0.33998469  0.85624385  1
  La  La5  1  0.08019715  0.93505129  0.77744009  1
  La  La6  1  0.22339111  0.54604122  0.94989194  1
  La  La7  1  0.18138625  0.23617333  0.56138891  1
  P  P8  1  0.92565813  0.15885462  0.14863729  1
  P  P9  1  0.01723653  0.76486051  0.61418707  1
  P  P10  1  0.25834392  0.66256930  0.57187519  1
  Li  Li11  1  0.12141049  0.80699533  0.26146684  1
  Li  Li12  1  0.21050092  0.02651405  0.40857999  1
  Li  Li13  1  0.91155634  0.94667940  0.93312181  1
  Li  Li14  1  0.95339145  0.66318297  0.62542850  1
