# generated using pymatgen
data_LiMnSb4Mo2P3
_symmetry_space_group_name_H-M   'P 1'
_cell_length_a   5.25919780
_cell_length_b   5.42553809
_cell_length_c   6.36893557
_cell_angle_alpha   94.88177323
_cell_angle_beta   93.07972868
_cell_angle_gamma   94.83669737
_symmetry_Int_Tables_number   1
_chemical_formula_structural   LiMnSb4Mo2P3
_chemical_formula_sum   'Li1 Mn1 Sb4 Mo2 P3'
_cell_volume   180.08726935
_cell_formula_units_Z   1
loop_
 _symmetry_equiv_pos_site_id
 _symmetry_equiv_pos_as_xyz
  1  'x, y, z'
loop_
 _atom_site_type_symbol
 _atom_site_label
 _atom_site_symmetry_multiplicity
 _atom_site_fract_x
 _atom_site_fract_y
 _atom_site_fract_z
 _atom_site_occupancy
  Mn  Mn0  1  0.00000000  0.00000000  0.00000000  1
  Sb  Sb1  1  0.50000000  0.50000000  0.50000000  1
  Sb  Sb2  1  0.25000000  0.25000000  0.25000000  1
  Sb  Sb3  1  0.75000000  0.25000000  0.00000000  1
  Sb  Sb4  1  0.25000000  0.75000000  0.50000000  1
  P  P5  1  0.12059729  0.36877229  0.07802828  1
  P  P6  1  0.16124476  0.46115448  0.84730370  1
  P  P7  1  0.46140675  0.80255255  0.94949490  1
  Mo  Mo8  1  0.31331259  0.97865963  0.20399601  1
  Mo  Mo9  1  0.49310458  0.16468329  0.44114076  1
  Li  Li10  1  0.10105967  0.04586964  0.97503445  1
