# generated using pymatgen
data_Li3TiCu2I4O3
_symmetry_space_group_name_H-M   'P 1'
_cell_length_a   6.94335250
_cell_length_b   7.08936839
_cell_length_c   6.90818641
_cell_angle_alpha   96.03561395
_cell_angle_beta   98.17492211
_cell_angle_gamma   97.76728457
_symmetry_Int_Tables_number   1
_chemical_formula_structural   Li3TiCu2I4O3
_chemical_formula_sum   'Li3 Ti1 Cu2 I4 O3'
_cell_volume   330.81275117
_cell_formula_units_Z   1
loop_
 _symmetry_equiv_pos_site_id
 _symmetry_equiv_pos_as_xyz
  1  'x, y, z'
loop_
 _atom_site_type_symbol
 _atom_site_label
 _atom_site_symmetry_multiplicity
 _atom_site_fract_x
 _atom_site_fract_y
 _atom_site_fract_z
 _atom_site_occupancy
  I  I0  1  0.00000000  0.00000000  0.00000000  1
  I  I1  1  0.50000000  0.50000000  0.50000000  1
  I  I2  1  0.50000000  0.50000000  0.00000000  1
  I  I3  1  0.50000000  0.00000000  0.50000000  1
  Li  Li4  1  0.00000000  0.50000000  0.50000000  1
  Li  Li5  1  0.26809589  0.12954931  0.57965720  1
  Li  Li6  1  0.90735738  0.63977758  0.74461493  1
  Cu  Cu7  1  0.78026339  0.17537662  0.23503381  1
  Cu  Cu8  1  0.62571477  0.42759703  0.10452672  1
  Ti  Ti9  1  0.87382396  0.70326465  0.40518683  1
  O  O10  1  0.10750228  0.84651973  0.25888336  1
  O  O11  1  0.51080951  0.37344116  0.11408624  1
  O  O12  1  0.25366405  0.44404523  0.35950130  1
