# generated using pymatgen
data_LiMn2Sb4Mo2P3
_symmetry_space_group_name_H-M   'P 1'
_cell_length_a   5.48463203
_cell_length_b   5.65473814
_cell_length_c   6.59042105
_cell_angle_alpha   93.65808431
_cell_angle_beta   93.26047849
_cell_angle_gamma   93.68861475
_symmetry_Int_Tables_number   1
_chemical_formula_structural   LiMn2Sb4Mo2P3
_chemical_formula_sum   'Li1 Mn2 Sb4 Mo2 P3'
_cell_volume   203.17539846
_cell_formula_units_Z   1
loop_
 _symmetry_equiv_pos_site_id
 _symmetry_equiv_pos_as_xyz
  1  'x, y, z'
loop_
 _atom_site_type_symbol
 _atom_site_label
 _atom_site_symmetry_multiplicity
 _atom_site_fract_x
 _atom_site_fract_y
 _atom_site_fract_z
 _atom_site_occupancy
  Mn  Mn0  1  0.00000000  0.00000000  0.00000000  1
  Mn  Mn1  1  0.50000000  0.50000000  0.50000000  1
  Sb  Sb2  1  0.25000000  0.25000000  0.25000000  1
  Sb  Sb3  1  0.75000000  0.25000000  0.00000000  1
  Sb  Sb4  1  0.25000000  0.75000000  0.50000000  1
  Sb  Sb5  1  0.81308580  0.58672002  0.33740954  1
  P  P6  1  0.40715864  0.50898850  0.62679105  1
  P  P7  1  0.99320967  0.80491792  0.83634908  1
  P  P8  1  0.32704803  0.46937596  0.87641541  1
  Mo  Mo9  1  0.72540870  0.16791847  0.98172625  1
  Mo  Mo10  1  0.62100594  0.62832193  0.36987309  1
  Li  Li11  1  0.50248768  0.47945838  0.82942143  1
