# generated using pymatgen
data_Li2Ti2Te4P2Cl
_symmetry_space_group_name_H-M   'P 1'
_cell_length_a   4.83189953
_cell_length_b   4.66738111
_cell_length_c   7.46632960
_cell_angle_alpha   94.66305177
_cell_angle_beta   90.23922061
_cell_angle_gamma   97.92908898
_symmetry_Int_Tables_number   1
_chemical_formula_structural   Li2Ti2Te4P2Cl
_chemical_formula_sum   'Li2 Ti2 Te4 P2 Cl1'
_cell_volume   166.20099509
_cell_formula_units_Z   1
loop_
 _symmetry_equiv_pos_site_id
 _symmetry_equiv_pos_as_xyz
  1  'x, y, z'
loop_
 _atom_site_type_symbol
 _atom_site_label
 _atom_site_symmetry_multiplicity
 _atom_site_fract_x
 _atom_site_fract_y
 _atom_site_fract_z
 _atom_site_occupancy
  Cl  Cl0  1  0.00000000  0.00000000  0.00000000  1
  Ti  Ti1  1  0.50000000  0.50000000  0.50000000  1
  Ti  Ti2  1  0.25000000  0.25000000  0.25000000  1
  P  P3  1  0.75000000  0.25000000  0.00000000  1
  P  P4  1  0.25000000  0.75000000  0.50000000  1
  Li  Li5  1  0.22838709  0.01479991  0.43485814  1
  Li  Li6  1  0.28215166  0.23620444  0.76005060  1
  Te  Te7  1  0.55016320  0.92091552  0.45428124  1
  Te  Te8  1  0.36189012  0.29395506  0.55372733  1
  Te  Te9  1  0.74587757  0.85695112  0.75090969  1
  Te  Te10  1  0.83657939  0.59500939  0.25007318  1
