# generated using pymatgen
data_Li4ZrTi3(CuO)2
_symmetry_space_group_name_H-M   'P 1'
_cell_length_a   5.82500725
_cell_length_b   6.10837890
_cell_length_c   7.28367879
_cell_angle_alpha   99.64059624
_cell_angle_beta   102.85355063
_cell_angle_gamma   101.49679487
_symmetry_Int_Tables_number   1
_chemical_formula_structural   Li4ZrTi3(CuO)2
_chemical_formula_sum   'Li4 Zr1 Ti3 Cu2 O2'
_cell_volume   241.43795243
_cell_formula_units_Z   1
loop_
 _symmetry_equiv_pos_site_id
 _symmetry_equiv_pos_as_xyz
  1  'x, y, z'
loop_
 _atom_site_type_symbol
 _atom_site_label
 _atom_site_symmetry_multiplicity
 _atom_site_fract_x
 _atom_site_fract_y
 _atom_site_fract_z
 _atom_site_occupancy
  Li  Li0  1  0.12500000  0.00000000  0.25000000  1
  Li  Li1  1  0.00000000  0.00000000  0.00000000  1
  Li  Li2  1  0.37500000  0.00000000  0.25000000  1
  Li  Li3  1  0.25000000  0.25000000  0.25000000  1
  Cu  Cu4  1  0.00000000  0.25000000  0.12500000  1
  Cu  Cu5  1  0.41994534  0.57842573  0.02698863  1
  Ti  Ti6  1  0.12320331  0.64468076  0.77626384  1
  Ti  Ti7  1  0.52516683  0.92176032  0.83961776  1
  Ti  Ti8  1  0.41089022  0.35886992  0.39323813  1
  O  O9  1  0.77048773  0.77445208  0.83564295  1
  O  O10  1  0.60920013  0.12373462  0.26842645  1
  Zr  Zr11  1  0.25321752  0.07671149  0.44449239  1
