# generated using pymatgen
data_LiMnSb3P2
_symmetry_space_group_name_H-M   'P 1'
_cell_length_a   5.67245343
_cell_length_b   6.07882607
_cell_length_c   6.98324566
_cell_angle_alpha   94.89875037
_cell_angle_beta   94.91741192
_cell_angle_gamma   95.37118089
_symmetry_Int_Tables_number   1
_chemical_formula_structural   LiMnSb3P2
_chemical_formula_sum   'Li1 Mn1 Sb3 P2'
_cell_volume   237.79396783
_cell_formula_units_Z   1
loop_
 _symmetry_equiv_pos_site_id
 _symmetry_equiv_pos_as_xyz
  1  'x, y, z'
loop_
 _atom_site_type_symbol
 _atom_site_label
 _atom_site_symmetry_multiplicity
 _atom_site_fract_x
 _atom_site_fract_y
 _atom_site_fract_z
 _atom_site_occupancy
  Mn  Mn0  1  0.00000000  0.00000000  0.00000000  1
  Sb  Sb1  1  0.33300000  0.66700000  0.25000000  1
  Sb  Sb2  1  0.66700000  0.33300000  0.50000000  1
  Sb  Sb3  1  0.00000000  0.00000000  0.75000000  1
  P  P4  1  0.62923882  0.57059890  0.55388771  1
  P  P5  1  0.97804198  0.63997056  0.77964536  1
  Li  Li6  1  0.81579440  0.60242010  0.66992521  1
