# generated using pymatgen
data_Li2MnSb4P3
_symmetry_space_group_name_H-M   'P 1'
_cell_length_a   4.97247404
_cell_length_b   5.18730458
_cell_length_c   6.97782008
_cell_angle_alpha   98.15901726
_cell_angle_beta   96.86792983
_cell_angle_gamma   98.89642360
_symmetry_Int_Tables_number   1
_chemical_formula_structural   Li2MnSb4P3
_chemical_formula_sum   'Li2 Mn1 Sb4 P3'
_cell_volume   174.16593995
_cell_formula_units_Z   1
loop_
 _symmetry_equiv_pos_site_id
 _symmetry_equiv_pos_as_xyz
  1  'x, y, z'
loop_
 _atom_site_type_symbol
 _atom_site_label
 _atom_site_symmetry_multiplicity
 _atom_site_fract_x
 _atom_site_fract_y
 _atom_site_fract_z
 _atom_site_occupancy
  Mn  Mn0  1  0.00000000  0.00000000  0.00000000  1
  Sb  Sb1  1  0.33300000  0.66700000  0.25000000  1
  Sb  Sb2  1  0.66700000  0.33300000  0.50000000  1
  Sb  Sb3  1  0.00000000  0.00000000  0.75000000  1
  Sb  Sb4  1  0.40779573  0.99615617  0.14155749  1
  P  P5  1  0.39996404  0.86093640  0.04997557  1
  P  P6  1  0.73435802  0.25098642  0.90322601  1
  P  P7  1  0.08348642  0.86904669  0.29072479  1
  Li  Li8  1  0.91273556  0.58823444  0.99566644  1
  Li  Li9  1  0.34010300  0.38881288  0.18600988  1
