# generated using pymatgen
data_Li3Ni2I4N5O4
_symmetry_space_group_name_H-M   'P 1'
_cell_length_a   8.16171822
_cell_length_b   7.91321104
_cell_length_c   8.02943603
_cell_angle_alpha   91.73176359
_cell_angle_beta   90.61225115
_cell_angle_gamma   92.00863612
_symmetry_Int_Tables_number   1
_chemical_formula_structural   Li3Ni2I4N5O4
_chemical_formula_sum   'Li3 Ni2 I4 N5 O4'
_cell_volume   517.99316727
_cell_formula_units_Z   1
loop_
 _symmetry_equiv_pos_site_id
 _symmetry_equiv_pos_as_xyz
  1  'x, y, z'
loop_
 _atom_site_type_symbol
 _atom_site_label
 _atom_site_symmetry_multiplicity
 _atom_site_fract_x
 _atom_site_fract_y
 _atom_site_fract_z
 _atom_site_occupancy
  I  I0  1  0.12500000  0.00000000  0.25000000  1
  I  I1  1  0.00000000  0.00000000  0.00000000  1
  I  I2  1  0.37500000  0.00000000  0.25000000  1
  I  I3  1  0.25000000  0.25000000  0.25000000  1
  Li  Li4  1  0.00000000  0.25000000  0.12500000  1
  Li  Li5  1  0.74727568  0.76297175  0.96994057  1
  Li  Li6  1  0.71542665  0.24247781  0.24926260  1
  Ni  Ni7  1  0.54697575  0.02495665  0.29266815  1
  Ni  Ni8  1  0.30835619  0.24898668  0.41277943  1
  O  O9  1  0.66728859  0.54944159  0.86067901  1
  O  O10  1  0.35913483  0.96017101  0.94534347  1
  O  O11  1  0.73390712  0.50342671  0.66935805  1
  O  O12  1  0.32083695  0.24740156  0.19176713  1
  N  N13  1  0.81514937  0.11777608  0.67160186  1
  N  N14  1  0.47027336  0.66110520  0.71291656  1
  N  N15  1  0.12788720  0.12318038  0.92628803  1
  N  N16  1  0.00574453  0.67107246  0.70919348  1
  N  N17  1  0.53020771  0.91427421  0.24072211  1
