# generated using pymatgen
data_Li3Ni2(IO)4
_symmetry_space_group_name_H-M   'P 1'
_cell_length_a   8.73917763
_cell_length_b   8.61411422
_cell_length_c   7.80410489
_cell_angle_alpha   90.00000000
_cell_angle_beta   90.00000000
_cell_angle_gamma   90.00000000
_symmetry_Int_Tables_number   1
_chemical_formula_structural   Li3Ni2(IO)4
_chemical_formula_sum   'Li3 Ni2 I4 O4'
_cell_volume   587.49515726
_cell_formula_units_Z   1
loop_
 _symmetry_equiv_pos_site_id
 _symmetry_equiv_pos_as_xyz
  1  'x, y, z'
loop_
 _atom_site_type_symbol
 _atom_site_label
 _atom_site_symmetry_multiplicity
 _atom_site_fract_x
 _atom_site_fract_y
 _atom_site_fract_z
 _atom_site_occupancy
  I  I0  1  0.12500000  0.00000000  0.25000000  1
  I  I1  1  0.00000000  0.00000000  0.00000000  1
  I  I2  1  0.37500000  0.00000000  0.25000000  1
  I  I3  1  0.25000000  0.25000000  0.25000000  1
  Li  Li4  1  0.00000000  0.25000000  0.12500000  1
  Li  Li5  1  0.88511010  0.13682938  0.39940676  1
  Li  Li6  1  0.33384502  0.73102248  0.18492272  1
  Ni  Ni7  1  0.93898735  0.99023003  0.06505619  1
  Ni  Ni8  1  0.71605173  0.65928081  0.89259059  1
  O  O9  1  0.48989245  0.69585489  0.18899410  1
  O  O10  1  0.02499472  0.83237611  0.71572000  1
  O  O11  1  0.99517976  0.07015285  0.06635440  1
  O  O12  1  0.86761843  0.83337685  0.62872603  1
