# generated using pymatgen
data_Li2Mn(Sb2P)2
_symmetry_space_group_name_H-M   'P 1'
_cell_length_a   5.43834063
_cell_length_b   5.75101483
_cell_length_c   6.76075498
_cell_angle_alpha   98.16011389
_cell_angle_beta   96.87885508
_cell_angle_gamma   96.50061660
_symmetry_Int_Tables_number   1
_chemical_formula_structural   Li2Mn(Sb2P)2
_chemical_formula_sum   'Li2 Mn1 Sb4 P2'
_cell_volume   205.96949507
_cell_formula_units_Z   1
loop_
 _symmetry_equiv_pos_site_id
 _symmetry_equiv_pos_as_xyz
  1  'x, y, z'
loop_
 _atom_site_type_symbol
 _atom_site_label
 _atom_site_symmetry_multiplicity
 _atom_site_fract_x
 _atom_site_fract_y
 _atom_site_fract_z
 _atom_site_occupancy
  Mn  Mn0  1  0.12500000  0.12500000  0.12500000  1
  Sb  Sb1  1  0.50000000  0.50000000  0.50000000  1
  Sb  Sb2  1  0.25000000  0.25000000  0.25000000  1
  Sb  Sb3  1  0.75000000  0.75000000  0.75000000  1
  Sb  Sb4  1  0.60600928  0.02802570  0.33598715  1
  P  P5  1  0.54907609  0.15202245  0.80826650  1
  P  P6  1  0.02507304  0.42640531  0.58210555  1
  Li  Li7  1  0.94892684  0.99381480  0.65218997  1
  Li  Li8  1  0.05827013  0.24930984  0.17201631  1
