# generated using pymatgen
data_Li3TiI4(OF)3
_symmetry_space_group_name_H-M   'P 1'
_cell_length_a   7.39414644
_cell_length_b   7.21020228
_cell_length_c   7.07444561
_cell_angle_alpha   95.04040763
_cell_angle_beta   96.68870467
_cell_angle_gamma   94.73850826
_symmetry_Int_Tables_number   1
_chemical_formula_structural   Li3TiI4(OF)3
_chemical_formula_sum   'Li3 Ti1 I4 O3 F3'
_cell_volume   371.49970059
_cell_formula_units_Z   1
loop_
 _symmetry_equiv_pos_site_id
 _symmetry_equiv_pos_as_xyz
  1  'x, y, z'
loop_
 _atom_site_type_symbol
 _atom_site_label
 _atom_site_symmetry_multiplicity
 _atom_site_fract_x
 _atom_site_fract_y
 _atom_site_fract_z
 _atom_site_occupancy
  I  I0  1  0.00000000  0.00000000  0.00000000  1
  I  I1  1  0.50000000  0.50000000  0.50000000  1
  I  I2  1  0.25000000  0.25000000  0.25000000  1
  I  I3  1  0.75000000  0.25000000  0.00000000  1
  Li  Li4  1  0.25000000  0.75000000  0.50000000  1
  Li  Li5  1  0.84895967  0.81159034  0.26837342  1
  Li  Li6  1  0.07507512  0.92143393  0.07139352  1
  F  F7  1  0.22665346  0.31929262  0.07388136  1
  F  F8  1  0.68578769  0.13881613  0.86229338  1
  F  F9  1  0.95794235  0.09823679  0.96826895  1
  Ti  Ti10  1  0.41606768  0.01573790  0.62166242  1
  O  O11  1  0.61842590  0.67173739  0.99632709  1
  O  O12  1  0.92097170  0.27366881  0.35028999  1
  O  O13  1  0.10387893  0.23068849  0.21321567  1
