# generated using pymatgen
data_Li3Ni3P5O3
_symmetry_space_group_name_H-M   'P 1'
_cell_length_a   7.63099315
_cell_length_b   6.82347378
_cell_length_c   7.97472867
_cell_angle_alpha   90.00000000
_cell_angle_beta   90.00000000
_cell_angle_gamma   90.00000000
_symmetry_Int_Tables_number   1
_chemical_formula_structural   Li3Ni3P5O3
_chemical_formula_sum   'Li3 Ni3 P5 O3'
_cell_volume   415.24317844
_cell_formula_units_Z   1
loop_
 _symmetry_equiv_pos_site_id
 _symmetry_equiv_pos_as_xyz
  1  'x, y, z'
loop_
 _atom_site_type_symbol
 _atom_site_label
 _atom_site_symmetry_multiplicity
 _atom_site_fract_x
 _atom_site_fract_y
 _atom_site_fract_z
 _atom_site_occupancy
  O  O0  1  0.12500000  0.12500000  0.12500000  1
  O  O1  1  0.50000000  0.50000000  0.50000000  1
  O  O2  1  0.25000000  0.25000000  0.25000000  1
  Ni  Ni3  1  0.75000000  0.75000000  0.75000000  1
  Ni  Ni4  1  0.00095693  0.55494543  0.22038803  1
  Ni  Ni5  1  0.52941501  0.87806150  0.55349852  1
  P  P6  1  0.98758873  0.36072628  0.03164128  1
  P  P7  1  0.78367210  0.75282361  0.15304042  1
  P  P8  1  0.80149056  0.84059180  0.18960719  1
  P  P9  1  0.43890514  0.08435640  0.54455547  1
  P  P10  1  0.91907754  0.69640451  0.63672289  1
  Li  Li11  1  0.18155345  0.74955482  0.03144218  1
  Li  Li12  1  0.57735859  0.35015723  0.23713112  1
  Li  Li13  1  0.00979826  0.78735235  0.61127125  1
