# generated using pymatgen
data_Li2MnSb4P3N2
_symmetry_space_group_name_H-M   'P 1'
_cell_length_a   6.11170231
_cell_length_b   6.65014104
_cell_length_c   7.26357007
_cell_angle_alpha   94.71688558
_cell_angle_beta   93.68955017
_cell_angle_gamma   94.21969165
_symmetry_Int_Tables_number   1
_chemical_formula_structural   Li2MnSb4P3N2
_chemical_formula_sum   'Li2 Mn1 Sb4 P3 N2'
_cell_volume   292.68383199
_cell_formula_units_Z   1
loop_
 _symmetry_equiv_pos_site_id
 _symmetry_equiv_pos_as_xyz
  1  'x, y, z'
loop_
 _atom_site_type_symbol
 _atom_site_label
 _atom_site_symmetry_multiplicity
 _atom_site_fract_x
 _atom_site_fract_y
 _atom_site_fract_z
 _atom_site_occupancy
  N  N0  1  0.12500000  0.00000000  0.25000000  1
  N  N1  1  0.00000000  0.00000000  0.00000000  1
  Mn  Mn2  1  0.37500000  0.00000000  0.25000000  1
  Sb  Sb3  1  0.25000000  0.25000000  0.25000000  1
  Sb  Sb4  1  0.00000000  0.25000000  0.12500000  1
  Sb  Sb5  1  0.20034905  0.76553696  0.14540374  1
  Sb  Sb6  1  0.51561942  0.20689086  0.19214759  1
  P  P7  1  0.38422278  0.34283952  0.50697067  1
  P  P8  1  0.57300811  0.24154996  0.76422121  1
  P  P9  1  0.03177683  0.70783595  0.08992680  1
  Li  Li10  1  0.92536521  0.11431585  0.81997847  1
  Li  Li11  1  0.32827252  0.98209959  0.01162919  1
