# generated using pymatgen
data_Li2Mn2Sb4P3
_symmetry_space_group_name_H-M   'P 1'
_cell_length_a   6.58072322
_cell_length_b   7.11613646
_cell_length_c   7.10094038
_cell_angle_alpha   94.28235263
_cell_angle_beta   90.80871739
_cell_angle_gamma   94.28000852
_symmetry_Int_Tables_number   1
_chemical_formula_structural   Li2Mn2Sb4P3
_chemical_formula_sum   'Li2 Mn2 Sb4 P3'
_cell_volume   330.61429578
_cell_formula_units_Z   1
loop_
 _symmetry_equiv_pos_site_id
 _symmetry_equiv_pos_as_xyz
  1  'x, y, z'
loop_
 _atom_site_type_symbol
 _atom_site_label
 _atom_site_symmetry_multiplicity
 _atom_site_fract_x
 _atom_site_fract_y
 _atom_site_fract_z
 _atom_site_occupancy
  Mn  Mn0  1  0.12500000  0.12500000  0.12500000  1
  Mn  Mn1  1  0.50000000  0.50000000  0.50000000  1
  Sb  Sb2  1  0.25000000  0.25000000  0.25000000  1
  Sb  Sb3  1  0.75000000  0.75000000  0.75000000  1
  Sb  Sb4  1  0.16412960  0.94555677  0.72210644  1
  Sb  Sb5  1  0.76783379  0.27934271  0.33933321  1
  P  P6  1  0.45826948  0.66828487  0.23087817  1
  P  P7  1  0.01658128  0.18304453  0.26686463  1
  P  P8  1  0.36045116  0.88370666  0.04532461  1
  Li  Li9  1  0.74840482  0.85124057  0.08950150  1
  Li  Li10  1  0.12843275  0.91278956  0.64117187  1
