# generated using pymatgen
data_Li2MnSb4P3
_symmetry_space_group_name_H-M   'P 1'
_cell_length_a   4.93512273
_cell_length_b   5.27315662
_cell_length_c   6.49743762
_cell_angle_alpha   98.48504607
_cell_angle_beta   95.36974651
_cell_angle_gamma   98.33150995
_symmetry_Int_Tables_number   1
_chemical_formula_structural   Li2MnSb4P3
_chemical_formula_sum   'Li2 Mn1 Sb4 P3'
_cell_volume   164.32572471
_cell_formula_units_Z   1
loop_
 _symmetry_equiv_pos_site_id
 _symmetry_equiv_pos_as_xyz
  1  'x, y, z'
loop_
 _atom_site_type_symbol
 _atom_site_label
 _atom_site_symmetry_multiplicity
 _atom_site_fract_x
 _atom_site_fract_y
 _atom_site_fract_z
 _atom_site_occupancy
  Mn  Mn0  1  0.00000000  0.00000000  0.00000000  1
  Sb  Sb1  1  0.50000000  0.50000000  0.50000000  1
  Sb  Sb2  1  0.25000000  0.25000000  0.25000000  1
  Sb  Sb3  1  0.75000000  0.25000000  0.00000000  1
  Sb  Sb4  1  0.25000000  0.75000000  0.50000000  1
  P  P5  1  0.05380873  0.47612444  0.63145750  1
  P  P6  1  0.30687082  0.42789290  0.10061087  1
  P  P7  1  0.93079471  0.02014068  0.27870119  1
  Li  Li8  1  0.02560111  0.43744284  0.90504894  1
  Li  Li9  1  0.69720693  0.89857610  0.68099927  1
