# generated using pymatgen
data_LiTi3ClOF4
_symmetry_space_group_name_H-M   'P 1'
_cell_length_a   3.67408999
_cell_length_b   3.51483965
_cell_length_c   5.51066821
_cell_angle_alpha   93.76592151
_cell_angle_beta   88.28753646
_cell_angle_gamma   95.43791778
_symmetry_Int_Tables_number   1
_chemical_formula_structural   LiTi3ClOF4
_chemical_formula_sum   'Li1 Ti3 Cl1 O1 F4'
_cell_volume   70.67057101
_cell_formula_units_Z   1
loop_
 _symmetry_equiv_pos_site_id
 _symmetry_equiv_pos_as_xyz
  1  'x, y, z'
loop_
 _atom_site_type_symbol
 _atom_site_label
 _atom_site_symmetry_multiplicity
 _atom_site_fract_x
 _atom_site_fract_y
 _atom_site_fract_z
 _atom_site_occupancy
  Ti  Ti0  1  0.00000000  0.00000000  0.00000000  1
  Ti  Ti1  1  0.50000000  0.50000000  0.50000000  1
  Ti  Ti2  1  0.50000000  0.50000000  0.00000000  1
  Cl  Cl3  1  0.50000000  0.00000000  0.50000000  1
  F  F4  1  0.00000000  0.50000000  0.50000000  1
  F  F5  1  0.63623932  0.92975352  0.80440680  1
  F  F6  1  0.55621192  0.76370558  0.74241695  1
  F  F7  1  0.06374759  0.16103028  0.78623496  1
  O  O8  1  0.05337503  0.01645248  0.82121955  1
  Li  Li9  1  0.93485012  0.83031435  0.18727502  1
