# generated using pymatgen
data_Li2MnSb4P3
_symmetry_space_group_name_H-M   'P 1'
_cell_length_a   4.00999016
_cell_length_b   4.23208982
_cell_length_c   6.42825509
_cell_angle_alpha   102.43139709
_cell_angle_beta   96.89638723
_cell_angle_gamma   103.05806522
_symmetry_Int_Tables_number   1
_chemical_formula_structural   Li2MnSb4P3
_chemical_formula_sum   'Li2 Mn1 Sb4 P3'
_cell_volume   102.13399017
_cell_formula_units_Z   1
loop_
 _symmetry_equiv_pos_site_id
 _symmetry_equiv_pos_as_xyz
  1  'x, y, z'
loop_
 _atom_site_type_symbol
 _atom_site_label
 _atom_site_symmetry_multiplicity
 _atom_site_fract_x
 _atom_site_fract_y
 _atom_site_fract_z
 _atom_site_occupancy
  Mn  Mn0  1  0.00000000  0.00000000  0.00000000  1
  Sb  Sb1  1  0.33300000  0.66700000  0.25000000  1
  Sb  Sb2  1  0.66700000  0.33300000  0.50000000  1
  Sb  Sb3  1  0.00000000  0.00000000  0.75000000  1
  Sb  Sb4  1  0.23751114  0.07712934  0.24223732  1
  P  P5  1  0.11742693  0.08932341  0.45487170  1
  P  P6  1  0.88638831  0.13243597  0.19204845  1
  P  P7  1  0.04869371  0.74045955  0.71758153  1
  Li  Li8  1  0.69788301  0.03180127  0.95487051  1
  Li  Li9  1  0.43693028  0.93365637  0.98841515  1
