# generated using pymatgen
data_Li2Ti2Nb2(OF)3
_symmetry_space_group_name_H-M   'P 1'
_cell_length_a   5.31683331
_cell_length_b   5.01433037
_cell_length_c   7.13563202
_cell_angle_alpha   99.57154956
_cell_angle_beta   103.92420843
_cell_angle_gamma   99.07065554
_symmetry_Int_Tables_number   1
_chemical_formula_structural   Li2Ti2Nb2(OF)3
_chemical_formula_sum   'Li2 Ti2 Nb2 O3 F3'
_cell_volume   178.15244223
_cell_formula_units_Z   1
loop_
 _symmetry_equiv_pos_site_id
 _symmetry_equiv_pos_as_xyz
  1  'x, y, z'
loop_
 _atom_site_type_symbol
 _atom_site_label
 _atom_site_symmetry_multiplicity
 _atom_site_fract_x
 _atom_site_fract_y
 _atom_site_fract_z
 _atom_site_occupancy
  Li  Li0  1  0.00000000  0.00000000  0.00000000  1
  Li  Li1  1  0.50000000  0.50000000  0.50000000  1
  Nb  Nb2  1  0.25000000  0.25000000  0.25000000  1
  Nb  Nb3  1  0.75000000  0.25000000  0.00000000  1
  F  F4  1  0.25000000  0.75000000  0.50000000  1
  F  F5  1  0.77568604  0.72928661  0.68768524  1
  F  F6  1  0.78765032  0.93425278  0.65834448  1
  Ti  Ti7  1  0.86745229  0.69076880  0.66279686  1
  Ti  Ti8  1  0.44695004  0.25103903  0.86761514  1
  O  O9  1  0.82183118  0.16047805  0.90542107  1
  O  O10  1  0.76246250  0.40500924  0.71029208  1
  O  O11  1  0.74144505  0.68406488  0.15316917  1
