# generated using pymatgen
data_Li2TiMnP3S4
_symmetry_space_group_name_H-M   'P 1'
_cell_length_a   6.86609235
_cell_length_b   5.79538555
_cell_length_c   9.16825854
_cell_angle_alpha   93.62221755
_cell_angle_beta   94.29085137
_cell_angle_gamma   94.12253080
_symmetry_Int_Tables_number   1
_chemical_formula_structural   Li2TiMnP3S4
_chemical_formula_sum   'Li2 Ti1 Mn1 P3 S4'
_cell_volume   361.99331988
_cell_formula_units_Z   1
loop_
 _symmetry_equiv_pos_site_id
 _symmetry_equiv_pos_as_xyz
  1  'x, y, z'
loop_
 _atom_site_type_symbol
 _atom_site_label
 _atom_site_symmetry_multiplicity
 _atom_site_fract_x
 _atom_site_fract_y
 _atom_site_fract_z
 _atom_site_occupancy
  Ti  Ti0  1  0.00000000  0.00000000  0.00000000  1
  S  S1  1  0.50000000  0.50000000  0.50000000  1
  S  S2  1  0.25000000  0.25000000  0.25000000  1
  S  S3  1  0.75000000  0.25000000  0.00000000  1
  S  S4  1  0.25000000  0.75000000  0.50000000  1
  Mn  Mn5  1  0.76742037  0.21040760  0.74872448  1
  P  P6  1  0.46629585  0.35313273  0.95076528  1
  P  P7  1  0.84702958  0.42340567  0.92389612  1
  P  P8  1  0.65114517  0.49851811  0.11652499  1
  Li  Li9  1  0.38855863  0.14880403  0.92001800  1
  Li  Li10  1  0.25008986  0.79925874  0.51861905  1
