# generated using pymatgen
data_LiYSb5P2Se
_symmetry_space_group_name_H-M   'P 1'
_cell_length_a   6.42570932
_cell_length_b   6.13482475
_cell_length_c   6.62025755
_cell_angle_alpha   93.08197105
_cell_angle_beta   97.57712304
_cell_angle_gamma   95.38771554
_symmetry_Int_Tables_number   1
_chemical_formula_structural   LiYSb5P2Se
_chemical_formula_sum   'Li1 Y1 Sb5 P2 Se1'
_cell_volume   256.97373241
_cell_formula_units_Z   1
loop_
 _symmetry_equiv_pos_site_id
 _symmetry_equiv_pos_as_xyz
  1  'x, y, z'
loop_
 _atom_site_type_symbol
 _atom_site_label
 _atom_site_symmetry_multiplicity
 _atom_site_fract_x
 _atom_site_fract_y
 _atom_site_fract_z
 _atom_site_occupancy
  Se  Se0  1  0.00000000  0.00000000  0.00000000  1
  Y  Y1  1  0.50000000  0.50000000  0.50000000  1
  Sb  Sb2  1  0.25000000  0.25000000  0.25000000  1
  Sb  Sb3  1  0.75000000  0.25000000  0.00000000  1
  Sb  Sb4  1  0.25000000  0.75000000  0.50000000  1
  Sb  Sb5  1  0.98605758  0.99730683  0.63831971  1
  Sb  Sb6  1  0.05427691  0.57348094  0.24689051  1
  P  P7  1  0.86541827  0.26160464  0.99664965  1
  P  P8  1  0.85619496  0.64015466  0.68634407  1
  Li  Li9  1  0.62865129  0.55499174  0.02468913  1
