# generated using pymatgen
data_Li2Mn2P3
_symmetry_space_group_name_H-M   'P 1'
_cell_length_a   5.68836598
_cell_length_b   6.10372690
_cell_length_c   6.34130013
_cell_angle_alpha   95.59740004
_cell_angle_beta   93.33356965
_cell_angle_gamma   94.37512122
_symmetry_Int_Tables_number   1
_chemical_formula_structural   Li2Mn2P3
_chemical_formula_sum   'Li2 Mn2 P3'
_cell_volume   218.00530052
_cell_formula_units_Z   1
loop_
 _symmetry_equiv_pos_site_id
 _symmetry_equiv_pos_as_xyz
  1  'x, y, z'
loop_
 _atom_site_type_symbol
 _atom_site_label
 _atom_site_symmetry_multiplicity
 _atom_site_fract_x
 _atom_site_fract_y
 _atom_site_fract_z
 _atom_site_occupancy
  Mn  Mn0  1  0.00000000  0.00000000  0.00000000  1
  Mn  Mn1  1  0.50000000  0.50000000  0.50000000  1
  P  P2  1  0.25000000  0.25000000  0.25000000  1
  P  P3  1  0.75000000  0.25000000  0.00000000  1
  P  P4  1  0.25000000  0.75000000  0.50000000  1
  Li  Li5  1  0.16030572  0.37337203  0.08755208  1
  Li  Li6  1  0.72787062  0.61281957  0.64099533  1
