# generated using pymatgen
data_Li2MnP3N
_symmetry_space_group_name_H-M   'P 1'
_cell_length_a   4.28848588
_cell_length_b   4.47244262
_cell_length_c   5.21832773
_cell_angle_alpha   99.15177703
_cell_angle_beta   94.77326140
_cell_angle_gamma   96.80124405
_symmetry_Int_Tables_number   1
_chemical_formula_structural   Li2MnP3N
_chemical_formula_sum   'Li2 Mn1 P3 N1'
_cell_volume   97.58508059
_cell_formula_units_Z   1
loop_
 _symmetry_equiv_pos_site_id
 _symmetry_equiv_pos_as_xyz
  1  'x, y, z'
loop_
 _atom_site_type_symbol
 _atom_site_label
 _atom_site_symmetry_multiplicity
 _atom_site_fract_x
 _atom_site_fract_y
 _atom_site_fract_z
 _atom_site_occupancy
  Mn  Mn0  1  0.00000000  0.00000000  0.00000000  1
  P  P1  1  0.50000000  0.50000000  0.50000000  1
  P  P2  1  0.25000000  0.25000000  0.25000000  1
  P  P3  1  0.75000000  0.25000000  0.00000000  1
  Li  Li4  1  0.25000000  0.75000000  0.50000000  1
  Li  Li5  1  0.72228972  0.43289740  0.38483586  1
  N  N6  1  0.51219713  0.65129795  0.22694568  1
