# generated using pymatgen
data_Li2MnSb4Mo2P3
_symmetry_space_group_name_H-M   'P 1'
_cell_length_a   5.49782833
_cell_length_b   5.73282805
_cell_length_c   6.86285800
_cell_angle_alpha   98.05235450
_cell_angle_beta   93.49885464
_cell_angle_gamma   98.32343481
_symmetry_Int_Tables_number   1
_chemical_formula_structural   Li2MnSb4Mo2P3
_chemical_formula_sum   'Li2 Mn1 Sb4 Mo2 P3'
_cell_volume   211.18464676
_cell_formula_units_Z   1
loop_
 _symmetry_equiv_pos_site_id
 _symmetry_equiv_pos_as_xyz
  1  'x, y, z'
loop_
 _atom_site_type_symbol
 _atom_site_label
 _atom_site_symmetry_multiplicity
 _atom_site_fract_x
 _atom_site_fract_y
 _atom_site_fract_z
 _atom_site_occupancy
  Mn  Mn0  1  0.00000000  0.00000000  0.00000000  1
  Sb  Sb1  1  0.50000000  0.50000000  0.50000000  1
  Sb  Sb2  1  0.25000000  0.25000000  0.25000000  1
  Sb  Sb3  1  0.75000000  0.25000000  0.00000000  1
  Sb  Sb4  1  0.25000000  0.75000000  0.50000000  1
  P  P5  1  0.72826957  0.61627599  0.14644044  1
  P  P6  1  0.12511594  0.26060213  0.78835245  1
  P  P7  1  0.11657314  0.93415780  0.80232924  1
  Mo  Mo8  1  0.83816937  0.26375489  0.25544355  1
  Mo  Mo9  1  0.22699394  0.53355810  0.13926402  1
  Li  Li10  1  0.93075635  0.88693010  0.44928816  1
  Li  Li11  1  0.23386806  0.99793667  0.64578272  1
