# generated using pymatgen
data_Li2Ti3Cu2(As3O)2
_symmetry_space_group_name_H-M   'P 1'
_cell_length_a   6.06939642
_cell_length_b   6.38825669
_cell_length_c   7.40400569
_cell_angle_alpha   97.05796299
_cell_angle_beta   100.27912999
_cell_angle_gamma   99.05258684
_symmetry_Int_Tables_number   1
_chemical_formula_structural   Li2Ti3Cu2(As3O)2
_chemical_formula_sum   'Li2 Ti3 Cu2 As6 O2'
_cell_volume   275.56221511
_cell_formula_units_Z   1
loop_
 _symmetry_equiv_pos_site_id
 _symmetry_equiv_pos_as_xyz
  1  'x, y, z'
loop_
 _atom_site_type_symbol
 _atom_site_label
 _atom_site_symmetry_multiplicity
 _atom_site_fract_x
 _atom_site_fract_y
 _atom_site_fract_z
 _atom_site_occupancy
  Li  Li0  1  0.12500000  0.00000000  0.25000000  1
  Li  Li1  1  0.00000000  0.00000000  0.00000000  1
  Ti  Ti2  1  0.37500000  0.00000000  0.25000000  1
  Ti  Ti3  1  0.25000000  0.25000000  0.25000000  1
  Ti  Ti4  1  0.00000000  0.25000000  0.12500000  1
  As  As5  1  0.15479520  0.18823862  0.35195336  1
  As  As6  1  0.87700555  0.91863642  0.72427194  1
  As  As7  1  0.02047657  0.81645952  0.03333924  1
  As  As8  1  0.76957306  0.82227785  0.57757779  1
  As  As9  1  0.91562063  0.95174625  0.83476708  1
  As  As10  1  0.10087561  0.13694224  0.47447277  1
  O  O11  1  0.99437596  0.51645426  0.54470392  1
  O  O12  1  0.30541354  0.67140627  0.23312134  1
  Cu  Cu13  1  0.27072993  0.98723672  0.48764378  1
  Cu  Cu14  1  0.12581311  0.70877453  0.53277067  1
