# generated using pymatgen
data_Li2MnSb4P2N
_symmetry_space_group_name_H-M   'P 1'
_cell_length_a   5.66003116
_cell_length_b   5.81233633
_cell_length_c   7.21371170
_cell_angle_alpha   96.14092316
_cell_angle_beta   96.04620012
_cell_angle_gamma   96.46592811
_symmetry_Int_Tables_number   1
_chemical_formula_structural   Li2MnSb4P2N
_chemical_formula_sum   'Li2 Mn1 Sb4 P2 N1'
_cell_volume   232.79339886
_cell_formula_units_Z   1
loop_
 _symmetry_equiv_pos_site_id
 _symmetry_equiv_pos_as_xyz
  1  'x, y, z'
loop_
 _atom_site_type_symbol
 _atom_site_label
 _atom_site_symmetry_multiplicity
 _atom_site_fract_x
 _atom_site_fract_y
 _atom_site_fract_z
 _atom_site_occupancy
  N  N0  1  0.12500000  0.00000000  0.25000000  1
  Mn  Mn1  1  0.00000000  0.00000000  0.00000000  1
  Sb  Sb2  1  0.37500000  0.00000000  0.25000000  1
  Sb  Sb3  1  0.25000000  0.25000000  0.25000000  1
  Sb  Sb4  1  0.00000000  0.25000000  0.12500000  1
  Sb  Sb5  1  0.88278072  0.18603729  0.40435848  1
  P  P6  1  0.20205382  0.35935791  0.76453854  1
  P  P7  1  0.21648406  0.26125292  0.43234430  1
  Li  Li8  1  0.82320858  0.15611843  0.44569371  1
  Li  Li9  1  0.24151187  0.22483100  0.20600249  1
