# generated using pymatgen
data_Li3LuNi2P3
_symmetry_space_group_name_H-M   'P 1'
_cell_length_a   6.81256423
_cell_length_b   6.44616843
_cell_length_c   7.91194614
_cell_angle_alpha   94.70510963
_cell_angle_beta   94.02462821
_cell_angle_gamma   94.69340390
_symmetry_Int_Tables_number   1
_chemical_formula_structural   Li3LuNi2P3
_chemical_formula_sum   'Li3 Lu1 Ni2 P3'
_cell_volume   344.08480983
_cell_formula_units_Z   1
loop_
 _symmetry_equiv_pos_site_id
 _symmetry_equiv_pos_as_xyz
  1  'x, y, z'
loop_
 _atom_site_type_symbol
 _atom_site_label
 _atom_site_symmetry_multiplicity
 _atom_site_fract_x
 _atom_site_fract_y
 _atom_site_fract_z
 _atom_site_occupancy
  P  P0  1  0.00000000  0.00000000  0.00000000  1
  P  P1  1  0.33300000  0.66700000  0.25000000  1
  P  P2  1  0.66700000  0.33300000  0.50000000  1
  Lu  Lu3  1  0.00000000  0.00000000  0.75000000  1
  Li  Li4  1  0.31770043  0.23413935  0.41761265  1
  Li  Li5  1  0.66427944  0.31840505  0.44489357  1
  Li  Li6  1  0.13708243  0.90912769  0.31830627  1
  Ni  Ni7  1  0.27524140  0.48062611  0.69166560  1
  Ni  Ni8  1  0.71094186  0.25930479  0.43991580  1
