# generated using pymatgen
data_LiMnSb2P
_symmetry_space_group_name_H-M   'P 1'
_cell_length_a   6.86218326
_cell_length_b   6.92790435
_cell_length_c   7.38751064
_cell_angle_alpha   93.78676677
_cell_angle_beta   93.76715415
_cell_angle_gamma   92.56830143
_symmetry_Int_Tables_number   1
_chemical_formula_structural   LiMnSb2P
_chemical_formula_sum   'Li2 Mn2 Sb4 P2'
_cell_volume   349.25603791
_cell_formula_units_Z   2
loop_
 _symmetry_equiv_pos_site_id
 _symmetry_equiv_pos_as_xyz
  1  'x, y, z'
loop_
 _atom_site_type_symbol
 _atom_site_label
 _atom_site_symmetry_multiplicity
 _atom_site_fract_x
 _atom_site_fract_y
 _atom_site_fract_z
 _atom_site_occupancy
  Mn  Mn0  1  0.12500000  0.00000000  0.25000000  1
  Mn  Mn1  1  0.00000000  0.00000000  0.00000000  1
  Sb  Sb2  1  0.37500000  0.00000000  0.25000000  1
  Sb  Sb3  1  0.25000000  0.25000000  0.25000000  1
  Sb  Sb4  1  0.00000000  0.25000000  0.12500000  1
  Sb  Sb5  1  0.27320845  0.71259776  0.65862331  1
  P  P6  1  0.85622113  0.71977245  0.54189107  1
  P  P7  1  0.48675939  0.78666762  0.93051172  1
  Li  Li8  1  0.29694352  0.93758306  0.50193609  1
  Li  Li9  1  0.80352871  0.60480943  0.27924587  1
