# generated using pymatgen
data_Li3Ti2(As3O2)2
_symmetry_space_group_name_H-M   'P 1'
_cell_length_a   5.29912149
_cell_length_b   5.11203092
_cell_length_c   7.19293670
_cell_angle_alpha   102.26704644
_cell_angle_beta   106.34447081
_cell_angle_gamma   101.53620391
_symmetry_Int_Tables_number   1
_chemical_formula_structural   Li3Ti2(As3O2)2
_chemical_formula_sum   'Li3 Ti2 As6 O4'
_cell_volume   175.55615752
_cell_formula_units_Z   1
loop_
 _symmetry_equiv_pos_site_id
 _symmetry_equiv_pos_as_xyz
  1  'x, y, z'
loop_
 _atom_site_type_symbol
 _atom_site_label
 _atom_site_symmetry_multiplicity
 _atom_site_fract_x
 _atom_site_fract_y
 _atom_site_fract_z
 _atom_site_occupancy
  Li  Li0  1  0.12500000  0.00000000  0.25000000  1
  Li  Li1  1  0.00000000  0.00000000  0.00000000  1
  Li  Li2  1  0.37500000  0.00000000  0.25000000  1
  Ti  Ti3  1  0.25000000  0.25000000  0.25000000  1
  Ti  Ti4  1  0.00000000  0.25000000  0.12500000  1
  As  As5  1  0.05946030  0.73968233  0.58762351  1
  As  As6  1  0.41505550  0.50807242  0.60086637  1
  As  As7  1  0.17711878  0.22075008  0.12764640  1
  As  As8  1  0.41026521  0.78140115  0.80281156  1
  As  As9  1  0.75756701  0.17184335  0.27700698  1
  As  As10  1  0.87151165  0.11971590  0.30620150  1
  O  O11  1  0.43469866  0.04319014  0.62979212  1
  O  O12  1  0.51993935  0.65896159  0.41448910  1
  O  O13  1  0.43609615  0.55120247  0.47190235  1
  O  O14  1  0.90893417  0.78243559  0.45913640  1
