# generated using pymatgen
data_Li2Ti(I2F)2
_symmetry_space_group_name_H-M   'P 1'
_cell_length_a   8.58851174
_cell_length_b   8.34972611
_cell_length_c   7.66622215
_cell_angle_alpha   90.10913150
_cell_angle_beta   90.51921455
_cell_angle_gamma   90.12476645
_symmetry_Int_Tables_number   1
_chemical_formula_structural   Li2Ti(I2F)2
_chemical_formula_sum   'Li2 Ti1 I4 F2'
_cell_volume   549.73308787
_cell_formula_units_Z   1
loop_
 _symmetry_equiv_pos_site_id
 _symmetry_equiv_pos_as_xyz
  1  'x, y, z'
loop_
 _atom_site_type_symbol
 _atom_site_label
 _atom_site_symmetry_multiplicity
 _atom_site_fract_x
 _atom_site_fract_y
 _atom_site_fract_z
 _atom_site_occupancy
  I  I0  1  0.00000000  0.00000000  0.00000000  1
  I  I1  1  0.33300000  0.66700000  0.25000000  1
  I  I2  1  0.66700000  0.33300000  0.50000000  1
  I  I3  1  0.00000000  0.00000000  0.75000000  1
  Li  Li4  1  0.68469916  0.59183312  0.91087832  1
  Li  Li5  1  0.29633826  0.35778946  0.96479995  1
  F  F6  1  0.59411816  0.90773410  0.73139026  1
  F  F7  1  0.09381376  0.51306139  0.67536857  1
  Ti  Ti8  1  0.51425448  0.33272240  0.01137877  1
