# generated using pymatgen
data_LiMn2Sb4P3
_symmetry_space_group_name_H-M   'P 1'
_cell_length_a   5.64737540
_cell_length_b   5.81156333
_cell_length_c   6.56884933
_cell_angle_alpha   96.76412180
_cell_angle_beta   92.57811459
_cell_angle_gamma   96.85504473
_symmetry_Int_Tables_number   1
_chemical_formula_structural   LiMn2Sb4P3
_chemical_formula_sum   'Li1 Mn2 Sb4 P3'
_cell_volume   212.17763291
_cell_formula_units_Z   1
loop_
 _symmetry_equiv_pos_site_id
 _symmetry_equiv_pos_as_xyz
  1  'x, y, z'
loop_
 _atom_site_type_symbol
 _atom_site_label
 _atom_site_symmetry_multiplicity
 _atom_site_fract_x
 _atom_site_fract_y
 _atom_site_fract_z
 _atom_site_occupancy
  Mn  Mn0  1  0.12500000  0.12500000  0.12500000  1
  Mn  Mn1  1  0.50000000  0.50000000  0.50000000  1
  Sb  Sb2  1  0.25000000  0.25000000  0.25000000  1
  Sb  Sb3  1  0.75000000  0.75000000  0.75000000  1
  Sb  Sb4  1  0.09350207  0.11542182  0.11302199  1
  Sb  Sb5  1  0.87712761  0.78643490  0.35305707  1
  P  P6  1  0.11087086  0.75167876  0.54654110  1
  P  P7  1  0.74450280  0.80955764  0.32429008  1
  P  P8  1  0.77169051  0.00893572  0.21198072  1
  Li  Li9  1  0.52768377  0.71855552  0.77620218  1
