# generated using pymatgen
data_Li2Sb5P2SeO3
_symmetry_space_group_name_H-M   'P 1'
_cell_length_a   8.17072454
_cell_length_b   7.80389726
_cell_length_c   6.88952750
_cell_angle_alpha   90.00000000
_cell_angle_beta   90.00000000
_cell_angle_gamma   90.00000000
_symmetry_Int_Tables_number   1
_chemical_formula_structural   Li2Sb5P2SeO3
_chemical_formula_sum   'Li2 Sb5 P2 Se1 O3'
_cell_volume   439.30035145
_cell_formula_units_Z   1
loop_
 _symmetry_equiv_pos_site_id
 _symmetry_equiv_pos_as_xyz
  1  'x, y, z'
loop_
 _atom_site_type_symbol
 _atom_site_label
 _atom_site_symmetry_multiplicity
 _atom_site_fract_x
 _atom_site_fract_y
 _atom_site_fract_z
 _atom_site_occupancy
  P  P0  1  0.00000000  0.00000000  0.00000000  1
  P  P1  1  0.50000000  0.50000000  0.50000000  1
  Sb  Sb2  1  0.50000000  0.50000000  0.00000000  1
  Sb  Sb3  1  0.50000000  0.00000000  0.50000000  1
  Sb  Sb4  1  0.00000000  0.50000000  0.50000000  1
  Sb  Sb5  1  0.41376286  0.65704098  0.45870284  1
  Sb  Sb6  1  0.43334984  0.38531095  0.73585863  1
  Li  Li7  1  0.35117368  0.58203481  0.20470628  1
  Li  Li8  1  0.06382224  0.57763979  0.33863063  1
  Se  Se9  1  0.19884294  0.73319400  0.22667031  1
  O  O10  1  0.74251163  0.18782637  0.87582139  1
  O  O11  1  0.22430549  0.76223397  0.71447594  1
  O  O12  1  0.75250294  0.09557237  0.36452801  1
