# generated using pymatgen
data_LiMn2Sb4P3
_symmetry_space_group_name_H-M   'P 1'
_cell_length_a   5.33976966
_cell_length_b   5.66265041
_cell_length_c   6.70351084
_cell_angle_alpha   95.52903567
_cell_angle_beta   94.14921339
_cell_angle_gamma   95.78367410
_symmetry_Int_Tables_number   1
_chemical_formula_structural   LiMn2Sb4P3
_chemical_formula_sum   'Li1 Mn2 Sb4 P3'
_cell_volume   200.03524662
_cell_formula_units_Z   1
loop_
 _symmetry_equiv_pos_site_id
 _symmetry_equiv_pos_as_xyz
  1  'x, y, z'
loop_
 _atom_site_type_symbol
 _atom_site_label
 _atom_site_symmetry_multiplicity
 _atom_site_fract_x
 _atom_site_fract_y
 _atom_site_fract_z
 _atom_site_occupancy
  Mn  Mn0  1  0.00000000  0.00000000  0.00000000  1
  Mn  Mn1  1  0.33300000  0.66700000  0.25000000  1
  Sb  Sb2  1  0.66700000  0.33300000  0.50000000  1
  Sb  Sb3  1  0.00000000  0.00000000  0.75000000  1
  Sb  Sb4  1  0.69112150  0.72208539  0.57088544  1
  Sb  Sb5  1  0.33581870  0.64705055  0.74058868  1
  P  P6  1  0.10131816  0.77864484  0.25114342  1
  P  P7  1  0.37483081  0.02910100  0.82849398  1
  P  P8  1  0.57326631  0.09530882  0.41240763  1
  Li  Li9  1  0.28313741  0.45497009  0.82952079  1
