# generated using pymatgen
data_Li2MnSb4P3
_symmetry_space_group_name_H-M   'P 1'
_cell_length_a   3.71929893
_cell_length_b   3.94479916
_cell_length_c   6.62802642
_cell_angle_alpha   101.68150842
_cell_angle_beta   99.89361081
_cell_angle_gamma   102.74571316
_symmetry_Int_Tables_number   1
_chemical_formula_structural   Li2MnSb4P3
_chemical_formula_sum   'Li2 Mn1 Sb4 P3'
_cell_volume   90.46763054
_cell_formula_units_Z   1
loop_
 _symmetry_equiv_pos_site_id
 _symmetry_equiv_pos_as_xyz
  1  'x, y, z'
loop_
 _atom_site_type_symbol
 _atom_site_label
 _atom_site_symmetry_multiplicity
 _atom_site_fract_x
 _atom_site_fract_y
 _atom_site_fract_z
 _atom_site_occupancy
  Mn  Mn0  1  0.12500000  0.00000000  0.25000000  1
  Sb  Sb1  1  0.00000000  0.00000000  0.00000000  1
  Sb  Sb2  1  0.37500000  0.00000000  0.25000000  1
  Sb  Sb3  1  0.25000000  0.25000000  0.25000000  1
  Sb  Sb4  1  0.00000000  0.25000000  0.12500000  1
  P  P5  1  0.20777336  0.37596969  0.81740061  1
  P  P6  1  0.27275627  0.09390600  0.71799110  1
  P  P7  1  0.01034352  0.34321373  0.94978097  1
  Li  Li8  1  0.72819938  0.69168239  0.11192711  1
  Li  Li9  1  0.98638164  0.73932998  0.07130238  1
