# generated using pymatgen
data_LiTiP3Se2O
_symmetry_space_group_name_H-M   'P 1'
_cell_length_a   8.56235527
_cell_length_b   8.40040655
_cell_length_c   7.21105760
_cell_angle_alpha   90.07827338
_cell_angle_beta   90.37240097
_cell_angle_gamma   90.08948737
_symmetry_Int_Tables_number   1
_chemical_formula_structural   LiTiP3Se2O
_chemical_formula_sum   'Li1 Ti1 P3 Se2 O1'
_cell_volume   518.65957354
_cell_formula_units_Z   1
loop_
 _symmetry_equiv_pos_site_id
 _symmetry_equiv_pos_as_xyz
  1  'x, y, z'
loop_
 _atom_site_type_symbol
 _atom_site_label
 _atom_site_symmetry_multiplicity
 _atom_site_fract_x
 _atom_site_fract_y
 _atom_site_fract_z
 _atom_site_occupancy
  P  P0  1  0.00000000  0.00000000  0.00000000  1
  P  P1  1  0.50000000  0.50000000  0.50000000  1
  P  P2  1  0.25000000  0.25000000  0.25000000  1
  Li  Li3  1  0.75000000  0.25000000  0.00000000  1
  Se  Se4  1  0.25000000  0.75000000  0.50000000  1
  Se  Se5  1  0.60293368  0.05457997  0.71235574  1
  Ti  Ti6  1  0.49164941  0.55932862  0.76980863  1
  O  O7  1  0.72976294  0.75667923  0.13211703  1
