# generated using pymatgen
data_Li2Nb2(OF)3
_symmetry_space_group_name_H-M   'P 1'
_cell_length_a   8.35733199
_cell_length_b   7.74519368
_cell_length_c   7.98422221
_cell_angle_alpha   90.00000000
_cell_angle_beta   90.00000000
_cell_angle_gamma   90.00000000
_symmetry_Int_Tables_number   1
_chemical_formula_structural   Li2Nb2(OF)3
_chemical_formula_sum   'Li2 Nb2 O3 F3'
_cell_volume   516.81195604
_cell_formula_units_Z   1
loop_
 _symmetry_equiv_pos_site_id
 _symmetry_equiv_pos_as_xyz
  1  'x, y, z'
loop_
 _atom_site_type_symbol
 _atom_site_label
 _atom_site_symmetry_multiplicity
 _atom_site_fract_x
 _atom_site_fract_y
 _atom_site_fract_z
 _atom_site_occupancy
  Li  Li0  1  0.12500000  0.12500000  0.12500000  1
  Li  Li1  1  0.50000000  0.50000000  0.50000000  1
  Nb  Nb2  1  0.25000000  0.25000000  0.25000000  1
  Nb  Nb3  1  0.75000000  0.75000000  0.75000000  1
  F  F4  1  0.41567562  0.28392649  0.87887993  1
  F  F5  1  0.77094102  0.85004881  0.13811903  1
  F  F6  1  0.26644167  0.65647324  0.69874574  1
  O  O7  1  0.08686773  0.91679488  0.43054653  1
  O  O8  1  0.38460831  0.09752692  0.69036832  1
  O  O9  1  0.65284849  0.67272953  0.64253413  1
