# generated using pymatgen
data_LiTi2S3F2
_symmetry_space_group_name_H-M   'P 1'
_cell_length_a   6.47897573
_cell_length_b   6.47234866
_cell_length_c   7.60250340
_cell_angle_alpha   91.20819995
_cell_angle_beta   95.74824844
_cell_angle_gamma   91.38129516
_symmetry_Int_Tables_number   1
_chemical_formula_structural   LiTi2S3F2
_chemical_formula_sum   'Li1 Ti2 S3 F2'
_cell_volume   317.02104982
_cell_formula_units_Z   1
loop_
 _symmetry_equiv_pos_site_id
 _symmetry_equiv_pos_as_xyz
  1  'x, y, z'
loop_
 _atom_site_type_symbol
 _atom_site_label
 _atom_site_symmetry_multiplicity
 _atom_site_fract_x
 _atom_site_fract_y
 _atom_site_fract_z
 _atom_site_occupancy
  Li  Li0  1  0.12500000  0.12500000  0.12500000  1
  F  F1  1  0.50000000  0.50000000  0.50000000  1
  F  F2  1  0.25000000  0.25000000  0.25000000  1
  S  S3  1  0.75000000  0.75000000  0.75000000  1
  S  S4  1  0.49833822  0.46207455  0.55819723  1
  S  S5  1  0.39447747  0.93104807  0.20882195  1
  Ti  Ti6  1  0.97246269  0.58910316  0.93714578  1
  Ti  Ti7  1  0.68849674  0.79540630  0.31213483  1
