# generated using pymatgen
data_Li4LuNi2P4N5
_symmetry_space_group_name_H-M   'P 1'
_cell_length_a   7.43249497
_cell_length_b   7.05219556
_cell_length_c   8.86811598
_cell_angle_alpha   93.49759716
_cell_angle_beta   91.23654746
_cell_angle_gamma   94.05678930
_symmetry_Int_Tables_number   1
_chemical_formula_structural   Li4LuNi2P4N5
_chemical_formula_sum   'Li4 Lu1 Ni2 P4 N5'
_cell_volume   462.64105756
_cell_formula_units_Z   1
loop_
 _symmetry_equiv_pos_site_id
 _symmetry_equiv_pos_as_xyz
  1  'x, y, z'
loop_
 _atom_site_type_symbol
 _atom_site_label
 _atom_site_symmetry_multiplicity
 _atom_site_fract_x
 _atom_site_fract_y
 _atom_site_fract_z
 _atom_site_occupancy
  P  P0  1  0.00000000  0.00000000  0.00000000  1
  P  P1  1  0.50000000  0.50000000  0.50000000  1
  P  P2  1  0.50000000  0.50000000  0.00000000  1
  P  P3  1  0.50000000  0.00000000  0.50000000  1
  Lu  Lu4  1  0.00000000  0.50000000  0.50000000  1
  Li  Li5  1  0.12994901  0.63304131  0.62174011  1
  Li  Li6  1  0.39128357  0.49041224  0.63357333  1
  Li  Li7  1  0.86113893  0.46591015  0.96092327  1
  Li  Li8  1  0.36065618  0.54520633  0.51366386  1
  Ni  Ni9  1  0.30013685  0.19492241  0.54482230  1
  Ni  Ni10  1  0.66011192  0.50848176  0.59287166  1
  N  N11  1  0.30078791  0.26115067  0.90155256  1
  N  N12  1  0.45465282  0.60152893  0.70215486  1
  N  N13  1  0.34613412  0.27006233  0.13461204  1
  N  N14  1  0.69033510  0.18045943  0.02248285  1
  N  N15  1  0.64943742  0.20751988  0.11538819  1
