# generated using pymatgen
data_Li2Mn2(SbP)3
_symmetry_space_group_name_H-M   'P 1'
_cell_length_a   6.60080146
_cell_length_b   7.16115526
_cell_length_c   7.29140173
_cell_angle_alpha   92.35983254
_cell_angle_beta   92.64925938
_cell_angle_gamma   92.62109654
_symmetry_Int_Tables_number   1
_chemical_formula_structural   Li2Mn2(SbP)3
_chemical_formula_sum   'Li2 Mn2 Sb3 P3'
_cell_volume   343.60758058
_cell_formula_units_Z   1
loop_
 _symmetry_equiv_pos_site_id
 _symmetry_equiv_pos_as_xyz
  1  'x, y, z'
loop_
 _atom_site_type_symbol
 _atom_site_label
 _atom_site_symmetry_multiplicity
 _atom_site_fract_x
 _atom_site_fract_y
 _atom_site_fract_z
 _atom_site_occupancy
  Mn  Mn0  1  0.12500000  0.00000000  0.25000000  1
  Mn  Mn1  1  0.00000000  0.00000000  0.00000000  1
  Sb  Sb2  1  0.37500000  0.00000000  0.25000000  1
  Sb  Sb3  1  0.25000000  0.25000000  0.25000000  1
  Sb  Sb4  1  0.00000000  0.25000000  0.12500000  1
  P  P5  1  0.36614033  0.15285807  0.28672330  1
  P  P6  1  0.15149304  0.19660103  0.89920845  1
  P  P7  1  0.45454752  0.73908319  0.50919975  1
  Li  Li8  1  0.66186032  0.24712683  0.39682568  1
  Li  Li9  1  0.67855706  0.76609578  0.39588045  1
