# generated using pymatgen
data_Li2MnSb4P3
_symmetry_space_group_name_H-M   'P 1'
_cell_length_a   7.36652752
_cell_length_b   7.64830621
_cell_length_c   7.65401591
_cell_angle_alpha   91.07983347
_cell_angle_beta   91.27916252
_cell_angle_gamma   91.22898381
_symmetry_Int_Tables_number   1
_chemical_formula_structural   Li2MnSb4P3
_chemical_formula_sum   'Li2 Mn1 Sb4 P3'
_cell_volume   430.95120844
_cell_formula_units_Z   1
loop_
 _symmetry_equiv_pos_site_id
 _symmetry_equiv_pos_as_xyz
  1  'x, y, z'
loop_
 _atom_site_type_symbol
 _atom_site_label
 _atom_site_symmetry_multiplicity
 _atom_site_fract_x
 _atom_site_fract_y
 _atom_site_fract_z
 _atom_site_occupancy
  Mn  Mn0  1  0.12500000  0.12500000  0.12500000  1
  Sb  Sb1  1  0.50000000  0.50000000  0.50000000  1
  Sb  Sb2  1  0.25000000  0.25000000  0.25000000  1
  Sb  Sb3  1  0.75000000  0.75000000  0.75000000  1
  Sb  Sb4  1  0.31759513  0.77216215  0.62447193  1
  P  P5  1  0.85143763  0.87886038  0.31933427  1
  P  P6  1  0.09519368  0.10790651  0.56758231  1
  P  P7  1  0.11290275  0.24608730  0.63572599  1
  Li  Li8  1  0.08490546  0.24149840  0.69296917  1
  Li  Li9  1  0.85041077  0.55013603  0.91527487  1
