# generated using pymatgen
data_Li2Ti(CuP2)2
_symmetry_space_group_name_H-M   'P 1'
_cell_length_a   6.92543887
_cell_length_b   6.91706629
_cell_length_c   7.38938160
_cell_angle_alpha   93.62878155
_cell_angle_beta   94.56329065
_cell_angle_gamma   94.20468094
_symmetry_Int_Tables_number   1
_chemical_formula_structural   Li2Ti(CuP2)2
_chemical_formula_sum   'Li2 Ti1 Cu2 P4'
_cell_volume   351.05533869
_cell_formula_units_Z   1
loop_
 _symmetry_equiv_pos_site_id
 _symmetry_equiv_pos_as_xyz
  1  'x, y, z'
loop_
 _atom_site_type_symbol
 _atom_site_label
 _atom_site_symmetry_multiplicity
 _atom_site_fract_x
 _atom_site_fract_y
 _atom_site_fract_z
 _atom_site_occupancy
  P  P0  1  0.00000000  0.00000000  0.00000000  1
  P  P1  1  0.33300000  0.66700000  0.25000000  1
  P  P2  1  0.66700000  0.33300000  0.50000000  1
  P  P3  1  0.00000000  0.00000000  0.75000000  1
  Li  Li4  1  0.69986770  0.92639148  0.74018541  1
  Li  Li5  1  0.88834224  0.94254615  0.16368091  1
  Cu  Cu6  1  0.82819403  0.33163038  0.39681101  1
  Cu  Cu7  1  0.10799920  0.33360558  0.86301889  1
  Ti  Ti8  1  0.98415654  0.87798472  0.47457197  1
