# generated using pymatgen
data_Li2MnSb4P3
_symmetry_space_group_name_H-M   'P 1'
_cell_length_a   7.25906257
_cell_length_b   7.34185695
_cell_length_c   7.70643596
_cell_angle_alpha   91.62257363
_cell_angle_beta   91.92208838
_cell_angle_gamma   91.84668912
_symmetry_Int_Tables_number   1
_chemical_formula_structural   Li2MnSb4P3
_chemical_formula_sum   'Li2 Mn1 Sb4 P3'
_cell_volume   410.09253183
_cell_formula_units_Z   1
loop_
 _symmetry_equiv_pos_site_id
 _symmetry_equiv_pos_as_xyz
  1  'x, y, z'
loop_
 _atom_site_type_symbol
 _atom_site_label
 _atom_site_symmetry_multiplicity
 _atom_site_fract_x
 _atom_site_fract_y
 _atom_site_fract_z
 _atom_site_occupancy
  Mn  Mn0  1  0.00000000  0.00000000  0.00000000  1
  Sb  Sb1  1  0.33300000  0.66700000  0.25000000  1
  Sb  Sb2  1  0.66700000  0.33300000  0.50000000  1
  Sb  Sb3  1  0.00000000  0.00000000  0.75000000  1
  Sb  Sb4  1  0.38986908  0.49411530  0.41719949  1
  P  P5  1  0.14289253  0.27273907  0.07266820  1
  P  P6  1  0.78660342  0.93469992  0.18623820  1
  P  P7  1  0.38227222  0.02491131  0.57274129  1
  Li  Li8  1  0.30489926  0.83469746  0.81104527  1
  Li  Li9  1  0.62433109  0.00845535  0.45915867  1
