# generated using pymatgen
data_Li2I4N5(ClO2)2
_symmetry_space_group_name_H-M   'P 1'
_cell_length_a   8.43116191
_cell_length_b   8.20882285
_cell_length_c   8.17489932
_cell_angle_alpha   92.60408360
_cell_angle_beta   93.24571681
_cell_angle_gamma   92.65330640
_symmetry_Int_Tables_number   1
_chemical_formula_structural   Li2I4N5(ClO2)2
_chemical_formula_sum   'Li2 I4 N5 Cl2 O4'
_cell_volume   563.61551163
_cell_formula_units_Z   1
loop_
 _symmetry_equiv_pos_site_id
 _symmetry_equiv_pos_as_xyz
  1  'x, y, z'
loop_
 _atom_site_type_symbol
 _atom_site_label
 _atom_site_symmetry_multiplicity
 _atom_site_fract_x
 _atom_site_fract_y
 _atom_site_fract_z
 _atom_site_occupancy
  I  I0  1  0.00000000  0.00000000  0.00000000  1
  I  I1  1  0.50000000  0.50000000  0.50000000  1
  I  I2  1  0.25000000  0.25000000  0.25000000  1
  I  I3  1  0.75000000  0.25000000  0.00000000  1
  Li  Li4  1  0.25000000  0.75000000  0.50000000  1
  Li  Li5  1  0.76505218  0.90604686  0.97436897  1
  Cl  Cl6  1  0.69304407  0.71209116  0.84499733  1
  Cl  Cl7  1  0.56951934  0.02867294  0.02354125  1
  O  O8  1  0.24234229  0.80586114  0.70649258  1
  O  O9  1  0.63184578  0.87350847  0.29367419  1
  O  O10  1  0.74127649  0.16480532  0.21762133  1
  O  O11  1  0.48041734  0.31332360  0.72134135  1
  N  N12  1  0.05444296  0.03927372  0.72786833  1
  N  N13  1  0.89118462  0.11500081  0.29865760  1
  N  N14  1  0.89340744  0.07667194  0.22099916  1
  N  N15  1  0.78317688  0.62780112  0.49736850  1
  N  N16  1  0.15042299  0.87012382  0.10512050  1
