# generated using pymatgen
data_Li3LuCu2(NiP2)2
_symmetry_space_group_name_H-M   'P 1'
_cell_length_a   7.54132301
_cell_length_b   7.31396420
_cell_length_c   8.03571032
_cell_angle_alpha   91.74478326
_cell_angle_beta   91.48073858
_cell_angle_gamma   92.02047890
_symmetry_Int_Tables_number   1
_chemical_formula_structural   Li3LuCu2(NiP2)2
_chemical_formula_sum   'Li3 Lu1 Cu2 Ni2 P4'
_cell_volume   442.58374482
_cell_formula_units_Z   1
loop_
 _symmetry_equiv_pos_site_id
 _symmetry_equiv_pos_as_xyz
  1  'x, y, z'
loop_
 _atom_site_type_symbol
 _atom_site_label
 _atom_site_symmetry_multiplicity
 _atom_site_fract_x
 _atom_site_fract_y
 _atom_site_fract_z
 _atom_site_occupancy
  P  P0  1  0.00000000  0.00000000  0.00000000  1
  P  P1  1  0.50000000  0.50000000  0.50000000  1
  P  P2  1  0.50000000  0.50000000  0.00000000  1
  P  P3  1  0.50000000  0.00000000  0.50000000  1
  Lu  Lu4  1  0.00000000  0.50000000  0.50000000  1
  Li  Li5  1  0.06674168  0.95478193  0.14212222  1
  Li  Li6  1  0.49519580  0.12555933  0.41858599  1
  Li  Li7  1  0.64582611  0.55034797  0.38918310  1
  Cu  Cu8  1  0.02552146  0.41792399  0.25330392  1
  Cu  Cu9  1  0.70775196  0.65707868  0.03375065  1
  Ni  Ni10  1  0.76668907  0.44221352  0.17155811  1
  Ni  Ni11  1  0.62672151  0.72811439  0.13628439  1
