# generated using pymatgen
data_LiMnNi3Sb4P3
_symmetry_space_group_name_H-M   'P 1'
_cell_length_a   4.91409476
_cell_length_b   4.93735764
_cell_length_c   6.83878976
_cell_angle_alpha   97.51601488
_cell_angle_beta   96.67511947
_cell_angle_gamma   97.98592332
_symmetry_Int_Tables_number   1
_chemical_formula_structural   LiMnNi3Sb4P3
_chemical_formula_sum   'Li1 Mn1 Ni3 Sb4 P3'
_cell_volume   161.37234711
_cell_formula_units_Z   1
loop_
 _symmetry_equiv_pos_site_id
 _symmetry_equiv_pos_as_xyz
  1  'x, y, z'
loop_
 _atom_site_type_symbol
 _atom_site_label
 _atom_site_symmetry_multiplicity
 _atom_site_fract_x
 _atom_site_fract_y
 _atom_site_fract_z
 _atom_site_occupancy
  Mn  Mn0  1  0.00000000  0.00000000  0.00000000  1
  Sb  Sb1  1  0.50000000  0.50000000  0.50000000  1
  Sb  Sb2  1  0.25000000  0.25000000  0.25000000  1
  Sb  Sb3  1  0.75000000  0.25000000  0.00000000  1
  Sb  Sb4  1  0.25000000  0.75000000  0.50000000  1
  P  P5  1  0.27620000  0.99901688  0.94467103  1
  P  P6  1  0.94482008  0.06507019  0.46666433  1
  P  P7  1  0.36362547  0.78183070  0.61221409  1
  Li  Li8  1  0.44368159  0.32270330  0.96519921  1
  Ni  Ni9  1  0.82711894  0.98127625  0.46507070  1
  Ni  Ni10  1  0.07206309  0.86211123  0.37934156  1
  Ni  Ni11  1  0.05281915  0.83098279  0.02532816  1
