# generated using pymatgen
data_LiMn2Sb4P2N
_symmetry_space_group_name_H-M   'P 1'
_cell_length_a   6.00333428
_cell_length_b   6.42528102
_cell_length_c   6.73196545
_cell_angle_alpha   92.78501545
_cell_angle_beta   92.13963048
_cell_angle_gamma   93.00064917
_symmetry_Int_Tables_number   1
_chemical_formula_structural   LiMn2Sb4P2N
_chemical_formula_sum   'Li1 Mn2 Sb4 P2 N1'
_cell_volume   258.80344349
_cell_formula_units_Z   1
loop_
 _symmetry_equiv_pos_site_id
 _symmetry_equiv_pos_as_xyz
  1  'x, y, z'
loop_
 _atom_site_type_symbol
 _atom_site_label
 _atom_site_symmetry_multiplicity
 _atom_site_fract_x
 _atom_site_fract_y
 _atom_site_fract_z
 _atom_site_occupancy
  N  N0  1  0.00000000  0.00000000  0.00000000  1
  Mn  Mn1  1  0.50000000  0.50000000  0.50000000  1
  Mn  Mn2  1  0.50000000  0.50000000  0.00000000  1
  Sb  Sb3  1  0.50000000  0.00000000  0.50000000  1
  Sb  Sb4  1  0.00000000  0.50000000  0.50000000  1
  Sb  Sb5  1  0.95627287  0.95327724  0.43874142  1
  Sb  Sb6  1  0.54979562  0.64045788  0.64312038  1
  P  P7  1  0.41061962  0.58274171  0.51829180  1
  P  P8  1  0.11721806  0.24925965  0.99434696  1
  Li  Li9  1  0.02876299  0.10559778  0.61613417  1
