# generated using pymatgen
data_Li2MnSb4Mo2P3
_symmetry_space_group_name_H-M   'P 1'
_cell_length_a   4.27600744
_cell_length_b   4.48663183
_cell_length_c   6.16907165
_cell_angle_alpha   103.57688574
_cell_angle_beta   93.50430847
_cell_angle_gamma   103.70040756
_symmetry_Int_Tables_number   1
_chemical_formula_structural   Li2MnSb4Mo2P3
_chemical_formula_sum   'Li2 Mn1 Sb4 Mo2 P3'
_cell_volume   110.91523808
_cell_formula_units_Z   1
loop_
 _symmetry_equiv_pos_site_id
 _symmetry_equiv_pos_as_xyz
  1  'x, y, z'
loop_
 _atom_site_type_symbol
 _atom_site_label
 _atom_site_symmetry_multiplicity
 _atom_site_fract_x
 _atom_site_fract_y
 _atom_site_fract_z
 _atom_site_occupancy
  Mn  Mn0  1  0.00000000  0.00000000  0.00000000  1
  Sb  Sb1  1  0.50000000  0.50000000  0.50000000  1
  Sb  Sb2  1  0.50000000  0.50000000  0.00000000  1
  Sb  Sb3  1  0.50000000  0.00000000  0.50000000  1
  Sb  Sb4  1  0.00000000  0.50000000  0.50000000  1
  P  P5  1  0.71757538  0.76528096  0.85318613  1
  P  P6  1  0.20281162  0.89062858  0.03836287  1
  P  P7  1  0.92423138  0.46943700  0.78072796  1
  Mo  Mo8  1  0.81068178  0.80833160  0.97707186  1
  Mo  Mo9  1  0.98122805  0.27200725  0.44005824  1
  Li  Li10  1  0.20317860  0.45263198  0.54580443  1
  Li  Li11  1  0.57639224  0.44074325  0.60888555  1
