# generated using pymatgen
data_Li2MnSb4P3
_symmetry_space_group_name_H-M   'P 1'
_cell_length_a   4.52045044
_cell_length_b   4.81024214
_cell_length_c   6.17021637
_cell_angle_alpha   98.64658137
_cell_angle_beta   97.05927483
_cell_angle_gamma   97.91425890
_symmetry_Int_Tables_number   1
_chemical_formula_structural   Li2MnSb4P3
_chemical_formula_sum   'Li2 Mn1 Sb4 P3'
_cell_volume   129.95944250
_cell_formula_units_Z   1
loop_
 _symmetry_equiv_pos_site_id
 _symmetry_equiv_pos_as_xyz
  1  'x, y, z'
loop_
 _atom_site_type_symbol
 _atom_site_label
 _atom_site_symmetry_multiplicity
 _atom_site_fract_x
 _atom_site_fract_y
 _atom_site_fract_z
 _atom_site_occupancy
  Mn  Mn0  1  0.00000000  0.00000000  0.00000000  1
  Sb  Sb1  1  0.33300000  0.66700000  0.25000000  1
  Sb  Sb2  1  0.66700000  0.33300000  0.50000000  1
  Sb  Sb3  1  0.00000000  0.00000000  0.75000000  1
  Sb  Sb4  1  0.66778450  0.03985142  0.32276581  1
  P  P5  1  0.57098409  0.68558466  0.41930664  1
  P  P6  1  0.96802247  0.92235104  0.23766771  1
  P  P7  1  0.98525925  0.90838812  0.70567933  1
  Li  Li8  1  0.36487995  0.53138806  0.34955256  1
  Li  Li9  1  0.33471402  0.53947620  0.05256874  1
