# generated using pymatgen
data_Li2TiI4(OF)2
_symmetry_space_group_name_H-M   'P 1'
_cell_length_a   8.22530626
_cell_length_b   8.02394010
_cell_length_c   7.59991361
_cell_angle_alpha   90.20387338
_cell_angle_beta   90.96996761
_cell_angle_gamma   90.23308171
_symmetry_Int_Tables_number   1
_chemical_formula_structural   Li2TiI4(OF)2
_chemical_formula_sum   'Li2 Ti1 I4 O2 F2'
_cell_volume   501.51014577
_cell_formula_units_Z   1
loop_
 _symmetry_equiv_pos_site_id
 _symmetry_equiv_pos_as_xyz
  1  'x, y, z'
loop_
 _atom_site_type_symbol
 _atom_site_label
 _atom_site_symmetry_multiplicity
 _atom_site_fract_x
 _atom_site_fract_y
 _atom_site_fract_z
 _atom_site_occupancy
  I  I0  1  0.12500000  0.00000000  0.25000000  1
  I  I1  1  0.00000000  0.00000000  0.00000000  1
  I  I2  1  0.37500000  0.00000000  0.25000000  1
  I  I3  1  0.25000000  0.25000000  0.25000000  1
  Li  Li4  1  0.00000000  0.25000000  0.12500000  1
  Li  Li5  1  0.28063236  0.77451080  0.96070855  1
  F  F6  1  0.80168508  0.44544162  0.81956253  1
  F  F7  1  0.09133360  0.04925300  0.62669743  1
  Ti  Ti8  1  0.68756026  0.59167788  0.33466532  1
  O  O9  1  0.19750926  0.73585917  0.38366166  1
  O  O10  1  0.28488081  0.37971138  0.81094337  1
