# generated using pymatgen
data_Li3Ni2As6P4N5
_symmetry_space_group_name_H-M   'P 1'
_cell_length_a   7.78661856
_cell_length_b   7.57969976
_cell_length_c   9.06246471
_cell_angle_alpha   92.42190505
_cell_angle_beta   92.21356062
_cell_angle_gamma   92.65162879
_symmetry_Int_Tables_number   1
_chemical_formula_structural   Li3Ni2As6P4N5
_chemical_formula_sum   'Li3 Ni2 As6 P4 N5'
_cell_volume   533.37738066
_cell_formula_units_Z   1
loop_
 _symmetry_equiv_pos_site_id
 _symmetry_equiv_pos_as_xyz
  1  'x, y, z'
loop_
 _atom_site_type_symbol
 _atom_site_label
 _atom_site_symmetry_multiplicity
 _atom_site_fract_x
 _atom_site_fract_y
 _atom_site_fract_z
 _atom_site_occupancy
  P  P0  1  0.00000000  0.00000000  0.00000000  1
  P  P1  1  0.50000000  0.50000000  0.50000000  1
  P  P2  1  0.25000000  0.25000000  0.25000000  1
  P  P3  1  0.75000000  0.25000000  0.00000000  1
  Li  Li4  1  0.25000000  0.75000000  0.50000000  1
  Li  Li5  1  0.37941977  0.46014989  0.98153836  1
  Li  Li6  1  0.65544923  0.92093674  0.74204914  1
  Ni  Ni7  1  0.97166240  0.18647690  0.35993744  1
  Ni  Ni8  1  0.43909596  0.54181899  0.95931001  1
  As  As9  1  0.35422834  0.55679272  0.95049409  1
  As  As10  1  0.54397455  0.50724038  0.49113562  1
  As  As11  1  0.81981457  0.27696750  0.94876632  1
  As  As12  1  0.70292057  0.77663102  0.23252832  1
  As  As13  1  0.63286063  0.89045513  0.83641528  1
  As  As14  1  0.13726085  0.95037345  0.87634755  1
  N  N15  1  0.15138735  0.60257172  0.22763463  1
  N  N16  1  0.92183761  0.93250007  0.23565955  1
  N  N17  1  0.43669316  0.72178641  0.08298872  1
  N  N18  1  0.36846947  0.62552078  0.48393155  1
  N  N19  1  0.93436767  0.23370163  0.85739745  1
