# generated using pymatgen
data_Li3Lu(NiO2)2
_symmetry_space_group_name_H-M   'P 1'
_cell_length_a   8.04744066
_cell_length_b   7.89191995
_cell_length_c   8.08284879
_cell_angle_alpha   91.42435205
_cell_angle_beta   90.92987238
_cell_angle_gamma   91.65046798
_symmetry_Int_Tables_number   1
_chemical_formula_structural   Li3Lu(NiO2)2
_chemical_formula_sum   'Li3 Lu1 Ni2 O4'
_cell_volume   512.89449673
_cell_formula_units_Z   1
loop_
 _symmetry_equiv_pos_site_id
 _symmetry_equiv_pos_as_xyz
  1  'x, y, z'
loop_
 _atom_site_type_symbol
 _atom_site_label
 _atom_site_symmetry_multiplicity
 _atom_site_fract_x
 _atom_site_fract_y
 _atom_site_fract_z
 _atom_site_occupancy
  Lu  Lu0  1  0.00000000  0.00000000  0.00000000  1
  Li  Li1  1  0.33300000  0.66700000  0.25000000  1
  Li  Li2  1  0.66700000  0.33300000  0.50000000  1
  Li  Li3  1  0.00000000  0.00000000  0.75000000  1
  Ni  Ni4  1  0.04163121  0.03246856  0.07826493  1
  Ni  Ni5  1  0.32821654  0.94649260  0.15733911  1
  O  O6  1  0.23277896  0.11410867  0.26829745  1
  O  O7  1  0.59138771  0.23419878  0.28372366  1
  O  O8  1  0.90391121  0.13534105  0.78888869  1
  O  O9  1  0.72231463  0.40487006  0.93601642  1
