# generated using pymatgen
data_Li4Ti2Cu2SeO3
_symmetry_space_group_name_H-M   'P 1'
_cell_length_a   4.67061901
_cell_length_b   4.70026329
_cell_length_c   6.63322979
_cell_angle_alpha   104.76318521
_cell_angle_beta   109.44593931
_cell_angle_gamma   105.95524101
_symmetry_Int_Tables_number   1
_chemical_formula_structural   Li4Ti2Cu2SeO3
_chemical_formula_sum   'Li4 Ti2 Cu2 Se1 O3'
_cell_volume   122.01095766
_cell_formula_units_Z   1
loop_
 _symmetry_equiv_pos_site_id
 _symmetry_equiv_pos_as_xyz
  1  'x, y, z'
loop_
 _atom_site_type_symbol
 _atom_site_label
 _atom_site_symmetry_multiplicity
 _atom_site_fract_x
 _atom_site_fract_y
 _atom_site_fract_z
 _atom_site_occupancy
  Li  Li0  1  0.12500000  0.00000000  0.25000000  1
  Li  Li1  1  0.00000000  0.00000000  0.00000000  1
  Li  Li2  1  0.37500000  0.00000000  0.25000000  1
  Li  Li3  1  0.25000000  0.25000000  0.25000000  1
  Cu  Cu4  1  0.00000000  0.25000000  0.12500000  1
  Cu  Cu5  1  0.45256859  0.62264873  0.68555920  1
  Se  Se6  1  0.94068343  0.04297968  0.41711817  1
  Ti  Ti7  1  0.35163237  0.67018744  0.99538045  1
  Ti  Ti8  1  0.30617987  0.01172473  0.71625922  1
  O  O9  1  0.06056827  0.37050841  0.13329592  1
  O  O10  1  0.50606800  0.35726842  0.23130485  1
  O  O11  1  0.53834751  0.97434574  0.66812555  1
