# generated using pymatgen
data_Li3TiI4O4F3
_symmetry_space_group_name_H-M   'P 1'
_cell_length_a   7.55140966
_cell_length_b   7.43841761
_cell_length_c   7.07664041
_cell_angle_alpha   92.57548782
_cell_angle_beta   93.58481001
_cell_angle_gamma   92.36763031
_symmetry_Int_Tables_number   1
_chemical_formula_structural   Li3TiI4O4F3
_chemical_formula_sum   'Li3 Ti1 I4 O4 F3'
_cell_volume   395.93196447
_cell_formula_units_Z   1
loop_
 _symmetry_equiv_pos_site_id
 _symmetry_equiv_pos_as_xyz
  1  'x, y, z'
loop_
 _atom_site_type_symbol
 _atom_site_label
 _atom_site_symmetry_multiplicity
 _atom_site_fract_x
 _atom_site_fract_y
 _atom_site_fract_z
 _atom_site_occupancy
  I  I0  1  0.12500000  0.00000000  0.25000000  1
  I  I1  1  0.00000000  0.00000000  0.00000000  1
  I  I2  1  0.37500000  0.00000000  0.25000000  1
  I  I3  1  0.25000000  0.25000000  0.25000000  1
  Li  Li4  1  0.00000000  0.25000000  0.12500000  1
  Li  Li5  1  0.93812545  0.63724801  0.81816119  1
  Li  Li6  1  0.35224878  0.10476599  0.95546508  1
  F  F7  1  0.14229592  0.40270030  0.42341857  1
  F  F8  1  0.06056397  0.92173667  0.82235953  1
  F  F9  1  0.85171172  0.70406251  0.32966276  1
  Ti  Ti10  1  0.43648635  0.13495415  0.23540693  1
  O  O11  1  0.03409521  0.33804379  0.60707440  1
  O  O12  1  0.65819072  0.80047997  0.50233210  1
  O  O13  1  0.06683625  0.87934286  0.32737553  1
  O  O14  1  0.80800647  0.19644409  0.96971719  1
