# generated using pymatgen
data_Li3LuNi2As6O7
_symmetry_space_group_name_H-M   'P 1'
_cell_length_a   8.04666859
_cell_length_b   7.89172074
_cell_length_c   9.36203429
_cell_angle_alpha   90.75655723
_cell_angle_beta   90.49390996
_cell_angle_gamma   90.87666071
_symmetry_Int_Tables_number   1
_chemical_formula_structural   Li3LuNi2As6O7
_chemical_formula_sum   'Li3 Lu1 Ni2 As6 O7'
_cell_volume   594.36392592
_cell_formula_units_Z   1
loop_
 _symmetry_equiv_pos_site_id
 _symmetry_equiv_pos_as_xyz
  1  'x, y, z'
loop_
 _atom_site_type_symbol
 _atom_site_label
 _atom_site_symmetry_multiplicity
 _atom_site_fract_x
 _atom_site_fract_y
 _atom_site_fract_z
 _atom_site_occupancy
  Lu  Lu0  1  0.00000000  0.00000000  0.00000000  1
  Li  Li1  1  0.50000000  0.50000000  0.50000000  1
  Li  Li2  1  0.50000000  0.50000000  0.00000000  1
  Li  Li3  1  0.50000000  0.00000000  0.50000000  1
  Ni  Ni4  1  0.00000000  0.50000000  0.50000000  1
  Ni  Ni5  1  0.57638586  0.82511955  0.37216687  1
  As  As6  1  0.51189372  0.68355757  0.62515271  1
  As  As7  1  0.38110561  0.60751347  0.52824681  1
  As  As8  1  0.21792699  0.20987817  0.25549785  1
  As  As9  1  0.03382315  0.84550262  0.54628196  1
  As  As10  1  0.81066521  0.22937879  0.53814427  1
  As  As11  1  0.43399363  0.42491675  0.20032422  1
  O  O12  1  0.42373179  0.68145934  0.40929245  1
  O  O13  1  0.13548164  0.65079678  0.39255154  1
  O  O14  1  0.69207688  0.08669481  0.74936419  1
  O  O15  1  0.88411731  0.46742943  0.66363215  1
  O  O16  1  0.62970179  0.64037464  0.07805730  1
  O  O17  1  0.89536717  0.99714899  0.55213500  1
  O  O18  1  0.94143776  0.34727279  0.41873352  1
