# generated using pymatgen
data_Li2Cu2Ni2As6N5
_symmetry_space_group_name_H-M   'P 1'
_cell_length_a   7.48968938
_cell_length_b   7.32793410
_cell_length_c   8.67264504
_cell_angle_alpha   91.81181274
_cell_angle_beta   92.00444132
_cell_angle_gamma   92.08837354
_symmetry_Int_Tables_number   1
_chemical_formula_structural   Li2Cu2Ni2As6N5
_chemical_formula_sum   'Li2 Cu2 Ni2 As6 N5'
_cell_volume   475.12394348
_cell_formula_units_Z   1
loop_
 _symmetry_equiv_pos_site_id
 _symmetry_equiv_pos_as_xyz
  1  'x, y, z'
loop_
 _atom_site_type_symbol
 _atom_site_label
 _atom_site_symmetry_multiplicity
 _atom_site_fract_x
 _atom_site_fract_y
 _atom_site_fract_z
 _atom_site_occupancy
  Li  Li0  1  0.12500000  0.00000000  0.25000000  1
  Li  Li1  1  0.00000000  0.00000000  0.00000000  1
  Cu  Cu2  1  0.37500000  0.00000000  0.25000000  1
  Cu  Cu3  1  0.25000000  0.25000000  0.25000000  1
  Ni  Ni4  1  0.00000000  0.25000000  0.12500000  1
  Ni  Ni5  1  0.05902062  0.16634743  0.54327995  1
  As  As6  1  0.52203787  0.12482148  0.92634931  1
  As  As7  1  0.37641027  0.25463850  0.15409476  1
  As  As8  1  0.17959081  0.20224052  0.71919057  1
  As  As9  1  0.08830444  0.69908025  0.19400900  1
  As  As10  1  0.61938862  0.60263629  0.75340291  1
  As  As11  1  0.13280631  0.42633556  0.28454076  1
  N  N12  1  0.74451948  0.22021699  0.08521619  1
  N  N13  1  0.05836667  0.18268700  0.48891364  1
  N  N14  1  0.45346649  0.72857769  0.30351514  1
  N  N15  1  0.14294069  0.38667447  0.09545852  1
  N  N16  1  0.07565581  0.01077687  0.54032038  1
