# generated using pymatgen
data_Li2TiNb2I4O3
_symmetry_space_group_name_H-M   'P 1'
_cell_length_a   7.22378476
_cell_length_b   7.01893431
_cell_length_c   7.50811693
_cell_angle_alpha   90.62911224
_cell_angle_beta   92.99312498
_cell_angle_gamma   90.71924328
_symmetry_Int_Tables_number   1
_chemical_formula_structural   Li2TiNb2I4O3
_chemical_formula_sum   'Li2 Ti1 Nb2 I4 O3'
_cell_volume   380.11099555
_cell_formula_units_Z   1
loop_
 _symmetry_equiv_pos_site_id
 _symmetry_equiv_pos_as_xyz
  1  'x, y, z'
loop_
 _atom_site_type_symbol
 _atom_site_label
 _atom_site_symmetry_multiplicity
 _atom_site_fract_x
 _atom_site_fract_y
 _atom_site_fract_z
 _atom_site_occupancy
  I  I0  1  0.12500000  0.00000000  0.25000000  1
  I  I1  1  0.00000000  0.00000000  0.00000000  1
  I  I2  1  0.37500000  0.00000000  0.25000000  1
  I  I3  1  0.25000000  0.25000000  0.25000000  1
  Li  Li4  1  0.00000000  0.25000000  0.12500000  1
  Li  Li5  1  0.22118516  0.03493209  0.46889062  1
  Nb  Nb6  1  0.58031370  0.16256521  0.86567426  1
  Nb  Nb7  1  0.85248557  0.51403496  0.50756908  1
  Ti  Ti8  1  0.51024176  0.14180305  0.80466862  1
  O  O9  1  0.58533391  0.41647261  0.33853086  1
  O  O10  1  0.21265107  0.91044884  0.29935907  1
  O  O11  1  0.31300364  0.29517860  0.74947296  1
