# generated using pymatgen
data_Li2LuNi2P4N5
_symmetry_space_group_name_H-M   'P 1'
_cell_length_a   7.44484549
_cell_length_b   7.24149856
_cell_length_c   8.73395968
_cell_angle_alpha   92.56958265
_cell_angle_beta   91.56389478
_cell_angle_gamma   92.97793257
_symmetry_Int_Tables_number   1
_chemical_formula_structural   Li2LuNi2P4N5
_chemical_formula_sum   'Li2 Lu1 Ni2 P4 N5'
_cell_volume   469.54806361
_cell_formula_units_Z   1
loop_
 _symmetry_equiv_pos_site_id
 _symmetry_equiv_pos_as_xyz
  1  'x, y, z'
loop_
 _atom_site_type_symbol
 _atom_site_label
 _atom_site_symmetry_multiplicity
 _atom_site_fract_x
 _atom_site_fract_y
 _atom_site_fract_z
 _atom_site_occupancy
  P  P0  1  0.00000000  0.00000000  0.00000000  1
  P  P1  1  0.50000000  0.50000000  0.50000000  1
  P  P2  1  0.50000000  0.50000000  0.00000000  1
  P  P3  1  0.50000000  0.00000000  0.50000000  1
  Lu  Lu4  1  0.00000000  0.50000000  0.50000000  1
  Li  Li5  1  0.90303898  0.10930796  0.60083738  1
  Li  Li6  1  0.42460176  0.77806725  0.33203749  1
  Ni  Ni7  1  0.60533429  0.07578777  0.05801376  1
  Ni  Ni8  1  0.93355188  0.41387497  0.24890862  1
  N  N9  1  0.77866732  0.34355232  0.18109303  1
  N  N10  1  0.44014368  0.94664480  0.87940357  1
  N  N11  1  0.46121579  0.52895798  0.29335758  1
  N  N12  1  0.61006757  0.24996076  0.48379202  1
  N  N13  1  0.86054333  0.54150927  0.89323635  1
