# generated using pymatgen
data_Li4LuNi2P4N5
_symmetry_space_group_name_H-M   'P 1'
_cell_length_a   7.43249497
_cell_length_b   7.05219556
_cell_length_c   8.86811598
_cell_angle_alpha   93.49759716
_cell_angle_beta   91.23654746
_cell_angle_gamma   94.05678930
_symmetry_Int_Tables_number   1
_chemical_formula_structural   Li4LuNi2P4N5
_chemical_formula_sum   'Li4 Lu1 Ni2 P4 N5'
_cell_volume   462.64105756
_cell_formula_units_Z   1
loop_
 _symmetry_equiv_pos_site_id
 _symmetry_equiv_pos_as_xyz
  1  'x, y, z'
loop_
 _atom_site_type_symbol
 _atom_site_label
 _atom_site_symmetry_multiplicity
 _atom_site_fract_x
 _atom_site_fract_y
 _atom_site_fract_z
 _atom_site_occupancy
  P  P0  1  0.12500000  0.00000000  0.25000000  1
  P  P1  1  0.00000000  0.00000000  0.00000000  1
  P  P2  1  0.37500000  0.00000000  0.25000000  1
  P  P3  1  0.25000000  0.25000000  0.25000000  1
  Lu  Lu4  1  0.00000000  0.25000000  0.12500000  1
  Li  Li5  1  0.91878966  0.13061500  0.65611870  1
  Li  Li6  1  0.83751099  0.93848986  0.69026068  1
  Li  Li7  1  0.04374990  0.81921168  0.78139199  1
  Li  Li8  1  0.55967757  0.13382774  0.65851606  1
  Ni  Ni9  1  0.96529695  0.23571077  0.77168613  1
  Ni  Ni10  1  0.06728951  0.31863697  0.47187321  1
  N  N11  1  0.06804804  0.13829405  0.52437799  1
  N  N12  1  0.50463467  0.90719391  0.50667583  1
  N  N13  1  0.46902269  0.06622061  0.30096564  1
  N  N14  1  0.07662122  0.10013991  0.07853707  1
  N  N15  1  0.04766834  0.79617786  0.73396233  1
