# generated using pymatgen
data_Li3Cu2As6P8O3
_symmetry_space_group_name_H-M   'P 1'
_cell_length_a   8.22050799
_cell_length_b   8.37314286
_cell_length_c   9.12751852
_cell_angle_alpha   90.00000000
_cell_angle_beta   90.00000000
_cell_angle_gamma   90.00000000
_symmetry_Int_Tables_number   1
_chemical_formula_structural   Li3Cu2As6P8O3
_chemical_formula_sum   'Li3 Cu2 As6 P8 O3'
_cell_volume   628.26067941
_cell_formula_units_Z   1
loop_
 _symmetry_equiv_pos_site_id
 _symmetry_equiv_pos_as_xyz
  1  'x, y, z'
loop_
 _atom_site_type_symbol
 _atom_site_label
 _atom_site_symmetry_multiplicity
 _atom_site_fract_x
 _atom_site_fract_y
 _atom_site_fract_z
 _atom_site_occupancy
  P  P0  1  0.12500000  0.00000000  0.25000000  1
  P  P1  1  0.00000000  0.00000000  0.00000000  1
  P  P2  1  0.37500000  0.00000000  0.25000000  1
  P  P3  1  0.25000000  0.25000000  0.25000000  1
  P  P4  1  0.00000000  0.25000000  0.12500000  1
  P  P5  1  0.08751427  0.75137702  0.80935628  1
  P  P6  1  0.12832831  0.97006743  0.51945403  1
  P  P7  1  0.50800348  0.57543006  0.82470547  1
  Li  Li8  1  0.16161803  0.19691413  0.14488192  1
  Li  Li9  1  0.62125940  0.63624695  0.81213449  1
  Li  Li10  1  0.48089426  0.26994291  0.59869874  1
  Cu  Cu11  1  0.79548297  0.14391763  0.77067303  1
  Cu  Cu12  1  0.57974833  0.23483173  0.44577950  1
  As  As13  1  0.73685336  0.19674898  0.67039954  1
  As  As14  1  0.47202810  0.04422836  0.61831663  1
  As  As15  1  0.54201750  0.96823869  0.55928178  1
  As  As16  1  0.33224338  0.20892122  0.13177788  1
  As  As17  1  0.26591457  0.62840255  0.26552220  1
  As  As18  1  0.83035663  0.07124351  0.58805994  1
  O  O19  1  0.11064953  0.35427127  0.75054907  1
  O  O20  1  0.65831181  0.48145761  0.15898777  1
  O  O21  1  0.19696668  0.92710332  0.27392565  1
