# generated using pymatgen
data_LiSe7OF4
_symmetry_space_group_name_H-M   'P 1'
_cell_length_a   6.73042537
_cell_length_b   6.15840449
_cell_length_c   5.83347635
_cell_angle_alpha   90.09201655
_cell_angle_beta   88.48120939
_cell_angle_gamma   89.38443377
_symmetry_Int_Tables_number   1
_chemical_formula_structural   LiSe7OF4
_chemical_formula_sum   'Li1 Se7 O1 F4'
_cell_volume   241.69057969
_cell_formula_units_Z   1
loop_
 _symmetry_equiv_pos_site_id
 _symmetry_equiv_pos_as_xyz
  1  'x, y, z'
loop_
 _atom_site_type_symbol
 _atom_site_label
 _atom_site_symmetry_multiplicity
 _atom_site_fract_x
 _atom_site_fract_y
 _atom_site_fract_z
 _atom_site_occupancy
  Se  Se0  1  0.00000000  0.00000000  0.00000000  1
  Se  Se1  1  0.50000000  0.50000000  0.50000000  1
  Se  Se2  1  0.50000000  0.50000000  0.00000000  1
  Se  Se3  1  0.50000000  0.00000000  0.50000000  1
  Se  Se4  1  0.00000000  0.50000000  0.50000000  1
  Se  Se5  1  0.41440119  0.26602951  0.25472783  1
  Se  Se6  1  0.54449130  0.69698065  0.82322668  1
  F  F7  1  0.37186786  0.30403890  0.50199600  1
  F  F8  1  0.80754192  0.63629273  0.91603063  1
  F  F9  1  0.03587140  0.53266452  0.70047451  1
  F  F10  1  0.26810637  0.55334836  0.99297981  1
  O  O11  1  0.78425871  0.61398858  0.13775699  1
  Li  Li12  1  0.90486483  0.73096891  0.60083514  1
