# generated using pymatgen
data_Li2TiCu2(OF)2
_symmetry_space_group_name_H-M   'P 1'
_cell_length_a   5.83451724
_cell_length_b   5.98069636
_cell_length_c   6.87076370
_cell_angle_alpha   97.32626895
_cell_angle_beta   100.38620599
_cell_angle_gamma   99.01017309
_symmetry_Int_Tables_number   1
_chemical_formula_structural   Li2TiCu2(OF)2
_chemical_formula_sum   'Li2 Ti1 Cu2 O2 F2'
_cell_volume   229.90046455
_cell_formula_units_Z   1
loop_
 _symmetry_equiv_pos_site_id
 _symmetry_equiv_pos_as_xyz
  1  'x, y, z'
loop_
 _atom_site_type_symbol
 _atom_site_label
 _atom_site_symmetry_multiplicity
 _atom_site_fract_x
 _atom_site_fract_y
 _atom_site_fract_z
 _atom_site_occupancy
  Li  Li0  1  0.12500000  0.00000000  0.25000000  1
  Li  Li1  1  0.00000000  0.00000000  0.00000000  1
  Cu  Cu2  1  0.37500000  0.00000000  0.25000000  1
  Cu  Cu3  1  0.25000000  0.25000000  0.25000000  1
  F  F4  1  0.00000000  0.25000000  0.12500000  1
  F  F5  1  0.39865621  0.15345617  0.03947753  1
  Ti  Ti6  1  0.45285631  0.13794250  0.18371480  1
  O  O7  1  0.48395152  0.01935994  0.98960528  1
  O  O8  1  0.43161768  0.79079787  0.73543019  1
