# generated using pymatgen
data_Li2MnSb4Mo2P3
_symmetry_space_group_name_H-M   'P 1'
_cell_length_a   4.22497332
_cell_length_b   4.52022115
_cell_length_c   6.81801166
_cell_angle_alpha   99.72914935
_cell_angle_beta   99.17881624
_cell_angle_gamma   100.74622451
_symmetry_Int_Tables_number   1
_chemical_formula_structural   Li2MnSb4Mo2P3
_chemical_formula_sum   'Li2 Mn1 Sb4 Mo2 P3'
_cell_volume   123.60795601
_cell_formula_units_Z   1
loop_
 _symmetry_equiv_pos_site_id
 _symmetry_equiv_pos_as_xyz
  1  'x, y, z'
loop_
 _atom_site_type_symbol
 _atom_site_label
 _atom_site_symmetry_multiplicity
 _atom_site_fract_x
 _atom_site_fract_y
 _atom_site_fract_z
 _atom_site_occupancy
  Mn  Mn0  1  0.12500000  0.00000000  0.25000000  1
  Sb  Sb1  1  0.00000000  0.00000000  0.00000000  1
  Sb  Sb2  1  0.37500000  0.00000000  0.25000000  1
  Sb  Sb3  1  0.25000000  0.25000000  0.25000000  1
  Sb  Sb4  1  0.00000000  0.25000000  0.12500000  1
  P  P5  1  0.30877582  0.10675238  0.59132539  1
  P  P6  1  0.62758435  0.39473371  0.69611590  1
  P  P7  1  0.33080191  0.07803846  0.36209514  1
  Mo  Mo8  1  0.04905408  0.31911022  0.88376465  1
  Mo  Mo9  1  0.27578809  0.97687477  0.20626248  1
  Li  Li10  1  0.58022216  0.93618269  0.51415153  1
  Li  Li11  1  0.57447145  0.27767075  0.29483717  1
