# generated using pymatgen
data_Li2Mn2Sb4P3
_symmetry_space_group_name_H-M   'P 1'
_cell_length_a   6.75665882
_cell_length_b   7.34991170
_cell_length_c   7.40553711
_cell_angle_alpha   92.15797565
_cell_angle_beta   92.55632155
_cell_angle_gamma   92.45604273
_symmetry_Int_Tables_number   1
_chemical_formula_structural   Li2Mn2Sb4P3
_chemical_formula_sum   'Li2 Mn2 Sb4 P3'
_cell_volume   366.77323271
_cell_formula_units_Z   1
loop_
 _symmetry_equiv_pos_site_id
 _symmetry_equiv_pos_as_xyz
  1  'x, y, z'
loop_
 _atom_site_type_symbol
 _atom_site_label
 _atom_site_symmetry_multiplicity
 _atom_site_fract_x
 _atom_site_fract_y
 _atom_site_fract_z
 _atom_site_occupancy
  Mn  Mn0  1  0.12500000  0.12500000  0.12500000  1
  Mn  Mn1  1  0.50000000  0.50000000  0.50000000  1
  Sb  Sb2  1  0.25000000  0.25000000  0.25000000  1
  Sb  Sb3  1  0.75000000  0.75000000  0.75000000  1
  Sb  Sb4  1  0.57281154  0.36102936  0.71243302  1
  Sb  Sb5  1  0.61238192  0.93695643  0.77957602  1
  P  P6  1  0.10915077  0.52110616  0.37968845  1
  P  P7  1  0.27483709  0.12139370  0.15661732  1
  P  P8  1  0.53330423  0.38753728  0.17479215  1
  Li  Li9  1  0.91244717  0.39371201  0.25582662  1
  Li  Li10  1  0.12026060  0.15288619  0.05142452  1
