# generated using pymatgen
data_LiMnSb2MoP
_symmetry_space_group_name_H-M   'P 1'
_cell_length_a   5.60380915
_cell_length_b   6.05756824
_cell_length_c   6.82001471
_cell_angle_alpha   97.19250275
_cell_angle_beta   95.80055813
_cell_angle_gamma   96.03117179
_symmetry_Int_Tables_number   1
_chemical_formula_structural   LiMnSb2MoP
_chemical_formula_sum   'Li2 Mn2 Sb4 Mo2 P2'
_cell_volume   226.87965333
_cell_formula_units_Z   2
loop_
 _symmetry_equiv_pos_site_id
 _symmetry_equiv_pos_as_xyz
  1  'x, y, z'
loop_
 _atom_site_type_symbol
 _atom_site_label
 _atom_site_symmetry_multiplicity
 _atom_site_fract_x
 _atom_site_fract_y
 _atom_site_fract_z
 _atom_site_occupancy
  Mn  Mn0  1  0.12500000  0.00000000  0.25000000  1
  Mn  Mn1  1  0.00000000  0.00000000  0.00000000  1
  Sb  Sb2  1  0.37500000  0.00000000  0.25000000  1
  Sb  Sb3  1  0.25000000  0.25000000  0.25000000  1
  Sb  Sb4  1  0.00000000  0.25000000  0.12500000  1
  Sb  Sb5  1  0.44804046  0.72741749  0.38375831  1
  P  P6  1  0.91104257  0.06935482  0.22689393  1
  P  P7  1  0.16060945  0.51852876  0.64413967  1
  Mo  Mo8  1  0.48010225  0.30459281  0.68284970  1
  Mo  Mo9  1  0.15845923  0.23180897  0.47050051  1
  Li  Li10  1  0.59191843  0.14886684  0.95064740  1
  Li  Li11  1  0.94748244  0.95216888  0.33849216  1
