# generated using pymatgen
data_Li2TiP3(SeO)2
_symmetry_space_group_name_H-M   'P 1'
_cell_length_a   7.78782817
_cell_length_b   7.58677053
_cell_length_c   8.11784753
_cell_angle_alpha   91.65119778
_cell_angle_beta   91.31439772
_cell_angle_gamma   91.91243369
_symmetry_Int_Tables_number   1
_chemical_formula_structural   Li2TiP3(SeO)2
_chemical_formula_sum   'Li2 Ti1 P3 Se2 O2'
_cell_volume   479.03532675
_cell_formula_units_Z   1
loop_
 _symmetry_equiv_pos_site_id
 _symmetry_equiv_pos_as_xyz
  1  'x, y, z'
loop_
 _atom_site_type_symbol
 _atom_site_label
 _atom_site_symmetry_multiplicity
 _atom_site_fract_x
 _atom_site_fract_y
 _atom_site_fract_z
 _atom_site_occupancy
  P  P0  1  0.00000000  0.00000000  0.00000000  1
  P  P1  1  0.50000000  0.50000000  0.50000000  1
  P  P2  1  0.50000000  0.50000000  0.00000000  1
  Li  Li3  1  0.50000000  0.00000000  0.50000000  1
  Li  Li4  1  0.00000000  0.50000000  0.50000000  1
  Se  Se5  1  0.89708405  0.85651406  0.89261984  1
  Se  Se6  1  0.75017518  0.03168874  0.02395940  1
  Ti  Ti7  1  0.42393161  0.64791789  0.48178217  1
  O  O8  1  0.23577304  0.97867825  0.10129657  1
  O  O9  1  0.03677031  0.80522071  0.92119837  1
