# generated using pymatgen
data_LiMn2Sb4P2N
_symmetry_space_group_name_H-M   'P 1'
_cell_length_a   6.02005611
_cell_length_b   6.44792297
_cell_length_c   6.73946723
_cell_angle_alpha   93.19901435
_cell_angle_beta   92.08053091
_cell_angle_gamma   93.30523620
_symmetry_Int_Tables_number   1
_chemical_formula_structural   LiMn2Sb4P2N
_chemical_formula_sum   'Li1 Mn2 Sb4 P2 N1'
_cell_volume   260.55775437
_cell_formula_units_Z   1
loop_
 _symmetry_equiv_pos_site_id
 _symmetry_equiv_pos_as_xyz
  1  'x, y, z'
loop_
 _atom_site_type_symbol
 _atom_site_label
 _atom_site_symmetry_multiplicity
 _atom_site_fract_x
 _atom_site_fract_y
 _atom_site_fract_z
 _atom_site_occupancy
  N  N0  1  0.00000000  0.00000000  0.00000000  1
  Mn  Mn1  1  0.50000000  0.50000000  0.50000000  1
  Mn  Mn2  1  0.50000000  0.50000000  0.00000000  1
  Sb  Sb3  1  0.50000000  0.00000000  0.50000000  1
  Sb  Sb4  1  0.00000000  0.50000000  0.50000000  1
  Sb  Sb5  1  0.04573146  0.44723352  0.91986811  1
  Sb  Sb6  1  0.83863796  0.97278140  0.63655636  1
  P  P7  1  0.54505644  0.28586878  0.62786465  1
  P  P8  1  0.74261368  0.59091398  0.96422770  1
  Li  Li9  1  0.18673721  0.81429478  0.74857888  1
