# generated using pymatgen
data_LiSb4Mo2P3
_symmetry_space_group_name_H-M   'P 1'
_cell_length_a   4.13561345
_cell_length_b   4.26021159
_cell_length_c   5.73593102
_cell_angle_alpha   103.55255674
_cell_angle_beta   91.43381244
_cell_angle_gamma   103.51270704
_symmetry_Int_Tables_number   1
_chemical_formula_structural   LiSb4Mo2P3
_chemical_formula_sum   'Li1 Sb4 Mo2 P3'
_cell_volume   95.18461917
_cell_formula_units_Z   1
loop_
 _symmetry_equiv_pos_site_id
 _symmetry_equiv_pos_as_xyz
  1  'x, y, z'
loop_
 _atom_site_type_symbol
 _atom_site_label
 _atom_site_symmetry_multiplicity
 _atom_site_fract_x
 _atom_site_fract_y
 _atom_site_fract_z
 _atom_site_occupancy
  Sb  Sb0  1  0.00000000  0.00000000  0.00000000  1
  Sb  Sb1  1  0.33300000  0.66700000  0.25000000  1
  Sb  Sb2  1  0.66700000  0.33300000  0.50000000  1
  Sb  Sb3  1  0.00000000  0.00000000  0.75000000  1
  P  P4  1  0.40174208  0.73946776  0.53818494  1
  P  P5  1  0.62189162  0.67263150  0.34600442  1
  P  P6  1  0.70107773  0.63755008  0.22814125  1
  Mo  Mo7  1  0.05534220  0.79056894  0.39723256  1
  Mo  Mo8  1  0.68826943  0.58882387  0.81393143  1
  Li  Li9  1  0.91375299  0.12420343  0.90339972  1
