# generated using pymatgen
data_Li2TiI4O2F3
_symmetry_space_group_name_H-M   'P 1'
_cell_length_a   6.69798606
_cell_length_b   6.59132474
_cell_length_c   7.08135265
_cell_angle_alpha   93.60005737
_cell_angle_beta   95.37273581
_cell_angle_gamma   93.33358855
_symmetry_Int_Tables_number   1
_chemical_formula_structural   Li2TiI4O2F3
_chemical_formula_sum   'Li2 Ti1 I4 O2 F3'
_cell_volume   309.99847471
_cell_formula_units_Z   1
loop_
 _symmetry_equiv_pos_site_id
 _symmetry_equiv_pos_as_xyz
  1  'x, y, z'
loop_
 _atom_site_type_symbol
 _atom_site_label
 _atom_site_symmetry_multiplicity
 _atom_site_fract_x
 _atom_site_fract_y
 _atom_site_fract_z
 _atom_site_occupancy
  I  I0  1  0.12500000  0.00000000  0.25000000  1
  I  I1  1  0.00000000  0.00000000  0.00000000  1
  I  I2  1  0.37500000  0.00000000  0.25000000  1
  I  I3  1  0.25000000  0.25000000  0.25000000  1
  Li  Li4  1  0.00000000  0.25000000  0.12500000  1
  Li  Li5  1  0.66814851  0.06813848  0.68295816  1
  F  F6  1  0.48424719  0.87961511  0.45849386  1
  F  F7  1  0.56329158  0.77906493  0.54700229  1
  F  F8  1  0.50469444  0.80226349  0.66895591  1
  Ti  Ti9  1  0.86877355  0.71201598  0.85613321  1
  O  O10  1  0.18692417  0.36314782  0.52408983  1
  O  O11  1  0.95491093  0.05217131  0.56745181  1
