# generated using pymatgen
data_Li2MnSb4Mo2P3
_symmetry_space_group_name_H-M   'P 1'
_cell_length_a   5.19606575
_cell_length_b   5.28990240
_cell_length_c   6.92124498
_cell_angle_alpha   98.60958939
_cell_angle_beta   95.18388321
_cell_angle_gamma   99.10037271
_symmetry_Int_Tables_number   1
_chemical_formula_structural   Li2MnSb4Mo2P3
_chemical_formula_sum   'Li2 Mn1 Sb4 Mo2 P3'
_cell_volume   184.45941038
_cell_formula_units_Z   1
loop_
 _symmetry_equiv_pos_site_id
 _symmetry_equiv_pos_as_xyz
  1  'x, y, z'
loop_
 _atom_site_type_symbol
 _atom_site_label
 _atom_site_symmetry_multiplicity
 _atom_site_fract_x
 _atom_site_fract_y
 _atom_site_fract_z
 _atom_site_occupancy
  Mn  Mn0  1  0.00000000  0.00000000  0.00000000  1
  Sb  Sb1  1  0.50000000  0.50000000  0.50000000  1
  Sb  Sb2  1  0.25000000  0.25000000  0.25000000  1
  Sb  Sb3  1  0.75000000  0.25000000  0.00000000  1
  Sb  Sb4  1  0.25000000  0.75000000  0.50000000  1
  P  P5  1  0.93680654  0.96620729  0.47666758  1
  P  P6  1  0.54522681  0.83697917  0.84177720  1
  P  P7  1  0.99293257  0.40342356  0.93910968  1
  Mo  Mo8  1  0.18703743  0.05060415  0.83043563  1
  Mo  Mo9  1  0.06182364  0.98205720  0.52251359  1
  Li  Li10  1  0.32392414  0.50077970  0.43847796  1
  Li  Li11  1  0.79408007  0.63444751  0.93496418  1
