# generated using pymatgen
data_LiMnSb4P3
_symmetry_space_group_name_H-M   'P 1'
_cell_length_a   5.84059165
_cell_length_b   6.06502189
_cell_length_c   6.77776260
_cell_angle_alpha   94.35297932
_cell_angle_beta   92.42011257
_cell_angle_gamma   94.37393256
_symmetry_Int_Tables_number   1
_chemical_formula_structural   LiMnSb4P3
_chemical_formula_sum   'Li1 Mn1 Sb4 P3'
_cell_volume   238.42249069
_cell_formula_units_Z   1
loop_
 _symmetry_equiv_pos_site_id
 _symmetry_equiv_pos_as_xyz
  1  'x, y, z'
loop_
 _atom_site_type_symbol
 _atom_site_label
 _atom_site_symmetry_multiplicity
 _atom_site_fract_x
 _atom_site_fract_y
 _atom_site_fract_z
 _atom_site_occupancy
  Mn  Mn0  1  0.00000000  0.00000000  0.00000000  1
  Sb  Sb1  1  0.33300000  0.66700000  0.25000000  1
  Sb  Sb2  1  0.66700000  0.33300000  0.50000000  1
  Sb  Sb3  1  0.00000000  0.00000000  0.75000000  1
  Sb  Sb4  1  0.56324011  0.41928060  0.00236614  1
  P  P5  1  0.18775568  0.84064088  0.14941753  1
  P  P6  1  0.77029927  0.06286646  0.38302233  1
  P  P7  1  0.09249740  0.97852716  0.79136488  1
  Li  Li8  1  0.10972522  0.78581397  0.54165781  1
