# generated using pymatgen
data_Li2Mn2Sb4P3
_symmetry_space_group_name_H-M   'P 1'
_cell_length_a   5.20972422
_cell_length_b   5.38269697
_cell_length_c   6.09107613
_cell_angle_alpha   98.82547735
_cell_angle_beta   94.22266338
_cell_angle_gamma   97.77544164
_symmetry_Int_Tables_number   1
_chemical_formula_structural   Li2Mn2Sb4P3
_chemical_formula_sum   'Li2 Mn2 Sb4 P3'
_cell_volume   166.45505765
_cell_formula_units_Z   1
loop_
 _symmetry_equiv_pos_site_id
 _symmetry_equiv_pos_as_xyz
  1  'x, y, z'
loop_
 _atom_site_type_symbol
 _atom_site_label
 _atom_site_symmetry_multiplicity
 _atom_site_fract_x
 _atom_site_fract_y
 _atom_site_fract_z
 _atom_site_occupancy
  Mn  Mn0  1  0.00000000  0.00000000  0.00000000  1
  Mn  Mn1  1  0.33300000  0.66700000  0.25000000  1
  Sb  Sb2  1  0.66700000  0.33300000  0.50000000  1
  Sb  Sb3  1  0.00000000  0.00000000  0.75000000  1
  Sb  Sb4  1  0.66225361  0.06201748  0.21636540  1
  Sb  Sb5  1  0.92257695  0.75855239  0.25352397  1
  P  P6  1  0.85536732  0.62151376  0.10330955  1
  P  P7  1  0.76144483  0.52252582  0.48466312  1
  P  P8  1  0.23232501  0.22534205  0.14953274  1
  Li  Li9  1  0.93181749  0.98194340  0.24237770  1
  Li  Li10  1  0.83471191  0.19020482  0.24403883  1
