# generated using pymatgen
data_Li2Mn2Sb4P3
_symmetry_space_group_name_H-M   'P 1'
_cell_length_a   5.82941574
_cell_length_b   6.32130290
_cell_length_c   7.24562209
_cell_angle_alpha   94.59606820
_cell_angle_beta   95.44446746
_cell_angle_gamma   95.23089309
_symmetry_Int_Tables_number   1
_chemical_formula_structural   Li2Mn2Sb4P3
_chemical_formula_sum   'Li2 Mn2 Sb4 P3'
_cell_volume   263.62255249
_cell_formula_units_Z   1
loop_
 _symmetry_equiv_pos_site_id
 _symmetry_equiv_pos_as_xyz
  1  'x, y, z'
loop_
 _atom_site_type_symbol
 _atom_site_label
 _atom_site_symmetry_multiplicity
 _atom_site_fract_x
 _atom_site_fract_y
 _atom_site_fract_z
 _atom_site_occupancy
  Mn  Mn0  1  0.12500000  0.00000000  0.25000000  1
  Mn  Mn1  1  0.00000000  0.00000000  0.00000000  1
  Sb  Sb2  1  0.37500000  0.00000000  0.25000000  1
  Sb  Sb3  1  0.25000000  0.25000000  0.25000000  1
  Sb  Sb4  1  0.00000000  0.25000000  0.12500000  1
  Sb  Sb5  1  0.90415627  0.59296212  0.95244929  1
  P  P6  1  0.10472700  0.99337322  0.78008673  1
  P  P7  1  0.24706166  0.47244834  0.93821279  1
  P  P8  1  0.26098598  0.39501236  0.53355840  1
  Li  Li9  1  0.28286510  0.27996441  0.52431734  1
  Li  Li10  1  0.99069158  0.24810831  0.79964704  1
