# generated using pymatgen
data_Li4Ni2As6O7
_symmetry_space_group_name_H-M   'P 1'
_cell_length_a   7.52434702
_cell_length_b   7.32323444
_cell_length_c   9.10572809
_cell_angle_alpha   93.97697131
_cell_angle_beta   95.07767895
_cell_angle_gamma   93.74120008
_symmetry_Int_Tables_number   1
_chemical_formula_structural   Li4Ni2As6O7
_chemical_formula_sum   'Li4 Ni2 As6 O7'
_cell_volume   497.28805578
_cell_formula_units_Z   1
loop_
 _symmetry_equiv_pos_site_id
 _symmetry_equiv_pos_as_xyz
  1  'x, y, z'
loop_
 _atom_site_type_symbol
 _atom_site_label
 _atom_site_symmetry_multiplicity
 _atom_site_fract_x
 _atom_site_fract_y
 _atom_site_fract_z
 _atom_site_occupancy
  Ni  Ni0  1  0.00000000  0.00000000  0.00000000  1
  Ni  Ni1  1  0.33300000  0.66700000  0.25000000  1
  O  O2  1  0.66700000  0.33300000  0.50000000  1
  O  O3  1  0.00000000  0.00000000  0.75000000  1
  O  O4  1  0.52604235  0.54795111  0.31537219  1
  O  O5  1  0.22099946  0.02591152  0.60631419  1
  O  O6  1  0.98305363  0.19239411  0.68611946  1
  O  O7  1  0.19450026  0.64619121  0.92037092  1
  O  O8  1  0.74251096  0.94068429  0.81976529  1
  As  As9  1  0.47794314  0.83007110  0.24704109  1
  As  As10  1  0.06526227  0.84617953  0.53280945  1
  As  As11  1  0.28526277  0.26680412  0.00043429  1
  As  As12  1  0.71079196  0.11518621  0.23921854  1
  As  As13  1  0.85867090  0.35804769  0.23391087  1
  As  As14  1  0.39327891  0.16822589  0.46249612  1
  Li  Li15  1  0.46663207  0.36586807  0.99887227  1
  Li  Li16  1  0.33105013  0.74145337  0.77670672  1
  Li  Li17  1  0.27606454  0.13747704  0.02220577  1
  Li  Li18  1  0.70459290  0.74107062  0.01251794  1
