# generated using pymatgen
data_Li2Mn2Sb4P3
_symmetry_space_group_name_H-M   'P 1'
_cell_length_a   5.00826305
_cell_length_b   5.30794402
_cell_length_c   6.37629825
_cell_angle_alpha   101.16454605
_cell_angle_beta   91.91102372
_cell_angle_gamma   101.13094574
_symmetry_Int_Tables_number   1
_chemical_formula_structural   Li2Mn2Sb4P3
_chemical_formula_sum   'Li2 Mn2 Sb4 P3'
_cell_volume   162.72766826
_cell_formula_units_Z   1
loop_
 _symmetry_equiv_pos_site_id
 _symmetry_equiv_pos_as_xyz
  1  'x, y, z'
loop_
 _atom_site_type_symbol
 _atom_site_label
 _atom_site_symmetry_multiplicity
 _atom_site_fract_x
 _atom_site_fract_y
 _atom_site_fract_z
 _atom_site_occupancy
  Mn  Mn0  1  0.00000000  0.00000000  0.00000000  1
  Mn  Mn1  1  0.33300000  0.66700000  0.25000000  1
  Sb  Sb2  1  0.66700000  0.33300000  0.50000000  1
  Sb  Sb3  1  0.00000000  0.00000000  0.75000000  1
  Sb  Sb4  1  0.90570189  0.34782071  0.53505723  1
  Sb  Sb5  1  0.19311849  0.40043717  0.01869416  1
  P  P6  1  0.45967837  0.66786843  0.48442767  1
  P  P7  1  0.53047420  0.04600574  0.25355883  1
  P  P8  1  0.97270438  0.59331709  0.66206643  1
  Li  Li9  1  0.71480223  0.18376329  0.22742365  1
  Li  Li10  1  0.64028568  0.49957810  0.07115028  1
