# generated using pymatgen
data_Li2MnSb4P2N5
_symmetry_space_group_name_H-M   'P 1'
_cell_length_a   5.97929985
_cell_length_b   6.31353263
_cell_length_c   7.15441119
_cell_angle_alpha   96.37069964
_cell_angle_beta   96.47567220
_cell_angle_gamma   94.65515579
_symmetry_Int_Tables_number   1
_chemical_formula_structural   Li2MnSb4P2N5
_chemical_formula_sum   'Li2 Mn1 Sb4 P2 N5'
_cell_volume   265.49962478
_cell_formula_units_Z   1
loop_
 _symmetry_equiv_pos_site_id
 _symmetry_equiv_pos_as_xyz
  1  'x, y, z'
loop_
 _atom_site_type_symbol
 _atom_site_label
 _atom_site_symmetry_multiplicity
 _atom_site_fract_x
 _atom_site_fract_y
 _atom_site_fract_z
 _atom_site_occupancy
  N  N0  1  0.00000000  0.00000000  0.00000000  1
  N  N1  1  0.50000000  0.50000000  0.50000000  1
  N  N2  1  0.25000000  0.25000000  0.25000000  1
  N  N3  1  0.75000000  0.25000000  0.00000000  1
  N  N4  1  0.25000000  0.75000000  0.50000000  1
  Mn  Mn5  1  0.28182870  0.71236047  0.04564824  1
  Sb  Sb6  1  0.75765223  0.51148776  0.78241883  1
  Sb  Sb7  1  0.60012175  0.01098659  0.96300094  1
  Sb  Sb8  1  0.84071002  0.62062652  0.84246772  1
  Sb  Sb9  1  0.41812299  0.46466476  0.70498284  1
  P  P10  1  0.28285391  0.74463530  0.38324607  1
  P  P11  1  0.88488014  0.15886439  0.38060085  1
  Li  Li12  1  0.69247589  0.84875083  0.77214490  1
  Li  Li13  1  0.89680288  0.92632649  0.89258483  1
