# generated using pymatgen
data_Li3Ti2O2
_symmetry_space_group_name_H-M   'P 1'
_cell_length_a   5.90410818
_cell_length_b   6.02115997
_cell_length_c   6.83967353
_cell_angle_alpha   98.20486345
_cell_angle_beta   100.96028667
_cell_angle_gamma   99.98287861
_symmetry_Int_Tables_number   1
_chemical_formula_structural   Li3Ti2O2
_chemical_formula_sum   'Li3 Ti2 O2'
_cell_volume   231.18522959
_cell_formula_units_Z   1
loop_
 _symmetry_equiv_pos_site_id
 _symmetry_equiv_pos_as_xyz
  1  'x, y, z'
loop_
 _atom_site_type_symbol
 _atom_site_label
 _atom_site_symmetry_multiplicity
 _atom_site_fract_x
 _atom_site_fract_y
 _atom_site_fract_z
 _atom_site_occupancy
  Li  Li0  1  0.00000000  0.00000000  0.00000000  1
  Li  Li1  1  0.50000000  0.50000000  0.50000000  1
  Li  Li2  1  0.25000000  0.25000000  0.25000000  1
  Ti  Ti3  1  0.75000000  0.25000000  0.00000000  1
  Ti  Ti4  1  0.25000000  0.75000000  0.50000000  1
  O  O5  1  0.22304644  0.52655110  0.00024892  1
  O  O6  1  0.99545356  0.63672206  0.95467270  1
