# generated using pymatgen
data_Li3Cu2(P3O)2
_symmetry_space_group_name_H-M   'P 1'
_cell_length_a   7.55310783
_cell_length_b   7.49018633
_cell_length_c   8.10189060
_cell_angle_alpha   93.78332205
_cell_angle_beta   95.07533783
_cell_angle_gamma   93.57328186
_symmetry_Int_Tables_number   1
_chemical_formula_structural   Li3Cu2(P3O)2
_chemical_formula_sum   'Li3 Cu2 P6 O2'
_cell_volume   454.49319114
_cell_formula_units_Z   1
loop_
 _symmetry_equiv_pos_site_id
 _symmetry_equiv_pos_as_xyz
  1  'x, y, z'
loop_
 _atom_site_type_symbol
 _atom_site_label
 _atom_site_symmetry_multiplicity
 _atom_site_fract_x
 _atom_site_fract_y
 _atom_site_fract_z
 _atom_site_occupancy
  P  P0  1  0.00000000  0.00000000  0.00000000  1
  P  P1  1  0.50000000  0.50000000  0.50000000  1
  P  P2  1  0.50000000  0.50000000  0.00000000  1
  P  P3  1  0.50000000  0.00000000  0.50000000  1
  P  P4  1  0.00000000  0.50000000  0.50000000  1
  P  P5  1  0.02492507  0.60204790  0.91261137  1
  Li  Li6  1  0.98187709  0.93602028  0.33886336  1
  Li  Li7  1  0.08878842  0.90702221  0.84961962  1
  Li  Li8  1  0.39271867  0.55065453  0.88329684  1
  Cu  Cu9  1  0.37433557  0.59980388  0.39880915  1
  Cu  Cu10  1  0.15327082  0.70670157  0.33225330  1
  O  O11  1  0.51262219  0.55024911  0.58442459  1
  O  O12  1  0.18965395  0.11992636  0.89785142  1
