# generated using pymatgen
data_Li3Ni2As6P4O7
_symmetry_space_group_name_H-M   'P 1'
_cell_length_a   7.80190362
_cell_length_b   7.63074903
_cell_length_c   9.10368664
_cell_angle_alpha   91.47632040
_cell_angle_beta   90.93598230
_cell_angle_gamma   91.71079124
_symmetry_Int_Tables_number   1
_chemical_formula_structural   Li3Ni2As6P4O7
_chemical_formula_sum   'Li3 Ni2 As6 P4 O7'
_cell_volume   541.48147385
_cell_formula_units_Z   1
loop_
 _symmetry_equiv_pos_site_id
 _symmetry_equiv_pos_as_xyz
  1  'x, y, z'
loop_
 _atom_site_type_symbol
 _atom_site_label
 _atom_site_symmetry_multiplicity
 _atom_site_fract_x
 _atom_site_fract_y
 _atom_site_fract_z
 _atom_site_occupancy
  P  P0  1  0.12500000  0.00000000  0.25000000  1
  P  P1  1  0.00000000  0.00000000  0.00000000  1
  P  P2  1  0.37500000  0.00000000  0.25000000  1
  P  P3  1  0.25000000  0.25000000  0.25000000  1
  Li  Li4  1  0.00000000  0.25000000  0.12500000  1
  Li  Li5  1  0.41498631  0.54628954  0.43374165  1
  Li  Li6  1  0.98480102  0.52642733  0.95704829  1
  Ni  Ni7  1  0.69591547  0.83343963  0.98130136  1
  Ni  Ni8  1  0.05039467  0.70304976  0.88884268  1
  As  As9  1  0.50112025  0.73367973  0.04595973  1
  As  As10  1  0.07243531  0.34510632  0.76933722  1
  As  As11  1  0.05103416  0.66997650  0.29456063  1
  As  As12  1  0.97569603  0.44567769  0.66911716  1
  As  As13  1  0.78397206  0.47692131  0.59435874  1
  As  As14  1  0.62131598  0.92970501  0.50627637  1
  O  O15  1  0.26219903  0.02545876  0.12967261  1
  O  O16  1  0.23369676  0.94799955  0.84112687  1
  O  O17  1  0.93308690  0.48102199  0.94674807  1
  O  O18  1  0.12300555  0.49923979  0.92017457  1
  O  O19  1  0.13546336  0.32031647  0.34000331  1
  O  O20  1  0.68367376  0.53691236  0.28582248  1
  O  O21  1  0.75772366  0.73791611  0.65608743  1
