# generated using pymatgen
data_LiMn2Sb4P3
_symmetry_space_group_name_H-M   'P 1'
_cell_length_a   5.58199142
_cell_length_b   5.94290106
_cell_length_c   6.56163926
_cell_angle_alpha   95.09520764
_cell_angle_beta   92.11163796
_cell_angle_gamma   95.42699594
_symmetry_Int_Tables_number   1
_chemical_formula_structural   LiMn2Sb4P3
_chemical_formula_sum   'Li1 Mn2 Sb4 P3'
_cell_volume   215.61392547
_cell_formula_units_Z   1
loop_
 _symmetry_equiv_pos_site_id
 _symmetry_equiv_pos_as_xyz
  1  'x, y, z'
loop_
 _atom_site_type_symbol
 _atom_site_label
 _atom_site_symmetry_multiplicity
 _atom_site_fract_x
 _atom_site_fract_y
 _atom_site_fract_z
 _atom_site_occupancy
  Mn  Mn0  1  0.12500000  0.12500000  0.12500000  1
  Mn  Mn1  1  0.50000000  0.50000000  0.50000000  1
  Sb  Sb2  1  0.25000000  0.25000000  0.25000000  1
  Sb  Sb3  1  0.75000000  0.75000000  0.75000000  1
  Sb  Sb4  1  0.31829419  0.85787880  0.34669738  1
  Sb  Sb5  1  0.54179407  0.31682169  0.02118273  1
  P  P6  1  0.00460576  0.21198662  0.17904026  1
  P  P7  1  0.62469394  0.39465954  0.83346440  1
  P  P8  1  0.35384172  0.47623692  0.25597854  1
  Li  Li9  1  0.20568082  0.65856753  0.84715377  1
