# generated using pymatgen
data_Li2Mn2Sb4P3
_symmetry_space_group_name_H-M   'P 1'
_cell_length_a   5.87701679
_cell_length_b   6.33304552
_cell_length_c   6.96213219
_cell_angle_alpha   96.23838108
_cell_angle_beta   92.85457857
_cell_angle_gamma   96.46843720
_symmetry_Int_Tables_number   1
_chemical_formula_structural   Li2Mn2Sb4P3
_chemical_formula_sum   'Li2 Mn2 Sb4 P3'
_cell_volume   255.44681154
_cell_formula_units_Z   1
loop_
 _symmetry_equiv_pos_site_id
 _symmetry_equiv_pos_as_xyz
  1  'x, y, z'
loop_
 _atom_site_type_symbol
 _atom_site_label
 _atom_site_symmetry_multiplicity
 _atom_site_fract_x
 _atom_site_fract_y
 _atom_site_fract_z
 _atom_site_occupancy
  Mn  Mn0  1  0.00000000  0.00000000  0.00000000  1
  Mn  Mn1  1  0.50000000  0.50000000  0.50000000  1
  Sb  Sb2  1  0.25000000  0.25000000  0.25000000  1
  Sb  Sb3  1  0.75000000  0.25000000  0.00000000  1
  Sb  Sb4  1  0.25000000  0.75000000  0.50000000  1
  Sb  Sb5  1  0.00431530  0.45894877  0.62128678  1
  P  P6  1  0.69656426  0.36457154  0.20403536  1
  P  P7  1  0.71509714  0.25967854  0.07776544  1
  P  P8  1  0.39200721  0.05997108  0.34068445  1
  Li  Li9  1  0.72702605  0.63705832  0.87629229  1
  Li  Li10  1  0.34083954  0.20639135  0.41372775  1
