# generated using pymatgen
data_Li2Mn2Sb4P3
_symmetry_space_group_name_H-M   'P 1'
_cell_length_a   6.00730526
_cell_length_b   6.51863920
_cell_length_c   7.27630143
_cell_angle_alpha   94.12832559
_cell_angle_beta   94.89038311
_cell_angle_gamma   94.69854424
_symmetry_Int_Tables_number   1
_chemical_formula_structural   Li2Mn2Sb4P3
_chemical_formula_sum   'Li2 Mn2 Sb4 P3'
_cell_volume   282.04845420
_cell_formula_units_Z   1
loop_
 _symmetry_equiv_pos_site_id
 _symmetry_equiv_pos_as_xyz
  1  'x, y, z'
loop_
 _atom_site_type_symbol
 _atom_site_label
 _atom_site_symmetry_multiplicity
 _atom_site_fract_x
 _atom_site_fract_y
 _atom_site_fract_z
 _atom_site_occupancy
  Mn  Mn0  1  0.00000000  0.00000000  0.00000000  1
  Mn  Mn1  1  0.50000000  0.50000000  0.50000000  1
  Sb  Sb2  1  0.25000000  0.25000000  0.25000000  1
  Sb  Sb3  1  0.75000000  0.25000000  0.00000000  1
  Sb  Sb4  1  0.25000000  0.75000000  0.50000000  1
  Sb  Sb5  1  0.26357804  0.12879381  0.18527507  1
  P  P6  1  0.52141469  0.92013154  0.71324839  1
  P  P7  1  0.22166747  0.41369056  0.88243436  1
  P  P8  1  0.63948069  0.29005031  0.61636059  1
  Li  Li9  1  0.60052152  0.08162793  0.50887817  1
  Li  Li10  1  0.96637143  0.27451781  0.65449266  1
