# generated using pymatgen
data_Li3Cu2(NiAs3)2
_symmetry_space_group_name_H-M   'P 1'
_cell_length_a   7.96473510
_cell_length_b   7.96177155
_cell_length_c   9.14401024
_cell_angle_alpha   90.20059541
_cell_angle_beta   90.95437203
_cell_angle_gamma   90.22933411
_symmetry_Int_Tables_number   1
_chemical_formula_structural   Li3Cu2(NiAs3)2
_chemical_formula_sum   'Li3 Cu2 Ni2 As6'
_cell_volume   579.76401729
_cell_formula_units_Z   1
loop_
 _symmetry_equiv_pos_site_id
 _symmetry_equiv_pos_as_xyz
  1  'x, y, z'
loop_
 _atom_site_type_symbol
 _atom_site_label
 _atom_site_symmetry_multiplicity
 _atom_site_fract_x
 _atom_site_fract_y
 _atom_site_fract_z
 _atom_site_occupancy
  Ni  Ni0  1  0.12500000  0.00000000  0.25000000  1
  Ni  Ni1  1  0.00000000  0.00000000  0.00000000  1
  As  As2  1  0.37500000  0.00000000  0.25000000  1
  As  As3  1  0.25000000  0.25000000  0.25000000  1
  As  As4  1  0.00000000  0.25000000  0.12500000  1
  As  As5  1  0.20842345  0.71089972  0.15593662  1
  As  As6  1  0.39344987  0.80341878  0.80109427  1
  As  As7  1  0.46563205  0.19653992  0.83581883  1
  Li  Li8  1  0.01792272  0.29665639  0.95285831  1
  Li  Li9  1  0.35535261  0.77954904  0.23581803  1
  Li  Li10  1  0.74538921  0.14461834  0.72041349  1
  Cu  Cu11  1  0.43591345  0.33053426  0.43467654  1
  Cu  Cu12  1  0.69195087  0.16137725  0.97869032  1
