# generated using pymatgen
data_Li4Ni2As6O7
_symmetry_space_group_name_H-M   'P 1'
_cell_length_a   8.31382661
_cell_length_b   8.17082894
_cell_length_c   9.64881384
_cell_angle_alpha   90.00000000
_cell_angle_beta   90.00000000
_cell_angle_gamma   90.00000000
_symmetry_Int_Tables_number   1
_chemical_formula_structural   Li4Ni2As6O7
_chemical_formula_sum   'Li4 Ni2 As6 O7'
_cell_volume   655.45217486
_cell_formula_units_Z   1
loop_
 _symmetry_equiv_pos_site_id
 _symmetry_equiv_pos_as_xyz
  1  'x, y, z'
loop_
 _atom_site_type_symbol
 _atom_site_label
 _atom_site_symmetry_multiplicity
 _atom_site_fract_x
 _atom_site_fract_y
 _atom_site_fract_z
 _atom_site_occupancy
  Li  Li0  1  0.00000000  0.00000000  0.00000000  1
  Li  Li1  1  0.33300000  0.66700000  0.25000000  1
  Li  Li2  1  0.66700000  0.33300000  0.50000000  1
  Li  Li3  1  0.00000000  0.00000000  0.75000000  1
  Ni  Ni4  1  0.67693710  0.56988217  0.14116818  1
  Ni  Ni5  1  0.59581697  0.04392560  0.90284292  1
  As  As6  1  0.98460977  0.66530164  0.77475341  1
  As  As7  1  0.31983432  0.48893591  0.66758134  1
  As  As8  1  0.23033722  0.43849761  0.85701438  1
  As  As9  1  0.48148016  0.74055770  0.70709257  1
  As  As10  1  0.15761329  0.79859695  0.46154410  1
  As  As11  1  0.47216837  0.90449106  0.53657957  1
  O  O12  1  0.23868037  0.48815612  0.59794879  1
  O  O13  1  0.46675749  0.27790431  0.70806702  1
  O  O14  1  0.99579521  0.51639663  0.51998264  1
  O  O15  1  0.44849443  0.92779623  0.72761235  1
  O  O16  1  0.73955934  0.94217049  0.83984762  1
  O  O17  1  0.42104892  0.72601121  0.70214831  1
  O  O18  1  0.08545373  0.33595034  0.15666716  1
