# generated using pymatgen
data_Li2TiP3(I2O)2
_symmetry_space_group_name_H-M   'P 1'
_cell_length_a   7.20368011
_cell_length_b   6.98060240
_cell_length_c   7.15721931
_cell_angle_alpha   92.85674667
_cell_angle_beta   93.71765121
_cell_angle_gamma   92.60897887
_symmetry_Int_Tables_number   1
_chemical_formula_structural   Li2TiP3(I2O)2
_chemical_formula_sum   'Li2 Ti1 P3 I4 O2'
_cell_volume   358.27505062
_cell_formula_units_Z   1
loop_
 _symmetry_equiv_pos_site_id
 _symmetry_equiv_pos_as_xyz
  1  'x, y, z'
loop_
 _atom_site_type_symbol
 _atom_site_label
 _atom_site_symmetry_multiplicity
 _atom_site_fract_x
 _atom_site_fract_y
 _atom_site_fract_z
 _atom_site_occupancy
  I  I0  1  0.00000000  0.00000000  0.00000000  1
  I  I1  1  0.50000000  0.50000000  0.50000000  1
  I  I2  1  0.50000000  0.50000000  0.00000000  1
  I  I3  1  0.50000000  0.00000000  0.50000000  1
  P  P4  1  0.00000000  0.50000000  0.50000000  1
  P  P5  1  0.51315472  0.69120647  0.56922702  1
  P  P6  1  0.00968285  0.38989256  0.93931601  1
  Li  Li7  1  0.70986358  0.46210574  0.29389325  1
  Li  Li8  1  0.15986469  0.15238480  0.61357387  1
  Ti  Ti9  1  0.16420369  0.78557390  0.60560701  1
  O  O10  1  0.73719403  0.86967877  0.89885637  1
  O  O11  1  0.09077999  0.73596099  0.71287761  1
