# generated using pymatgen
data_Li2Sb2Se3OF2
_symmetry_space_group_name_H-M   'P 1'
_cell_length_a   8.24517465
_cell_length_b   8.40852712
_cell_length_c   7.59209013
_cell_angle_alpha   90.00000000
_cell_angle_beta   90.00000000
_cell_angle_gamma   90.00000000
_symmetry_Int_Tables_number   1
_chemical_formula_structural   Li2Sb2Se3OF2
_chemical_formula_sum   'Li2 Sb2 Se3 O1 F2'
_cell_volume   526.35789799
_cell_formula_units_Z   1
loop_
 _symmetry_equiv_pos_site_id
 _symmetry_equiv_pos_as_xyz
  1  'x, y, z'
loop_
 _atom_site_type_symbol
 _atom_site_label
 _atom_site_symmetry_multiplicity
 _atom_site_fract_x
 _atom_site_fract_y
 _atom_site_fract_z
 _atom_site_occupancy
  Li  Li0  1  0.12500000  0.00000000  0.25000000  1
  Li  Li1  1  0.00000000  0.00000000  0.00000000  1
  Sb  Sb2  1  0.37500000  0.00000000  0.25000000  1
  Sb  Sb3  1  0.25000000  0.25000000  0.25000000  1
  Se  Se4  1  0.00000000  0.25000000  0.12500000  1
  Se  Se5  1  0.08972064  0.87864697  0.70501570  1
  Se  Se6  1  0.20902830  0.02084146  0.85837201  1
  F  F7  1  0.33941637  0.39773786  0.27928268  1
  F  F8  1  0.73439058  0.41436775  0.47341533  1
  O  O9  1  0.34727015  0.75809044  0.80948766  1
