# generated using pymatgen
data_Li3TiAs6(PO)4
_symmetry_space_group_name_H-M   'P 1'
_cell_length_a   8.37421522
_cell_length_b   8.22984918
_cell_length_c   7.73991252
_cell_angle_alpha   90.87929327
_cell_angle_beta   90.55746905
_cell_angle_gamma   91.01894360
_symmetry_Int_Tables_number   1
_chemical_formula_structural   Li3TiAs6(PO)4
_chemical_formula_sum   'Li3 Ti1 As6 P4 O4'
_cell_volume   533.24953396
_cell_formula_units_Z   1
loop_
 _symmetry_equiv_pos_site_id
 _symmetry_equiv_pos_as_xyz
  1  'x, y, z'
loop_
 _atom_site_type_symbol
 _atom_site_label
 _atom_site_symmetry_multiplicity
 _atom_site_fract_x
 _atom_site_fract_y
 _atom_site_fract_z
 _atom_site_occupancy
  P  P0  1  0.00000000  0.00000000  0.00000000  1
  P  P1  1  0.50000000  0.50000000  0.50000000  1
  P  P2  1  0.50000000  0.50000000  0.00000000  1
  P  P3  1  0.50000000  0.00000000  0.50000000  1
  Li  Li4  1  0.00000000  0.50000000  0.50000000  1
  Li  Li5  1  0.01202515  0.03020695  0.19692464  1
  Li  Li6  1  0.05622980  0.67796153  0.09205704  1
  Ti  Ti7  1  0.75098481  0.26599865  0.15427883  1
  As  As8  1  0.22880633  0.67437364  0.13475107  1
  As  As9  1  0.91252310  0.20479426  0.40872615  1
  As  As10  1  0.23369773  0.36510318  0.13602864  1
  As  As11  1  0.34674287  0.31586738  0.95468260  1
  As  As12  1  0.01299681  0.39982507  0.17321839  1
  As  As13  1  0.54990885  0.71686241  0.90585515  1
  O  O14  1  0.89478461  0.09473830  0.88230103  1
  O  O15  1  0.51987296  0.07250785  0.33706925  1
  O  O16  1  0.52148306  0.29037428  0.92676294  1
  O  O17  1  0.46196183  0.84713449  0.62301987  1
