# generated using pymatgen
data_LiMn3(SbP)4
_symmetry_space_group_name_H-M   'P 1'
_cell_length_a   6.95668403
_cell_length_b   7.51574308
_cell_length_c   7.13149283
_cell_angle_alpha   90.11752877
_cell_angle_beta   90.41607238
_cell_angle_gamma   90.31866080
_symmetry_Int_Tables_number   1
_chemical_formula_structural   LiMn3(SbP)4
_chemical_formula_sum   'Li1 Mn3 Sb4 P4'
_cell_volume   372.85119175
_cell_formula_units_Z   1
loop_
 _symmetry_equiv_pos_site_id
 _symmetry_equiv_pos_as_xyz
  1  'x, y, z'
loop_
 _atom_site_type_symbol
 _atom_site_label
 _atom_site_symmetry_multiplicity
 _atom_site_fract_x
 _atom_site_fract_y
 _atom_site_fract_z
 _atom_site_occupancy
  Mn  Mn0  1  0.00000000  0.00000000  0.00000000  1
  Mn  Mn1  1  0.50000000  0.50000000  0.50000000  1
  Mn  Mn2  1  0.25000000  0.25000000  0.25000000  1
  Sb  Sb3  1  0.75000000  0.25000000  0.00000000  1
  Sb  Sb4  1  0.25000000  0.75000000  0.50000000  1
  Sb  Sb5  1  0.00936951  0.48853258  0.92717366  1
  Sb  Sb6  1  0.77184977  0.23856413  0.86186372  1
  P  P7  1  0.49136294  0.50023201  0.27977409  1
  P  P8  1  0.63143200  0.84200395  0.29403008  1
  P  P9  1  0.62350381  0.44422795  0.72439366  1
  P  P10  1  0.35095991  0.18096513  0.99007959  1
  Li  Li11  1  0.89306553  0.26484559  0.77856789  1
