# generated using pymatgen
data_LiSb4Mo2P3
_symmetry_space_group_name_H-M   'P 1'
_cell_length_a   6.15554727
_cell_length_b   6.30582267
_cell_length_c   6.48544011
_cell_angle_alpha   92.34180247
_cell_angle_beta   90.15653831
_cell_angle_gamma   91.94736979
_symmetry_Int_Tables_number   1
_chemical_formula_structural   LiSb4Mo2P3
_chemical_formula_sum   'Li1 Sb4 Mo2 P3'
_cell_volume   251.37983285
_cell_formula_units_Z   1
loop_
 _symmetry_equiv_pos_site_id
 _symmetry_equiv_pos_as_xyz
  1  'x, y, z'
loop_
 _atom_site_type_symbol
 _atom_site_label
 _atom_site_symmetry_multiplicity
 _atom_site_fract_x
 _atom_site_fract_y
 _atom_site_fract_z
 _atom_site_occupancy
  Sb  Sb0  1  0.00000000  0.00000000  0.00000000  1
  Sb  Sb1  1  0.33300000  0.66700000  0.25000000  1
  Sb  Sb2  1  0.66700000  0.33300000  0.50000000  1
  Sb  Sb3  1  0.00000000  0.00000000  0.75000000  1
  P  P4  1  0.72720849  0.36727516  0.84780054  1
  P  P5  1  0.32946060  0.96673543  0.28028418  1
  P  P6  1  0.47751623  0.27746266  0.63133275  1
  Mo  Mo7  1  0.41103891  0.00053449  0.71642812  1
  Mo  Mo8  1  0.75739071  0.62240112  0.75339619  1
  Li  Li9  1  0.95438687  0.56498456  0.86264910  1
