# generated using pymatgen
data_Li2TiP3(SeO2)2
_symmetry_space_group_name_H-M   'P 1'
_cell_length_a   8.33538456
_cell_length_b   8.16748048
_cell_length_c   8.80213179
_cell_angle_alpha   90.05811577
_cell_angle_beta   90.27649717
_cell_angle_gamma   90.06644184
_symmetry_Int_Tables_number   1
_chemical_formula_structural   Li2TiP3(SeO2)2
_chemical_formula_sum   'Li2 Ti1 P3 Se2 O4'
_cell_volume   599.23343600
_cell_formula_units_Z   1
loop_
 _symmetry_equiv_pos_site_id
 _symmetry_equiv_pos_as_xyz
  1  'x, y, z'
loop_
 _atom_site_type_symbol
 _atom_site_label
 _atom_site_symmetry_multiplicity
 _atom_site_fract_x
 _atom_site_fract_y
 _atom_site_fract_z
 _atom_site_occupancy
  P  P0  1  0.12500000  0.00000000  0.25000000  1
  P  P1  1  0.00000000  0.00000000  0.00000000  1
  P  P2  1  0.37500000  0.00000000  0.25000000  1
  Li  Li3  1  0.25000000  0.25000000  0.25000000  1
  Li  Li4  1  0.00000000  0.25000000  0.12500000  1
  Se  Se5  1  0.71980817  0.52774951  0.52529628  1
  Se  Se6  1  0.17450900  0.14533984  0.23720385  1
  Ti  Ti7  1  0.08484499  0.79303031  0.70842445  1
  O  O8  1  0.64299053  0.32784209  0.60194089  1
  O  O9  1  0.30690441  0.89829519  0.18663702  1
  O  O10  1  0.80244869  0.21196985  0.82936176  1
  O  O11  1  0.42079138  0.96248093  0.72386155  1
