# generated using pymatgen
data_LiMnSb4Mo2P3
_symmetry_space_group_name_H-M   'P 1'
_cell_length_a   5.53573114
_cell_length_b   5.75874533
_cell_length_c   6.36882093
_cell_angle_alpha   94.88564777
_cell_angle_beta   91.71115257
_cell_angle_gamma   94.69937523
_symmetry_Int_Tables_number   1
_chemical_formula_structural   LiMnSb4Mo2P3
_chemical_formula_sum   'Li1 Mn1 Sb4 Mo2 P3'
_cell_volume   201.47427633
_cell_formula_units_Z   1
loop_
 _symmetry_equiv_pos_site_id
 _symmetry_equiv_pos_as_xyz
  1  'x, y, z'
loop_
 _atom_site_type_symbol
 _atom_site_label
 _atom_site_symmetry_multiplicity
 _atom_site_fract_x
 _atom_site_fract_y
 _atom_site_fract_z
 _atom_site_occupancy
  Mn  Mn0  1  0.00000000  0.00000000  0.00000000  1
  Sb  Sb1  1  0.50000000  0.50000000  0.50000000  1
  Sb  Sb2  1  0.50000000  0.50000000  0.00000000  1
  Sb  Sb3  1  0.50000000  0.00000000  0.50000000  1
  Sb  Sb4  1  0.00000000  0.50000000  0.50000000  1
  P  P5  1  0.14510911  0.45132113  0.10912652  1
  P  P6  1  0.97547922  0.38942415  0.51239060  1
  P  P7  1  0.85626175  0.63014079  0.65730158  1
  Mo  Mo8  1  0.33242536  0.76615792  0.87569721  1
  Mo  Mo9  1  0.12540965  0.15281698  0.78307102  1
  Li  Li10  1  0.68102863  0.86213151  0.25538607  1
