# generated using pymatgen
data_Li2Ti2O4F3
_symmetry_space_group_name_H-M   'P 1'
_cell_length_a   7.72472610
_cell_length_b   7.73503013
_cell_length_c   8.06916534
_cell_angle_alpha   90.29783203
_cell_angle_beta   91.75800630
_cell_angle_gamma   90.32892223
_symmetry_Int_Tables_number   1
_chemical_formula_structural   Li2Ti2O4F3
_chemical_formula_sum   'Li2 Ti2 O4 F3'
_cell_volume   481.89876644
_cell_formula_units_Z   1
loop_
 _symmetry_equiv_pos_site_id
 _symmetry_equiv_pos_as_xyz
  1  'x, y, z'
loop_
 _atom_site_type_symbol
 _atom_site_label
 _atom_site_symmetry_multiplicity
 _atom_site_fract_x
 _atom_site_fract_y
 _atom_site_fract_z
 _atom_site_occupancy
  Li  Li0  1  0.12500000  0.12500000  0.12500000  1
  Li  Li1  1  0.50000000  0.50000000  0.50000000  1
  F  F2  1  0.25000000  0.25000000  0.25000000  1
  F  F3  1  0.75000000  0.75000000  0.75000000  1
  F  F4  1  0.28804610  0.54879267  0.26338288  1
  Ti  Ti5  1  0.72338256  0.03922831  0.26810808  1
  Ti  Ti6  1  0.80534525  0.31376959  0.92367898  1
  O  O7  1  0.53651894  0.58672208  0.67590616  1
  O  O8  1  0.19771901  0.75738952  0.22023637  1
  O  O9  1  0.19011849  0.86027153  0.42537259  1
  O  O10  1  0.72857262  0.76962300  0.03234052  1
