# generated using pymatgen
data_Li2TiS3O3F2
_symmetry_space_group_name_H-M   'P 1'
_cell_length_a   5.89503943
_cell_length_b   5.76334476
_cell_length_c   7.10481739
_cell_angle_alpha   96.01267645
_cell_angle_beta   100.58696369
_cell_angle_gamma   95.80698896
_symmetry_Int_Tables_number   1
_chemical_formula_structural   Li2TiS3O3F2
_chemical_formula_sum   'Li2 Ti1 S3 O3 F2'
_cell_volume   234.17551700
_cell_formula_units_Z   1
loop_
 _symmetry_equiv_pos_site_id
 _symmetry_equiv_pos_as_xyz
  1  'x, y, z'
loop_
 _atom_site_type_symbol
 _atom_site_label
 _atom_site_symmetry_multiplicity
 _atom_site_fract_x
 _atom_site_fract_y
 _atom_site_fract_z
 _atom_site_occupancy
  Li  Li0  1  0.12500000  0.00000000  0.25000000  1
  Li  Li1  1  0.00000000  0.00000000  0.00000000  1
  F  F2  1  0.37500000  0.00000000  0.25000000  1
  F  F3  1  0.25000000  0.25000000  0.25000000  1
  S  S4  1  0.00000000  0.25000000  0.12500000  1
  S  S5  1  0.75039959  0.26097872  0.66766980  1
  S  S6  1  0.33332481  0.92127941  0.93338764  1
  Ti  Ti7  1  0.84098803  0.39157381  0.33340022  1
  O  O8  1  0.10154326  0.58355937  0.44236622  1
  O  O9  1  0.21106058  0.92878308  0.00028134  1
  O  O10  1  0.36389462  0.20356166  0.24083332  1
