# generated using pymatgen
data_Li5Zr(CuAs3)2
_symmetry_space_group_name_H-M   'P 1'
_cell_length_a   6.54375269
_cell_length_b   6.49472921
_cell_length_c   8.09228304
_cell_angle_alpha   98.56815558
_cell_angle_beta   100.93956677
_cell_angle_gamma   98.06020004
_symmetry_Int_Tables_number   1
_chemical_formula_structural   Li5Zr(CuAs3)2
_chemical_formula_sum   'Li5 Zr1 Cu2 As6'
_cell_volume   328.83632042
_cell_formula_units_Z   1
loop_
 _symmetry_equiv_pos_site_id
 _symmetry_equiv_pos_as_xyz
  1  'x, y, z'
loop_
 _atom_site_type_symbol
 _atom_site_label
 _atom_site_symmetry_multiplicity
 _atom_site_fract_x
 _atom_site_fract_y
 _atom_site_fract_z
 _atom_site_occupancy
  Li  Li0  1  0.00000000  0.00000000  0.00000000  1
  Li  Li1  1  0.50000000  0.50000000  0.50000000  1
  Li  Li2  1  0.50000000  0.50000000  0.00000000  1
  Li  Li3  1  0.50000000  0.00000000  0.50000000  1
  Li  Li4  1  0.00000000  0.50000000  0.50000000  1
  Cu  Cu5  1  0.72095680  0.22928495  0.17312910  1
  Cu  Cu6  1  0.84189551  0.66264069  0.82851684  1
  As  As7  1  0.52463513  0.36249857  0.19934878  1
  As  As8  1  0.76553231  0.79641887  0.77348861  1
  As  As9  1  0.67000491  0.92080933  0.50917785  1
  As  As10  1  0.97017017  0.95380774  0.43070117  1
  As  As11  1  0.42600516  0.35021989  0.53744461  1
  As  As12  1  0.43941604  0.58561287  0.86578049  1
  Zr  Zr13  1  0.39975395  0.71212122  0.89804923  1
