# generated using pymatgen
data_Li3Ti2Cu2(As3Se)2
_symmetry_space_group_name_H-M   'P 1'
_cell_length_a   7.52621116
_cell_length_b   7.23774868
_cell_length_c   7.88015350
_cell_angle_alpha   91.53656672
_cell_angle_beta   91.62170461
_cell_angle_gamma   91.77816355
_symmetry_Int_Tables_number   1
_chemical_formula_structural   Li3Ti2Cu2(As3Se)2
_chemical_formula_sum   'Li3 Ti2 Cu2 As6 Se2'
_cell_volume   428.71089402
_cell_formula_units_Z   1
loop_
 _symmetry_equiv_pos_site_id
 _symmetry_equiv_pos_as_xyz
  1  'x, y, z'
loop_
 _atom_site_type_symbol
 _atom_site_label
 _atom_site_symmetry_multiplicity
 _atom_site_fract_x
 _atom_site_fract_y
 _atom_site_fract_z
 _atom_site_occupancy
  Li  Li0  1  0.12500000  0.00000000  0.25000000  1
  Li  Li1  1  0.00000000  0.00000000  0.00000000  1
  Li  Li2  1  0.37500000  0.00000000  0.25000000  1
  Cu  Cu3  1  0.25000000  0.25000000  0.25000000  1
  Cu  Cu4  1  0.00000000  0.25000000  0.12500000  1
  Se  Se5  1  0.57415668  0.24273580  0.31215839  1
  Se  Se6  1  0.09182394  0.32289394  0.77531507  1
  Ti  Ti7  1  0.71174690  0.30093649  0.24505719  1
  Ti  Ti8  1  0.15079267  0.09799085  0.74191222  1
  As  As9  1  0.29571891  0.61306501  0.83365508  1
  As  As10  1  0.35918541  0.30320951  0.29903432  1
  As  As11  1  0.10906221  0.10488005  0.19317622  1
  As  As12  1  0.85120188  0.23527337  0.60489143  1
  As  As13  1  0.22870776  0.13306740  0.18933768  1
  As  As14  1  0.68722974  0.31434712  0.76606590  1
