# generated using pymatgen
data_Li2Mn2Sb4P3
_symmetry_space_group_name_H-M   'P 1'
_cell_length_a   5.33721190
_cell_length_b   5.72822089
_cell_length_c   6.48287184
_cell_angle_alpha   96.37591046
_cell_angle_beta   95.01311488
_cell_angle_gamma   95.71950282
_symmetry_Int_Tables_number   1
_chemical_formula_structural   Li2Mn2Sb4P3
_chemical_formula_sum   'Li2 Mn2 Sb4 P3'
_cell_volume   195.01880641
_cell_formula_units_Z   1
loop_
 _symmetry_equiv_pos_site_id
 _symmetry_equiv_pos_as_xyz
  1  'x, y, z'
loop_
 _atom_site_type_symbol
 _atom_site_label
 _atom_site_symmetry_multiplicity
 _atom_site_fract_x
 _atom_site_fract_y
 _atom_site_fract_z
 _atom_site_occupancy
  Mn  Mn0  1  0.00000000  0.00000000  0.00000000  1
  Mn  Mn1  1  0.50000000  0.50000000  0.50000000  1
  Sb  Sb2  1  0.50000000  0.50000000  0.00000000  1
  Sb  Sb3  1  0.50000000  0.00000000  0.50000000  1
  Sb  Sb4  1  0.00000000  0.50000000  0.50000000  1
  Sb  Sb5  1  0.20022542  0.35920498  0.76712408  1
  P  P6  1  0.58395746  0.94734696  0.53041774  1
  P  P7  1  0.22538465  0.81398070  0.51839398  1
  P  P8  1  0.29600732  0.04323368  0.95344173  1
  Li  Li9  1  0.50465019  0.66972760  0.17289701  1
  Li  Li10  1  0.28464579  0.71959230  0.10618789  1
