# generated using pymatgen
data_Li2Mn2Sb3Mo2P3
_symmetry_space_group_name_H-M   'P 1'
_cell_length_a   5.30624486
_cell_length_b   5.70875926
_cell_length_c   6.96300988
_cell_angle_alpha   96.08773040
_cell_angle_beta   95.94508605
_cell_angle_gamma   96.68906507
_symmetry_Int_Tables_number   1
_chemical_formula_structural   Li2Mn2Sb3Mo2P3
_chemical_formula_sum   'Li2 Mn2 Sb3 Mo2 P3'
_cell_volume   206.86673499
_cell_formula_units_Z   1
loop_
 _symmetry_equiv_pos_site_id
 _symmetry_equiv_pos_as_xyz
  1  'x, y, z'
loop_
 _atom_site_type_symbol
 _atom_site_label
 _atom_site_symmetry_multiplicity
 _atom_site_fract_x
 _atom_site_fract_y
 _atom_site_fract_z
 _atom_site_occupancy
  Mn  Mn0  1  0.00000000  0.00000000  0.00000000  1
  Mn  Mn1  1  0.50000000  0.50000000  0.50000000  1
  Sb  Sb2  1  0.25000000  0.25000000  0.25000000  1
  Sb  Sb3  1  0.75000000  0.25000000  0.00000000  1
  Sb  Sb4  1  0.25000000  0.75000000  0.50000000  1
  P  P5  1  0.57374796  0.42284385  0.26367258  1
  P  P6  1  0.04179787  0.13634133  0.13495190  1
  P  P7  1  0.52874466  0.24831726  0.63443992  1
  Mo  Mo8  1  0.36342371  0.79363000  0.20916834  1
  Mo  Mo9  1  0.90169524  0.79064416  0.99619349  1
  Li  Li10  1  0.79332201  0.90529298  0.37014165  1
  Li  Li11  1  0.38097984  0.39484263  0.30458504  1
