# generated using pymatgen
data_Li3Ti2O3
_symmetry_space_group_name_H-M   'P 1'
_cell_length_a   6.48382162
_cell_length_b   6.29846474
_cell_length_c   5.77720717
_cell_angle_alpha   90.53302261
_cell_angle_beta   88.78365215
_cell_angle_gamma   88.59514826
_symmetry_Int_Tables_number   1
_chemical_formula_structural   Li3Ti2O3
_chemical_formula_sum   'Li3 Ti2 O3'
_cell_volume   235.79483722
_cell_formula_units_Z   1
loop_
 _symmetry_equiv_pos_site_id
 _symmetry_equiv_pos_as_xyz
  1  'x, y, z'
loop_
 _atom_site_type_symbol
 _atom_site_label
 _atom_site_symmetry_multiplicity
 _atom_site_fract_x
 _atom_site_fract_y
 _atom_site_fract_z
 _atom_site_occupancy
  Ti  Ti0  1  0.12500000  0.12500000  0.12500000  1
  Ti  Ti1  1  0.50000000  0.50000000  0.50000000  1
  O  O2  1  0.25000000  0.25000000  0.25000000  1
  O  O3  1  0.75000000  0.75000000  0.75000000  1
  O  O4  1  0.00589618  0.65612573  0.20981538  1
  Li  Li5  1  0.18602941  0.29137772  0.73955715  1
  Li  Li6  1  0.46036440  0.42232781  0.76503237  1
  Li  Li7  1  0.38356058  0.10419850  0.28853811  1
