# generated using pymatgen
data_LiZnCuAs3O2
_symmetry_space_group_name_H-M   'P 1'
_cell_length_a   7.94489094
_cell_length_b   8.26378303
_cell_length_c   7.93019523
_cell_angle_alpha   90.27983383
_cell_angle_beta   91.33136436
_cell_angle_gamma   90.31992479
_symmetry_Int_Tables_number   1
_chemical_formula_structural   LiZnCuAs3O2
_chemical_formula_sum   'Li2 Zn2 Cu2 As6 O4'
_cell_volume   520.50060145
_cell_formula_units_Z   2
loop_
 _symmetry_equiv_pos_site_id
 _symmetry_equiv_pos_as_xyz
  1  'x, y, z'
loop_
 _atom_site_type_symbol
 _atom_site_label
 _atom_site_symmetry_multiplicity
 _atom_site_fract_x
 _atom_site_fract_y
 _atom_site_fract_z
 _atom_site_occupancy
  Li  Li0  1  0.12500000  0.00000000  0.25000000  1
  Li  Li1  1  0.00000000  0.00000000  0.00000000  1
  Cu  Cu2  1  0.37500000  0.00000000  0.25000000  1
  Cu  Cu3  1  0.25000000  0.25000000  0.25000000  1
  Zn  Zn4  1  0.00000000  0.25000000  0.12500000  1
  Zn  Zn5  1  0.18536961  0.44018671  0.86412284  1
  As  As6  1  0.91984397  0.65259783  0.23508875  1
  As  As7  1  0.73522945  0.59252230  0.93852453  1
  As  As8  1  0.72875068  0.27391917  0.35117422  1
  As  As9  1  0.67228432  0.25925961  0.02457709  1
  As  As10  1  0.13096738  0.20629395  0.94654760  1
  As  As11  1  0.29401296  0.46785411  0.50472176  1
  O  O12  1  0.16813062  0.18442119  0.29103389  1
  O  O13  1  0.63533836  0.65690875  0.52756886  1
  O  O14  1  0.69964653  0.81811645  0.34596269  1
  O  O15  1  0.13723950  0.78206911  0.16235609  1
