# generated using pymatgen
data_Li2Ti2P5F2
_symmetry_space_group_name_H-M   'P 1'
_cell_length_a   6.92582968
_cell_length_b   6.52092127
_cell_length_c   7.26393401
_cell_angle_alpha   92.55971129
_cell_angle_beta   94.57267122
_cell_angle_gamma   92.42032431
_symmetry_Int_Tables_number   1
_chemical_formula_structural   Li2Ti2P5F2
_chemical_formula_sum   'Li2 Ti2 P5 F2'
_cell_volume   326.34347093
_cell_formula_units_Z   1
loop_
 _symmetry_equiv_pos_site_id
 _symmetry_equiv_pos_as_xyz
  1  'x, y, z'
loop_
 _atom_site_type_symbol
 _atom_site_label
 _atom_site_symmetry_multiplicity
 _atom_site_fract_x
 _atom_site_fract_y
 _atom_site_fract_z
 _atom_site_occupancy
  P  P0  1  0.00000000  0.00000000  0.00000000  1
  P  P1  1  0.50000000  0.50000000  0.50000000  1
  P  P2  1  0.50000000  0.50000000  0.00000000  1
  P  P3  1  0.50000000  0.00000000  0.50000000  1
  P  P4  1  0.00000000  0.50000000  0.50000000  1
  Li  Li5  1  0.44252236  0.85504209  0.79670222  1
  Li  Li6  1  0.44255913  0.01847494  0.57013349  1
  F  F7  1  0.83794975  0.69941368  0.39675989  1
  F  F8  1  0.96980901  0.85188062  0.47175147  1
  Ti  Ti9  1  0.74242423  0.19480888  0.99232284  1
  Ti  Ti10  1  0.29370756  0.89306745  0.82847285  1
