# generated using pymatgen
data_Li2Mn(Sb2P)2
_symmetry_space_group_name_H-M   'P 1'
_cell_length_a   4.27669308
_cell_length_b   4.52616832
_cell_length_c   6.32245015
_cell_angle_alpha   102.43895807
_cell_angle_beta   96.70690933
_cell_angle_gamma   101.88248268
_symmetry_Int_Tables_number   1
_chemical_formula_structural   Li2Mn(Sb2P)2
_chemical_formula_sum   'Li2 Mn1 Sb4 P2'
_cell_volume   115.27537658
_cell_formula_units_Z   1
loop_
 _symmetry_equiv_pos_site_id
 _symmetry_equiv_pos_as_xyz
  1  'x, y, z'
loop_
 _atom_site_type_symbol
 _atom_site_label
 _atom_site_symmetry_multiplicity
 _atom_site_fract_x
 _atom_site_fract_y
 _atom_site_fract_z
 _atom_site_occupancy
  Mn  Mn0  1  0.00000000  0.00000000  0.00000000  1
  Sb  Sb1  1  0.33300000  0.66700000  0.25000000  1
  Sb  Sb2  1  0.66700000  0.33300000  0.50000000  1
  Sb  Sb3  1  0.00000000  0.00000000  0.75000000  1
  Sb  Sb4  1  0.75612177  0.53159901  0.71455635  1
  P  P5  1  0.48670272  0.32006944  0.57264079  1
  P  P6  1  0.72421885  0.01571174  0.44984615  1
  Li  Li7  1  0.11443053  0.58508792  0.25439452  1
  Li  Li8  1  0.86881800  0.17987427  0.20843262  1
