# generated using pymatgen
data_LiMn3Sb4P3
_symmetry_space_group_name_H-M   'P 1'
_cell_length_a   7.25784020
_cell_length_b   7.31266852
_cell_length_c   7.45850284
_cell_angle_alpha   91.09717291
_cell_angle_beta   90.49635909
_cell_angle_gamma   91.22243094
_symmetry_Int_Tables_number   1
_chemical_formula_structural   LiMn3Sb4P3
_chemical_formula_sum   'Li1 Mn3 Sb4 P3'
_cell_volume   395.67497139
_cell_formula_units_Z   1
loop_
 _symmetry_equiv_pos_site_id
 _symmetry_equiv_pos_as_xyz
  1  'x, y, z'
loop_
 _atom_site_type_symbol
 _atom_site_label
 _atom_site_symmetry_multiplicity
 _atom_site_fract_x
 _atom_site_fract_y
 _atom_site_fract_z
 _atom_site_occupancy
  Mn  Mn0  1  0.00000000  0.00000000  0.00000000  1
  Mn  Mn1  1  0.50000000  0.50000000  0.50000000  1
  Mn  Mn2  1  0.50000000  0.50000000  0.00000000  1
  Sb  Sb3  1  0.50000000  0.00000000  0.50000000  1
  Sb  Sb4  1  0.00000000  0.50000000  0.50000000  1
  Sb  Sb5  1  0.73717723  0.51848068  0.29540152  1
  Sb  Sb6  1  0.86830294  0.08410674  0.89226930  1
  P  P7  1  0.41932308  0.82987632  0.88052528  1
  P  P8  1  0.10106563  0.01287715  0.64559678  1
  P  P9  1  0.64901991  0.27393235  0.10499338  1
  Li  Li10  1  0.26225895  0.62055734  0.48529813  1
