# generated using pymatgen
data_Li3Cu2(As3S)2
_symmetry_space_group_name_H-M   'P 1'
_cell_length_a   7.14718442
_cell_length_b   7.04318708
_cell_length_c   8.11577687
_cell_angle_alpha   91.99461398
_cell_angle_beta   93.38692423
_cell_angle_gamma   91.87427014
_symmetry_Int_Tables_number   1
_chemical_formula_structural   Li3Cu2(As3S)2
_chemical_formula_sum   'Li3 Cu2 As6 S2'
_cell_volume   407.33155631
_cell_formula_units_Z   1
loop_
 _symmetry_equiv_pos_site_id
 _symmetry_equiv_pos_as_xyz
  1  'x, y, z'
loop_
 _atom_site_type_symbol
 _atom_site_label
 _atom_site_symmetry_multiplicity
 _atom_site_fract_x
 _atom_site_fract_y
 _atom_site_fract_z
 _atom_site_occupancy
  S  S0  1  0.00000000  0.00000000  0.00000000  1
  S  S1  1  0.33300000  0.66700000  0.25000000  1
  As  As2  1  0.66700000  0.33300000  0.50000000  1
  As  As3  1  0.00000000  0.00000000  0.75000000  1
  As  As4  1  0.02479612  0.16911584  0.18073852  1
  As  As5  1  0.42456706  0.60572433  0.89104786  1
  As  As6  1  0.84099898  0.06019088  0.95907280  1
  As  As7  1  0.70924404  0.45719600  0.80971803  1
  Li  Li8  1  0.04099216  0.73575073  0.47125586  1
  Li  Li9  1  0.71722922  0.07911420  0.60054261  1
  Li  Li10  1  0.83753332  0.88212372  0.07867781  1
  Cu  Cu11  1  0.05275953  0.98801425  0.77617490  1
  Cu  Cu12  1  0.77739383  0.34852823  0.82893350  1
