# generated using pymatgen
data_LiMn2Sb4P3
_symmetry_space_group_name_H-M   'P 1'
_cell_length_a   5.56504442
_cell_length_b   5.91956892
_cell_length_c   6.48383334
_cell_angle_alpha   97.58232290
_cell_angle_beta   90.91804273
_cell_angle_gamma   97.59519616
_symmetry_Int_Tables_number   1
_chemical_formula_structural   LiMn2Sb4P3
_chemical_formula_sum   'Li1 Mn2 Sb4 P3'
_cell_volume   209.74782934
_cell_formula_units_Z   1
loop_
 _symmetry_equiv_pos_site_id
 _symmetry_equiv_pos_as_xyz
  1  'x, y, z'
loop_
 _atom_site_type_symbol
 _atom_site_label
 _atom_site_symmetry_multiplicity
 _atom_site_fract_x
 _atom_site_fract_y
 _atom_site_fract_z
 _atom_site_occupancy
  Mn  Mn0  1  0.00000000  0.00000000  0.00000000  1
  Mn  Mn1  1  0.50000000  0.50000000  0.50000000  1
  Sb  Sb2  1  0.50000000  0.50000000  0.00000000  1
  Sb  Sb3  1  0.50000000  0.00000000  0.50000000  1
  Sb  Sb4  1  0.00000000  0.50000000  0.50000000  1
  Sb  Sb5  1  0.21146108  0.33344181  0.70787805  1
  P  P6  1  0.41533194  0.08356400  0.02841132  1
  P  P7  1  0.65157700  0.15461661  0.60180709  1
  P  P8  1  0.24116564  0.59725619  0.10418924  1
  Li  Li9  1  0.73718003  0.66252003  0.39989545  1
