# generated using pymatgen
data_Li2Mn2Sb4P3
_symmetry_space_group_name_H-M   'P 1'
_cell_length_a   6.44716116
_cell_length_b   7.00657993
_cell_length_c   7.35216025
_cell_angle_alpha   92.97176865
_cell_angle_beta   93.52033456
_cell_angle_gamma   93.38223965
_symmetry_Int_Tables_number   1
_chemical_formula_structural   Li2Mn2Sb4P3
_chemical_formula_sum   'Li2 Mn2 Sb4 P3'
_cell_volume   330.39860822
_cell_formula_units_Z   1
loop_
 _symmetry_equiv_pos_site_id
 _symmetry_equiv_pos_as_xyz
  1  'x, y, z'
loop_
 _atom_site_type_symbol
 _atom_site_label
 _atom_site_symmetry_multiplicity
 _atom_site_fract_x
 _atom_site_fract_y
 _atom_site_fract_z
 _atom_site_occupancy
  Mn  Mn0  1  0.00000000  0.00000000  0.00000000  1
  Mn  Mn1  1  0.50000000  0.50000000  0.50000000  1
  Sb  Sb2  1  0.25000000  0.25000000  0.25000000  1
  Sb  Sb3  1  0.75000000  0.25000000  0.00000000  1
  Sb  Sb4  1  0.25000000  0.75000000  0.50000000  1
  Sb  Sb5  1  0.22163652  0.03633875  0.85788877  1
  P  P6  1  0.92479613  0.27691264  0.39877443  1
  P  P7  1  0.11617043  0.10166869  0.47231390  1
  P  P8  1  0.67852953  0.56647568  0.80116412  1
  Li  Li9  1  0.81742783  0.57739786  0.89862002  1
  Li  Li10  1  0.45938994  0.79048344  0.08724449  1
