# generated using pymatgen
data_LiCuNiAs3
_symmetry_space_group_name_H-M   'P 1'
_cell_length_a   7.46290814
_cell_length_b   7.51835426
_cell_length_c   8.53775602
_cell_angle_alpha   91.21236103
_cell_angle_beta   92.04264037
_cell_angle_gamma   91.40010415
_symmetry_Int_Tables_number   1
_chemical_formula_structural   LiCuNiAs3
_chemical_formula_sum   'Li2 Cu2 Ni2 As6'
_cell_volume   478.47945398
_cell_formula_units_Z   2
loop_
 _symmetry_equiv_pos_site_id
 _symmetry_equiv_pos_as_xyz
  1  'x, y, z'
loop_
 _atom_site_type_symbol
 _atom_site_label
 _atom_site_symmetry_multiplicity
 _atom_site_fract_x
 _atom_site_fract_y
 _atom_site_fract_z
 _atom_site_occupancy
  Li  Li0  1  0.00000000  0.00000000  0.00000000  1
  Li  Li1  1  0.50000000  0.50000000  0.50000000  1
  Cu  Cu2  1  0.50000000  0.50000000  0.00000000  1
  Cu  Cu3  1  0.50000000  0.00000000  0.50000000  1
  Ni  Ni4  1  0.00000000  0.50000000  0.50000000  1
  Ni  Ni5  1  0.08251379  0.30793364  0.56453870  1
  As  As6  1  0.80045248  0.94482521  0.33596261  1
  As  As7  1  0.99019413  0.77201073  0.00628310  1
  As  As8  1  0.20314921  0.16496362  0.87907284  1
  As  As9  1  0.65640193  0.71957744  0.39880902  1
  As  As10  1  0.23600313  0.93166108  0.31105105  1
  As  As11  1  0.38458015  0.97805836  0.63901490  1
