# generated using pymatgen
data_Li2Cu2As6N5O7
_symmetry_space_group_name_H-M   'P 1'
_cell_length_a   7.90762254
_cell_length_b   7.83812506
_cell_length_c   9.06440613
_cell_angle_alpha   91.64700139
_cell_angle_beta   92.68155734
_cell_angle_gamma   91.70040238
_symmetry_Int_Tables_number   1
_chemical_formula_structural   Li2Cu2As6N5O7
_chemical_formula_sum   'Li2 Cu2 As6 N5 O7'
_cell_volume   560.70257160
_cell_formula_units_Z   1
loop_
 _symmetry_equiv_pos_site_id
 _symmetry_equiv_pos_as_xyz
  1  'x, y, z'
loop_
 _atom_site_type_symbol
 _atom_site_label
 _atom_site_symmetry_multiplicity
 _atom_site_fract_x
 _atom_site_fract_y
 _atom_site_fract_z
 _atom_site_occupancy
  O  O0  1  0.12500000  0.00000000  0.25000000  1
  O  O1  1  0.00000000  0.00000000  0.00000000  1
  O  O2  1  0.37500000  0.00000000  0.25000000  1
  O  O3  1  0.25000000  0.25000000  0.25000000  1
  O  O4  1  0.00000000  0.25000000  0.12500000  1
  O  O5  1  0.84479999  0.86463863  0.63863286  1
  O  O6  1  0.72984061  0.80477195  0.70501676  1
  As  As7  1  0.68401220  0.47583336  0.51063715  1
  As  As8  1  0.69501906  0.17326614  0.32451730  1
  As  As9  1  0.20385429  0.16198433  0.05642556  1
  As  As10  1  0.33408738  0.38255063  0.56438120  1
  As  As11  1  0.64430165  0.89839671  0.98905974  1
  As  As12  1  0.26622371  0.51343278  0.48222841  1
  Li  Li13  1  0.68493915  0.47039782  0.89221261  1
  Li  Li14  1  0.35066781  0.55635116  0.54905392  1
  N  N15  1  0.04668922  0.70558341  0.81312928  1
  N  N16  1  0.51942142  0.74322925  0.44516587  1
  N  N17  1  0.24861430  0.50928993  0.19710072  1
  N  N18  1  0.08608586  0.30892959  0.47083263  1
  N  N19  1  0.40825700  0.91175048  0.69368448  1
  Cu  Cu20  1  0.20260126  0.49352638  0.95544612  1
  Cu  Cu21  1  0.24065060  0.20117757  0.69414354  1
