# generated using pymatgen
data_Li4LuNi2P4N5
_symmetry_space_group_name_H-M   'P 1'
_cell_length_a   7.43249497
_cell_length_b   7.05219556
_cell_length_c   8.86811598
_cell_angle_alpha   93.49759716
_cell_angle_beta   91.23654746
_cell_angle_gamma   94.05678930
_symmetry_Int_Tables_number   1
_chemical_formula_structural   Li4LuNi2P4N5
_chemical_formula_sum   'Li4 Lu1 Ni2 P4 N5'
_cell_volume   462.64105756
_cell_formula_units_Z   1
loop_
 _symmetry_equiv_pos_site_id
 _symmetry_equiv_pos_as_xyz
  1  'x, y, z'
loop_
 _atom_site_type_symbol
 _atom_site_label
 _atom_site_symmetry_multiplicity
 _atom_site_fract_x
 _atom_site_fract_y
 _atom_site_fract_z
 _atom_site_occupancy
  P  P0  1  0.00000000  0.00000000  0.00000000  1
  P  P1  1  0.50000000  0.50000000  0.50000000  1
  P  P2  1  0.25000000  0.25000000  0.25000000  1
  P  P3  1  0.75000000  0.25000000  0.00000000  1
  Lu  Lu4  1  0.25000000  0.75000000  0.50000000  1
  Li  Li5  1  0.24175842  0.30784002  0.87990309  1
  Li  Li6  1  0.34761737  0.75678953  0.43546258  1
  Li  Li7  1  0.72045636  0.74356959  0.38439418  1
  Li  Li8  1  0.12869318  0.10003860  0.01814531  1
  Ni  Ni9  1  0.60173691  0.78256097  0.28581197  1
  Ni  Ni10  1  0.56032824  0.18960702  0.26474411  1
  N  N11  1  0.87549310  0.66378980  0.78129662  1
  N  N12  1  0.05931859  0.70384915  0.77882595  1
  N  N13  1  0.81959460  0.77808373  0.25834528  1
  N  N14  1  0.02535439  0.40480021  0.98636348  1
  N  N15  1  0.32732593  0.26890218  0.24352701  1
