# generated using pymatgen
data_LiLa3Al3Te4I5
_symmetry_space_group_name_H-M   'P 1'
_cell_length_a   11.02534569
_cell_length_b   11.19930029
_cell_length_c   11.26585750
_cell_angle_alpha   90.00000000
_cell_angle_beta   90.00000000
_cell_angle_gamma   90.00000000
_symmetry_Int_Tables_number   1
_chemical_formula_structural   LiLa3Al3Te4I5
_chemical_formula_sum   'Li1 La3 Al3 Te4 I5'
_cell_volume   1391.06479252
_cell_formula_units_Z   1
loop_
 _symmetry_equiv_pos_site_id
 _symmetry_equiv_pos_as_xyz
  1  'x, y, z'
loop_
 _atom_site_type_symbol
 _atom_site_label
 _atom_site_symmetry_multiplicity
 _atom_site_fract_x
 _atom_site_fract_y
 _atom_site_fract_z
 _atom_site_occupancy
  I  I0  1  0.00000000  0.00000000  0.00000000  1
  I  I1  1  0.50000000  0.50000000  0.50000000  1
  I  I2  1  0.50000000  0.50000000  0.00000000  1
  I  I3  1  0.50000000  0.00000000  0.50000000  1
  I  I4  1  0.00000000  0.50000000  0.50000000  1
  Li  Li5  1  0.63681544  0.36515602  0.10801644  1
  La  La6  1  0.03194693  0.01076303  0.37943490  1
  La  La7  1  0.78366423  0.02821742  0.32930627  1
  La  La8  1  0.26630500  0.83037775  0.41701674  1
  Te  Te9  1  0.33703326  0.75324872  0.47873032  1
  Te  Te10  1  0.86921548  0.46084035  0.96198666  1
  Te  Te11  1  0.00049166  0.79358205  0.28837697  1
  Te  Te12  1  0.43848792  0.02400884  0.31626866  1
  Al  Al13  1  0.87739674  0.03620022  0.24182941  1
  Al  Al14  1  0.41176995  0.22382759  0.39958070  1
  Al  Al15  1  0.56749929  0.31988887  0.65383155  1
