# generated using pymatgen
data_Li4Ni2As6O7
_symmetry_space_group_name_H-M   'P 1'
_cell_length_a   8.31382661
_cell_length_b   8.17082894
_cell_length_c   9.64881384
_cell_angle_alpha   90.00000000
_cell_angle_beta   90.00000000
_cell_angle_gamma   90.00000000
_symmetry_Int_Tables_number   1
_chemical_formula_structural   Li4Ni2As6O7
_chemical_formula_sum   'Li4 Ni2 As6 O7'
_cell_volume   655.45217486
_cell_formula_units_Z   1
loop_
 _symmetry_equiv_pos_site_id
 _symmetry_equiv_pos_as_xyz
  1  'x, y, z'
loop_
 _atom_site_type_symbol
 _atom_site_label
 _atom_site_symmetry_multiplicity
 _atom_site_fract_x
 _atom_site_fract_y
 _atom_site_fract_z
 _atom_site_occupancy
  Li  Li0  1  0.12500000  0.00000000  0.25000000  1
  Li  Li1  1  0.00000000  0.00000000  0.00000000  1
  Li  Li2  1  0.37500000  0.00000000  0.25000000  1
  Li  Li3  1  0.25000000  0.25000000  0.25000000  1
  Ni  Ni4  1  0.00000000  0.25000000  0.12500000  1
  Ni  Ni5  1  0.61154557  0.30401802  0.56699083  1
  As  As6  1  0.73025349  0.59185637  0.51032621  1
  As  As7  1  0.68786630  0.12386100  0.31434382  1
  As  As8  1  0.31973051  0.20975873  0.00597909  1
  As  As9  1  0.96776267  0.48211878  0.03101965  1
  As  As10  1  0.84252350  0.56263971  0.10818494  1
  As  As11  1  0.69520252  0.22328673  0.26890131  1
  O  O12  1  0.88769179  0.40167799  0.68141546  1
  O  O13  1  0.85166845  0.71854003  0.07907793  1
  O  O14  1  0.38694596  0.87857339  0.24068330  1
  O  O15  1  0.80233886  0.89385765  0.93625251  1
  O  O16  1  0.92485113  0.46901719  0.56945577  1
  O  O17  1  0.20265183  0.93340938  0.65153401  1
  O  O18  1  0.46671543  0.72503738  0.96457432  1
