# generated using pymatgen
data_Li2MnMo2P3
_symmetry_space_group_name_H-M   'P 1'
_cell_length_a   3.55262892
_cell_length_b   3.62512128
_cell_length_c   5.93546651
_cell_angle_alpha   106.20233573
_cell_angle_beta   95.03007217
_cell_angle_gamma   106.46785505
_symmetry_Int_Tables_number   1
_chemical_formula_structural   Li2MnMo2P3
_chemical_formula_sum   'Li2 Mn1 Mo2 P3'
_cell_volume   69.22989122
_cell_formula_units_Z   1
loop_
 _symmetry_equiv_pos_site_id
 _symmetry_equiv_pos_as_xyz
  1  'x, y, z'
loop_
 _atom_site_type_symbol
 _atom_site_label
 _atom_site_symmetry_multiplicity
 _atom_site_fract_x
 _atom_site_fract_y
 _atom_site_fract_z
 _atom_site_occupancy
  Mn  Mn0  1  0.00000000  0.00000000  0.00000000  1
  P  P1  1  0.50000000  0.50000000  0.50000000  1
  P  P2  1  0.25000000  0.25000000  0.25000000  1
  P  P3  1  0.75000000  0.25000000  0.00000000  1
  Mo  Mo4  1  0.25000000  0.75000000  0.50000000  1
  Mo  Mo5  1  0.21280498  0.95568148  0.02272542  1
  Li  Li6  1  0.18892471  0.48600924  0.43658284  1
  Li  Li7  1  0.66770751  0.77318655  0.23797544  1
