# generated using pymatgen
data_Li2CrNi(AsO)2
_symmetry_space_group_name_H-M   'P 1'
_cell_length_a   8.27121978
_cell_length_b   7.83523851
_cell_length_c   9.66201680
_cell_angle_alpha   90.00000000
_cell_angle_beta   90.00000000
_cell_angle_gamma   90.00000000
_symmetry_Int_Tables_number   1
_chemical_formula_structural   Li2CrNi(AsO)2
_chemical_formula_sum   'Li4 Cr2 Ni2 As4 O4'
_cell_volume   626.16612723
_cell_formula_units_Z   2
loop_
 _symmetry_equiv_pos_site_id
 _symmetry_equiv_pos_as_xyz
  1  'x, y, z'
loop_
 _atom_site_type_symbol
 _atom_site_label
 _atom_site_symmetry_multiplicity
 _atom_site_fract_x
 _atom_site_fract_y
 _atom_site_fract_z
 _atom_site_occupancy
  Li  Li0  1  0.12500000  0.00000000  0.25000000  1
  Li  Li1  1  0.00000000  0.00000000  0.00000000  1
  Li  Li2  1  0.37500000  0.00000000  0.25000000  1
  Li  Li3  1  0.25000000  0.25000000  0.25000000  1
  Ni  Ni4  1  0.00000000  0.25000000  0.12500000  1
  Ni  Ni5  1  0.77478259  0.22670486  0.52044921  1
  As  As6  1  0.64146506  0.03630199  0.68116751  1
  As  As7  1  0.24488415  0.72529617  0.35746282  1
  As  As8  1  0.96237865  0.36135936  0.69050201  1
  As  As9  1  0.09978469  0.77858301  0.67276636  1
  O  O10  1  0.85795722  0.91100184  0.53598970  1
  O  O11  1  0.80276623  0.59492477  0.10084766  1
  O  O12  1  0.32801799  0.17304753  0.89105225  1
  O  O13  1  0.38897649  0.00066775  0.31578423  1
  Cr  Cr14  1  0.27520672  0.99908454  0.91257783  1
  Cr  Cr15  1  0.85574006  0.98124051  0.55517283  1
