# generated using pymatgen
data_Li3LuP3N5O2
_symmetry_space_group_name_H-M   'P 1'
_cell_length_a   7.90975720
_cell_length_b   7.22591514
_cell_length_c   8.17300597
_cell_angle_alpha   91.20721876
_cell_angle_beta   90.42680252
_cell_angle_gamma   91.40022762
_symmetry_Int_Tables_number   1
_chemical_formula_structural   Li3LuP3N5O2
_chemical_formula_sum   'Li3 Lu1 P3 N5 O2'
_cell_volume   466.87210685
_cell_formula_units_Z   1
loop_
 _symmetry_equiv_pos_site_id
 _symmetry_equiv_pos_as_xyz
  1  'x, y, z'
loop_
 _atom_site_type_symbol
 _atom_site_label
 _atom_site_symmetry_multiplicity
 _atom_site_fract_x
 _atom_site_fract_y
 _atom_site_fract_z
 _atom_site_occupancy
  P  P0  1  0.00000000  0.00000000  0.00000000  1
  P  P1  1  0.50000000  0.50000000  0.50000000  1
  P  P2  1  0.50000000  0.50000000  0.00000000  1
  Lu  Lu3  1  0.50000000  0.00000000  0.50000000  1
  Li  Li4  1  0.00000000  0.50000000  0.50000000  1
  Li  Li5  1  0.83026142  0.98396062  0.79267659  1
  Li  Li6  1  0.10914336  0.78560610  0.13389142  1
  O  O7  1  0.07801757  0.25178539  0.96095568  1
  O  O8  1  0.80955265  0.05915103  0.35101256  1
  N  N9  1  0.97206293  0.02133011  0.65556767  1
  N  N10  1  0.33771809  0.86486012  0.61194095  1
  N  N11  1  0.03317312  0.79041635  0.47966723  1
  N  N12  1  0.24573000  0.49979170  0.20546084  1
  N  N13  1  0.49340344  0.67434450  0.99474203  1
