# generated using pymatgen
data_Li2O4F3
_symmetry_space_group_name_H-M   'P 1'
_cell_length_a   7.76535513
_cell_length_b   7.62189614
_cell_length_c   8.14101736
_cell_angle_alpha   90.35159433
_cell_angle_beta   92.28163163
_cell_angle_gamma   90.38129216
_symmetry_Int_Tables_number   1
_chemical_formula_structural   Li2O4F3
_chemical_formula_sum   'Li2 O4 F3'
_cell_volume   481.43765892
_cell_formula_units_Z   1
loop_
 _symmetry_equiv_pos_site_id
 _symmetry_equiv_pos_as_xyz
  1  'x, y, z'
loop_
 _atom_site_type_symbol
 _atom_site_label
 _atom_site_symmetry_multiplicity
 _atom_site_fract_x
 _atom_site_fract_y
 _atom_site_fract_z
 _atom_site_occupancy
  Li  Li0  1  0.12500000  0.00000000  0.25000000  1
  Li  Li1  1  0.00000000  0.00000000  0.00000000  1
  F  F2  1  0.37500000  0.00000000  0.25000000  1
  F  F3  1  0.25000000  0.25000000  0.25000000  1
  F  F4  1  0.00000000  0.25000000  0.12500000  1
  O  O5  1  0.55986346  0.47221457  0.01781952  1
  O  O6  1  0.28136662  0.09318547  0.08882865  1
  O  O7  1  0.02112434  0.92943363  0.71094080  1
  O  O8  1  0.91536654  0.27287246  0.50853194  1
