# generated using pymatgen
data_Li2Mn2Sb4P2N
_symmetry_space_group_name_H-M   'P 1'
_cell_length_a   6.02553084
_cell_length_b   6.54198139
_cell_length_c   7.08084340
_cell_angle_alpha   95.02593850
_cell_angle_beta   95.36381660
_cell_angle_gamma   94.29064238
_symmetry_Int_Tables_number   1
_chemical_formula_structural   Li2Mn2Sb4P2N
_chemical_formula_sum   'Li2 Mn2 Sb4 P2 N1'
_cell_volume   275.85724175
_cell_formula_units_Z   1
loop_
 _symmetry_equiv_pos_site_id
 _symmetry_equiv_pos_as_xyz
  1  'x, y, z'
loop_
 _atom_site_type_symbol
 _atom_site_label
 _atom_site_symmetry_multiplicity
 _atom_site_fract_x
 _atom_site_fract_y
 _atom_site_fract_z
 _atom_site_occupancy
  N  N0  1  0.00000000  0.00000000  0.00000000  1
  Mn  Mn1  1  0.50000000  0.50000000  0.50000000  1
  Mn  Mn2  1  0.50000000  0.50000000  0.00000000  1
  Sb  Sb3  1  0.50000000  0.00000000  0.50000000  1
  Sb  Sb4  1  0.00000000  0.50000000  0.50000000  1
  Sb  Sb5  1  0.17103062  0.27975076  0.29842977  1
  Sb  Sb6  1  0.31607862  0.09230936  0.69305058  1
  P  P7  1  0.34490890  0.54509764  0.44637888  1
  P  P8  1  0.97671315  0.66223352  0.31416608  1
  Li  Li9  1  0.45882252  0.87788567  0.31324696  1
  Li  Li10  1  0.78525005  0.44223130  0.00013401  1
