# generated using pymatgen
data_Li4Ti3(NiP2)2
_symmetry_space_group_name_H-M   'P 1'
_cell_length_a   5.82701667
_cell_length_b   5.96742586
_cell_length_c   7.38719108
_cell_angle_alpha   99.17074916
_cell_angle_beta   101.21095159
_cell_angle_gamma   101.64830657
_symmetry_Int_Tables_number   1
_chemical_formula_structural   Li4Ti3(NiP2)2
_chemical_formula_sum   'Li4 Ti3 Ni2 P4'
_cell_volume   241.44663545
_cell_formula_units_Z   1
loop_
 _symmetry_equiv_pos_site_id
 _symmetry_equiv_pos_as_xyz
  1  'x, y, z'
loop_
 _atom_site_type_symbol
 _atom_site_label
 _atom_site_symmetry_multiplicity
 _atom_site_fract_x
 _atom_site_fract_y
 _atom_site_fract_z
 _atom_site_occupancy
  P  P0  1  0.12500000  0.00000000  0.25000000  1
  P  P1  1  0.00000000  0.00000000  0.00000000  1
  P  P2  1  0.37500000  0.00000000  0.25000000  1
  P  P3  1  0.25000000  0.25000000  0.25000000  1
  Li  Li4  1  0.00000000  0.25000000  0.12500000  1
  Li  Li5  1  0.65922610  0.95079079  0.43395825  1
  Li  Li6  1  0.34597916  0.84096824  0.42263530  1
  Li  Li7  1  0.99462012  0.59865633  0.36205735  1
  Ni  Ni8  1  0.15542465  0.65367881  0.18177306  1
  Ni  Ni9  1  0.95702544  0.81488824  0.48008129  1
  Ti  Ti10  1  0.81873236  0.12707616  0.08939300  1
  Ti  Ti11  1  0.32339117  0.65848046  0.96139712  1
  Ti  Ti12  1  0.19325837  0.40833056  0.29710276  1
