# generated using pymatgen
data_Li2MnSb4P3N5
_symmetry_space_group_name_H-M   'P 1'
_cell_length_a   7.24974246
_cell_length_b   7.80033396
_cell_length_c   7.86000827
_cell_angle_alpha   91.37935363
_cell_angle_beta   91.63397183
_cell_angle_gamma   91.56987474
_symmetry_Int_Tables_number   1
_chemical_formula_structural   Li2MnSb4P3N5
_chemical_formula_sum   'Li2 Mn1 Sb4 P3 N5'
_cell_volume   444.00180297
_cell_formula_units_Z   1
loop_
 _symmetry_equiv_pos_site_id
 _symmetry_equiv_pos_as_xyz
  1  'x, y, z'
loop_
 _atom_site_type_symbol
 _atom_site_label
 _atom_site_symmetry_multiplicity
 _atom_site_fract_x
 _atom_site_fract_y
 _atom_site_fract_z
 _atom_site_occupancy
  N  N0  1  0.00000000  0.00000000  0.00000000  1
  N  N1  1  0.50000000  0.50000000  0.50000000  1
  N  N2  1  0.50000000  0.50000000  0.00000000  1
  N  N3  1  0.50000000  0.00000000  0.50000000  1
  N  N4  1  0.00000000  0.50000000  0.50000000  1
  Mn  Mn5  1  0.28257735  0.26378946  0.02151370  1
  Sb  Sb6  1  0.10422272  0.18478598  0.39069818  1
  Sb  Sb7  1  0.72311794  0.49416353  0.18826230  1
  Sb  Sb8  1  0.16236436  0.08582763  0.05814525  1
  Sb  Sb9  1  0.34582966  0.86870599  0.95184692  1
  P  P10  1  0.75402655  0.10900235  0.81076672  1
  P  P11  1  0.86861723  0.12630324  0.97877976  1
  P  P12  1  0.85001254  0.83147810  0.45058689  1
  Li  Li13  1  0.13613198  0.55690082  0.31367633  1
  Li  Li14  1  0.99637604  0.95719478  0.97489807  1
