# generated using pymatgen
data_Li3TiTe6I4O3
_symmetry_space_group_name_H-M   'P 1'
_cell_length_a   7.81231535
_cell_length_b   8.02647366
_cell_length_c   7.15321195
_cell_angle_alpha   91.92707037
_cell_angle_beta   92.21113713
_cell_angle_gamma   91.74019242
_symmetry_Int_Tables_number   1
_chemical_formula_structural   Li3TiTe6I4O3
_chemical_formula_sum   'Li3 Ti1 Te6 I4 O3'
_cell_volume   447.73193032
_cell_formula_units_Z   1
loop_
 _symmetry_equiv_pos_site_id
 _symmetry_equiv_pos_as_xyz
  1  'x, y, z'
loop_
 _atom_site_type_symbol
 _atom_site_label
 _atom_site_symmetry_multiplicity
 _atom_site_fract_x
 _atom_site_fract_y
 _atom_site_fract_z
 _atom_site_occupancy
  I  I0  1  0.00000000  0.00000000  0.00000000  1
  I  I1  1  0.50000000  0.50000000  0.50000000  1
  I  I2  1  0.25000000  0.25000000  0.25000000  1
  I  I3  1  0.75000000  0.25000000  0.00000000  1
  Li  Li4  1  0.25000000  0.75000000  0.50000000  1
  Li  Li5  1  0.25435033  0.03812534  0.45465321  1
  Li  Li6  1  0.92478274  0.35987370  0.50504571  1
  Te  Te7  1  0.50968565  0.44802305  0.42975117  1
  Te  Te8  1  0.48063342  0.31143083  0.83891270  1
  Te  Te9  1  0.84442345  0.29398469  0.30546569  1
  Te  Te10  1  0.77661406  0.74860239  0.09041826  1
  Te  Te11  1  0.23394263  0.09117767  0.35746052  1
  Te  Te12  1  0.71559470  0.06842264  0.16205956  1
  Ti  Ti13  1  0.51870319  0.97935261  0.60620871  1
  O  O14  1  0.10855695  0.34091376  0.92555024  1
  O  O15  1  0.57953456  0.57966932  0.91744353  1
  O  O16  1  0.50105357  0.91062246  0.48843359  1
