# generated using pymatgen
data_Li4Ti(P2O)2
_symmetry_space_group_name_H-M   'P 1'
_cell_length_a   3.38170874
_cell_length_b   3.50229961
_cell_length_c   6.01961287
_cell_angle_alpha   117.29278543
_cell_angle_beta   95.36672014
_cell_angle_gamma   112.26587366
_symmetry_Int_Tables_number   1
_chemical_formula_structural   Li4Ti(P2O)2
_chemical_formula_sum   'Li4 Ti1 P4 O2'
_cell_volume   55.45097940
_cell_formula_units_Z   1
loop_
 _symmetry_equiv_pos_site_id
 _symmetry_equiv_pos_as_xyz
  1  'x, y, z'
loop_
 _atom_site_type_symbol
 _atom_site_label
 _atom_site_symmetry_multiplicity
 _atom_site_fract_x
 _atom_site_fract_y
 _atom_site_fract_z
 _atom_site_occupancy
  Ti  Ti0  1  0.12500000  0.12500000  0.12500000  1
  P  P1  1  0.50000000  0.50000000  0.50000000  1
  P  P2  1  0.25000000  0.25000000  0.25000000  1
  P  P3  1  0.75000000  0.75000000  0.75000000  1
  P  P4  1  0.70533614  0.48852328  0.23661044  1
  O  O5  1  0.75108897  0.04918520  0.18847367  1
  O  O6  1  0.28391032  0.36787193  0.48764933  1
  Li  Li7  1  0.05607060  0.98752677  0.84767252  1
  Li  Li8  1  0.71931895  0.29469386  0.94880101  1
  Li  Li9  1  0.63768172  0.53740348  0.84302789  1
  Li  Li10  1  0.13896469  0.36441967  0.02510998  1
