# generated using pymatgen
data_Li3Ti(I2Cl)2
_symmetry_space_group_name_H-M   'P 1'
_cell_length_a   6.20987540
_cell_length_b   5.94034351
_cell_length_c   6.98327777
_cell_angle_alpha   100.03477962
_cell_angle_beta   103.25750077
_cell_angle_gamma   99.46579343
_symmetry_Int_Tables_number   1
_chemical_formula_structural   Li3Ti(I2Cl)2
_chemical_formula_sum   'Li3 Ti1 I4 Cl2'
_cell_volume   241.22269555
_cell_formula_units_Z   1
loop_
 _symmetry_equiv_pos_site_id
 _symmetry_equiv_pos_as_xyz
  1  'x, y, z'
loop_
 _atom_site_type_symbol
 _atom_site_label
 _atom_site_symmetry_multiplicity
 _atom_site_fract_x
 _atom_site_fract_y
 _atom_site_fract_z
 _atom_site_occupancy
  I  I0  1  0.12500000  0.00000000  0.25000000  1
  I  I1  1  0.00000000  0.00000000  0.00000000  1
  I  I2  1  0.37500000  0.00000000  0.25000000  1
  I  I3  1  0.25000000  0.25000000  0.25000000  1
  Li  Li4  1  0.00000000  0.25000000  0.12500000  1
  Li  Li5  1  0.68887243  0.49506631  0.02608944  1
  Li  Li6  1  0.14954299  0.25662399  0.91048615  1
  Cl  Cl7  1  0.77365821  0.89033884  0.44114225  1
  Cl  Cl8  1  0.77389348  0.79876921  0.19676811  1
  Ti  Ti9  1  0.86086471  0.35950789  0.06218097  1
