# generated using pymatgen
data_Li4ZrTi(I2O)2
_symmetry_space_group_name_H-M   'P 1'
_cell_length_a   6.49968751
_cell_length_b   6.23956869
_cell_length_c   7.69503325
_cell_angle_alpha   98.81199675
_cell_angle_beta   101.50895271
_cell_angle_gamma   98.30460134
_symmetry_Int_Tables_number   1
_chemical_formula_structural   Li4ZrTi(I2O)2
_chemical_formula_sum   'Li4 Zr1 Ti1 I4 O2'
_cell_volume   297.21376286
_cell_formula_units_Z   1
loop_
 _symmetry_equiv_pos_site_id
 _symmetry_equiv_pos_as_xyz
  1  'x, y, z'
loop_
 _atom_site_type_symbol
 _atom_site_label
 _atom_site_symmetry_multiplicity
 _atom_site_fract_x
 _atom_site_fract_y
 _atom_site_fract_z
 _atom_site_occupancy
  Li  Li0  1  0.00000000  0.00000000  0.00000000  1
  Li  Li1  1  0.50000000  0.50000000  0.50000000  1
  Li  Li2  1  0.50000000  0.50000000  0.00000000  1
  Li  Li3  1  0.50000000  0.00000000  0.50000000  1
  Ti  Ti4  1  0.00000000  0.50000000  0.50000000  1
  I  I5  1  0.64696175  0.58035346  0.28218852  1
  I  I6  1  0.98274844  0.02205402  0.06464294  1
  I  I7  1  0.65516584  0.76402539  0.85154096  1
  I  I8  1  0.01721371  0.64813278  0.39739769  1
  O  O9  1  0.17301325  0.37672603  0.92040157  1
  O  O10  1  0.53237538  0.97763988  0.33897487  1
  Zr  Zr11  1  0.92740144  0.63928772  0.64296615  1
