# generated using pymatgen
data_Li3Cu2As8O7F3
_symmetry_space_group_name_H-M   'P 1'
_cell_length_a   7.50257682
_cell_length_b   7.32829111
_cell_length_c   8.67237266
_cell_angle_alpha   91.70045484
_cell_angle_beta   92.10057023
_cell_angle_gamma   91.95608708
_symmetry_Int_Tables_number   1
_chemical_formula_structural   Li3Cu2As8O7F3
_chemical_formula_sum   'Li3 Cu2 As8 O7 F3'
_cell_volume   475.98988467
_cell_formula_units_Z   1
loop_
 _symmetry_equiv_pos_site_id
 _symmetry_equiv_pos_as_xyz
  1  'x, y, z'
loop_
 _atom_site_type_symbol
 _atom_site_label
 _atom_site_symmetry_multiplicity
 _atom_site_fract_x
 _atom_site_fract_y
 _atom_site_fract_z
 _atom_site_occupancy
  Li  Li0  1  0.00000000  0.00000000  0.00000000  1
  Li  Li1  1  0.50000000  0.50000000  0.50000000  1
  Li  Li2  1  0.50000000  0.50000000  0.00000000  1
  Cu  Cu3  1  0.50000000  0.00000000  0.50000000  1
  Cu  Cu4  1  0.00000000  0.50000000  0.50000000  1
  F  F5  1  0.11733498  0.01261665  0.38374929  1
  F  F6  1  0.02868853  0.33185334  0.03970718  1
  F  F7  1  0.33268597  0.57645799  0.04086245  1
  As  As8  1  0.11306261  0.85655997  0.32636380  1
  As  As9  1  0.82113912  0.57914358  0.14961797  1
  As  As10  1  0.44938204  0.23766425  0.87131248  1
  As  As11  1  0.04090986  0.57924764  0.94056814  1
  As  As12  1  0.21779003  0.45404098  0.58285906  1
  As  As13  1  0.59942687  0.21804485  0.17127557  1
  As  As14  1  0.78320325  0.75875620  0.27500915  1
  As  As15  1  0.23331341  0.92434683  0.05454530  1
  O  O16  1  0.14026159  0.48703270  0.02305723  1
  O  O17  1  0.51613414  0.20831454  0.83290381  1
  O  O18  1  0.48962258  0.03938190  0.02294668  1
  O  O19  1  0.29538097  0.35462190  0.42600430  1
  O  O20  1  0.44869603  0.76942366  0.72506584  1
  O  O21  1  0.74638664  0.84646340  0.48688116  1
  O  O22  1  0.19641863  0.93499893  0.17335776  1
