# generated using pymatgen
data_Li3Cu2As6(P4O)2
_symmetry_space_group_name_H-M   'P 1'
_cell_length_a   7.13709514
_cell_length_b   7.42189885
_cell_length_c   8.33841153
_cell_angle_alpha   92.87053453
_cell_angle_beta   94.64526695
_cell_angle_gamma   92.75739728
_symmetry_Int_Tables_number   1
_chemical_formula_structural   Li3Cu2As6(P4O)2
_chemical_formula_sum   'Li3 Cu2 As6 P8 O2'
_cell_volume   439.08498355
_cell_formula_units_Z   1
loop_
 _symmetry_equiv_pos_site_id
 _symmetry_equiv_pos_as_xyz
  1  'x, y, z'
loop_
 _atom_site_type_symbol
 _atom_site_label
 _atom_site_symmetry_multiplicity
 _atom_site_fract_x
 _atom_site_fract_y
 _atom_site_fract_z
 _atom_site_occupancy
  P  P0  1  0.00000000  0.00000000  0.00000000  1
  P  P1  1  0.50000000  0.50000000  0.50000000  1
  P  P2  1  0.50000000  0.50000000  0.00000000  1
  P  P3  1  0.50000000  0.00000000  0.50000000  1
  P  P4  1  0.00000000  0.50000000  0.50000000  1
  P  P5  1  0.78764739  0.87301601  0.45430805  1
  P  P6  1  0.97378965  0.15324713  0.65351219  1
  P  P7  1  0.65052564  0.22572311  0.80115895  1
  Li  Li8  1  0.32019759  0.36189663  0.74148219  1
  Li  Li9  1  0.95527655  0.21864119  0.24310402  1
  Li  Li10  1  0.71920207  0.14457795  0.21282777  1
  Cu  Cu11  1  0.45845819  0.98406412  0.43026629  1
  Cu  Cu12  1  0.38581320  0.98592673  0.02883628  1
  As  As13  1  0.92168312  0.55576543  0.03034781  1
  As  As14  1  0.07953750  0.08409367  0.39367666  1
  As  As15  1  0.42400169  0.55438158  0.03820875  1
  As  As16  1  0.05807195  0.32610181  0.82197296  1
  As  As17  1  0.93206284  0.87615745  0.95212207  1
  As  As18  1  0.51542542  0.75602143  0.27734096  1
  O  O19  1  0.74998344  0.14984014  0.42636254  1
  O  O20  1  0.80900603  0.59818595  0.86633391  1
