# generated using pymatgen
data_LiMn2(Sb2P)2
_symmetry_space_group_name_H-M   'P 1'
_cell_length_a   5.70749754
_cell_length_b   6.04761368
_cell_length_c   6.69590234
_cell_angle_alpha   94.50526635
_cell_angle_beta   94.95034336
_cell_angle_gamma   93.67098209
_symmetry_Int_Tables_number   1
_chemical_formula_structural   LiMn2(Sb2P)2
_chemical_formula_sum   'Li1 Mn2 Sb4 P2'
_cell_volume   228.96307431
_cell_formula_units_Z   1
loop_
 _symmetry_equiv_pos_site_id
 _symmetry_equiv_pos_as_xyz
  1  'x, y, z'
loop_
 _atom_site_type_symbol
 _atom_site_label
 _atom_site_symmetry_multiplicity
 _atom_site_fract_x
 _atom_site_fract_y
 _atom_site_fract_z
 _atom_site_occupancy
  Mn  Mn0  1  0.00000000  0.00000000  0.00000000  1
  Mn  Mn1  1  0.50000000  0.50000000  0.50000000  1
  Sb  Sb2  1  0.50000000  0.50000000  0.00000000  1
  Sb  Sb3  1  0.50000000  0.00000000  0.50000000  1
  Sb  Sb4  1  0.00000000  0.50000000  0.50000000  1
  Sb  Sb5  1  0.54038582  0.14334500  0.85354086  1
  P  P6  1  0.83887760  0.60046100  0.35094112  1
  P  P7  1  0.85218413  0.80683458  0.44502499  1
  Li  Li8  1  0.54859219  0.61924869  0.58901813  1
