# generated using pymatgen
data_Li3Ti3(PBr)2
_symmetry_space_group_name_H-M   'P 1'
_cell_length_a   8.44807046
_cell_length_b   7.44045730
_cell_length_c   7.86168112
_cell_angle_alpha   90.00000000
_cell_angle_beta   90.00000000
_cell_angle_gamma   90.00000000
_symmetry_Int_Tables_number   1
_chemical_formula_structural   Li3Ti3(PBr)2
_chemical_formula_sum   'Li3 Ti3 P2 Br2'
_cell_volume   494.16567981
_cell_formula_units_Z   1
loop_
 _symmetry_equiv_pos_site_id
 _symmetry_equiv_pos_as_xyz
  1  'x, y, z'
loop_
 _atom_site_type_symbol
 _atom_site_label
 _atom_site_symmetry_multiplicity
 _atom_site_fract_x
 _atom_site_fract_y
 _atom_site_fract_z
 _atom_site_occupancy
  Br  Br0  1  0.12500000  0.00000000  0.25000000  1
  Br  Br1  1  0.00000000  0.00000000  0.00000000  1
  Ti  Ti2  1  0.37500000  0.00000000  0.25000000  1
  Ti  Ti3  1  0.25000000  0.25000000  0.25000000  1
  Ti  Ti4  1  0.00000000  0.25000000  0.12500000  1
  P  P5  1  0.12836585  0.78765194  0.69255430  1
  P  P6  1  0.63400243  0.72247146  0.64226194  1
  Li  Li7  1  0.11431172  0.40309638  0.76681687  1
  Li  Li8  1  0.88861375  0.06513520  0.06938963  1
  Li  Li9  1  0.54830324  0.16330949  0.40887355  1
