# generated using pymatgen
data_Li2Ni3P3N
_symmetry_space_group_name_H-M   'P 1'
_cell_length_a   4.37980420
_cell_length_b   4.48592238
_cell_length_c   6.40221473
_cell_angle_alpha   99.51500863
_cell_angle_beta   97.28680852
_cell_angle_gamma   99.35228774
_symmetry_Int_Tables_number   1
_chemical_formula_structural   Li2Ni3P3N
_chemical_formula_sum   'Li2 Ni3 P3 N1'
_cell_volume   120.87131951
_cell_formula_units_Z   1
loop_
 _symmetry_equiv_pos_site_id
 _symmetry_equiv_pos_as_xyz
  1  'x, y, z'
loop_
 _atom_site_type_symbol
 _atom_site_label
 _atom_site_symmetry_multiplicity
 _atom_site_fract_x
 _atom_site_fract_y
 _atom_site_fract_z
 _atom_site_occupancy
  P  P0  1  0.00000000  0.00000000  0.00000000  1
  P  P1  1  0.50000000  0.50000000  0.50000000  1
  P  P2  1  0.50000000  0.50000000  0.00000000  1
  Li  Li3  1  0.50000000  0.00000000  0.50000000  1
  Li  Li4  1  0.00000000  0.50000000  0.50000000  1
  N  N5  1  0.33864537  0.57030992  0.31137013  1
  Ni  Ni6  1  0.78175416  0.03134187  0.33279808  1
  Ni  Ni7  1  0.44299602  0.46982431  0.52851803  1
  Ni  Ni8  1  0.03426382  0.60168184  0.84654294  1
