# generated using pymatgen
data_Li2Mg3Zr2TiSb3
_symmetry_space_group_name_H-M   'P 1'
_cell_length_a   8.21112223
_cell_length_b   9.07116248
_cell_length_c   7.82476922
_cell_angle_alpha   90.00000000
_cell_angle_beta   90.00000000
_cell_angle_gamma   90.00000000
_symmetry_Int_Tables_number   1
_chemical_formula_structural   Li2Mg3Zr2TiSb3
_chemical_formula_sum   'Li2 Mg3 Zr2 Ti1 Sb3'
_cell_volume   582.82342716
_cell_formula_units_Z   1
loop_
 _symmetry_equiv_pos_site_id
 _symmetry_equiv_pos_as_xyz
  1  'x, y, z'
loop_
 _atom_site_type_symbol
 _atom_site_label
 _atom_site_symmetry_multiplicity
 _atom_site_fract_x
 _atom_site_fract_y
 _atom_site_fract_z
 _atom_site_occupancy
  Mg  Mg0  1  0.00000000  0.00000000  0.00000000  1
  Mg  Mg1  1  0.50000000  0.50000000  0.50000000  1
  Mg  Mg2  1  0.25000000  0.25000000  0.25000000  1
  Ti  Ti3  1  0.75000000  0.25000000  0.00000000  1
  Sb  Sb4  1  0.25000000  0.75000000  0.50000000  1
  Sb  Sb5  1  0.22641928  0.34425759  0.51258387  1
  Sb  Sb6  1  0.12930011  0.66335399  0.41492104  1
  Zr  Zr7  1  0.72845558  0.42078607  0.06236389  1
  Zr  Zr8  1  0.16927597  0.52170640  0.59636577  1
  Li  Li9  1  0.55300492  0.20605212  0.49809311  1
  Li  Li10  1  0.19018539  0.71078900  0.07877893  1
