# generated using pymatgen
data_Li4TiP2
_symmetry_space_group_name_H-M   'P 1'
_cell_length_a   5.27361692
_cell_length_b   5.26112599
_cell_length_c   7.49568092
_cell_angle_alpha   108.53287971
_cell_angle_beta   92.51535694
_cell_angle_gamma   108.90064834
_symmetry_Int_Tables_number   1
_chemical_formula_structural   Li4TiP2
_chemical_formula_sum   'Li4 Ti1 P2'
_cell_volume   184.03535444
_cell_formula_units_Z   1
loop_
 _symmetry_equiv_pos_site_id
 _symmetry_equiv_pos_as_xyz
  1  'x, y, z'
loop_
 _atom_site_type_symbol
 _atom_site_label
 _atom_site_symmetry_multiplicity
 _atom_site_fract_x
 _atom_site_fract_y
 _atom_site_fract_z
 _atom_site_occupancy
  Ti  Ti0  1  0.12500000  0.00000000  0.25000000  1
  P  P1  1  0.00000000  0.00000000  0.00000000  1
  P  P2  1  0.37500000  0.00000000  0.25000000  1
  Li  Li3  1  0.25000000  0.25000000  0.25000000  1
  Li  Li4  1  0.00000000  0.25000000  0.12500000  1
  Li  Li5  1  0.76719254  0.36131593  0.94832873  1
  Li  Li6  1  0.60030445  0.62319453  0.68843920  1
