# generated using pymatgen
data_Li5Ti2SeO4F3
_symmetry_space_group_name_H-M   'P 1'
_cell_length_a   4.36707186
_cell_length_b   4.01636783
_cell_length_c   6.66143356
_cell_angle_alpha   107.32019578
_cell_angle_beta   112.36720788
_cell_angle_gamma   106.24625117
_symmetry_Int_Tables_number   1
_chemical_formula_structural   Li5Ti2SeO4F3
_chemical_formula_sum   'Li5 Ti2 Se1 O4 F3'
_cell_volume   92.36251186
_cell_formula_units_Z   1
loop_
 _symmetry_equiv_pos_site_id
 _symmetry_equiv_pos_as_xyz
  1  'x, y, z'
loop_
 _atom_site_type_symbol
 _atom_site_label
 _atom_site_symmetry_multiplicity
 _atom_site_fract_x
 _atom_site_fract_y
 _atom_site_fract_z
 _atom_site_occupancy
  Li  Li0  1  0.00000000  0.00000000  0.00000000  1
  Li  Li1  1  0.50000000  0.50000000  0.50000000  1
  Li  Li2  1  0.50000000  0.50000000  0.00000000  1
  Li  Li3  1  0.50000000  0.00000000  0.50000000  1
  Li  Li4  1  0.00000000  0.50000000  0.50000000  1
  Se  Se5  1  0.98969484  0.51378024  0.33576391  1
  F  F6  1  0.38796476  0.44812039  0.91361762  1
  F  F7  1  0.12457430  0.69218665  0.01942910  1
  F  F8  1  0.00607492  0.04574742  0.38710738  1
  Ti  Ti9  1  0.41029680  0.75472531  0.41774213  1
  Ti  Ti10  1  0.96254305  0.36310563  0.43354510  1
  O  O11  1  0.28744889  0.41177837  0.76610507  1
  O  O12  1  0.58890374  0.97992575  0.06097217  1
  O  O13  1  0.07082124  0.00084669  0.41283449  1
  O  O14  1  0.44580655  0.58808492  0.53986188  1
