# generated using pymatgen
data_LiMn2Sb4P3
_symmetry_space_group_name_H-M   'P 1'
_cell_length_a   5.92375847
_cell_length_b   5.99273965
_cell_length_c   6.63601263
_cell_angle_alpha   91.13515137
_cell_angle_beta   92.00792365
_cell_angle_gamma   91.73489421
_symmetry_Int_Tables_number   1
_chemical_formula_structural   LiMn2Sb4P3
_chemical_formula_sum   'Li1 Mn2 Sb4 P3'
_cell_volume   235.27147384
_cell_formula_units_Z   1
loop_
 _symmetry_equiv_pos_site_id
 _symmetry_equiv_pos_as_xyz
  1  'x, y, z'
loop_
 _atom_site_type_symbol
 _atom_site_label
 _atom_site_symmetry_multiplicity
 _atom_site_fract_x
 _atom_site_fract_y
 _atom_site_fract_z
 _atom_site_occupancy
  Mn  Mn0  1  0.00000000  0.00000000  0.00000000  1
  Mn  Mn1  1  0.33300000  0.66700000  0.25000000  1
  Sb  Sb2  1  0.66700000  0.33300000  0.50000000  1
  Sb  Sb3  1  0.00000000  0.00000000  0.75000000  1
  Sb  Sb4  1  0.08549196  0.66904406  0.57866590  1
  Sb  Sb5  1  0.14318254  0.18141809  0.59825970  1
  P  P6  1  0.10088851  0.97746530  0.76967422  1
  P  P7  1  0.20108119  0.48695808  0.49122762  1
  P  P8  1  0.00865182  0.59632595  0.00159848  1
  Li  Li9  1  0.59724109  0.90996763  0.10376152  1
