# generated using pymatgen
data_Li3Te6O4F3
_symmetry_space_group_name_H-M   'P 1'
_cell_length_a   7.53578521
_cell_length_b   7.53830785
_cell_length_c   7.44682936
_cell_angle_alpha   92.57726224
_cell_angle_beta   92.82476063
_cell_angle_gamma   92.31852061
_symmetry_Int_Tables_number   1
_chemical_formula_structural   Li3Te6O4F3
_chemical_formula_sum   'Li3 Te6 O4 F3'
_cell_volume   421.70499091
_cell_formula_units_Z   1
loop_
 _symmetry_equiv_pos_site_id
 _symmetry_equiv_pos_as_xyz
  1  'x, y, z'
loop_
 _atom_site_type_symbol
 _atom_site_label
 _atom_site_symmetry_multiplicity
 _atom_site_fract_x
 _atom_site_fract_y
 _atom_site_fract_z
 _atom_site_occupancy
  Li  Li0  1  0.00000000  0.00000000  0.00000000  1
  Li  Li1  1  0.50000000  0.50000000  0.50000000  1
  Li  Li2  1  0.50000000  0.50000000  0.00000000  1
  F  F3  1  0.50000000  0.00000000  0.50000000  1
  F  F4  1  0.00000000  0.50000000  0.50000000  1
  F  F5  1  0.58173121  0.14551167  0.23239320  1
  Te  Te6  1  0.72123510  0.89659983  0.61181044  1
  Te  Te7  1  0.28849276  0.31188629  0.59239841  1
  Te  Te8  1  0.40240072  0.10300464  0.29307420  1
  Te  Te9  1  0.01334969  0.24648698  0.10365210  1
  Te  Te10  1  0.71530992  0.29943136  0.63345887  1
  Te  Te11  1  0.65007930  0.74401301  0.45839544  1
  O  O12  1  0.17842977  0.95782221  0.72684319  1
  O  O13  1  0.75365765  0.12275379  0.89713124  1
  O  O14  1  0.66132610  0.60194857  0.27521505  1
  O  O15  1  0.35181371  0.98435957  0.22393215  1
