# generated using pymatgen
data_Li4Ni2As6N5O7
_symmetry_space_group_name_H-M   'P 1'
_cell_length_a   7.94248231
_cell_length_b   7.69949884
_cell_length_c   9.31987104
_cell_angle_alpha   91.47369357
_cell_angle_beta   90.52101256
_cell_angle_gamma   91.70930614
_symmetry_Int_Tables_number   1
_chemical_formula_structural   Li4Ni2As6N5O7
_chemical_formula_sum   'Li4 Ni2 As6 N5 O7'
_cell_volume   569.46955076
_cell_formula_units_Z   1
loop_
 _symmetry_equiv_pos_site_id
 _symmetry_equiv_pos_as_xyz
  1  'x, y, z'
loop_
 _atom_site_type_symbol
 _atom_site_label
 _atom_site_symmetry_multiplicity
 _atom_site_fract_x
 _atom_site_fract_y
 _atom_site_fract_z
 _atom_site_occupancy
  Li  Li0  1  0.00000000  0.00000000  0.00000000  1
  Li  Li1  1  0.50000000  0.50000000  0.50000000  1
  Li  Li2  1  0.25000000  0.25000000  0.25000000  1
  Li  Li3  1  0.75000000  0.25000000  0.00000000  1
  Ni  Ni4  1  0.25000000  0.75000000  0.50000000  1
  Ni  Ni5  1  0.27242172  0.45190695  0.46506316  1
  As  As6  1  0.58264929  0.91002370  0.41658472  1
  As  As7  1  0.42767414  0.08953199  0.12796733  1
  As  As8  1  0.76499184  0.55908916  0.58722775  1
  As  As9  1  0.02229859  0.19604733  0.86730869  1
  As  As10  1  0.24461489  0.88745547  0.42507762  1
  As  As11  1  0.81345401  0.42873065  0.83023318  1
  O  O12  1  0.60926607  0.15757773  0.51669764  1
  O  O13  1  0.79118612  0.87793355  0.40633060  1
  O  O14  1  0.82662821  0.74478493  0.26732714  1
  O  O15  1  0.32154451  0.39405839  0.75849318  1
  O  O16  1  0.54378628  0.04876957  0.86172787  1
  O  O17  1  0.06659572  0.33946853  0.62423066  1
  O  O18  1  0.84629080  0.04962295  0.32506814  1
  N  N19  1  0.45278794  0.69064616  0.99570225  1
  N  N20  1  0.07086776  0.27444471  0.61869184  1
  N  N21  1  0.47770027  0.79786767  0.40629691  1
  N  N22  1  0.16419552  0.48899594  0.64631543  1
  N  N23  1  0.17278823  0.20768799  0.67359219  1
