# generated using pymatgen
data_Li3TiAs6O5F3
_symmetry_space_group_name_H-M   'P 1'
_cell_length_a   8.30522570
_cell_length_b   8.16706255
_cell_length_c   7.82762360
_cell_angle_alpha   90.18767490
_cell_angle_beta   91.31482089
_cell_angle_gamma   90.20023589
_symmetry_Int_Tables_number   1
_chemical_formula_structural   Li3TiAs6O5F3
_chemical_formula_sum   'Li3 Ti1 As6 O5 F3'
_cell_volume   530.79618695
_cell_formula_units_Z   1
loop_
 _symmetry_equiv_pos_site_id
 _symmetry_equiv_pos_as_xyz
  1  'x, y, z'
loop_
 _atom_site_type_symbol
 _atom_site_label
 _atom_site_symmetry_multiplicity
 _atom_site_fract_x
 _atom_site_fract_y
 _atom_site_fract_z
 _atom_site_occupancy
  Li  Li0  1  0.00000000  0.00000000  0.00000000  1
  Li  Li1  1  0.50000000  0.50000000  0.50000000  1
  Li  Li2  1  0.50000000  0.50000000  0.00000000  1
  F  F3  1  0.50000000  0.00000000  0.50000000  1
  F  F4  1  0.00000000  0.50000000  0.50000000  1
  F  F5  1  0.75796957  0.02111395  0.62822895  1
  Ti  Ti6  1  0.88824609  0.28369296  0.81007017  1
  As  As7  1  0.39127688  0.27328709  0.70613577  1
  As  As8  1  0.39120126  0.92235664  0.75640492  1
  As  As9  1  0.74399584  0.63649337  0.71608796  1
  As  As10  1  0.53441503  0.21958439  0.10960155  1
  As  As11  1  0.78249883  0.51894713  0.24161673  1
  As  As12  1  0.62665810  0.44887094  0.65527386  1
  O  O13  1  0.64321996  0.85545278  0.94876613  1
  O  O14  1  0.16747985  0.55757487  0.42686264  1
  O  O15  1  0.15354694  0.73246316  0.40926423  1
  O  O16  1  0.46174236  0.79530667  0.82750649  1
  O  O17  1  0.15469033  0.61597787  0.16485785  1
