# generated using pymatgen
data_Li3Ni2P4N5F2
_symmetry_space_group_name_H-M   'P 1'
_cell_length_a   7.23262161
_cell_length_b   6.84261425
_cell_length_c   8.23528550
_cell_angle_alpha   93.12761247
_cell_angle_beta   92.55260814
_cell_angle_gamma   93.41122355
_symmetry_Int_Tables_number   1
_chemical_formula_structural   Li3Ni2P4N5F2
_chemical_formula_sum   'Li3 Ni2 P4 N5 F2'
_cell_volume   405.76941390
_cell_formula_units_Z   1
loop_
 _symmetry_equiv_pos_site_id
 _symmetry_equiv_pos_as_xyz
  1  'x, y, z'
loop_
 _atom_site_type_symbol
 _atom_site_label
 _atom_site_symmetry_multiplicity
 _atom_site_fract_x
 _atom_site_fract_y
 _atom_site_fract_z
 _atom_site_occupancy
  P  P0  1  0.00000000  0.00000000  0.00000000  1
  P  P1  1  0.50000000  0.50000000  0.50000000  1
  P  P2  1  0.50000000  0.50000000  0.00000000  1
  P  P3  1  0.50000000  0.00000000  0.50000000  1
  Li  Li4  1  0.00000000  0.50000000  0.50000000  1
  Li  Li5  1  0.21342681  0.68520304  0.63442032  1
  Li  Li6  1  0.10066826  0.75138519  0.10712771  1
  F  F7  1  0.28533753  0.03906948  0.32966529  1
  F  F8  1  0.73358170  0.95897004  0.14990145  1
  Ni  Ni9  1  0.50345535  0.98791426  0.70760711  1
  Ni  Ni10  1  0.63947998  0.43509882  0.25839340  1
  N  N11  1  0.12832288  0.70011631  0.25773175  1
  N  N12  1  0.19786689  0.24414028  0.50425338  1
  N  N13  1  0.35761947  0.46342376  0.47040473  1
  N  N14  1  0.75093367  0.45086171  0.07472218  1
  N  N15  1  0.23670448  0.18175828  0.87908885  1
