# generated using pymatgen
data_LiCuAs3
_symmetry_space_group_name_H-M   'P 1'
_cell_length_a   7.45628890
_cell_length_b   7.41689777
_cell_length_c   8.60965677
_cell_angle_alpha   91.70972819
_cell_angle_beta   91.86719936
_cell_angle_gamma   91.97831483
_symmetry_Int_Tables_number   1
_chemical_formula_structural   LiCuAs3
_chemical_formula_sum   'Li2 Cu2 As6'
_cell_volume   475.37085161
_cell_formula_units_Z   2
loop_
 _symmetry_equiv_pos_site_id
 _symmetry_equiv_pos_as_xyz
  1  'x, y, z'
loop_
 _atom_site_type_symbol
 _atom_site_label
 _atom_site_symmetry_multiplicity
 _atom_site_fract_x
 _atom_site_fract_y
 _atom_site_fract_z
 _atom_site_occupancy
  Li  Li0  1  0.00000000  0.00000000  0.00000000  1
  Li  Li1  1  0.33300000  0.66700000  0.25000000  1
  Cu  Cu2  1  0.66700000  0.33300000  0.50000000  1
  Cu  Cu3  1  0.00000000  0.00000000  0.75000000  1
  As  As4  1  0.77763399  0.52018795  0.16529943  1
  As  As5  1  0.05137038  0.21700065  0.45550890  1
  As  As6  1  0.25428472  0.34039353  0.95180306  1
  As  As7  1  0.38964042  0.40158680  0.65718944  1
  As  As8  1  0.10203159  0.27044534  0.54521989  1
  As  As9  1  0.54253606  0.84638462  0.91666601  1
