# generated using pymatgen
data_Li3TiP3O2
_symmetry_space_group_name_H-M   'P 1'
_cell_length_a   7.12602301
_cell_length_b   6.80181738
_cell_length_c   6.95750037
_cell_angle_alpha   93.63809492
_cell_angle_beta   94.38486107
_cell_angle_gamma   93.29929621
_symmetry_Int_Tables_number   1
_chemical_formula_structural   Li3TiP3O2
_chemical_formula_sum   'Li3 Ti1 P3 O2'
_cell_volume   334.90419414
_cell_formula_units_Z   1
loop_
 _symmetry_equiv_pos_site_id
 _symmetry_equiv_pos_as_xyz
  1  'x, y, z'
loop_
 _atom_site_type_symbol
 _atom_site_label
 _atom_site_symmetry_multiplicity
 _atom_site_fract_x
 _atom_site_fract_y
 _atom_site_fract_z
 _atom_site_occupancy
  P  P0  1  0.00000000  0.00000000  0.00000000  1
  P  P1  1  0.50000000  0.50000000  0.50000000  1
  P  P2  1  0.50000000  0.50000000  0.00000000  1
  Li  Li3  1  0.50000000  0.00000000  0.50000000  1
  Li  Li4  1  0.00000000  0.50000000  0.50000000  1
  Li  Li5  1  0.39623654  0.44243194  0.11412182  1
  Ti  Ti6  1  0.50579975  0.32360823  0.65564204  1
  O  O7  1  0.24735945  0.31526391  0.68187695  1
  O  O8  1  0.64939093  0.15057488  0.84985622  1
