# generated using pymatgen
data_LiMn(MoP)2
_symmetry_space_group_name_H-M   'P 1'
_cell_length_a   4.67698592
_cell_length_b   4.92404950
_cell_length_c   6.40484331
_cell_angle_alpha   100.95057050
_cell_angle_beta   94.15038074
_cell_angle_gamma   101.21121448
_symmetry_Int_Tables_number   1
_chemical_formula_structural   LiMn(MoP)2
_chemical_formula_sum   'Li1 Mn1 Mo2 P2'
_cell_volume   141.13442195
_cell_formula_units_Z   1
loop_
 _symmetry_equiv_pos_site_id
 _symmetry_equiv_pos_as_xyz
  1  'x, y, z'
loop_
 _atom_site_type_symbol
 _atom_site_label
 _atom_site_symmetry_multiplicity
 _atom_site_fract_x
 _atom_site_fract_y
 _atom_site_fract_z
 _atom_site_occupancy
  Mn  Mn0  1  0.00000000  0.00000000  0.00000000  1
  P  P1  1  0.50000000  0.50000000  0.50000000  1
  P  P2  1  0.50000000  0.50000000  0.00000000  1
  Mo  Mo3  1  0.50000000  0.00000000  0.50000000  1
  Mo  Mo4  1  0.00000000  0.50000000  0.50000000  1
  Li  Li5  1  0.54316768  0.48626877  0.85850543  1
