# generated using pymatgen
data_LiAs3I2
_symmetry_space_group_name_H-M   'P 1'
_cell_length_a   8.19955058
_cell_length_b   8.16521536
_cell_length_c   8.66404164
_cell_angle_alpha   90.14709703
_cell_angle_beta   90.69984300
_cell_angle_gamma   90.16817118
_symmetry_Int_Tables_number   1
_chemical_formula_structural   LiAs3I2
_chemical_formula_sum   'Li2 As6 I4'
_cell_volume   580.01935128
_cell_formula_units_Z   2
loop_
 _symmetry_equiv_pos_site_id
 _symmetry_equiv_pos_as_xyz
  1  'x, y, z'
loop_
 _atom_site_type_symbol
 _atom_site_label
 _atom_site_symmetry_multiplicity
 _atom_site_fract_x
 _atom_site_fract_y
 _atom_site_fract_z
 _atom_site_occupancy
  I  I0  1  0.12500000  0.12500000  0.12500000  1
  I  I1  1  0.50000000  0.50000000  0.50000000  1
  I  I2  1  0.25000000  0.25000000  0.25000000  1
  I  I3  1  0.75000000  0.75000000  0.75000000  1
  Li  Li4  1  0.96693028  0.27171035  0.77785480  1
  Li  Li5  1  0.28930391  0.97975035  0.23561870  1
  As  As6  1  0.60572299  0.75151164  0.01549595  1
  As  As7  1  0.62077038  0.74963934  0.64850091  1
  As  As8  1  0.32200962  0.24644159  0.37023806  1
  As  As9  1  0.77639601  0.66856190  0.02346188  1
  As  As10  1  0.21905345  0.22763400  0.40418152  1
  As  As11  1  0.40289823  0.21819545  0.23405430  1
