# generated using pymatgen
data_Li2MnSb4Mo2P3
_symmetry_space_group_name_H-M   'P 1'
_cell_length_a   5.74706419
_cell_length_b   6.11297302
_cell_length_c   6.97200880
_cell_angle_alpha   96.66596315
_cell_angle_beta   93.41306049
_cell_angle_gamma   96.96231613
_symmetry_Int_Tables_number   1
_chemical_formula_structural   Li2MnSb4Mo2P3
_chemical_formula_sum   'Li2 Mn1 Sb4 Mo2 P3'
_cell_volume   240.81446881
_cell_formula_units_Z   1
loop_
 _symmetry_equiv_pos_site_id
 _symmetry_equiv_pos_as_xyz
  1  'x, y, z'
loop_
 _atom_site_type_symbol
 _atom_site_label
 _atom_site_symmetry_multiplicity
 _atom_site_fract_x
 _atom_site_fract_y
 _atom_site_fract_z
 _atom_site_occupancy
  Mn  Mn0  1  0.12500000  0.00000000  0.25000000  1
  Sb  Sb1  1  0.00000000  0.00000000  0.00000000  1
  Sb  Sb2  1  0.37500000  0.00000000  0.25000000  1
  Sb  Sb3  1  0.25000000  0.25000000  0.25000000  1
  Sb  Sb4  1  0.00000000  0.25000000  0.12500000  1
  P  P5  1  0.30217276  0.40121152  0.40782307  1
  P  P6  1  0.19520060  0.78964544  0.55459278  1
  P  P7  1  0.15914850  0.79358750  0.56896759  1
  Mo  Mo8  1  0.96492377  0.33044519  0.22458236  1
  Mo  Mo9  1  0.65223645  0.21864718  0.48217516  1
  Li  Li10  1  0.18109941  0.33255818  0.98632456  1
  Li  Li11  1  0.74867468  0.29592032  0.08905335  1
