# generated using pymatgen
data_LiTi2Nb2O2
_symmetry_space_group_name_H-M   'P 1'
_cell_length_a   7.12946413
_cell_length_b   6.96680604
_cell_length_c   7.48900139
_cell_angle_alpha   90.59065758
_cell_angle_beta   92.81016939
_cell_angle_gamma   90.67527933
_symmetry_Int_Tables_number   1
_chemical_formula_structural   LiTi2Nb2O2
_chemical_formula_sum   'Li1 Ti2 Nb2 O2'
_cell_volume   371.48046275
_cell_formula_units_Z   1
loop_
 _symmetry_equiv_pos_site_id
 _symmetry_equiv_pos_as_xyz
  1  'x, y, z'
loop_
 _atom_site_type_symbol
 _atom_site_label
 _atom_site_symmetry_multiplicity
 _atom_site_fract_x
 _atom_site_fract_y
 _atom_site_fract_z
 _atom_site_occupancy
  Li  Li0  1  0.12500000  0.00000000  0.25000000  1
  Nb  Nb1  1  0.00000000  0.00000000  0.00000000  1
  Nb  Nb2  1  0.37500000  0.00000000  0.25000000  1
  Ti  Ti3  1  0.25000000  0.25000000  0.25000000  1
  Ti  Ti4  1  0.00000000  0.25000000  0.12500000  1
  O  O5  1  0.19497936  0.20734521  0.34929039  1
  O  O6  1  0.72023604  0.74859835  0.47785901  1
