# generated using pymatgen
data_Li4Ti(CuO)2
_symmetry_space_group_name_H-M   'P 1'
_cell_length_a   7.93832531
_cell_length_b   7.92909618
_cell_length_c   7.70089471
_cell_angle_alpha   93.06258152
_cell_angle_beta   93.91021320
_cell_angle_gamma   92.88101909
_symmetry_Int_Tables_number   1
_chemical_formula_structural   Li4Ti(CuO)2
_chemical_formula_sum   'Li4 Ti1 Cu2 O2'
_cell_volume   482.19667798
_cell_formula_units_Z   1
loop_
 _symmetry_equiv_pos_site_id
 _symmetry_equiv_pos_as_xyz
  1  'x, y, z'
loop_
 _atom_site_type_symbol
 _atom_site_label
 _atom_site_symmetry_multiplicity
 _atom_site_fract_x
 _atom_site_fract_y
 _atom_site_fract_z
 _atom_site_occupancy
  Li  Li0  1  0.00000000  0.00000000  0.00000000  1
  Li  Li1  1  0.50000000  0.50000000  0.50000000  1
  Li  Li2  1  0.25000000  0.25000000  0.25000000  1
  Li  Li3  1  0.75000000  0.25000000  0.00000000  1
  Cu  Cu4  1  0.25000000  0.75000000  0.50000000  1
  Cu  Cu5  1  0.85987101  0.01741551  0.11965877  1
  Ti  Ti6  1  0.87098282  0.58438883  0.65046133  1
  O  O7  1  0.15731742  0.21068683  0.47562093  1
  O  O8  1  0.80337718  0.48293899  0.23994745  1
