# generated using pymatgen
data_Li2TiCu2(I2O)2
_symmetry_space_group_name_H-M   'P 1'
_cell_length_a   8.43274859
_cell_length_b   8.31826396
_cell_length_c   7.26644104
_cell_angle_alpha   90.12516232
_cell_angle_beta   90.59548431
_cell_angle_gamma   90.14309395
_symmetry_Int_Tables_number   1
_chemical_formula_structural   Li2TiCu2(I2O)2
_chemical_formula_sum   'Li2 Ti1 Cu2 I4 O2'
_cell_volume   509.68016528
_cell_formula_units_Z   1
loop_
 _symmetry_equiv_pos_site_id
 _symmetry_equiv_pos_as_xyz
  1  'x, y, z'
loop_
 _atom_site_type_symbol
 _atom_site_label
 _atom_site_symmetry_multiplicity
 _atom_site_fract_x
 _atom_site_fract_y
 _atom_site_fract_z
 _atom_site_occupancy
  I  I0  1  0.12500000  0.00000000  0.25000000  1
  I  I1  1  0.00000000  0.00000000  0.00000000  1
  I  I2  1  0.37500000  0.00000000  0.25000000  1
  I  I3  1  0.25000000  0.25000000  0.25000000  1
  Li  Li4  1  0.00000000  0.25000000  0.12500000  1
  Li  Li5  1  0.92782100  0.40580075  0.66153595  1
  Cu  Cu6  1  0.21386302  0.06436961  0.03661953  1
  Cu  Cu7  1  0.76511042  0.62969275  0.93258139  1
  Ti  Ti8  1  0.56485740  0.89523275  0.59774715  1
  O  O9  1  0.75673684  0.71341965  0.84692578  1
  O  O10  1  0.93147986  0.96592200  0.09251335  1
