# generated using pymatgen
data_Li3Ti2(PO2)2
_symmetry_space_group_name_H-M   'P 1'
_cell_length_a   3.77542846
_cell_length_b   4.36687567
_cell_length_c   5.58545696
_cell_angle_alpha   106.30357158
_cell_angle_beta   90.37718125
_cell_angle_gamma   107.26369193
_symmetry_Int_Tables_number   1
_chemical_formula_structural   Li3Ti2(PO2)2
_chemical_formula_sum   'Li3 Ti2 P2 O4'
_cell_volume   83.99477086
_cell_formula_units_Z   1
loop_
 _symmetry_equiv_pos_site_id
 _symmetry_equiv_pos_as_xyz
  1  'x, y, z'
loop_
 _atom_site_type_symbol
 _atom_site_label
 _atom_site_symmetry_multiplicity
 _atom_site_fract_x
 _atom_site_fract_y
 _atom_site_fract_z
 _atom_site_occupancy
  Ti  Ti0  1  0.12500000  0.12500000  0.12500000  1
  Ti  Ti1  1  0.50000000  0.50000000  0.50000000  1
  P  P2  1  0.25000000  0.25000000  0.25000000  1
  P  P3  1  0.75000000  0.75000000  0.75000000  1
  O  O4  1  0.28512967  0.51711792  0.22141027  1
  O  O5  1  0.49254678  0.38592736  0.82813809  1
  O  O6  1  0.68117262  0.90424384  0.81352851  1
  O  O7  1  0.53666722  0.33299462  0.84876170  1
  Li  Li8  1  0.51351180  0.68412159  0.83091014  1
  Li  Li9  1  0.13446813  0.66114624  0.12344122  1
  Li  Li10  1  0.89211544  0.07995303  0.06709712  1
