# generated using pymatgen
data_Li4LuNi2P4N5
_symmetry_space_group_name_H-M   'P 1'
_cell_length_a   7.43249497
_cell_length_b   7.05219556
_cell_length_c   8.86811598
_cell_angle_alpha   93.49759716
_cell_angle_beta   91.23654746
_cell_angle_gamma   94.05678930
_symmetry_Int_Tables_number   1
_chemical_formula_structural   Li4LuNi2P4N5
_chemical_formula_sum   'Li4 Lu1 Ni2 P4 N5'
_cell_volume   462.64105756
_cell_formula_units_Z   1
loop_
 _symmetry_equiv_pos_site_id
 _symmetry_equiv_pos_as_xyz
  1  'x, y, z'
loop_
 _atom_site_type_symbol
 _atom_site_label
 _atom_site_symmetry_multiplicity
 _atom_site_fract_x
 _atom_site_fract_y
 _atom_site_fract_z
 _atom_site_occupancy
  P  P0  1  0.12500000  0.00000000  0.25000000  1
  P  P1  1  0.00000000  0.00000000  0.00000000  1
  P  P2  1  0.37500000  0.00000000  0.25000000  1
  P  P3  1  0.25000000  0.25000000  0.25000000  1
  Lu  Lu4  1  0.00000000  0.25000000  0.12500000  1
  Li  Li5  1  0.53225432  0.54647103  0.25757489  1
  Li  Li6  1  0.39125526  0.92355898  0.98812088  1
  Li  Li7  1  0.32924758  0.31628173  0.70477048  1
  Li  Li8  1  0.36515059  0.88300282  0.30339966  1
  Ni  Ni9  1  0.70613780  0.74972020  0.75605114  1
  Ni  Ni10  1  0.49460760  0.23844962  0.52276390  1
  N  N11  1  0.89425186  0.65086401  0.06476886  1
  N  N12  1  0.42189724  0.12384943  0.58278092  1
  N  N13  1  0.56942844  0.42464293  0.25985122  1
  N  N14  1  0.43689681  0.94809025  0.72592068  1
  N  N15  1  0.59269998  0.04120539  0.73933185  1
