# generated using pymatgen
data_Li4TiTe4P2O
_symmetry_space_group_name_H-M   'P 1'
_cell_length_a   8.72382208
_cell_length_b   8.03927339
_cell_length_c   9.67253885
_cell_angle_alpha   90.00000000
_cell_angle_beta   90.00000000
_cell_angle_gamma   90.00000000
_symmetry_Int_Tables_number   1
_chemical_formula_structural   Li4TiTe4P2O
_chemical_formula_sum   'Li4 Ti1 Te4 P2 O1'
_cell_volume   678.36601167
_cell_formula_units_Z   1
loop_
 _symmetry_equiv_pos_site_id
 _symmetry_equiv_pos_as_xyz
  1  'x, y, z'
loop_
 _atom_site_type_symbol
 _atom_site_label
 _atom_site_symmetry_multiplicity
 _atom_site_fract_x
 _atom_site_fract_y
 _atom_site_fract_z
 _atom_site_occupancy
  O  O0  1  0.12500000  0.00000000  0.25000000  1
  Ti  Ti1  1  0.00000000  0.00000000  0.00000000  1
  P  P2  1  0.37500000  0.00000000  0.25000000  1
  P  P3  1  0.25000000  0.25000000  0.25000000  1
  Li  Li4  1  0.00000000  0.25000000  0.12500000  1
  Li  Li5  1  0.00066775  0.31578423  0.27520672  1
  Li  Li6  1  0.99908454  0.91257783  0.85574006  1
  Li  Li7  1  0.98124051  0.55517283  0.95059839  1
  Te  Te8  1  0.38791062  0.99386349  0.00097008  1
  Te  Te9  1  0.79324478  0.51979020  0.04149708  1
  Te  Te10  1  0.47545069  0.28729638  0.78322611  1
  Te  Te11  1  0.35483648  0.23913973  0.20903253  1
