# generated using pymatgen
data_Li2Sb4P3N
_symmetry_space_group_name_H-M   'P 1'
_cell_length_a   5.70226796
_cell_length_b   6.02937694
_cell_length_c   6.75535349
_cell_angle_alpha   96.49275099
_cell_angle_beta   94.40640753
_cell_angle_gamma   96.39828052
_symmetry_Int_Tables_number   1
_chemical_formula_structural   Li2Sb4P3N
_chemical_formula_sum   'Li2 Sb4 P3 N1'
_cell_volume   228.38700647
_cell_formula_units_Z   1
loop_
 _symmetry_equiv_pos_site_id
 _symmetry_equiv_pos_as_xyz
  1  'x, y, z'
loop_
 _atom_site_type_symbol
 _atom_site_label
 _atom_site_symmetry_multiplicity
 _atom_site_fract_x
 _atom_site_fract_y
 _atom_site_fract_z
 _atom_site_occupancy
  N  N0  1  0.00000000  0.00000000  0.00000000  1
  Sb  Sb1  1  0.33300000  0.66700000  0.25000000  1
  Sb  Sb2  1  0.66700000  0.33300000  0.50000000  1
  Sb  Sb3  1  0.00000000  0.00000000  0.75000000  1
  Sb  Sb4  1  0.23614802  0.88403468  0.43934098  1
  P  P5  1  0.47722656  0.09153771  0.07871738  1
  P  P6  1  0.36412877  0.10279439  0.22227856  1
  P  P7  1  0.22846984  0.38868179  0.95711031  1
  Li  Li8  1  0.80298686  0.60101780  0.19784365  1
  Li  Li9  1  0.00113662  0.99408717  0.29915887  1
