# generated using pymatgen
data_Li2Zr3Cu2As6I5
_symmetry_space_group_name_H-M   'P 1'
_cell_length_a   8.02730252
_cell_length_b   7.98075112
_cell_length_c   8.97583048
_cell_angle_alpha   93.92801466
_cell_angle_beta   97.42560762
_cell_angle_gamma   93.76168391
_symmetry_Int_Tables_number   1
_chemical_formula_structural   Li2Zr3Cu2As6I5
_chemical_formula_sum   'Li2 Zr3 Cu2 As6 I5'
_cell_volume   567.25120400
_cell_formula_units_Z   1
loop_
 _symmetry_equiv_pos_site_id
 _symmetry_equiv_pos_as_xyz
  1  'x, y, z'
loop_
 _atom_site_type_symbol
 _atom_site_label
 _atom_site_symmetry_multiplicity
 _atom_site_fract_x
 _atom_site_fract_y
 _atom_site_fract_z
 _atom_site_occupancy
  I  I0  1  0.00000000  0.00000000  0.00000000  1
  I  I1  1  0.50000000  0.50000000  0.50000000  1
  I  I2  1  0.25000000  0.25000000  0.25000000  1
  I  I3  1  0.75000000  0.25000000  0.00000000  1
  I  I4  1  0.25000000  0.75000000  0.50000000  1
  Li  Li5  1  0.64412779  0.04006483  0.26884454  1
  Li  Li6  1  0.02168764  0.90387673  0.48508860  1
  Cu  Cu7  1  0.15154543  0.03210538  0.78404008  1
  Cu  Cu8  1  0.66159536  0.80661210  0.63815507  1
  As  As9  1  0.56814728  0.45798097  0.88857250  1
  As  As10  1  0.38239334  0.28706643  0.14070788  1
  As  As11  1  0.44113166  0.63879094  0.42513942  1
  As  As12  1  0.47128697  0.93075735  0.10995711  1
  As  As13  1  0.49419218  0.06861494  0.35683569  1
  As  As14  1  0.32160694  0.86714471  0.99370226  1
  Zr  Zr15  1  0.82090618  0.88700855  0.45350491  1
  Zr  Zr16  1  0.30608955  0.85909111  0.82088112  1
  Zr  Zr17  1  0.05703646  0.81302801  0.43959166  1
