# generated using pymatgen
data_Li2LaTiO2
_symmetry_space_group_name_H-M   'P 1'
_cell_length_a   3.15258490
_cell_length_b   3.49469508
_cell_length_c   5.67019521
_cell_angle_alpha   107.12433390
_cell_angle_beta   100.42436506
_cell_angle_gamma   97.13269361
_symmetry_Int_Tables_number   1
_chemical_formula_structural   Li2LaTiO2
_chemical_formula_sum   'Li2 La1 Ti1 O2'
_cell_volume   57.65968146
_cell_formula_units_Z   1
loop_
 _symmetry_equiv_pos_site_id
 _symmetry_equiv_pos_as_xyz
  1  'x, y, z'
loop_
 _atom_site_type_symbol
 _atom_site_label
 _atom_site_symmetry_multiplicity
 _atom_site_fract_x
 _atom_site_fract_y
 _atom_site_fract_z
 _atom_site_occupancy
  Ti  Ti0  1  0.00000000  0.00000000  0.00000000  1
  La  La1  1  0.50000000  0.50000000  0.50000000  1
  O  O2  1  0.50000000  0.50000000  0.00000000  1
  O  O3  1  0.50000000  0.00000000  0.50000000  1
  Li  Li4  1  0.00000000  0.50000000  0.50000000  1
  Li  Li5  1  0.79836145  0.56520775  0.04140370  1
