# generated using pymatgen
data_Li3Lu(CuO2)2
_symmetry_space_group_name_H-M   'P 1'
_cell_length_a   6.13830247
_cell_length_b   5.88475335
_cell_length_c   7.84417466
_cell_angle_alpha   98.77050070
_cell_angle_beta   100.42386541
_cell_angle_gamma   98.53862152
_symmetry_Int_Tables_number   1
_chemical_formula_structural   Li3Lu(CuO2)2
_chemical_formula_sum   'Li3 Lu1 Cu2 O4'
_cell_volume   270.85958421
_cell_formula_units_Z   1
loop_
 _symmetry_equiv_pos_site_id
 _symmetry_equiv_pos_as_xyz
  1  'x, y, z'
loop_
 _atom_site_type_symbol
 _atom_site_label
 _atom_site_symmetry_multiplicity
 _atom_site_fract_x
 _atom_site_fract_y
 _atom_site_fract_z
 _atom_site_occupancy
  Lu  Lu0  1  0.00000000  0.00000000  0.00000000  1
  Li  Li1  1  0.50000000  0.50000000  0.50000000  1
  Li  Li2  1  0.25000000  0.25000000  0.25000000  1
  Li  Li3  1  0.75000000  0.25000000  0.00000000  1
  Cu  Cu4  1  0.25000000  0.75000000  0.50000000  1
  Cu  Cu5  1  0.35661389  0.63266058  0.63174208  1
  O  O6  1  0.03475147  0.60413939  0.47160200  1
  O  O7  1  0.78733032  0.33860298  0.24245430  1
  O  O8  1  0.22703267  0.77956585  0.62085124  1
  O  O9  1  0.38685364  0.03056898  0.27322268  1
