# generated using pymatgen
data_Li2TiSeO2
_symmetry_space_group_name_H-M   'P 1'
_cell_length_a   6.66632601
_cell_length_b   6.39115333
_cell_length_c   6.89484600
_cell_angle_alpha   97.49667703
_cell_angle_beta   100.03292798
_cell_angle_gamma   97.05267403
_symmetry_Int_Tables_number   1
_chemical_formula_structural   Li2TiSeO2
_chemical_formula_sum   'Li2 Ti1 Se1 O2'
_cell_volume   283.59033814
_cell_formula_units_Z   1
loop_
 _symmetry_equiv_pos_site_id
 _symmetry_equiv_pos_as_xyz
  1  'x, y, z'
loop_
 _atom_site_type_symbol
 _atom_site_label
 _atom_site_symmetry_multiplicity
 _atom_site_fract_x
 _atom_site_fract_y
 _atom_site_fract_z
 _atom_site_occupancy
  Li  Li0  1  0.12500000  0.12500000  0.12500000  1
  Li  Li1  1  0.50000000  0.50000000  0.50000000  1
  Se  Se2  1  0.25000000  0.25000000  0.25000000  1
  Ti  Ti3  1  0.75000000  0.75000000  0.75000000  1
  O  O4  1  0.99484816  0.29041418  0.21579856  1
  O  O5  1  0.44587723  0.89713374  0.15383760  1
