# generated using pymatgen
data_Li3TiCu2(P2O)2
_symmetry_space_group_name_H-M   'P 1'
_cell_length_a   5.25501767
_cell_length_b   5.46633574
_cell_length_c   6.21552391
_cell_angle_alpha   98.76467253
_cell_angle_beta   101.86606302
_cell_angle_gamma   100.61491453
_symmetry_Int_Tables_number   1
_chemical_formula_structural   Li3TiCu2(P2O)2
_chemical_formula_sum   'Li3 Ti1 Cu2 P4 O2'
_cell_volume   168.34687329
_cell_formula_units_Z   1
loop_
 _symmetry_equiv_pos_site_id
 _symmetry_equiv_pos_as_xyz
  1  'x, y, z'
loop_
 _atom_site_type_symbol
 _atom_site_label
 _atom_site_symmetry_multiplicity
 _atom_site_fract_x
 _atom_site_fract_y
 _atom_site_fract_z
 _atom_site_occupancy
  P  P0  1  0.12500000  0.00000000  0.25000000  1
  P  P1  1  0.00000000  0.00000000  0.00000000  1
  P  P2  1  0.37500000  0.00000000  0.25000000  1
  P  P3  1  0.25000000  0.25000000  0.25000000  1
  Li  Li4  1  0.00000000  0.25000000  0.12500000  1
  Li  Li5  1  0.59050493  0.10285278  0.30214671  1
  Li  Li6  1  0.25117676  0.27997643  0.23454671  1
  Cu  Cu7  1  0.29894402  0.29824200  0.38000081  1
  Cu  Cu8  1  0.94665819  0.29187579  0.16011454  1
  Ti  Ti9  1  0.71908707  0.19823361  0.18944177  1
  O  O10  1  0.19957822  0.71089400  0.26195199  1
  O  O11  1  0.58080179  0.57268516  0.67674511  1
