# generated using pymatgen
data_Li2TiP6(IO)4
_symmetry_space_group_name_H-M   'P 1'
_cell_length_a   8.60724932
_cell_length_b   8.37623060
_cell_length_c   7.63637793
_cell_angle_alpha   90.10204016
_cell_angle_beta   90.48547608
_cell_angle_gamma   90.11665915
_symmetry_Int_Tables_number   1
_chemical_formula_structural   Li2TiP6(IO)4
_chemical_formula_sum   'Li2 Ti1 P6 I4 O4'
_cell_volume   550.53283867
_cell_formula_units_Z   1
loop_
 _symmetry_equiv_pos_site_id
 _symmetry_equiv_pos_as_xyz
  1  'x, y, z'
loop_
 _atom_site_type_symbol
 _atom_site_label
 _atom_site_symmetry_multiplicity
 _atom_site_fract_x
 _atom_site_fract_y
 _atom_site_fract_z
 _atom_site_occupancy
  P  P0  1  0.00000000  0.00000000  0.00000000  1
  P  P1  1  0.50000000  0.50000000  0.50000000  1
  P  P2  1  0.50000000  0.50000000  0.00000000  1
  P  P3  1  0.50000000  0.00000000  0.50000000  1
  P  P4  1  0.00000000  0.50000000  0.50000000  1
  P  P5  1  0.05014588  0.96055859  0.51795318  1
  I  I6  1  0.94905081  0.10045788  0.66957955  1
  I  I7  1  0.37579688  0.64712304  0.25449960  1
  I  I8  1  0.40359014  0.58977363  0.05746423  1
  I  I9  1  0.25164151  0.60511268  0.86763693  1
  Li  Li10  1  0.75508651  0.25519908  0.13074895  1
  Li  Li11  1  0.03625344  0.13755150  0.95114222  1
  Ti  Ti12  1  0.54735201  0.27207058  0.96486130  1
  O  O13  1  0.06763411  0.03520064  0.29799364  1
  O  O14  1  0.94476012  0.29589245  0.75507280  1
  O  O15  1  0.13818629  0.60212110  0.37106770  1
  O  O16  1  0.53693713  0.78661013  0.73528316  1
