# generated using pymatgen
data_Li2MnSb4P3
_symmetry_space_group_name_H-M   'P 1'
_cell_length_a   4.79859207
_cell_length_b   5.00731221
_cell_length_c   6.61073672
_cell_angle_alpha   100.44759149
_cell_angle_beta   94.67535743
_cell_angle_gamma   100.81821051
_symmetry_Int_Tables_number   1
_chemical_formula_structural   Li2MnSb4P3
_chemical_formula_sum   'Li2 Mn1 Sb4 P3'
_cell_volume   152.33178252
_cell_formula_units_Z   1
loop_
 _symmetry_equiv_pos_site_id
 _symmetry_equiv_pos_as_xyz
  1  'x, y, z'
loop_
 _atom_site_type_symbol
 _atom_site_label
 _atom_site_symmetry_multiplicity
 _atom_site_fract_x
 _atom_site_fract_y
 _atom_site_fract_z
 _atom_site_occupancy
  Mn  Mn0  1  0.00000000  0.00000000  0.00000000  1
  Sb  Sb1  1  0.50000000  0.50000000  0.50000000  1
  Sb  Sb2  1  0.50000000  0.50000000  0.00000000  1
  Sb  Sb3  1  0.50000000  0.00000000  0.50000000  1
  Sb  Sb4  1  0.00000000  0.50000000  0.50000000  1
  P  P5  1  0.22191676  0.73288769  0.64983084  1
  P  P6  1  0.95781554  0.75874003  0.59144767  1
  P  P7  1  0.68497566  0.20264007  0.48993331  1
  Li  Li8  1  0.02911348  0.81488756  0.97832860  1
  Li  Li9  1  0.14623158  0.32901358  0.69354781  1
