# generated using pymatgen
data_Li3ZrS2
_symmetry_space_group_name_H-M   'P 1'
_cell_length_a   4.20121981
_cell_length_b   4.64227309
_cell_length_c   5.29720066
_cell_angle_alpha   90.49024516
_cell_angle_beta   100.71445311
_cell_angle_gamma   93.05764326
_symmetry_Int_Tables_number   1
_chemical_formula_structural   Li3ZrS2
_chemical_formula_sum   'Li3 Zr1 S2'
_cell_volume   101.34877764
_cell_formula_units_Z   1
loop_
 _symmetry_equiv_pos_site_id
 _symmetry_equiv_pos_as_xyz
  1  'x, y, z'
loop_
 _atom_site_type_symbol
 _atom_site_label
 _atom_site_symmetry_multiplicity
 _atom_site_fract_x
 _atom_site_fract_y
 _atom_site_fract_z
 _atom_site_occupancy
  S  S0  1  0.12500000  0.12500000  0.12500000  1
  S  S1  1  0.50000000  0.50000000  0.50000000  1
  Li  Li2  1  0.25000000  0.25000000  0.25000000  1
  Li  Li3  1  0.75000000  0.75000000  0.75000000  1
  Li  Li4  1  0.16327179  0.06973606  0.26503833  1
  Zr  Zr5  1  0.77230006  0.51976858  0.30669739  1
