# generated using pymatgen
data_Li2MnSb4P3
_symmetry_space_group_name_H-M   'P 1'
_cell_length_a   5.49829834
_cell_length_b   5.89772337
_cell_length_c   6.78882183
_cell_angle_alpha   97.88855331
_cell_angle_beta   93.13023924
_cell_angle_gamma   98.11269650
_symmetry_Int_Tables_number   1
_chemical_formula_structural   Li2MnSb4P3
_chemical_formula_sum   'Li2 Mn1 Sb4 P3'
_cell_volume   215.26351012
_cell_formula_units_Z   1
loop_
 _symmetry_equiv_pos_site_id
 _symmetry_equiv_pos_as_xyz
  1  'x, y, z'
loop_
 _atom_site_type_symbol
 _atom_site_label
 _atom_site_symmetry_multiplicity
 _atom_site_fract_x
 _atom_site_fract_y
 _atom_site_fract_z
 _atom_site_occupancy
  Mn  Mn0  1  0.00000000  0.00000000  0.00000000  1
  Sb  Sb1  1  0.50000000  0.50000000  0.50000000  1
  Sb  Sb2  1  0.50000000  0.50000000  0.00000000  1
  Sb  Sb3  1  0.50000000  0.00000000  0.50000000  1
  Sb  Sb4  1  0.00000000  0.50000000  0.50000000  1
  P  P5  1  0.81440062  0.72082098  0.90739981  1
  P  P6  1  0.53645063  0.72716036  0.66563902  1
  P  P7  1  0.25199716  0.65984507  0.73575802  1
  Li  Li8  1  0.36878254  0.47697143  0.88066166  1
  Li  Li9  1  0.74774397  0.22544018  0.22268026  1
