# generated using pymatgen
data_LiMn2Sb4P5
_symmetry_space_group_name_H-M   'P 1'
_cell_length_a   5.54258509
_cell_length_b   5.92739385
_cell_length_c   6.77940057
_cell_angle_alpha   93.30458881
_cell_angle_beta   94.28853683
_cell_angle_gamma   94.01077690
_symmetry_Int_Tables_number   1
_chemical_formula_structural   LiMn2Sb4P5
_chemical_formula_sum   'Li1 Mn2 Sb4 P5'
_cell_volume   221.11367758
_cell_formula_units_Z   1
loop_
 _symmetry_equiv_pos_site_id
 _symmetry_equiv_pos_as_xyz
  1  'x, y, z'
loop_
 _atom_site_type_symbol
 _atom_site_label
 _atom_site_symmetry_multiplicity
 _atom_site_fract_x
 _atom_site_fract_y
 _atom_site_fract_z
 _atom_site_occupancy
  Mn  Mn0  1  0.12500000  0.00000000  0.25000000  1
  Mn  Mn1  1  0.00000000  0.00000000  0.00000000  1
  Sb  Sb2  1  0.37500000  0.00000000  0.25000000  1
  Sb  Sb3  1  0.25000000  0.25000000  0.25000000  1
  Sb  Sb4  1  0.00000000  0.25000000  0.12500000  1
  Sb  Sb5  1  0.55002409  0.11684029  0.27865913  1
  P  P6  1  0.51493597  0.78939004  0.04902214  1
  P  P7  1  0.15515875  0.15911073  0.36639112  1
  P  P8  1  0.61172274  0.61531036  0.10968903  1
  P  P9  1  0.09028775  0.70394134  0.59210969  1
  P  P10  1  0.60043909  0.41554167  0.66578100  1
  Li  Li11  1  0.66555906  0.57526176  0.58856658  1
