# generated using pymatgen
data_LiMn2Sb4P2N
_symmetry_space_group_name_H-M   'P 1'
_cell_length_a   5.89106484
_cell_length_b   6.36493079
_cell_length_c   6.84021619
_cell_angle_alpha   94.88143882
_cell_angle_beta   95.16007270
_cell_angle_gamma   93.79747556
_symmetry_Int_Tables_number   1
_chemical_formula_structural   LiMn2Sb4P2N
_chemical_formula_sum   'Li1 Mn2 Sb4 P2 N1'
_cell_volume   253.80987581
_cell_formula_units_Z   1
loop_
 _symmetry_equiv_pos_site_id
 _symmetry_equiv_pos_as_xyz
  1  'x, y, z'
loop_
 _atom_site_type_symbol
 _atom_site_label
 _atom_site_symmetry_multiplicity
 _atom_site_fract_x
 _atom_site_fract_y
 _atom_site_fract_z
 _atom_site_occupancy
  N  N0  1  0.00000000  0.00000000  0.00000000  1
  Mn  Mn1  1  0.50000000  0.50000000  0.50000000  1
  Mn  Mn2  1  0.25000000  0.25000000  0.25000000  1
  Sb  Sb3  1  0.75000000  0.25000000  0.00000000  1
  Sb  Sb4  1  0.25000000  0.75000000  0.50000000  1
  Sb  Sb5  1  0.55604243  0.98370800  0.97468770  1
  Sb  Sb6  1  0.04613846  0.13911861  0.78814445  1
  P  P7  1  0.46854759  0.46053173  0.64272450  1
  P  P8  1  0.75201622  0.48850991  0.61852169  1
  Li  Li9  1  0.38276257  0.54996038  0.53823524  1
