# generated using pymatgen
data_LiMnSb4P3
_symmetry_space_group_name_H-M   'P 1'
_cell_length_a   6.10529233
_cell_length_b   6.33265369
_cell_length_c   6.77794223
_cell_angle_alpha   93.63629083
_cell_angle_beta   91.30626902
_cell_angle_gamma   93.50208487
_symmetry_Int_Tables_number   1
_chemical_formula_structural   LiMnSb4P3
_chemical_formula_sum   'Li1 Mn1 Sb4 P3'
_cell_volume   260.94401982
_cell_formula_units_Z   1
loop_
 _symmetry_equiv_pos_site_id
 _symmetry_equiv_pos_as_xyz
  1  'x, y, z'
loop_
 _atom_site_type_symbol
 _atom_site_label
 _atom_site_symmetry_multiplicity
 _atom_site_fract_x
 _atom_site_fract_y
 _atom_site_fract_z
 _atom_site_occupancy
  Mn  Mn0  1  0.00000000  0.00000000  0.00000000  1
  Sb  Sb1  1  0.50000000  0.50000000  0.50000000  1
  Sb  Sb2  1  0.50000000  0.50000000  0.00000000  1
  Sb  Sb3  1  0.50000000  0.00000000  0.50000000  1
  Sb  Sb4  1  0.00000000  0.50000000  0.50000000  1
  P  P5  1  0.86716129  0.87395610  0.23684865  1
  P  P6  1  0.77412681  0.74103492  0.13519486  1
  P  P7  1  0.45030037  0.15809725  0.44893978  1
  Li  Li8  1  0.12634683  0.46373630  0.99557502  1
