# generated using pymatgen
data_Li2Ti2Ni2Br3O5
_symmetry_space_group_name_H-M   'P 1'
_cell_length_a   7.79312935
_cell_length_b   7.90612078
_cell_length_c   8.36273189
_cell_angle_alpha   92.02889360
_cell_angle_beta   92.63896391
_cell_angle_gamma   92.34048069
_symmetry_Int_Tables_number   1
_chemical_formula_structural   Li2Ti2Ni2Br3O5
_chemical_formula_sum   'Li2 Ti2 Ni2 Br3 O5'
_cell_volume   513.92178996
_cell_formula_units_Z   1
loop_
 _symmetry_equiv_pos_site_id
 _symmetry_equiv_pos_as_xyz
  1  'x, y, z'
loop_
 _atom_site_type_symbol
 _atom_site_label
 _atom_site_symmetry_multiplicity
 _atom_site_fract_x
 _atom_site_fract_y
 _atom_site_fract_z
 _atom_site_occupancy
  Li  Li0  1  0.00000000  0.00000000  0.00000000  1
  Li  Li1  1  0.50000000  0.50000000  0.50000000  1
  Br  Br2  1  0.25000000  0.25000000  0.25000000  1
  Br  Br3  1  0.75000000  0.25000000  0.00000000  1
  Br  Br4  1  0.25000000  0.75000000  0.50000000  1
  Ni  Ni5  1  0.21251754  0.84797530  0.57283336  1
  Ni  Ni6  1  0.72038824  0.50037618  0.62476499  1
  Ti  Ti7  1  0.31355741  0.98118651  0.68725113  1
  Ti  Ti8  1  0.53530041  0.37336945  0.63928297  1
  O  O9  1  0.70581247  0.43866521  0.31980818  1
  O  O10  1  0.17067734  0.29547377  0.61105801  1
  O  O11  1  0.26562337  0.26011278  0.36981664  1
  O  O12  1  0.78958582  0.90550981  0.74172953  1
  O  O13  1  0.43314581  0.51414273  0.37086564  1
