# generated using pymatgen
data_Li4LuNi2N5O2
_symmetry_space_group_name_H-M   'P 1'
_cell_length_a   6.36270726
_cell_length_b   6.32937464
_cell_length_c   7.88132266
_cell_angle_alpha   97.27782160
_cell_angle_beta   97.88285030
_cell_angle_gamma   99.11528924
_symmetry_Int_Tables_number   1
_chemical_formula_structural   Li4LuNi2N5O2
_chemical_formula_sum   'Li4 Lu1 Ni2 N5 O2'
_cell_volume   306.83213839
_cell_formula_units_Z   1
loop_
 _symmetry_equiv_pos_site_id
 _symmetry_equiv_pos_as_xyz
  1  'x, y, z'
loop_
 _atom_site_type_symbol
 _atom_site_label
 _atom_site_symmetry_multiplicity
 _atom_site_fract_x
 _atom_site_fract_y
 _atom_site_fract_z
 _atom_site_occupancy
  Lu  Lu0  1  0.00000000  0.00000000  0.00000000  1
  Li  Li1  1  0.50000000  0.50000000  0.50000000  1
  Li  Li2  1  0.25000000  0.25000000  0.25000000  1
  Li  Li3  1  0.75000000  0.25000000  0.00000000  1
  Li  Li4  1  0.25000000  0.75000000  0.50000000  1
  Ni  Ni5  1  0.03747117  0.97260914  0.37732500  1
  Ni  Ni6  1  0.34424198  0.25638334  0.74624082  1
  O  O7  1  0.07047966  0.89942145  0.41992698  1
  O  O8  1  0.33746996  0.13107844  0.00126563  1
  N  N9  1  0.96291781  0.05184670  0.40080910  1
  N  N10  1  0.86709538  0.62524720  0.71452230  1
  N  N11  1  0.06281978  0.60001363  0.50585978  1
  N  N12  1  0.58878845  0.79805748  0.90392107  1
  N  N13  1  0.94002204  0.70509909  0.73012605  1
