# generated using pymatgen
data_Li3TiP3(I2O)2
_symmetry_space_group_name_H-M   'P 1'
_cell_length_a   6.21400176
_cell_length_b   5.86236540
_cell_length_c   6.97681373
_cell_angle_alpha   95.86146273
_cell_angle_beta   96.72935339
_cell_angle_gamma   95.29330336
_symmetry_Int_Tables_number   1
_chemical_formula_structural   Li3TiP3(I2O)2
_chemical_formula_sum   'Li3 Ti1 P3 I4 O2'
_cell_volume   249.68488616
_cell_formula_units_Z   1
loop_
 _symmetry_equiv_pos_site_id
 _symmetry_equiv_pos_as_xyz
  1  'x, y, z'
loop_
 _atom_site_type_symbol
 _atom_site_label
 _atom_site_symmetry_multiplicity
 _atom_site_fract_x
 _atom_site_fract_y
 _atom_site_fract_z
 _atom_site_occupancy
  P  P0  1  0.00000000  0.00000000  0.00000000  1
  P  P1  1  0.50000000  0.50000000  0.50000000  1
  P  P2  1  0.50000000  0.50000000  0.00000000  1
  I  I3  1  0.50000000  0.00000000  0.50000000  1
  I  I4  1  0.00000000  0.50000000  0.50000000  1
  I  I5  1  0.92643621  0.12906189  0.79998586  1
  I  I6  1  0.11790312  0.46338270  0.68486944  1
  Li  Li7  1  0.04648105  0.04775042  0.10941221  1
  Li  Li8  1  0.78581917  0.42553454  0.11478101  1
  Li  Li9  1  0.65080768  0.25666034  0.57752929  1
  Ti  Ti10  1  0.48523905  0.99402764  0.74176865  1
  O  O11  1  0.40459138  0.65617899  0.81573531  1
  O  O12  1  0.52781411  0.12021011  0.64851366  1
