# generated using pymatgen
data_LiSb4Mo2P3
_symmetry_space_group_name_H-M   'P 1'
_cell_length_a   4.83738526
_cell_length_b   5.05889539
_cell_length_c   6.19466533
_cell_angle_alpha   100.20357316
_cell_angle_beta   91.92309314
_cell_angle_gamma   100.06713612
_symmetry_Int_Tables_number   1
_chemical_formula_structural   LiSb4Mo2P3
_chemical_formula_sum   'Li1 Sb4 Mo2 P3'
_cell_volume   146.57412230
_cell_formula_units_Z   1
loop_
 _symmetry_equiv_pos_site_id
 _symmetry_equiv_pos_as_xyz
  1  'x, y, z'
loop_
 _atom_site_type_symbol
 _atom_site_label
 _atom_site_symmetry_multiplicity
 _atom_site_fract_x
 _atom_site_fract_y
 _atom_site_fract_z
 _atom_site_occupancy
  Sb  Sb0  1  0.12500000  0.12500000  0.12500000  1
  Sb  Sb1  1  0.50000000  0.50000000  0.50000000  1
  Sb  Sb2  1  0.25000000  0.25000000  0.25000000  1
  Sb  Sb3  1  0.75000000  0.75000000  0.75000000  1
  P  P4  1  0.95482445  0.27182489  0.51607648  1
  P  P5  1  0.43120080  0.92625940  0.23125046  1
  P  P6  1  0.42384799  0.66052424  0.08464451  1
  Mo  Mo7  1  0.86470115  0.29518126  0.48668854  1
  Mo  Mo8  1  0.44804955  0.42562834  0.30292304  1
  Li  Li9  1  0.18260812  0.20384565  0.17948274  1
