# generated using pymatgen
data_Li2TiP3(I2O)2
_symmetry_space_group_name_H-M   'P 1'
_cell_length_a   6.46562821
_cell_length_b   6.11006505
_cell_length_c   6.88703102
_cell_angle_alpha   93.12143460
_cell_angle_beta   95.51204992
_cell_angle_gamma   92.94719502
_symmetry_Int_Tables_number   1
_chemical_formula_structural   Li2TiP3(I2O)2
_chemical_formula_sum   'Li2 Ti1 P3 I4 O2'
_cell_volume   269.97556563
_cell_formula_units_Z   1
loop_
 _symmetry_equiv_pos_site_id
 _symmetry_equiv_pos_as_xyz
  1  'x, y, z'
loop_
 _atom_site_type_symbol
 _atom_site_label
 _atom_site_symmetry_multiplicity
 _atom_site_fract_x
 _atom_site_fract_y
 _atom_site_fract_z
 _atom_site_occupancy
  I  I0  1  0.00000000  0.00000000  0.00000000  1
  I  I1  1  0.50000000  0.50000000  0.50000000  1
  I  I2  1  0.25000000  0.25000000  0.25000000  1
  I  I3  1  0.75000000  0.25000000  0.00000000  1
  P  P4  1  0.25000000  0.75000000  0.50000000  1
  P  P5  1  0.57068034  0.34168751  0.04194978  1
  P  P6  1  0.93921939  0.46571629  0.97761294  1
  Li  Li7  1  0.03268617  0.13523791  0.41449419  1
  Li  Li8  1  0.84995968  0.22439950  0.23577262  1
  Ti  Ti9  1  0.93556858  0.37351270  0.35528158  1
  O  O10  1  0.92772864  0.45201463  0.02421043  1
  O  O11  1  0.96371960  0.05708540  0.17284178  1
