# generated using pymatgen
data_Li3Te6I4O5
_symmetry_space_group_name_H-M   'P 1'
_cell_length_a   6.42072167
_cell_length_b   6.98561448
_cell_length_c   5.97951794
_cell_angle_alpha   91.57690811
_cell_angle_beta   89.43943114
_cell_angle_gamma   87.93226652
_symmetry_Int_Tables_number   1
_chemical_formula_structural   Li3Te6I4O5
_chemical_formula_sum   'Li3 Te6 I4 O5'
_cell_volume   267.90571757
_cell_formula_units_Z   1
loop_
 _symmetry_equiv_pos_site_id
 _symmetry_equiv_pos_as_xyz
  1  'x, y, z'
loop_
 _atom_site_type_symbol
 _atom_site_label
 _atom_site_symmetry_multiplicity
 _atom_site_fract_x
 _atom_site_fract_y
 _atom_site_fract_z
 _atom_site_occupancy
  Te  Te0  1  0.12500000  0.12500000  0.12500000  1
  Te  Te1  1  0.50000000  0.50000000  0.50000000  1
  Te  Te2  1  0.25000000  0.25000000  0.25000000  1
  Te  Te3  1  0.75000000  0.75000000  0.75000000  1
  Te  Te4  1  0.22609603  0.36099295  0.76410531  1
  Te  Te5  1  0.15795527  0.55257119  0.78122686  1
  O  O6  1  0.11657850  0.56093385  0.54361162  1
  O  O7  1  0.31536864  0.05007623  0.97417750  1
  O  O8  1  0.16565273  0.32462638  0.54957727  1
  O  O9  1  0.20128216  0.33237240  0.59181385  1
  O  O10  1  0.71351126  0.78864406  0.92974380  1
  I  I11  1  0.25939257  0.58049567  0.42653904  1
  I  I12  1  0.02306507  0.52177808  0.43341716  1
  I  I13  1  0.72235393  0.14453799  0.23794269  1
  I  I14  1  0.88463526  0.42973116  0.44367426  1
  Li  Li15  1  0.97171310  0.50021852  0.16568037  1
  Li  Li16  1  0.04567007  0.49039310  0.59315268  1
  Li  Li17  1  0.85589874  0.27711766  0.55559209  1
