# generated using pymatgen
data_Li3Ti3Cu2(As3O)2
_symmetry_space_group_name_H-M   'P 1'
_cell_length_a   5.72918744
_cell_length_b   6.07821171
_cell_length_c   7.15467819
_cell_angle_alpha   98.65196988
_cell_angle_beta   102.21372271
_cell_angle_gamma   101.11339986
_symmetry_Int_Tables_number   1
_chemical_formula_structural   Li3Ti3Cu2(As3O)2
_chemical_formula_sum   'Li3 Ti3 Cu2 As6 O2'
_cell_volume   234.14576944
_cell_formula_units_Z   1
loop_
 _symmetry_equiv_pos_site_id
 _symmetry_equiv_pos_as_xyz
  1  'x, y, z'
loop_
 _atom_site_type_symbol
 _atom_site_label
 _atom_site_symmetry_multiplicity
 _atom_site_fract_x
 _atom_site_fract_y
 _atom_site_fract_z
 _atom_site_occupancy
  O  O0  1  0.12500000  0.00000000  0.25000000  1
  O  O1  1  0.00000000  0.00000000  0.00000000  1
  Ti  Ti2  1  0.37500000  0.00000000  0.25000000  1
  Ti  Ti3  1  0.25000000  0.25000000  0.25000000  1
  Ti  Ti4  1  0.00000000  0.25000000  0.12500000  1
  As  As5  1  0.97505411  0.28822210  0.50948823  1
  As  As6  1  0.43237543  0.23584222  0.45444584  1
  As  As7  1  0.66933271  0.09368466  0.68662672  1
  As  As8  1  0.97814714  0.68758351  0.83216298  1
  As  As9  1  0.58303092  0.48091338  0.96197673  1
  As  As10  1  0.81783678  0.19293911  0.19023096  1
  Li  Li11  1  0.06372805  0.55975311  0.09711308  1
  Li  Li12  1  0.87465655  0.60233539  0.09371818  1
  Li  Li13  1  0.04598681  0.10778139  0.13995346  1
  Cu  Cu14  1  0.09562731  0.77603105  0.33792550  1
  Cu  Cu15  1  0.19642740  0.22923921  0.61993851  1
