# generated using pymatgen
data_Li2MnSb4Mo2P3
_symmetry_space_group_name_H-M   'P 1'
_cell_length_a   4.25044297
_cell_length_b   4.40043443
_cell_length_c   6.56920321
_cell_angle_alpha   101.58966982
_cell_angle_beta   96.81727997
_cell_angle_gamma   102.22791918
_symmetry_Int_Tables_number   1
_chemical_formula_structural   Li2MnSb4Mo2P3
_chemical_formula_sum   'Li2 Mn1 Sb4 Mo2 P3'
_cell_volume   115.95260507
_cell_formula_units_Z   1
loop_
 _symmetry_equiv_pos_site_id
 _symmetry_equiv_pos_as_xyz
  1  'x, y, z'
loop_
 _atom_site_type_symbol
 _atom_site_label
 _atom_site_symmetry_multiplicity
 _atom_site_fract_x
 _atom_site_fract_y
 _atom_site_fract_z
 _atom_site_occupancy
  Mn  Mn0  1  0.00000000  0.00000000  0.00000000  1
  Sb  Sb1  1  0.50000000  0.50000000  0.50000000  1
  Sb  Sb2  1  0.25000000  0.25000000  0.25000000  1
  Sb  Sb3  1  0.75000000  0.25000000  0.00000000  1
  Sb  Sb4  1  0.25000000  0.75000000  0.50000000  1
  P  P5  1  0.22376313  0.96785721  0.61843884  1
  P  P6  1  0.68066373  0.25525708  0.42909276  1
  P  P7  1  0.86443019  0.45836331  0.83535248  1
  Mo  Mo8  1  0.29441666  0.41367116  0.39460271  1
  Mo  Mo9  1  0.25320812  0.72359552  0.57274000  1
  Li  Li10  1  0.03308341  0.58982149  0.88542436  1
  Li  Li11  1  0.03927178  0.04624322  0.76907624  1
