# generated using pymatgen
data_Li3LuNi2As6N5
_symmetry_space_group_name_H-M   'P 1'
_cell_length_a   7.44129744
_cell_length_b   7.18711564
_cell_length_c   8.77250007
_cell_angle_alpha   92.83618242
_cell_angle_beta   91.46985453
_cell_angle_gamma   93.28786625
_symmetry_Int_Tables_number   1
_chemical_formula_structural   Li3LuNi2As6N5
_chemical_formula_sum   'Li3 Lu1 Ni2 As6 N5'
_cell_volume   467.62918445
_cell_formula_units_Z   1
loop_
 _symmetry_equiv_pos_site_id
 _symmetry_equiv_pos_as_xyz
  1  'x, y, z'
loop_
 _atom_site_type_symbol
 _atom_site_label
 _atom_site_symmetry_multiplicity
 _atom_site_fract_x
 _atom_site_fract_y
 _atom_site_fract_z
 _atom_site_occupancy
  Lu  Lu0  1  0.12500000  0.00000000  0.25000000  1
  Li  Li1  1  0.00000000  0.00000000  0.00000000  1
  Li  Li2  1  0.37500000  0.00000000  0.25000000  1
  Li  Li3  1  0.25000000  0.25000000  0.25000000  1
  Ni  Ni4  1  0.00000000  0.25000000  0.12500000  1
  Ni  Ni5  1  0.37342461  0.29345129  0.55954758  1
  As  As6  1  0.54428739  0.11528270  0.21743522  1
  As  As7  1  0.48284096  0.57206406  0.20088371  1
  As  As8  1  0.04600261  0.05440974  0.75866567  1
  As  As9  1  0.39771515  0.23512444  0.18895973  1
  As  As10  1  0.44538290  0.04899002  0.24499959  1
  As  As11  1  0.65325214  0.04857680  0.88235310  1
  N  N12  1  0.71446725  0.42272939  0.33905999  1
  N  N13  1  0.65674934  0.68475127  0.83849092  1
  N  N14  1  0.54326303  0.71814301  0.47108996  1
  N  N15  1  0.58327559  0.00763317  0.48740262  1
  N  N16  1  0.43112582  0.33995900  0.87663434  1
