# generated using pymatgen
data_Li3Ni2As6Cl2O7
_symmetry_space_group_name_H-M   'P 1'
_cell_length_a   6.30709646
_cell_length_b   5.99284843
_cell_length_c   8.06124337
_cell_angle_alpha   99.94066619
_cell_angle_beta   102.69194759
_cell_angle_gamma   99.35134258
_symmetry_Int_Tables_number   1
_chemical_formula_structural   Li3Ni2As6Cl2O7
_chemical_formula_sum   'Li3 Ni2 As6 Cl2 O7'
_cell_volume   286.34800743
_cell_formula_units_Z   1
loop_
 _symmetry_equiv_pos_site_id
 _symmetry_equiv_pos_as_xyz
  1  'x, y, z'
loop_
 _atom_site_type_symbol
 _atom_site_label
 _atom_site_symmetry_multiplicity
 _atom_site_fract_x
 _atom_site_fract_y
 _atom_site_fract_z
 _atom_site_occupancy
  Cl  Cl0  1  0.12500000  0.00000000  0.25000000  1
  Cl  Cl1  1  0.00000000  0.00000000  0.00000000  1
  Ni  Ni2  1  0.37500000  0.00000000  0.25000000  1
  Ni  Ni3  1  0.25000000  0.25000000  0.25000000  1
  O  O4  1  0.00000000  0.25000000  0.12500000  1
  O  O5  1  0.94276417  0.44952287  0.96711094  1
  O  O6  1  0.54661315  0.03690714  0.71283637  1
  O  O7  1  0.24383064  0.78333166  0.96517352  1
  O  O8  1  0.16676796  0.39974015  0.17538480  1
  O  O9  1  0.73895898  0.68785876  0.95111258  1
  O  O10  1  0.56373035  0.87067023  0.91475305  1
  As  As11  1  0.50258901  0.27243378  0.30812177  1
  As  As12  1  0.90850346  0.60656573  0.20117327  1
  As  As13  1  0.62665489  0.96739549  0.67435610  1
  As  As14  1  0.02161075  0.46683131  0.00997729  1
  As  As15  1  0.52813263  0.11482679  0.40915303  1
  As  As16  1  0.29056479  0.46479910  0.99718048  1
  Li  Li17  1  0.86065713  0.31942472  0.07265871  1
  Li  Li18  1  0.79886738  0.20070418  0.58015721  1
  Li  Li19  1  0.25126052  0.58297925  0.23972364  1
