# generated using pymatgen
data_LiMnSb4P3
_symmetry_space_group_name_H-M   'P 1'
_cell_length_a   5.07972816
_cell_length_b   5.40925102
_cell_length_c   6.83979558
_cell_angle_alpha   95.70165612
_cell_angle_beta   96.28587704
_cell_angle_gamma   96.28198463
_symmetry_Int_Tables_number   1
_chemical_formula_structural   LiMnSb4P3
_chemical_formula_sum   'Li1 Mn1 Sb4 P3'
_cell_volume   184.50645543
_cell_formula_units_Z   1
loop_
 _symmetry_equiv_pos_site_id
 _symmetry_equiv_pos_as_xyz
  1  'x, y, z'
loop_
 _atom_site_type_symbol
 _atom_site_label
 _atom_site_symmetry_multiplicity
 _atom_site_fract_x
 _atom_site_fract_y
 _atom_site_fract_z
 _atom_site_occupancy
  Mn  Mn0  1  0.00000000  0.00000000  0.00000000  1
  Sb  Sb1  1  0.33300000  0.66700000  0.25000000  1
  Sb  Sb2  1  0.66700000  0.33300000  0.50000000  1
  Sb  Sb3  1  0.00000000  0.00000000  0.75000000  1
  Sb  Sb4  1  0.09334031  0.72494278  0.52629561  1
  P  P5  1  0.05438888  0.67021392  0.48110163  1
  P  P6  1  0.82675511  0.07996554  0.07060011  1
  P  P7  1  0.23592564  0.52292547  0.81445720  1
  Li  Li8  1  0.51112701  0.97949050  0.17441722  1
