# generated using pymatgen
data_Li3Cu2P8(ClO)2
_symmetry_space_group_name_H-M   'P 1'
_cell_length_a   5.17648356
_cell_length_b   5.16232900
_cell_length_c   6.97600373
_cell_angle_alpha   103.49407323
_cell_angle_beta   107.67340136
_cell_angle_gamma   104.67545235
_symmetry_Int_Tables_number   1
_chemical_formula_structural   Li3Cu2P8(ClO)2
_chemical_formula_sum   'Li3 Cu2 P8 Cl2 O2'
_cell_volume   161.79787211
_cell_formula_units_Z   1
loop_
 _symmetry_equiv_pos_site_id
 _symmetry_equiv_pos_as_xyz
  1  'x, y, z'
loop_
 _atom_site_type_symbol
 _atom_site_label
 _atom_site_symmetry_multiplicity
 _atom_site_fract_x
 _atom_site_fract_y
 _atom_site_fract_z
 _atom_site_occupancy
  Cl  Cl0  1  0.00000000  0.00000000  0.00000000  1
  Cl  Cl1  1  0.50000000  0.50000000  0.50000000  1
  Li  Li2  1  0.25000000  0.25000000  0.25000000  1
  Li  Li3  1  0.75000000  0.25000000  0.00000000  1
  Li  Li4  1  0.25000000  0.75000000  0.50000000  1
  P  P5  1  0.68351904  0.28042910  0.28953858  1
  P  P6  1  0.75891478  0.30883557  0.08890985  1
  P  P7  1  0.67446104  0.38503372  0.56428695  1
  P  P8  1  0.57416576  0.23375547  0.94374869  1
  P  P9  1  0.91406772  0.11018536  0.00493254  1
  P  P10  1  0.81382506  0.11519648  0.37109436  1
  P  P11  1  0.82855053  0.41705454  0.38085888  1
  P  P12  1  0.21973154  0.76458056  0.08551782  1
  O  O13  1  0.58547288  0.29479208  0.57130232  1
  O  O14  1  0.10363051  0.80774146  0.01018164  1
  Cu  Cu15  1  0.56644315  0.52295525  0.72117458  1
  Cu  Cu16  1  0.01878057  0.11790967  0.52822085  1
