# generated using pymatgen
data_Li2MnSb4P2N
_symmetry_space_group_name_H-M   'P 1'
_cell_length_a   5.61715709
_cell_length_b   6.03719407
_cell_length_c   6.79062032
_cell_angle_alpha   97.60429867
_cell_angle_beta   93.32661953
_cell_angle_gamma   97.41905538
_symmetry_Int_Tables_number   1
_chemical_formula_structural   Li2MnSb4P2N
_chemical_formula_sum   'Li2 Mn1 Sb4 P2 N1'
_cell_volume   225.68458876
_cell_formula_units_Z   1
loop_
 _symmetry_equiv_pos_site_id
 _symmetry_equiv_pos_as_xyz
  1  'x, y, z'
loop_
 _atom_site_type_symbol
 _atom_site_label
 _atom_site_symmetry_multiplicity
 _atom_site_fract_x
 _atom_site_fract_y
 _atom_site_fract_z
 _atom_site_occupancy
  N  N0  1  0.00000000  0.00000000  0.00000000  1
  Mn  Mn1  1  0.50000000  0.50000000  0.50000000  1
  Sb  Sb2  1  0.50000000  0.50000000  0.00000000  1
  Sb  Sb3  1  0.50000000  0.00000000  0.50000000  1
  Sb  Sb4  1  0.00000000  0.50000000  0.50000000  1
  Sb  Sb5  1  0.00925797  0.17464984  0.33255059  1
  P  P6  1  0.57949782  0.09900009  0.96601552  1
  P  P7  1  0.26152240  0.65795667  0.79159025  1
  Li  Li8  1  0.54942890  0.15016749  0.92197629  1
  Li  Li9  1  0.39312737  0.60434171  0.61049260  1
