# generated using pymatgen
data_Li2Ti2As6P5
_symmetry_space_group_name_H-M   'P 1'
_cell_length_a   7.63139177
_cell_length_b   7.51597837
_cell_length_c   8.50633809
_cell_angle_alpha   91.56144025
_cell_angle_beta   91.62858822
_cell_angle_gamma   91.80702104
_symmetry_Int_Tables_number   1
_chemical_formula_structural   Li2Ti2As6P5
_chemical_formula_sum   'Li2 Ti2 As6 P5'
_cell_volume   487.26815356
_cell_formula_units_Z   1
loop_
 _symmetry_equiv_pos_site_id
 _symmetry_equiv_pos_as_xyz
  1  'x, y, z'
loop_
 _atom_site_type_symbol
 _atom_site_label
 _atom_site_symmetry_multiplicity
 _atom_site_fract_x
 _atom_site_fract_y
 _atom_site_fract_z
 _atom_site_occupancy
  P  P0  1  0.12500000  0.00000000  0.25000000  1
  P  P1  1  0.00000000  0.00000000  0.00000000  1
  P  P2  1  0.37500000  0.00000000  0.25000000  1
  P  P3  1  0.25000000  0.25000000  0.25000000  1
  P  P4  1  0.00000000  0.25000000  0.12500000  1
  Li  Li5  1  0.37674371  0.55348217  0.35288627  1
  Li  Li6  1  0.42963827  0.14416492  0.25821142  1
  Ti  Ti7  1  0.18390765  0.49881702  0.45532100  1
  Ti  Ti8  1  0.39001503  0.12391931  0.78825094  1
  As  As9  1  0.28653483  0.78798394  0.55293897  1
  As  As10  1  0.88176320  0.30141204  0.51786239  1
  As  As11  1  0.70799025  0.92537474  0.03324396  1
  As  As12  1  0.45645178  0.73963574  0.32505047  1
  As  As13  1  0.12790858  0.51898211  0.01358442  1
  As  As14  1  0.39763586  0.94626822  0.68440427  1
