# generated using pymatgen
data_Li2MnSb4P3
_symmetry_space_group_name_H-M   'P 1'
_cell_length_a   6.33435885
_cell_length_b   6.72785423
_cell_length_c   7.39091015
_cell_angle_alpha   93.48179272
_cell_angle_beta   94.12450519
_cell_angle_gamma   93.96271001
_symmetry_Int_Tables_number   1
_chemical_formula_structural   Li2MnSb4P3
_chemical_formula_sum   'Li2 Mn1 Sb4 P3'
_cell_volume   312.72496802
_cell_formula_units_Z   1
loop_
 _symmetry_equiv_pos_site_id
 _symmetry_equiv_pos_as_xyz
  1  'x, y, z'
loop_
 _atom_site_type_symbol
 _atom_site_label
 _atom_site_symmetry_multiplicity
 _atom_site_fract_x
 _atom_site_fract_y
 _atom_site_fract_z
 _atom_site_occupancy
  Mn  Mn0  1  0.12500000  0.00000000  0.25000000  1
  Sb  Sb1  1  0.00000000  0.00000000  0.00000000  1
  Sb  Sb2  1  0.37500000  0.00000000  0.25000000  1
  Sb  Sb3  1  0.25000000  0.25000000  0.25000000  1
  Sb  Sb4  1  0.00000000  0.25000000  0.12500000  1
  P  P5  1  0.61673966  0.50461981  0.84363648  1
  P  P6  1  0.12905860  0.03359656  0.92301016  1
  P  P7  1  0.28161432  0.44633411  0.23395940  1
  Li  Li8  1  0.51559994  0.12749894  0.86953886  1
  Li  Li9  1  0.02127907  0.88010366  0.13146053  1
