# generated using pymatgen
data_Li2LuTi(CuP2)2
_symmetry_space_group_name_H-M   'P 1'
_cell_length_a   7.21499258
_cell_length_b   6.96993738
_cell_length_c   8.25805417
_cell_angle_alpha   92.49975546
_cell_angle_beta   91.44946709
_cell_angle_gamma   92.59203452
_symmetry_Int_Tables_number   1
_chemical_formula_structural   Li2LuTi(CuP2)2
_chemical_formula_sum   'Li2 Lu1 Ti1 Cu2 P4'
_cell_volume   414.30702841
_cell_formula_units_Z   1
loop_
 _symmetry_equiv_pos_site_id
 _symmetry_equiv_pos_as_xyz
  1  'x, y, z'
loop_
 _atom_site_type_symbol
 _atom_site_label
 _atom_site_symmetry_multiplicity
 _atom_site_fract_x
 _atom_site_fract_y
 _atom_site_fract_z
 _atom_site_occupancy
  P  P0  1  0.12500000  0.00000000  0.25000000  1
  P  P1  1  0.00000000  0.00000000  0.00000000  1
  P  P2  1  0.37500000  0.00000000  0.25000000  1
  P  P3  1  0.25000000  0.25000000  0.25000000  1
  Lu  Lu4  1  0.00000000  0.25000000  0.12500000  1
  Li  Li5  1  0.98782968  0.98698799  0.51557262  1
  Li  Li6  1  0.20399631  0.10535020  0.51248311  1
  Cu  Cu7  1  0.58244065  0.55629393  0.55485567  1
  Cu  Cu8  1  0.87822174  0.04911475  0.66301982  1
  Ti  Ti9  1  0.47712683  0.90666379  0.35816641  1
