# generated using pymatgen
data_Li3TiNi2P4N5
_symmetry_space_group_name_H-M   'P 1'
_cell_length_a   7.78842778
_cell_length_b   7.47245596
_cell_length_c   8.45875752
_cell_angle_alpha   92.63569637
_cell_angle_beta   90.93182934
_cell_angle_gamma   93.05708871
_symmetry_Int_Tables_number   1
_chemical_formula_structural   Li3TiNi2P4N5
_chemical_formula_sum   'Li3 Ti1 Ni2 P4 N5'
_cell_volume   490.98149263
_cell_formula_units_Z   1
loop_
 _symmetry_equiv_pos_site_id
 _symmetry_equiv_pos_as_xyz
  1  'x, y, z'
loop_
 _atom_site_type_symbol
 _atom_site_label
 _atom_site_symmetry_multiplicity
 _atom_site_fract_x
 _atom_site_fract_y
 _atom_site_fract_z
 _atom_site_occupancy
  P  P0  1  0.00000000  0.00000000  0.00000000  1
  P  P1  1  0.50000000  0.50000000  0.50000000  1
  P  P2  1  0.25000000  0.25000000  0.25000000  1
  P  P3  1  0.75000000  0.25000000  0.00000000  1
  Li  Li4  1  0.25000000  0.75000000  0.50000000  1
  Li  Li5  1  0.71207706  0.86013903  0.58745727  1
  Li  Li6  1  0.96752321  0.36296672  0.24159251  1
  Ni  Ni7  1  0.70363044  0.70648501  0.50407512  1
  Ni  Ni8  1  0.56781465  0.03711412  0.17706481  1
  Ti  Ti9  1  0.71247894  0.57097368  0.09716687  1
  N  N10  1  0.78528212  0.11018661  0.91789217  1
  N  N11  1  0.17921601  0.84859402  0.71005479  1
  N  N12  1  0.46681984  0.76300932  0.29627178  1
  N  N13  1  0.05184148  0.89009421  0.17281918  1
  N  N14  1  0.23324015  0.93239428  0.56502680  1
