# generated using pymatgen
data_Li3LuTi2(NiP2)2
_symmetry_space_group_name_H-M   'P 1'
_cell_length_a   7.84256878
_cell_length_b   7.49112438
_cell_length_c   8.48218201
_cell_angle_alpha   92.10907344
_cell_angle_beta   91.06831812
_cell_angle_gamma   92.44505279
_symmetry_Int_Tables_number   1
_chemical_formula_structural   Li3LuTi2(NiP2)2
_chemical_formula_sum   'Li3 Lu1 Ti2 Ni2 P4'
_cell_volume   497.43235904
_cell_formula_units_Z   1
loop_
 _symmetry_equiv_pos_site_id
 _symmetry_equiv_pos_as_xyz
  1  'x, y, z'
loop_
 _atom_site_type_symbol
 _atom_site_label
 _atom_site_symmetry_multiplicity
 _atom_site_fract_x
 _atom_site_fract_y
 _atom_site_fract_z
 _atom_site_occupancy
  P  P0  1  0.12500000  0.00000000  0.25000000  1
  P  P1  1  0.00000000  0.00000000  0.00000000  1
  P  P2  1  0.37500000  0.00000000  0.25000000  1
  P  P3  1  0.25000000  0.25000000  0.25000000  1
  Lu  Lu4  1  0.00000000  0.25000000  0.12500000  1
  Li  Li5  1  0.83068106  0.50950916  0.87181790  1
  Li  Li6  1  0.92733964  0.05773735  0.04668677  1
  Li  Li7  1  0.98464318  0.14994424  0.29247122  1
  Ni  Ni8  1  0.80129732  0.57444081  0.38272966  1
  Ni  Ni9  1  0.33040050  0.55098945  0.60002230  1
  Ti  Ti10  1  0.07334071  0.05488317  0.12088400  1
  Ti  Ti11  1  0.97448373  0.53141949  0.85737410  1
