# generated using pymatgen
data_Li2TiP3S2
_symmetry_space_group_name_H-M   'P 1'
_cell_length_a   6.19816078
_cell_length_b   5.95391730
_cell_length_c   6.89107545
_cell_angle_alpha   92.69406117
_cell_angle_beta   94.90803800
_cell_angle_gamma   92.16803821
_symmetry_Int_Tables_number   1
_chemical_formula_structural   Li2TiP3S2
_chemical_formula_sum   'Li2 Ti1 P3 S2'
_cell_volume   252.86730344
_cell_formula_units_Z   1
loop_
 _symmetry_equiv_pos_site_id
 _symmetry_equiv_pos_as_xyz
  1  'x, y, z'
loop_
 _atom_site_type_symbol
 _atom_site_label
 _atom_site_symmetry_multiplicity
 _atom_site_fract_x
 _atom_site_fract_y
 _atom_site_fract_z
 _atom_site_occupancy
  P  P0  1  0.00000000  0.00000000  0.00000000  1
  P  P1  1  0.33300000  0.66700000  0.25000000  1
  P  P2  1  0.66700000  0.33300000  0.50000000  1
  Li  Li3  1  0.00000000  0.00000000  0.75000000  1
  Li  Li4  1  0.96119101  0.11669986  0.03376663  1
  S  S5  1  0.70390174  0.13844339  0.54731448  1
  S  S6  1  0.80566832  0.87084024  0.38663999  1
  Ti  Ti7  1  0.53115740  0.66723800  0.49084403  1
