# generated using pymatgen
data_Li2MnSb4Mo2P3
_symmetry_space_group_name_H-M   'P 1'
_cell_length_a   4.00683259
_cell_length_b   4.21873637
_cell_length_c   6.35773267
_cell_angle_alpha   102.86371197
_cell_angle_beta   96.32048383
_cell_angle_gamma   103.39857128
_symmetry_Int_Tables_number   1
_chemical_formula_structural   Li2MnSb4Mo2P3
_chemical_formula_sum   'Li2 Mn1 Sb4 Mo2 P3'
_cell_volume   100.42866329
_cell_formula_units_Z   1
loop_
 _symmetry_equiv_pos_site_id
 _symmetry_equiv_pos_as_xyz
  1  'x, y, z'
loop_
 _atom_site_type_symbol
 _atom_site_label
 _atom_site_symmetry_multiplicity
 _atom_site_fract_x
 _atom_site_fract_y
 _atom_site_fract_z
 _atom_site_occupancy
  Mn  Mn0  1  0.00000000  0.00000000  0.00000000  1
  Sb  Sb1  1  0.50000000  0.50000000  0.50000000  1
  Sb  Sb2  1  0.50000000  0.50000000  0.00000000  1
  Sb  Sb3  1  0.50000000  0.00000000  0.50000000  1
  Sb  Sb4  1  0.00000000  0.50000000  0.50000000  1
  P  P5  1  0.84515760  0.31551627  0.74918242  1
  P  P6  1  0.78132693  0.12772645  0.72850084  1
  P  P7  1  0.64428636  0.91696703  0.61976121  1
  Mo  Mo8  1  0.68655358  0.76204594  0.31631708  1
  Mo  Mo9  1  0.64387287  0.89798421  0.06514640  1
  Li  Li10  1  0.20838341  0.34340705  0.50579577  1
  Li  Li11  1  0.63507387  0.90973219  0.62513560  1
