# generated using pymatgen
data_Li3TiI4O3
_symmetry_space_group_name_H-M   'P 1'
_cell_length_a   7.56243392
_cell_length_b   7.55184112
_cell_length_c   7.23082866
_cell_angle_alpha   93.74674971
_cell_angle_beta   95.24209751
_cell_angle_gamma   94.81466290
_symmetry_Int_Tables_number   1
_chemical_formula_structural   Li3TiI4O3
_chemical_formula_sum   'Li3 Ti1 I4 O3'
_cell_volume   408.66575620
_cell_formula_units_Z   1
loop_
 _symmetry_equiv_pos_site_id
 _symmetry_equiv_pos_as_xyz
  1  'x, y, z'
loop_
 _atom_site_type_symbol
 _atom_site_label
 _atom_site_symmetry_multiplicity
 _atom_site_fract_x
 _atom_site_fract_y
 _atom_site_fract_z
 _atom_site_occupancy
  I  I0  1  0.12500000  0.12500000  0.12500000  1
  I  I1  1  0.50000000  0.50000000  0.50000000  1
  I  I2  1  0.25000000  0.25000000  0.25000000  1
  I  I3  1  0.75000000  0.75000000  0.75000000  1
  Li  Li4  1  0.87979932  0.73659643  0.72478010  1
  Li  Li5  1  0.57534879  0.74584018  0.41209690  1
  Li  Li6  1  0.93447295  0.44602756  0.24247588  1
  Ti  Ti7  1  0.34692186  0.67999207  0.04454322  1
  O  O8  1  0.19984165  0.44980508  0.78054376  1
  O  O9  1  0.03543889  0.27955626  0.71717973  1
  O  O10  1  0.45295485  0.03167827  0.63994477  1
