# generated using pymatgen
data_Li2MnSb4Mo2P3
_symmetry_space_group_name_H-M   'P 1'
_cell_length_a   4.01518189
_cell_length_b   4.15995229
_cell_length_c   6.05542360
_cell_angle_alpha   104.71917112
_cell_angle_beta   93.85823061
_cell_angle_gamma   104.86131431
_symmetry_Int_Tables_number   1
_chemical_formula_structural   Li2MnSb4Mo2P3
_chemical_formula_sum   'Li2 Mn1 Sb4 Mo2 P3'
_cell_volume   93.59809686
_cell_formula_units_Z   1
loop_
 _symmetry_equiv_pos_site_id
 _symmetry_equiv_pos_as_xyz
  1  'x, y, z'
loop_
 _atom_site_type_symbol
 _atom_site_label
 _atom_site_symmetry_multiplicity
 _atom_site_fract_x
 _atom_site_fract_y
 _atom_site_fract_z
 _atom_site_occupancy
  Mn  Mn0  1  0.12500000  0.00000000  0.25000000  1
  Sb  Sb1  1  0.00000000  0.00000000  0.00000000  1
  Sb  Sb2  1  0.37500000  0.00000000  0.25000000  1
  Sb  Sb3  1  0.25000000  0.25000000  0.25000000  1
  Sb  Sb4  1  0.00000000  0.25000000  0.12500000  1
  P  P5  1  0.44151155  0.32957817  0.96526695  1
  P  P6  1  0.28190159  0.45901601  0.09050327  1
  P  P7  1  0.27756724  0.20020158  0.91248188  1
  Mo  Mo8  1  0.17510722  0.67149545  0.30775767  1
  Mo  Mo9  1  0.85164104  0.93161781  0.76319199  1
  Li  Li10  1  0.57705759  0.34759233  0.59017872  1
  Li  Li11  1  0.28722819  0.22806577  0.32309435  1
