# generated using pymatgen
data_Li2TiP3I4
_symmetry_space_group_name_H-M   'P 1'
_cell_length_a   7.24969289
_cell_length_b   6.91149276
_cell_length_c   8.27012002
_cell_angle_alpha   95.52645512
_cell_angle_beta   96.64949532
_cell_angle_gamma   95.35154322
_symmetry_Int_Tables_number   1
_chemical_formula_structural   Li2TiP3I4
_chemical_formula_sum   'Li2 Ti1 P3 I4'
_cell_volume   407.39223082
_cell_formula_units_Z   1
loop_
 _symmetry_equiv_pos_site_id
 _symmetry_equiv_pos_as_xyz
  1  'x, y, z'
loop_
 _atom_site_type_symbol
 _atom_site_label
 _atom_site_symmetry_multiplicity
 _atom_site_fract_x
 _atom_site_fract_y
 _atom_site_fract_z
 _atom_site_occupancy
  I  I0  1  0.12500000  0.12500000  0.12500000  1
  I  I1  1  0.50000000  0.50000000  0.50000000  1
  I  I2  1  0.25000000  0.25000000  0.25000000  1
  I  I3  1  0.75000000  0.75000000  0.75000000  1
  P  P4  1  0.70476861  0.21634885  0.71771085  1
  P  P5  1  0.34674567  0.63085537  0.96990528  1
  P  P6  1  0.36394730  0.33430992  0.77085426  1
  Li  Li7  1  0.23349739  0.34518387  0.86117411  1
  Li  Li8  1  0.63622689  0.60541325  0.98692311  1
  Ti  Ti9  1  0.90545034  0.19631481  0.49100969  1
