# generated using pymatgen
data_Li2TiCu2(I2O)2
_symmetry_space_group_name_H-M   'P 1'
_cell_length_a   6.50126747
_cell_length_b   6.65765834
_cell_length_c   6.95458639
_cell_angle_alpha   96.28649742
_cell_angle_beta   98.89607907
_cell_angle_gamma   98.07405303
_symmetry_Int_Tables_number   1
_chemical_formula_structural   Li2TiCu2(I2O)2
_chemical_formula_sum   'Li2 Ti1 Cu2 I4 O2'
_cell_volume   291.78639639
_cell_formula_units_Z   1
loop_
 _symmetry_equiv_pos_site_id
 _symmetry_equiv_pos_as_xyz
  1  'x, y, z'
loop_
 _atom_site_type_symbol
 _atom_site_label
 _atom_site_symmetry_multiplicity
 _atom_site_fract_x
 _atom_site_fract_y
 _atom_site_fract_z
 _atom_site_occupancy
  I  I0  1  0.00000000  0.00000000  0.00000000  1
  I  I1  1  0.50000000  0.50000000  0.50000000  1
  I  I2  1  0.25000000  0.25000000  0.25000000  1
  I  I3  1  0.75000000  0.25000000  0.00000000  1
  Li  Li4  1  0.25000000  0.75000000  0.50000000  1
  Li  Li5  1  0.32417718  0.27781668  0.46539407  1
  Cu  Cu6  1  0.58750866  0.79539398  0.84521810  1
  Cu  Cu7  1  0.17225514  0.71082624  0.21546328  1
  Ti  Ti8  1  0.24013396  0.75720618  0.13150621  1
  O  O9  1  0.44317517  0.81908366  0.74561823  1
  O  O10  1  0.35045885  0.64470904  0.97724294  1
