# generated using pymatgen
data_Li2Ti(I2O)2
_symmetry_space_group_name_H-M   'P 1'
_cell_length_a   8.06969564
_cell_length_b   7.95911285
_cell_length_c   7.31508275
_cell_angle_alpha   90.22747750
_cell_angle_beta   91.08226886
_cell_angle_gamma   90.26006752
_symmetry_Int_Tables_number   1
_chemical_formula_structural   Li2Ti(I2O)2
_chemical_formula_sum   'Li2 Ti1 I4 O2'
_cell_volume   469.73782263
_cell_formula_units_Z   1
loop_
 _symmetry_equiv_pos_site_id
 _symmetry_equiv_pos_as_xyz
  1  'x, y, z'
loop_
 _atom_site_type_symbol
 _atom_site_label
 _atom_site_symmetry_multiplicity
 _atom_site_fract_x
 _atom_site_fract_y
 _atom_site_fract_z
 _atom_site_occupancy
  I  I0  1  0.00000000  0.00000000  0.00000000  1
  I  I1  1  0.50000000  0.50000000  0.50000000  1
  I  I2  1  0.50000000  0.50000000  0.00000000  1
  I  I3  1  0.50000000  0.00000000  0.50000000  1
  Li  Li4  1  0.00000000  0.50000000  0.50000000  1
  Li  Li5  1  0.62327865  0.67252773  0.43227630  1
  Ti  Ti6  1  0.97299401  0.98592879  0.15119738  1
  O  O7  1  0.48147410  0.76049896  0.50764990  1
  O  O8  1  0.54533968  0.41756203  0.33958631  1
