# generated using pymatgen
data_Li3Ni2As6N5O7
_symmetry_space_group_name_H-M   'P 1'
_cell_length_a   8.19819091
_cell_length_b   7.98840787
_cell_length_c   8.72648572
_cell_angle_alpha   91.08191030
_cell_angle_beta   90.38250072
_cell_angle_gamma   91.25488497
_symmetry_Int_Tables_number   1
_chemical_formula_structural   Li3Ni2As6N5O7
_chemical_formula_sum   'Li3 Ni2 As6 N5 O7'
_cell_volume   571.24855349
_cell_formula_units_Z   1
loop_
 _symmetry_equiv_pos_site_id
 _symmetry_equiv_pos_as_xyz
  1  'x, y, z'
loop_
 _atom_site_type_symbol
 _atom_site_label
 _atom_site_symmetry_multiplicity
 _atom_site_fract_x
 _atom_site_fract_y
 _atom_site_fract_z
 _atom_site_occupancy
  Li  Li0  1  0.00000000  0.00000000  0.00000000  1
  Li  Li1  1  0.50000000  0.50000000  0.50000000  1
  Li  Li2  1  0.25000000  0.25000000  0.25000000  1
  Ni  Ni3  1  0.75000000  0.25000000  0.00000000  1
  Ni  Ni4  1  0.25000000  0.75000000  0.50000000  1
  As  As5  1  0.70245036  0.89764050  0.17566237  1
  As  As6  1  0.56086604  0.04858767  0.43083531  1
  As  As7  1  0.54907667  0.82669795  0.64337390  1
  As  As8  1  0.35364278  0.17520988  0.91678204  1
  As  As9  1  0.93006154  0.98822512  0.62415919  1
  As  As10  1  0.81879859  0.24281687  0.95012553  1
  O  O11  1  0.42371159  0.23763334  0.43104822  1
  O  O12  1  0.41699133  0.96950105  0.44051609  1
  O  O13  1  0.08048338  0.82441890  0.34728985  1
  O  O14  1  0.55795949  0.03194025  0.03405537  1
  O  O15  1  0.54893973  0.18717700  0.51429084  1
  O  O16  1  0.01266861  0.38305963  0.03948253  1
  O  O17  1  0.93530686  0.30090166  0.63685030  1
  N  N18  1  0.86547137  0.91300980  0.75393942  1
  N  N19  1  0.50887374  0.48177837  0.58271323  1
  N  N20  1  0.73573133  0.75825735  0.87672621  1
  N  N21  1  0.05064324  0.46569721  0.48591836  1
  N  N22  1  0.22701621  0.47671823  0.95388904  1
