# generated using pymatgen
data_LiMn2Sb4P3
_symmetry_space_group_name_H-M   'P 1'
_cell_length_a   5.62575859
_cell_length_b   5.97596666
_cell_length_c   6.48495340
_cell_angle_alpha   94.89664170
_cell_angle_beta   91.46376191
_cell_angle_gamma   95.16930661
_symmetry_Int_Tables_number   1
_chemical_formula_structural   LiMn2Sb4P3
_chemical_formula_sum   'Li1 Mn2 Sb4 P3'
_cell_volume   216.21931120
_cell_formula_units_Z   1
loop_
 _symmetry_equiv_pos_site_id
 _symmetry_equiv_pos_as_xyz
  1  'x, y, z'
loop_
 _atom_site_type_symbol
 _atom_site_label
 _atom_site_symmetry_multiplicity
 _atom_site_fract_x
 _atom_site_fract_y
 _atom_site_fract_z
 _atom_site_occupancy
  Mn  Mn0  1  0.12500000  0.00000000  0.25000000  1
  Mn  Mn1  1  0.00000000  0.00000000  0.00000000  1
  Sb  Sb2  1  0.37500000  0.00000000  0.25000000  1
  Sb  Sb3  1  0.25000000  0.25000000  0.25000000  1
  Sb  Sb4  1  0.00000000  0.25000000  0.12500000  1
  Sb  Sb5  1  0.28402341  0.94560596  0.36123350  1
  P  P6  1  0.67495596  0.31984761  0.47201327  1
  P  P7  1  0.24436976  0.33197879  0.52356627  1
  P  P8  1  0.72597910  0.88712073  0.60602283  1
  Li  Li9  1  0.74185045  0.50675842  0.06645590  1
