# generated using pymatgen
data_Li3Ti(I2O)2
_symmetry_space_group_name_H-M   'P 1'
_cell_length_a   7.22655708
_cell_length_b   6.96305178
_cell_length_c   7.06379921
_cell_angle_alpha   93.63716378
_cell_angle_beta   94.17331302
_cell_angle_gamma   93.28444925
_symmetry_Int_Tables_number   1
_chemical_formula_structural   Li3Ti(I2O)2
_chemical_formula_sum   'Li3 Ti1 I4 O2'
_cell_volume   353.10101951
_cell_formula_units_Z   1
loop_
 _symmetry_equiv_pos_site_id
 _symmetry_equiv_pos_as_xyz
  1  'x, y, z'
loop_
 _atom_site_type_symbol
 _atom_site_label
 _atom_site_symmetry_multiplicity
 _atom_site_fract_x
 _atom_site_fract_y
 _atom_site_fract_z
 _atom_site_occupancy
  I  I0  1  0.12500000  0.00000000  0.25000000  1
  I  I1  1  0.00000000  0.00000000  0.00000000  1
  I  I2  1  0.37500000  0.00000000  0.25000000  1
  I  I3  1  0.25000000  0.25000000  0.25000000  1
  Li  Li4  1  0.00000000  0.25000000  0.12500000  1
  Li  Li5  1  0.56327599  0.31304416  0.01225529  1
  Li  Li6  1  0.41611690  0.55409721  0.99573620  1
  Ti  Ti7  1  0.64969547  0.10308611  0.06817394  1
  O  O8  1  0.98338725  0.81459115  0.34831540  1
  O  O9  1  0.34876880  0.31138997  0.68856363  1
