# generated using pymatgen
data_Li2ZrCu2(P4O)2
_symmetry_space_group_name_H-M   'P 1'
_cell_length_a   7.72648609
_cell_length_b   7.68311571
_cell_length_c   7.59510383
_cell_angle_alpha   92.10268430
_cell_angle_beta   93.22795458
_cell_angle_gamma   92.00964309
_symmetry_Int_Tables_number   1
_chemical_formula_structural   Li2ZrCu2(P4O)2
_chemical_formula_sum   'Li2 Zr1 Cu2 P8 O2'
_cell_volume   449.54172761
_cell_formula_units_Z   1
loop_
 _symmetry_equiv_pos_site_id
 _symmetry_equiv_pos_as_xyz
  1  'x, y, z'
loop_
 _atom_site_type_symbol
 _atom_site_label
 _atom_site_symmetry_multiplicity
 _atom_site_fract_x
 _atom_site_fract_y
 _atom_site_fract_z
 _atom_site_occupancy
  P  P0  1  0.12500000  0.00000000  0.25000000  1
  P  P1  1  0.00000000  0.00000000  0.00000000  1
  P  P2  1  0.37500000  0.00000000  0.25000000  1
  P  P3  1  0.25000000  0.25000000  0.25000000  1
  P  P4  1  0.00000000  0.25000000  0.12500000  1
  P  P5  1  0.71885898  0.50987303  0.64906994  1
  P  P6  1  0.00114052  0.48775749  0.72053042  1
  P  P7  1  0.49683163  0.50152308  0.91022284  1
  Li  Li8  1  0.58324584  0.39760877  0.75100803  1
  Li  Li9  1  0.19864852  0.38177288  0.12250671  1
  Cu  Cu10  1  0.35307428  0.96556729  0.80726575  1
  Cu  Cu11  1  0.44248390  0.31249901  0.65230546  1
  O  O12  1  0.62675433  0.73514283  0.61882050  1
  O  O13  1  0.47891239  0.00556800  0.13698048  1
  Zr  Zr14  1  0.53854449  0.51433006  0.02247371  1
