# generated using pymatgen
data_Li2MnSb4P3
_symmetry_space_group_name_H-M   'P 1'
_cell_length_a   6.41358444
_cell_length_b   6.67171104
_cell_length_c   7.45915411
_cell_angle_alpha   93.47361164
_cell_angle_beta   94.11481395
_cell_angle_gamma   93.95339893
_symmetry_Int_Tables_number   1
_chemical_formula_structural   Li2MnSb4P3
_chemical_formula_sum   'Li2 Mn1 Sb4 P3'
_cell_volume   316.90422950
_cell_formula_units_Z   1
loop_
 _symmetry_equiv_pos_site_id
 _symmetry_equiv_pos_as_xyz
  1  'x, y, z'
loop_
 _atom_site_type_symbol
 _atom_site_label
 _atom_site_symmetry_multiplicity
 _atom_site_fract_x
 _atom_site_fract_y
 _atom_site_fract_z
 _atom_site_occupancy
  Mn  Mn0  1  0.00000000  0.00000000  0.00000000  1
  Sb  Sb1  1  0.50000000  0.50000000  0.50000000  1
  Sb  Sb2  1  0.50000000  0.50000000  0.00000000  1
  Sb  Sb3  1  0.50000000  0.00000000  0.50000000  1
  Sb  Sb4  1  0.00000000  0.50000000  0.50000000  1
  P  P5  1  0.59333758  0.88911718  0.90015467  1
  P  P6  1  0.51680141  0.82428331  0.79165894  1
  P  P7  1  0.27215639  0.45450996  0.39264192  1
  Li  Li8  1  0.81585702  0.85119045  0.88663917  1
  Li  Li9  1  0.92506416  0.95013707  0.52344472  1
