# generated using pymatgen
data_Li2Mn2Sb4(PN)3
_symmetry_space_group_name_H-M   'P 1'
_cell_length_a   6.60515793
_cell_length_b   7.20621147
_cell_length_c   7.49555952
_cell_angle_alpha   95.03117303
_cell_angle_beta   92.31511357
_cell_angle_gamma   94.17357361
_symmetry_Int_Tables_number   1
_chemical_formula_structural   Li2Mn2Sb4(PN)3
_chemical_formula_sum   'Li2 Mn2 Sb4 P3 N3'
_cell_volume   354.06469190
_cell_formula_units_Z   1
loop_
 _symmetry_equiv_pos_site_id
 _symmetry_equiv_pos_as_xyz
  1  'x, y, z'
loop_
 _atom_site_type_symbol
 _atom_site_label
 _atom_site_symmetry_multiplicity
 _atom_site_fract_x
 _atom_site_fract_y
 _atom_site_fract_z
 _atom_site_occupancy
  N  N0  1  0.00000000  0.00000000  0.00000000  1
  N  N1  1  0.50000000  0.50000000  0.50000000  1
  N  N2  1  0.50000000  0.50000000  0.00000000  1
  Mn  Mn3  1  0.50000000  0.00000000  0.50000000  1
  Mn  Mn4  1  0.00000000  0.50000000  0.50000000  1
  Sb  Sb5  1  0.33165968  0.62832789  0.58443969  1
  Sb  Sb6  1  0.38105719  0.60002793  0.19020510  1
  Sb  Sb7  1  0.42794379  0.63459117  0.34011115  1
  Sb  Sb8  1  0.05344778  0.85674860  0.85311066  1
  P  P9  1  0.07597191  0.10844048  0.58702444  1
  P  P10  1  0.28795310  0.29145187  0.52857306  1
  P  P11  1  0.90673509  0.06664984  0.17623782  1
  Li  Li12  1  0.86617654  0.07048863  0.68324174  1
  Li  Li13  1  0.50491993  0.51426887  0.28052985  1
