# generated using pymatgen
data_Li2TiCu2As6F2
_symmetry_space_group_name_H-M   'P 1'
_cell_length_a   7.27573634
_cell_length_b   7.21594991
_cell_length_c   8.00260381
_cell_angle_alpha   90.85877993
_cell_angle_beta   92.79190775
_cell_angle_gamma   90.69929764
_symmetry_Int_Tables_number   1
_chemical_formula_structural   Li2TiCu2As6F2
_chemical_formula_sum   'Li2 Ti1 Cu2 As6 F2'
_cell_volume   419.56645997
_cell_formula_units_Z   1
loop_
 _symmetry_equiv_pos_site_id
 _symmetry_equiv_pos_as_xyz
  1  'x, y, z'
loop_
 _atom_site_type_symbol
 _atom_site_label
 _atom_site_symmetry_multiplicity
 _atom_site_fract_x
 _atom_site_fract_y
 _atom_site_fract_z
 _atom_site_occupancy
  Li  Li0  1  0.00000000  0.00000000  0.00000000  1
  Li  Li1  1  0.50000000  0.50000000  0.50000000  1
  Cu  Cu2  1  0.50000000  0.50000000  0.00000000  1
  Cu  Cu3  1  0.50000000  0.00000000  0.50000000  1
  F  F4  1  0.00000000  0.50000000  0.50000000  1
  F  F5  1  0.37564500  0.04353366  0.31047386  1
  Ti  Ti6  1  0.36395104  0.41274009  0.31733215  1
  As  As7  1  0.03826550  0.96881254  0.99240525  1
  As  As8  1  0.48544450  0.54037278  0.26584264  1
  As  As9  1  0.99204329  0.05242885  0.19801314  1
  As  As10  1  0.90693126  0.04043834  0.47637570  1
  As  As11  1  0.61948962  0.75925998  0.18825002  1
  As  As12  1  0.66144833  0.44347188  0.53024671  1
