# generated using pymatgen
data_Li2Sb3P3N5
_symmetry_space_group_name_H-M   'P 1'
_cell_length_a   6.49053541
_cell_length_b   7.06887827
_cell_length_c   7.56825200
_cell_angle_alpha   92.93251198
_cell_angle_beta   93.29217634
_cell_angle_gamma   93.25717900
_symmetry_Int_Tables_number   1
_chemical_formula_structural   Li2Sb3P3N5
_chemical_formula_sum   'Li2 Sb3 P3 N5'
_cell_volume   345.58812376
_cell_formula_units_Z   1
loop_
 _symmetry_equiv_pos_site_id
 _symmetry_equiv_pos_as_xyz
  1  'x, y, z'
loop_
 _atom_site_type_symbol
 _atom_site_label
 _atom_site_symmetry_multiplicity
 _atom_site_fract_x
 _atom_site_fract_y
 _atom_site_fract_z
 _atom_site_occupancy
  N  N0  1  0.00000000  0.00000000  0.00000000  1
  N  N1  1  0.50000000  0.50000000  0.50000000  1
  N  N2  1  0.25000000  0.25000000  0.25000000  1
  N  N3  1  0.75000000  0.25000000  0.00000000  1
  N  N4  1  0.25000000  0.75000000  0.50000000  1
  Sb  Sb5  1  0.45741440  0.33416081  0.13262886  1
  Sb  Sb6  1  0.59966282  0.96274696  0.07928277  1
  Sb  Sb7  1  0.08142769  0.62228691  0.85916050  1
  P  P8  1  0.98145926  0.97672091  0.74925220  1
  P  P9  1  0.04397371  0.19704761  0.10171970  1
  P  P10  1  0.64067852  0.90857621  0.97613487  1
  Li  Li11  1  0.97245027  0.88896133  0.62523720  1
  Li  Li12  1  0.56010376  0.04431899  0.98752587  1
