# generated using pymatgen
data_Li2Mn2Sb4P2N
_symmetry_space_group_name_H-M   'P 1'
_cell_length_a   4.50401705
_cell_length_b   4.77299466
_cell_length_c   6.33272738
_cell_angle_alpha   102.07557169
_cell_angle_beta   95.13664924
_cell_angle_gamma   101.67290050
_symmetry_Int_Tables_number   1
_chemical_formula_structural   Li2Mn2Sb4P2N
_chemical_formula_sum   'Li2 Mn2 Sb4 P2 N1'
_cell_volume   129.13136618
_cell_formula_units_Z   1
loop_
 _symmetry_equiv_pos_site_id
 _symmetry_equiv_pos_as_xyz
  1  'x, y, z'
loop_
 _atom_site_type_symbol
 _atom_site_label
 _atom_site_symmetry_multiplicity
 _atom_site_fract_x
 _atom_site_fract_y
 _atom_site_fract_z
 _atom_site_occupancy
  N  N0  1  0.00000000  0.00000000  0.00000000  1
  Mn  Mn1  1  0.50000000  0.50000000  0.50000000  1
  Mn  Mn2  1  0.50000000  0.50000000  0.00000000  1
  Sb  Sb3  1  0.50000000  0.00000000  0.50000000  1
  Sb  Sb4  1  0.00000000  0.50000000  0.50000000  1
  Sb  Sb5  1  0.44656918  0.23378379  0.07349275  1
  Sb  Sb6  1  0.55694491  0.60508587  0.16002622  1
  P  P7  1  0.73850581  0.43211774  0.58072529  1
  P  P8  1  0.63027213  0.56055103  0.57198259  1
  Li  Li9  1  0.36296495  0.42591522  0.49909706  1
  Li  Li10  1  0.49167339  0.64361219  0.54294991  1
