# generated using pymatgen
data_Li4Ti3(CuO)2
_symmetry_space_group_name_H-M   'P 1'
_cell_length_a   4.97861899
_cell_length_b   5.39419101
_cell_length_c   6.60461229
_cell_angle_alpha   102.16866511
_cell_angle_beta   106.48181781
_cell_angle_gamma   105.65996195
_symmetry_Int_Tables_number   1
_chemical_formula_structural   Li4Ti3(CuO)2
_chemical_formula_sum   'Li4 Ti3 Cu2 O2'
_cell_volume   155.63525212
_cell_formula_units_Z   1
loop_
 _symmetry_equiv_pos_site_id
 _symmetry_equiv_pos_as_xyz
  1  'x, y, z'
loop_
 _atom_site_type_symbol
 _atom_site_label
 _atom_site_symmetry_multiplicity
 _atom_site_fract_x
 _atom_site_fract_y
 _atom_site_fract_z
 _atom_site_occupancy
  Li  Li0  1  0.00000000  0.00000000  0.00000000  1
  Li  Li1  1  0.50000000  0.50000000  0.50000000  1
  Li  Li2  1  0.25000000  0.25000000  0.25000000  1
  Li  Li3  1  0.75000000  0.25000000  0.00000000  1
  Cu  Cu4  1  0.25000000  0.75000000  0.50000000  1
  Cu  Cu5  1  0.36281561  0.91309525  0.82305208  1
  Ti  Ti6  1  0.01239990  0.96242996  0.55421371  1
  Ti  Ti7  1  0.54178543  0.57488395  0.98382280  1
  Ti  Ti8  1  0.94985111  0.42548282  0.41070117  1
  O  O9  1  0.28921907  0.11989615  0.49766244  1
  O  O10  1  0.26936578  0.97426124  0.78354236  1
