# generated using pymatgen
data_Li2Mn2Sb4P3
_symmetry_space_group_name_H-M   'P 1'
_cell_length_a   5.83936426
_cell_length_b   6.28084964
_cell_length_c   6.86770680
_cell_angle_alpha   96.86733499
_cell_angle_beta   92.22764330
_cell_angle_gamma   96.99319621
_symmetry_Int_Tables_number   1
_chemical_formula_structural   Li2Mn2Sb4P3
_chemical_formula_sum   'Li2 Mn2 Sb4 P3'
_cell_volume   247.84861754
_cell_formula_units_Z   1
loop_
 _symmetry_equiv_pos_site_id
 _symmetry_equiv_pos_as_xyz
  1  'x, y, z'
loop_
 _atom_site_type_symbol
 _atom_site_label
 _atom_site_symmetry_multiplicity
 _atom_site_fract_x
 _atom_site_fract_y
 _atom_site_fract_z
 _atom_site_occupancy
  Mn  Mn0  1  0.12500000  0.00000000  0.25000000  1
  Mn  Mn1  1  0.00000000  0.00000000  0.00000000  1
  Sb  Sb2  1  0.37500000  0.00000000  0.25000000  1
  Sb  Sb3  1  0.25000000  0.25000000  0.25000000  1
  Sb  Sb4  1  0.00000000  0.25000000  0.12500000  1
  Sb  Sb5  1  0.86280814  0.88228515  0.52578636  1
  P  P6  1  0.57310778  0.04065561  0.58252963  1
  P  P7  1  0.44078041  0.65042182  0.51995056  1
  P  P8  1  0.26580569  0.33890585  0.93309719  1
  Li  Li9  1  0.78430273  0.16612696  0.32033660  1
  Li  Li10  1  0.98179128  0.15566459  0.94063377  1
