# generated using pymatgen
data_Li2MnP3
_symmetry_space_group_name_H-M   'P 1'
_cell_length_a   5.59311367
_cell_length_b   5.87655343
_cell_length_c   7.19755024
_cell_angle_alpha   95.89711913
_cell_angle_beta   95.85618161
_cell_angle_gamma   96.55435129
_symmetry_Int_Tables_number   1
_chemical_formula_structural   Li2MnP3
_chemical_formula_sum   'Li2 Mn1 P3'
_cell_volume   232.22658267
_cell_formula_units_Z   1
loop_
 _symmetry_equiv_pos_site_id
 _symmetry_equiv_pos_as_xyz
  1  'x, y, z'
loop_
 _atom_site_type_symbol
 _atom_site_label
 _atom_site_symmetry_multiplicity
 _atom_site_fract_x
 _atom_site_fract_y
 _atom_site_fract_z
 _atom_site_occupancy
  Mn  Mn0  1  0.00000000  0.00000000  0.00000000  1
  P  P1  1  0.50000000  0.50000000  0.50000000  1
  P  P2  1  0.50000000  0.50000000  0.00000000  1
  P  P3  1  0.50000000  0.00000000  0.50000000  1
  Li  Li4  1  0.00000000  0.50000000  0.50000000  1
  Li  Li5  1  0.72736349  0.72943789  0.00996871  1
