# generated using pymatgen
data_Li2Mn3Sb4P3
_symmetry_space_group_name_H-M   'P 1'
_cell_length_a   6.12092006
_cell_length_b   6.57414928
_cell_length_c   6.79489664
_cell_angle_alpha   96.86525886
_cell_angle_beta   90.34296611
_cell_angle_gamma   96.72870884
_symmetry_Int_Tables_number   1
_chemical_formula_structural   Li2Mn3Sb4P3
_chemical_formula_sum   'Li2 Mn3 Sb4 P3'
_cell_volume   269.53985372
_cell_formula_units_Z   1
loop_
 _symmetry_equiv_pos_site_id
 _symmetry_equiv_pos_as_xyz
  1  'x, y, z'
loop_
 _atom_site_type_symbol
 _atom_site_label
 _atom_site_symmetry_multiplicity
 _atom_site_fract_x
 _atom_site_fract_y
 _atom_site_fract_z
 _atom_site_occupancy
  Mn  Mn0  1  0.00000000  0.00000000  0.00000000  1
  Mn  Mn1  1  0.50000000  0.50000000  0.50000000  1
  Mn  Mn2  1  0.25000000  0.25000000  0.25000000  1
  Sb  Sb3  1  0.75000000  0.25000000  0.00000000  1
  Sb  Sb4  1  0.25000000  0.75000000  0.50000000  1
  Sb  Sb5  1  0.95987712  0.89665102  0.60099454  1
  Sb  Sb6  1  0.96440524  0.87461081  0.19918176  1
  P  P7  1  0.04783978  0.67892048  0.92806592  1
  P  P8  1  0.83480484  0.39924853  0.68242346  1
  P  P9  1  0.50056120  0.59032799  0.70869883  1
  Li  Li10  1  0.08276656  0.00755010  0.13195239  1
  Li  Li11  1  0.31383585  0.43051522  0.59637539  1
