# generated using pymatgen
data_LiCuF
_symmetry_space_group_name_H-M   'P 1'
_cell_length_a   7.63302882
_cell_length_b   7.74127019
_cell_length_c   8.34924082
_cell_angle_alpha   90.43086386
_cell_angle_beta   92.04991939
_cell_angle_gamma   90.49259244
_symmetry_Int_Tables_number   1
_chemical_formula_structural   LiCuF
_chemical_formula_sum   'Li2 Cu2 F2'
_cell_volume   493.00204736
_cell_formula_units_Z   2
loop_
 _symmetry_equiv_pos_site_id
 _symmetry_equiv_pos_as_xyz
  1  'x, y, z'
loop_
 _atom_site_type_symbol
 _atom_site_label
 _atom_site_symmetry_multiplicity
 _atom_site_fract_x
 _atom_site_fract_y
 _atom_site_fract_z
 _atom_site_occupancy
  F  F0  1  0.12500000  0.12500000  0.12500000  1
  F  F1  1  0.50000000  0.50000000  0.50000000  1
  Li  Li2  1  0.25000000  0.25000000  0.25000000  1
  Li  Li3  1  0.75000000  0.75000000  0.75000000  1
  Cu  Cu4  1  0.08845688  0.52581883  0.21099813  1
  Cu  Cu5  1  0.73872279  0.20316903  0.06319216  1
