# generated using pymatgen
data_LiMnSb2P
_symmetry_space_group_name_H-M   'P 1'
_cell_length_a   5.46089920
_cell_length_b   5.70040112
_cell_length_c   6.75235823
_cell_angle_alpha   98.84217553
_cell_angle_beta   95.06167910
_cell_angle_gamma   98.72899620
_symmetry_Int_Tables_number   1
_chemical_formula_structural   LiMnSb2P
_chemical_formula_sum   'Li2 Mn2 Sb4 P2'
_cell_volume   203.94893750
_cell_formula_units_Z   2
loop_
 _symmetry_equiv_pos_site_id
 _symmetry_equiv_pos_as_xyz
  1  'x, y, z'
loop_
 _atom_site_type_symbol
 _atom_site_label
 _atom_site_symmetry_multiplicity
 _atom_site_fract_x
 _atom_site_fract_y
 _atom_site_fract_z
 _atom_site_occupancy
  Mn  Mn0  1  0.12500000  0.12500000  0.12500000  1
  Mn  Mn1  1  0.50000000  0.50000000  0.50000000  1
  Sb  Sb2  1  0.25000000  0.25000000  0.25000000  1
  Sb  Sb3  1  0.75000000  0.75000000  0.75000000  1
  Sb  Sb4  1  0.16340182  0.79182705  0.82185544  1
  Sb  Sb5  1  0.15940552  0.17880056  0.97018412  1
  P  P6  1  0.05533327  0.37264301  0.59040433  1
  P  P7  1  0.12573742  0.40793102  0.35809715  1
  Li  Li8  1  0.29069503  0.25647790  0.11628392  1
  Li  Li9  1  0.63023052  0.71791161  0.48883994  1
