# generated using pymatgen
data_Li2Sb4Mo2P3
_symmetry_space_group_name_H-M   'P 1'
_cell_length_a   3.77271701
_cell_length_b   3.94823581
_cell_length_c   6.09755944
_cell_angle_alpha   103.30186412
_cell_angle_beta   96.75574562
_cell_angle_gamma   103.39243907
_symmetry_Int_Tables_number   1
_chemical_formula_structural   Li2Sb4Mo2P3
_chemical_formula_sum   'Li2 Sb4 Mo2 P3'
_cell_volume   84.57315383
_cell_formula_units_Z   1
loop_
 _symmetry_equiv_pos_site_id
 _symmetry_equiv_pos_as_xyz
  1  'x, y, z'
loop_
 _atom_site_type_symbol
 _atom_site_label
 _atom_site_symmetry_multiplicity
 _atom_site_fract_x
 _atom_site_fract_y
 _atom_site_fract_z
 _atom_site_occupancy
  Sb  Sb0  1  0.12500000  0.12500000  0.12500000  1
  Sb  Sb1  1  0.50000000  0.50000000  0.50000000  1
  Sb  Sb2  1  0.25000000  0.25000000  0.25000000  1
  Sb  Sb3  1  0.75000000  0.75000000  0.75000000  1
  P  P4  1  0.45088901  0.40140984  0.70460469  1
  P  P5  1  0.15854704  0.53519977  0.94994628  1
  P  P6  1  0.99786893  0.79218273  0.31591071  1
  Mo  Mo7  1  0.68460131  0.83417015  0.15665211  1
  Mo  Mo8  1  0.02021655  0.00448748  0.25469342  1
  Li  Li9  1  0.94618804  0.15227074  0.68051242  1
  Li  Li10  1  0.41987274  0.68630105  0.77465665  1
