# generated using pymatgen
data_Li3Ti2Cu2(OF)2
_symmetry_space_group_name_H-M   'P 1'
_cell_length_a   6.17460444
_cell_length_b   6.33711518
_cell_length_c   7.07119139
_cell_angle_alpha   97.99292407
_cell_angle_beta   101.03371199
_cell_angle_gamma   100.27739702
_symmetry_Int_Tables_number   1
_chemical_formula_structural   Li3Ti2Cu2(OF)2
_chemical_formula_sum   'Li3 Ti2 Cu2 O2 F2'
_cell_volume   262.88577129
_cell_formula_units_Z   1
loop_
 _symmetry_equiv_pos_site_id
 _symmetry_equiv_pos_as_xyz
  1  'x, y, z'
loop_
 _atom_site_type_symbol
 _atom_site_label
 _atom_site_symmetry_multiplicity
 _atom_site_fract_x
 _atom_site_fract_y
 _atom_site_fract_z
 _atom_site_occupancy
  Li  Li0  1  0.12500000  0.00000000  0.25000000  1
  Li  Li1  1  0.00000000  0.00000000  0.00000000  1
  Li  Li2  1  0.37500000  0.00000000  0.25000000  1
  Cu  Cu3  1  0.25000000  0.25000000  0.25000000  1
  Cu  Cu4  1  0.00000000  0.25000000  0.12500000  1
  F  F5  1  0.04346201  0.64867714  0.77652342  1
  F  F6  1  0.51390911  0.54996665  0.37938315  1
  Ti  Ti7  1  0.19337897  0.79824071  0.81607838  1
  Ti  Ti8  1  0.09486227  0.29166772  0.04516291  1
  O  O9  1  0.55635812  0.96013963  0.07261451  1
  O  O10  1  0.72002530  0.58665384  0.91621091  1
