# generated using pymatgen
data_Li4MnSi3(PS)3
_symmetry_space_group_name_H-M   'P 1'
_cell_length_a   6.83659141
_cell_length_b   6.72201537
_cell_length_c   8.41751070
_cell_angle_alpha   96.93396863
_cell_angle_beta   98.21392653
_cell_angle_gamma   97.89171243
_symmetry_Int_Tables_number   1
_chemical_formula_structural   Li4MnSi3(PS)3
_chemical_formula_sum   'Li4 Mn1 Si3 P3 S3'
_cell_volume   375.33220457
_cell_formula_units_Z   1
loop_
 _symmetry_equiv_pos_site_id
 _symmetry_equiv_pos_as_xyz
  1  'x, y, z'
loop_
 _atom_site_type_symbol
 _atom_site_label
 _atom_site_symmetry_multiplicity
 _atom_site_fract_x
 _atom_site_fract_y
 _atom_site_fract_z
 _atom_site_occupancy
  Si  Si0  1  0.00000000  0.00000000  0.00000000  1
  Si  Si1  1  0.50000000  0.50000000  0.50000000  1
  Si  Si2  1  0.50000000  0.50000000  0.00000000  1
  S  S3  1  0.50000000  0.00000000  0.50000000  1
  S  S4  1  0.00000000  0.50000000  0.50000000  1
  S  S5  1  0.98504001  0.41019413  0.41387271  1
  Mn  Mn6  1  0.33013853  0.79881607  0.48909996  1
  P  P7  1  0.70738488  0.51820382  0.06153679  1
  P  P8  1  0.10647982  0.65658903  0.91304354  1
  P  P9  1  0.92867614  0.58972140  0.48147278  1
  Li  Li10  1  0.22722422  0.59711840  0.50202907  1
  Li  Li11  1  0.37519657  0.93580863  0.26697771  1
  Li  Li12  1  0.44641863  0.47027073  0.86407733  1
  Li  Li13  1  0.16858084  0.30660839  0.50777495  1
