# generated using pymatgen
data_Li3Ti2(CuP3)2
_symmetry_space_group_name_H-M   'P 1'
_cell_length_a   7.34909785
_cell_length_b   7.26309486
_cell_length_c   7.52938600
_cell_angle_alpha   93.89222175
_cell_angle_beta   95.68350947
_cell_angle_gamma   94.99155763
_symmetry_Int_Tables_number   1
_chemical_formula_structural   Li3Ti2(CuP3)2
_chemical_formula_sum   'Li3 Ti2 Cu2 P6'
_cell_volume   397.21715152
_cell_formula_units_Z   1
loop_
 _symmetry_equiv_pos_site_id
 _symmetry_equiv_pos_as_xyz
  1  'x, y, z'
loop_
 _atom_site_type_symbol
 _atom_site_label
 _atom_site_symmetry_multiplicity
 _atom_site_fract_x
 _atom_site_fract_y
 _atom_site_fract_z
 _atom_site_occupancy
  P  P0  1  0.00000000  0.00000000  0.00000000  1
  P  P1  1  0.50000000  0.50000000  0.50000000  1
  P  P2  1  0.25000000  0.25000000  0.25000000  1
  P  P3  1  0.75000000  0.25000000  0.00000000  1
  P  P4  1  0.25000000  0.75000000  0.50000000  1
  P  P5  1  0.54306477  0.09876338  0.51372861  1
  Li  Li6  1  0.63324365  0.40783092  0.96849574  1
  Li  Li7  1  0.18676887  0.35089931  0.48203783  1
  Li  Li8  1  0.37896609  0.90163584  0.50863060  1
  Cu  Cu9  1  0.19781233  0.19577373  0.91237962  1
  Cu  Cu10  1  0.76589152  0.04304326  0.88932461  1
  Ti  Ti11  1  0.52704564  0.99392162  0.01397894  1
  Ti  Ti12  1  0.68112311  0.71024545  0.11180959  1
