# generated using pymatgen
data_LiZnCu(TeAs)3
_symmetry_space_group_name_H-M   'P 1'
_cell_length_a   7.84125038
_cell_length_b   8.13283339
_cell_length_c   8.04039645
_cell_angle_alpha   90.32450161
_cell_angle_beta   91.54388012
_cell_angle_gamma   90.37099199
_symmetry_Int_Tables_number   1
_chemical_formula_structural   LiZnCu(TeAs)3
_chemical_formula_sum   'Li2 Zn2 Cu2 Te6 As6'
_cell_volume   512.54318608
_cell_formula_units_Z   2
loop_
 _symmetry_equiv_pos_site_id
 _symmetry_equiv_pos_as_xyz
  1  'x, y, z'
loop_
 _atom_site_type_symbol
 _atom_site_label
 _atom_site_symmetry_multiplicity
 _atom_site_fract_x
 _atom_site_fract_y
 _atom_site_fract_z
 _atom_site_occupancy
  Li  Li0  1  0.00000000  0.00000000  0.00000000  1
  Li  Li1  1  0.50000000  0.50000000  0.50000000  1
  Cu  Cu2  1  0.25000000  0.25000000  0.25000000  1
  Cu  Cu3  1  0.75000000  0.25000000  0.00000000  1
  Zn  Zn4  1  0.25000000  0.75000000  0.50000000  1
  Zn  Zn5  1  0.38138060  0.71964872  0.32769031  1
  Te  Te6  1  0.76522860  0.28396558  0.90758673  1
  Te  Te7  1  0.25509998  0.05509419  0.74108301  1
  Te  Te8  1  0.29235574  0.46739013  0.45365258  1
  Te  Te9  1  0.91782896  0.75295809  0.24655294  1
  Te  Te10  1  0.08971153  0.77812268  0.87678107  1
  Te  Te11  1  0.74321307  0.33700003  0.99358452  1
  As  As12  1  0.25651064  0.34397888  0.86648572  1
  As  As13  1  0.37169921  0.64672728  0.99530936  1
  As  As14  1  0.98301958  0.93082545  0.12578135  1
  As  As15  1  0.61333958  0.86872262  0.48277917  1
  As  As16  1  0.62963815  0.24942613  0.02715916  1
  As  As17  1  0.17396081  0.18838029  0.41714292  1
