# generated using pymatgen
data_LiSb4Mo2P3O
_symmetry_space_group_name_H-M   'P 1'
_cell_length_a   6.21742914
_cell_length_b   6.42943274
_cell_length_c   6.20411805
_cell_angle_alpha   90.10609942
_cell_angle_beta   88.24876268
_cell_angle_gamma   89.29022306
_symmetry_Int_Tables_number   1
_chemical_formula_structural   LiSb4Mo2P3O
_chemical_formula_sum   'Li1 Sb4 Mo2 P3 O1'
_cell_volume   247.87130667
_cell_formula_units_Z   1
loop_
 _symmetry_equiv_pos_site_id
 _symmetry_equiv_pos_as_xyz
  1  'x, y, z'
loop_
 _atom_site_type_symbol
 _atom_site_label
 _atom_site_symmetry_multiplicity
 _atom_site_fract_x
 _atom_site_fract_y
 _atom_site_fract_z
 _atom_site_occupancy
  O  O0  1  0.00000000  0.00000000  0.00000000  1
  Sb  Sb1  1  0.50000000  0.50000000  0.50000000  1
  Sb  Sb2  1  0.50000000  0.50000000  0.00000000  1
  Sb  Sb3  1  0.50000000  0.00000000  0.50000000  1
  Sb  Sb4  1  0.00000000  0.50000000  0.50000000  1
  P  P5  1  0.36277945  0.82683431  0.33087144  1
  P  P6  1  0.04904935  0.23723744  0.65797314  1
  P  P7  1  0.54322192  0.19161502  0.40052069  1
  Mo  Mo8  1  0.60659307  0.81027514  0.81180658  1
  Mo  Mo9  1  0.41356109  0.98511197  0.17669969  1
  Li  Li10  1  0.85909601  0.91952286  0.60203297  1
