# generated using pymatgen
data_Li2Sb4Mo2P3
_symmetry_space_group_name_H-M   'P 1'
_cell_length_a   4.15700387
_cell_length_b   4.35803186
_cell_length_c   6.18975031
_cell_angle_alpha   103.64362441
_cell_angle_beta   94.22988252
_cell_angle_gamma   103.86640056
_symmetry_Int_Tables_number   1
_chemical_formula_structural   Li2Sb4Mo2P3
_chemical_formula_sum   'Li2 Sb4 Mo2 P3'
_cell_volume   104.78203577
_cell_formula_units_Z   1
loop_
 _symmetry_equiv_pos_site_id
 _symmetry_equiv_pos_as_xyz
  1  'x, y, z'
loop_
 _atom_site_type_symbol
 _atom_site_label
 _atom_site_symmetry_multiplicity
 _atom_site_fract_x
 _atom_site_fract_y
 _atom_site_fract_z
 _atom_site_occupancy
  Sb  Sb0  1  0.00000000  0.00000000  0.00000000  1
  Sb  Sb1  1  0.50000000  0.50000000  0.50000000  1
  Sb  Sb2  1  0.25000000  0.25000000  0.25000000  1
  Sb  Sb3  1  0.75000000  0.25000000  0.00000000  1
  P  P4  1  0.25000000  0.75000000  0.50000000  1
  P  P5  1  0.10158222  0.71703633  0.84139775  1
  P  P6  1  0.30376654  0.89859969  0.48295589  1
  Mo  Mo7  1  0.99599295  0.41187209  0.06404571  1
  Mo  Mo8  1  0.50972467  0.86347551  0.49251327  1
  Li  Li9  1  0.52123714  0.86221428  0.95898923  1
  Li  Li10  1  0.23254600  0.60224263  0.72400946  1
