# generated using pymatgen
data_Li2Ti(I2O)2
_symmetry_space_group_name_H-M   'P 1'
_cell_length_a   8.55742096
_cell_length_b   8.44159644
_cell_length_c   7.24973748
_cell_angle_alpha   90.09002729
_cell_angle_beta   90.42832251
_cell_angle_gamma   90.10292523
_symmetry_Int_Tables_number   1
_chemical_formula_structural   Li2Ti(I2O)2
_chemical_formula_sum   'Li2 Ti1 I4 O2'
_cell_volume   523.69253417
_cell_formula_units_Z   1
loop_
 _symmetry_equiv_pos_site_id
 _symmetry_equiv_pos_as_xyz
  1  'x, y, z'
loop_
 _atom_site_type_symbol
 _atom_site_label
 _atom_site_symmetry_multiplicity
 _atom_site_fract_x
 _atom_site_fract_y
 _atom_site_fract_z
 _atom_site_occupancy
  I  I0  1  0.00000000  0.00000000  0.00000000  1
  I  I1  1  0.33300000  0.66700000  0.25000000  1
  I  I2  1  0.66700000  0.33300000  0.50000000  1
  I  I3  1  0.00000000  0.00000000  0.75000000  1
  Li  Li4  1  0.43658768  0.04561207  0.89064384  1
  Li  Li5  1  0.56594984  0.95808848  0.36125520  1
  Ti  Ti6  1  0.63794658  0.82083122  0.91791900  1
  O  O7  1  0.27782624  0.12681001  0.14881256  1
  O  O8  1  0.04810985  0.82579987  0.57876089  1
