# generated using pymatgen
data_Li2Ti2S3Cl
_symmetry_space_group_name_H-M   'P 1'
_cell_length_a   3.12921578
_cell_length_b   3.22443016
_cell_length_c   6.07242013
_cell_angle_alpha   97.42541382
_cell_angle_beta   92.02071132
_cell_angle_gamma   103.93584744
_symmetry_Int_Tables_number   1
_chemical_formula_structural   Li2Ti2S3Cl
_chemical_formula_sum   'Li2 Ti2 S3 Cl1'
_cell_volume   58.82776902
_cell_formula_units_Z   1
loop_
 _symmetry_equiv_pos_site_id
 _symmetry_equiv_pos_as_xyz
  1  'x, y, z'
loop_
 _atom_site_type_symbol
 _atom_site_label
 _atom_site_symmetry_multiplicity
 _atom_site_fract_x
 _atom_site_fract_y
 _atom_site_fract_z
 _atom_site_occupancy
  Ti  Ti0  1  0.12500000  0.12500000  0.12500000  1
  Ti  Ti1  1  0.50000000  0.50000000  0.50000000  1
  S  S2  1  0.25000000  0.25000000  0.25000000  1
  S  S3  1  0.75000000  0.75000000  0.75000000  1
  S  S4  1  0.34241680  0.49043429  0.43485078  1
  Cl  Cl5  1  0.62445060  0.33552659  0.38039935  1
  Li  Li6  1  0.39064644  0.68595707  0.00451484  1
  Li  Li7  1  0.00589618  0.65612573  0.20981538  1
