# generated using pymatgen
data_Li2YTi2Se5Cl
_symmetry_space_group_name_H-M   'P 1'
_cell_length_a   5.96877692
_cell_length_b   6.15684015
_cell_length_c   6.78175479
_cell_angle_alpha   93.66028241
_cell_angle_beta   98.99891975
_cell_angle_gamma   96.39868451
_symmetry_Int_Tables_number   1
_chemical_formula_structural   Li2YTi2Se5Cl
_chemical_formula_sum   'Li2 Y1 Ti2 Se5 Cl1'
_cell_volume   243.78036853
_cell_formula_units_Z   1
loop_
 _symmetry_equiv_pos_site_id
 _symmetry_equiv_pos_as_xyz
  1  'x, y, z'
loop_
 _atom_site_type_symbol
 _atom_site_label
 _atom_site_symmetry_multiplicity
 _atom_site_fract_x
 _atom_site_fract_y
 _atom_site_fract_z
 _atom_site_occupancy
  Se  Se0  1  0.00000000  0.00000000  0.00000000  1
  Se  Se1  1  0.50000000  0.50000000  0.50000000  1
  Se  Se2  1  0.50000000  0.50000000  0.00000000  1
  Se  Se3  1  0.50000000  0.00000000  0.50000000  1
  Se  Se4  1  0.00000000  0.50000000  0.50000000  1
  Y  Y5  1  0.47794049  0.71455447  0.98009826  1
  Cl  Cl6  1  0.90676325  0.43360836  0.96146584  1
  Ti  Ti7  1  0.37580549  0.26726539  0.57074570  1
  Ti  Ti8  1  0.17155367  0.86751617  0.08662514  1
  Li  Li9  1  0.51789605  0.41981148  0.76319904  1
  Li  Li10  1  0.89513675  0.47311140  0.05667744  1
