# generated using pymatgen
data_LiMn3(SbP)3
_symmetry_space_group_name_H-M   'P 1'
_cell_length_a   7.01248713
_cell_length_b   7.00674008
_cell_length_c   7.25697666
_cell_angle_alpha   91.61184939
_cell_angle_beta   90.32960104
_cell_angle_gamma   91.70584343
_symmetry_Int_Tables_number   1
_chemical_formula_structural   LiMn3(SbP)3
_chemical_formula_sum   'Li1 Mn3 Sb3 P3'
_cell_volume   356.26239199
_cell_formula_units_Z   1
loop_
 _symmetry_equiv_pos_site_id
 _symmetry_equiv_pos_as_xyz
  1  'x, y, z'
loop_
 _atom_site_type_symbol
 _atom_site_label
 _atom_site_symmetry_multiplicity
 _atom_site_fract_x
 _atom_site_fract_y
 _atom_site_fract_z
 _atom_site_occupancy
  Mn  Mn0  1  0.00000000  0.00000000  0.00000000  1
  Mn  Mn1  1  0.33300000  0.66700000  0.25000000  1
  Mn  Mn2  1  0.66700000  0.33300000  0.50000000  1
  Sb  Sb3  1  0.00000000  0.00000000  0.75000000  1
  Sb  Sb4  1  0.44170396  0.53117818  0.73001249  1
  Sb  Sb5  1  0.01411090  0.33915123  0.34542920  1
  P  P6  1  0.83688669  0.79619716  0.16973499  1
  P  P7  1  0.89137844  0.51947451  0.47977656  1
  P  P8  1  0.98756017  0.03112654  0.77917371  1
  Li  Li9  1  0.40821083  0.29797649  0.31411457  1
