# generated using pymatgen
data_LiMn2Sb4P3
_symmetry_space_group_name_H-M   'P 1'
_cell_length_a   5.69069843
_cell_length_b   6.06731063
_cell_length_c   6.59537829
_cell_angle_alpha   95.55494846
_cell_angle_beta   91.64174653
_cell_angle_gamma   95.77287306
_symmetry_Int_Tables_number   1
_chemical_formula_structural   LiMn2Sb4P3
_chemical_formula_sum   'Li1 Mn2 Sb4 P3'
_cell_volume   225.33179842
_cell_formula_units_Z   1
loop_
 _symmetry_equiv_pos_site_id
 _symmetry_equiv_pos_as_xyz
  1  'x, y, z'
loop_
 _atom_site_type_symbol
 _atom_site_label
 _atom_site_symmetry_multiplicity
 _atom_site_fract_x
 _atom_site_fract_y
 _atom_site_fract_z
 _atom_site_occupancy
  Mn  Mn0  1  0.00000000  0.00000000  0.00000000  1
  Mn  Mn1  1  0.50000000  0.50000000  0.50000000  1
  Sb  Sb2  1  0.25000000  0.25000000  0.25000000  1
  Sb  Sb3  1  0.75000000  0.25000000  0.00000000  1
  Sb  Sb4  1  0.25000000  0.75000000  0.50000000  1
  Sb  Sb5  1  0.05606819  0.01012964  0.27264319  1
  P  P6  1  0.45105235  0.45092200  0.02881277  1
  P  P7  1  0.23990294  0.70254169  0.67690423  1
  P  P8  1  0.38097756  0.34204430  0.65236065  1
  Li  Li9  1  0.59274437  0.88912344  0.12705109  1
