# generated using pymatgen
data_Li2Mn2Sb4P3
_symmetry_space_group_name_H-M   'P 1'
_cell_length_a   5.24808745
_cell_length_b   5.60907736
_cell_length_c   6.66694345
_cell_angle_alpha   99.02347889
_cell_angle_beta   93.25062195
_cell_angle_gamma   99.23391747
_symmetry_Int_Tables_number   1
_chemical_formula_structural   Li2Mn2Sb4P3
_chemical_formula_sum   'Li2 Mn2 Sb4 P3'
_cell_volume   190.63791515
_cell_formula_units_Z   1
loop_
 _symmetry_equiv_pos_site_id
 _symmetry_equiv_pos_as_xyz
  1  'x, y, z'
loop_
 _atom_site_type_symbol
 _atom_site_label
 _atom_site_symmetry_multiplicity
 _atom_site_fract_x
 _atom_site_fract_y
 _atom_site_fract_z
 _atom_site_occupancy
  Mn  Mn0  1  0.00000000  0.00000000  0.00000000  1
  Mn  Mn1  1  0.33300000  0.66700000  0.25000000  1
  Sb  Sb2  1  0.66700000  0.33300000  0.50000000  1
  Sb  Sb3  1  0.00000000  0.00000000  0.75000000  1
  Sb  Sb4  1  0.58625957  0.28643512  0.51424108  1
  Sb  Sb5  1  0.51630595  0.38365105  0.05201085  1
  P  P6  1  0.55054280  0.89273269  0.13901828  1
  P  P7  1  0.90103968  0.01803366  0.78218269  1
  P  P8  1  0.31641266  0.34638208  0.95117046  1
  Li  Li9  1  0.34363484  0.14159806  0.77382248  1
  Li  Li10  1  0.09996163  0.77017759  0.67819418  1
