# generated using pymatgen
data_Li2Mn2Sb4P3
_symmetry_space_group_name_H-M   'P 1'
_cell_length_a   6.68546716
_cell_length_b   7.23100217
_cell_length_c   7.10956532
_cell_angle_alpha   94.06413512
_cell_angle_beta   90.40345261
_cell_angle_gamma   94.01121089
_symmetry_Int_Tables_number   1
_chemical_formula_structural   Li2Mn2Sb4P3
_chemical_formula_sum   'Li2 Mn2 Sb4 P3'
_cell_volume   341.96612126
_cell_formula_units_Z   1
loop_
 _symmetry_equiv_pos_site_id
 _symmetry_equiv_pos_as_xyz
  1  'x, y, z'
loop_
 _atom_site_type_symbol
 _atom_site_label
 _atom_site_symmetry_multiplicity
 _atom_site_fract_x
 _atom_site_fract_y
 _atom_site_fract_z
 _atom_site_occupancy
  Mn  Mn0  1  0.12500000  0.12500000  0.12500000  1
  Mn  Mn1  1  0.50000000  0.50000000  0.50000000  1
  Sb  Sb2  1  0.25000000  0.25000000  0.25000000  1
  Sb  Sb3  1  0.75000000  0.75000000  0.75000000  1
  Sb  Sb4  1  0.24839871  0.98212097  0.08383149  1
  Sb  Sb5  1  0.64251472  0.17358411  0.89243031  1
  P  P6  1  0.96540122  0.06051016  0.55802919  1
  P  P7  1  0.39302982  0.83302046  0.02209084  1
  P  P8  1  0.48649844  0.01626483  0.72213781  1
  Li  Li9  1  0.58112821  0.20004715  0.91717335  1
  Li  Li10  1  0.79493186  0.30516321  0.93837743  1
