# generated using pymatgen
data_Li5Ti2P8SeO2
_symmetry_space_group_name_H-M   'P 1'
_cell_length_a   5.31504842
_cell_length_b   5.12939638
_cell_length_c   7.22309014
_cell_angle_alpha   103.28064184
_cell_angle_beta   107.11759425
_cell_angle_gamma   102.46330332
_symmetry_Int_Tables_number   1
_chemical_formula_structural   Li5Ti2P8SeO2
_chemical_formula_sum   'Li5 Ti2 P8 Se1 O2'
_cell_volume   174.45599364
_cell_formula_units_Z   1
loop_
 _symmetry_equiv_pos_site_id
 _symmetry_equiv_pos_as_xyz
  1  'x, y, z'
loop_
 _atom_site_type_symbol
 _atom_site_label
 _atom_site_symmetry_multiplicity
 _atom_site_fract_x
 _atom_site_fract_y
 _atom_site_fract_z
 _atom_site_occupancy
  P  P0  1  0.12500000  0.00000000  0.25000000  1
  P  P1  1  0.00000000  0.00000000  0.00000000  1
  P  P2  1  0.37500000  0.00000000  0.25000000  1
  P  P3  1  0.25000000  0.25000000  0.25000000  1
  P  P4  1  0.00000000  0.25000000  0.12500000  1
  P  P5  1  0.33058177  0.90540395  0.01869009  1
  P  P6  1  0.24863862  0.49481010  0.61156578  1
  P  P7  1  0.01746570  0.15641024  0.92298161  1
  Li  Li8  1  0.46138904  0.22745310  0.10016440  1
  Li  Li9  1  0.11431289  0.40063544  0.27081971  1
  Li  Li10  1  0.78010072  0.33721790  0.26111630  1
  Li  Li11  1  0.01453397  0.91675656  0.06716555  1
  Li  Li12  1  0.69597280  0.23162447  0.99185567  1
  Se  Se13  1  0.73716641  0.40481421  0.40147897  1
  Ti  Ti14  1  0.37889795  0.87181857  0.58619888  1
  Ti  Ti15  1  0.71900922  0.81405156  0.27066991  1
  O  O16  1  0.78244031  0.82905295  0.50018495  1
  O  O17  1  0.65350751  0.30798250  0.29837610  1
