# generated using pymatgen
data_Li4Ti3(CuO)2
_symmetry_space_group_name_H-M   'P 1'
_cell_length_a   4.97861899
_cell_length_b   5.39419101
_cell_length_c   6.60461229
_cell_angle_alpha   102.16866511
_cell_angle_beta   106.48181781
_cell_angle_gamma   105.65996195
_symmetry_Int_Tables_number   1
_chemical_formula_structural   Li4Ti3(CuO)2
_chemical_formula_sum   'Li4 Ti3 Cu2 O2'
_cell_volume   155.63525212
_cell_formula_units_Z   1
loop_
 _symmetry_equiv_pos_site_id
 _symmetry_equiv_pos_as_xyz
  1  'x, y, z'
loop_
 _atom_site_type_symbol
 _atom_site_label
 _atom_site_symmetry_multiplicity
 _atom_site_fract_x
 _atom_site_fract_y
 _atom_site_fract_z
 _atom_site_occupancy
  Li  Li0  1  0.00000000  0.00000000  0.00000000  1
  Li  Li1  1  0.50000000  0.50000000  0.50000000  1
  Li  Li2  1  0.25000000  0.25000000  0.25000000  1
  Li  Li3  1  0.75000000  0.25000000  0.00000000  1
  Cu  Cu4  1  0.25000000  0.75000000  0.50000000  1
  Cu  Cu5  1  0.63330133  0.33867866  0.30675068  1
  Ti  Ti6  1  0.29860248  0.60970130  0.50190228  1
  Ti  Ti7  1  0.36242006  0.51193381  0.10357105  1
  Ti  Ti8  1  0.31444845  0.84857678  0.17625142  1
  O  O9  1  0.44017762  0.92540405  0.21947206  1
  O  O10  1  0.96337058  0.11680178  0.10951796  1
