# generated using pymatgen
data_Li2Lu(CuAs3)2
_symmetry_space_group_name_H-M   'P 1'
_cell_length_a   7.45524249
_cell_length_b   7.40085889
_cell_length_c   8.62102330
_cell_angle_alpha   91.78835515
_cell_angle_beta   91.83946453
_cell_angle_gamma   92.06972205
_symmetry_Int_Tables_number   1
_chemical_formula_structural   Li2Lu(CuAs3)2
_chemical_formula_sum   'Li2 Lu1 Cu2 As6'
_cell_volume   474.86187720
_cell_formula_units_Z   1
loop_
 _symmetry_equiv_pos_site_id
 _symmetry_equiv_pos_as_xyz
  1  'x, y, z'
loop_
 _atom_site_type_symbol
 _atom_site_label
 _atom_site_symmetry_multiplicity
 _atom_site_fract_x
 _atom_site_fract_y
 _atom_site_fract_z
 _atom_site_occupancy
  Lu  Lu0  1  0.00000000  0.00000000  0.00000000  1
  As  As1  1  0.50000000  0.50000000  0.50000000  1
  As  As2  1  0.25000000  0.25000000  0.25000000  1
  As  As3  1  0.75000000  0.25000000  0.00000000  1
  As  As4  1  0.25000000  0.75000000  0.50000000  1
  As  As5  1  0.60760440  0.68705085  0.65217701  1
  As  As6  1  0.05199185  0.86311683  0.00130806  1
  Li  Li7  1  0.44314474  0.41447261  0.59761714  1
  Li  Li8  1  0.74219585  0.45908274  0.00604250  1
  Cu  Cu9  1  0.68976328  0.45863866  0.88988155  1
  Cu  Cu10  1  0.38758020  0.58171615  0.66711585  1
