# generated using pymatgen
data_LiMn2Sb4P3
_symmetry_space_group_name_H-M   'P 1'
_cell_length_a   5.11109592
_cell_length_b   5.37949083
_cell_length_c   6.36238167
_cell_angle_alpha   98.62477406
_cell_angle_beta   92.11131562
_cell_angle_gamma   98.54990120
_symmetry_Int_Tables_number   1
_chemical_formula_structural   LiMn2Sb4P3
_chemical_formula_sum   'Li1 Mn2 Sb4 P3'
_cell_volume   170.72081358
_cell_formula_units_Z   1
loop_
 _symmetry_equiv_pos_site_id
 _symmetry_equiv_pos_as_xyz
  1  'x, y, z'
loop_
 _atom_site_type_symbol
 _atom_site_label
 _atom_site_symmetry_multiplicity
 _atom_site_fract_x
 _atom_site_fract_y
 _atom_site_fract_z
 _atom_site_occupancy
  Mn  Mn0  1  0.12500000  0.12500000  0.12500000  1
  Mn  Mn1  1  0.50000000  0.50000000  0.50000000  1
  Sb  Sb2  1  0.25000000  0.25000000  0.25000000  1
  Sb  Sb3  1  0.75000000  0.75000000  0.75000000  1
  Sb  Sb4  1  0.50899488  0.13575441  0.33150398  1
  Sb  Sb5  1  0.30396073  0.56517387  0.40965472  1
  P  P6  1  0.18095207  0.54052633  0.06081398  1
  P  P7  1  0.09594037  0.24547297  0.18584632  1
  P  P8  1  0.50683647  0.00123206  0.18962359  1
  Li  Li9  1  0.02305027  0.29914634  0.37830588  1
