# generated using pymatgen
data_Li4Cu2P6SeO
_symmetry_space_group_name_H-M   'P 1'
_cell_length_a   6.10231111
_cell_length_b   5.95100975
_cell_length_c   7.41094584
_cell_angle_alpha   100.04191411
_cell_angle_beta   103.17566485
_cell_angle_gamma   99.46721297
_symmetry_Int_Tables_number   1
_chemical_formula_structural   Li4Cu2P6SeO
_chemical_formula_sum   'Li4 Cu2 P6 Se1 O1'
_cell_volume   252.10696545
_cell_formula_units_Z   1
loop_
 _symmetry_equiv_pos_site_id
 _symmetry_equiv_pos_as_xyz
  1  'x, y, z'
loop_
 _atom_site_type_symbol
 _atom_site_label
 _atom_site_symmetry_multiplicity
 _atom_site_fract_x
 _atom_site_fract_y
 _atom_site_fract_z
 _atom_site_occupancy
  P  P0  1  0.00000000  0.00000000  0.00000000  1
  P  P1  1  0.50000000  0.50000000  0.50000000  1
  P  P2  1  0.50000000  0.50000000  0.00000000  1
  P  P3  1  0.50000000  0.00000000  0.50000000  1
  P  P4  1  0.00000000  0.50000000  0.50000000  1
  P  P5  1  0.58038238  0.37633522  0.07947953  1
  Li  Li6  1  0.13197208  0.80278029  0.89361555  1
  Li  Li7  1  0.94105578  0.23575904  0.39251410  1
  Li  Li8  1  0.20725480  0.99578151  0.56030809  1
  Li  Li9  1  0.88602522  0.43586969  0.09532420  1
  Cu  Cu10  1  0.21995245  0.88356942  0.93164456  1
  Cu  Cu11  1  0.33332912  0.73388271  0.05722303  1
  Se  Se12  1  0.63942011  0.37626496  0.72552825  1
  O  O13  1  0.70589912  0.76470021  0.43240681  1
