# generated using pymatgen
data_Li3Ni2N5Cl2O7
_symmetry_space_group_name_H-M   'P 1'
_cell_length_a   6.65194802
_cell_length_b   6.33523582
_cell_length_c   8.29076385
_cell_angle_alpha   98.96629319
_cell_angle_beta   101.41515303
_cell_angle_gamma   98.51901779
_symmetry_Int_Tables_number   1
_chemical_formula_structural   Li3Ni2N5Cl2O7
_chemical_formula_sum   'Li3 Ni2 N5 Cl2 O7'
_cell_volume   332.46017655
_cell_formula_units_Z   1
loop_
 _symmetry_equiv_pos_site_id
 _symmetry_equiv_pos_as_xyz
  1  'x, y, z'
loop_
 _atom_site_type_symbol
 _atom_site_label
 _atom_site_symmetry_multiplicity
 _atom_site_fract_x
 _atom_site_fract_y
 _atom_site_fract_z
 _atom_site_occupancy
  Li  Li0  1  0.00000000  0.00000000  0.00000000  1
  Li  Li1  1  0.50000000  0.50000000  0.50000000  1
  Li  Li2  1  0.25000000  0.25000000  0.25000000  1
  Cl  Cl3  1  0.75000000  0.25000000  0.00000000  1
  Cl  Cl4  1  0.25000000  0.75000000  0.50000000  1
  Ni  Ni5  1  0.21432437  0.36604517  0.11753335  1
  Ni  Ni6  1  0.86240436  0.61899645  0.85110120  1
  O  O7  1  0.24650540  0.26436122  0.56342405  1
  O  O8  1  0.33370523  0.33535216  0.18180675  1
  O  O9  1  0.82067263  0.24911794  0.20070228  1
  O  O10  1  0.93433392  0.53354822  0.99963654  1
  O  O11  1  0.88555731  0.14133816  0.36389602  1
  O  O12  1  0.15858353  0.21531722  0.85951889  1
  O  O13  1  0.69018923  0.76582522  0.74249998  1
  N  N14  1  0.14098064  0.02835140  0.83495126  1
  N  N15  1  0.10822756  0.31982870  0.85314921  1
  N  N16  1  0.82753305  0.83183535  0.03641809  1
  N  N17  1  0.95489304  0.68938901  0.43925435  1
  N  N18  1  0.59934200  0.06299321  0.37480686  1
