# generated using pymatgen
data_Li2MnSb4P3
_symmetry_space_group_name_H-M   'P 1'
_cell_length_a   5.64779904
_cell_length_b   5.93907560
_cell_length_c   6.83536686
_cell_angle_alpha   97.98059631
_cell_angle_beta   93.59223842
_cell_angle_gamma   98.32932411
_symmetry_Int_Tables_number   1
_chemical_formula_structural   Li2MnSb4P3
_chemical_formula_sum   'Li2 Mn1 Sb4 P3'
_cell_volume   223.85824787
_cell_formula_units_Z   1
loop_
 _symmetry_equiv_pos_site_id
 _symmetry_equiv_pos_as_xyz
  1  'x, y, z'
loop_
 _atom_site_type_symbol
 _atom_site_label
 _atom_site_symmetry_multiplicity
 _atom_site_fract_x
 _atom_site_fract_y
 _atom_site_fract_z
 _atom_site_occupancy
  Mn  Mn0  1  0.00000000  0.00000000  0.00000000  1
  Sb  Sb1  1  0.33300000  0.66700000  0.25000000  1
  Sb  Sb2  1  0.66700000  0.33300000  0.50000000  1
  Sb  Sb3  1  0.00000000  0.00000000  0.75000000  1
  Sb  Sb4  1  0.29039018  0.09776030  0.63002038  1
  P  P5  1  0.71806401  0.99625988  0.01065259  1
  P  P6  1  0.88647266  0.77638205  0.52109240  1
  P  P7  1  0.88431787  0.82749958  0.07772569  1
  Li  Li8  1  0.27029395  0.40798610  0.34800583  1
  Li  Li9  1  0.37255375  0.92324422  0.58904891  1
