# generated using pymatgen
data_Li2MnSb4Mo2P3
_symmetry_space_group_name_H-M   'P 1'
_cell_length_a   5.29930163
_cell_length_b   5.67342123
_cell_length_c   6.72927498
_cell_angle_alpha   98.56465337
_cell_angle_beta   93.53890642
_cell_angle_gamma   98.82755766
_symmetry_Int_Tables_number   1
_chemical_formula_structural   Li2MnSb4Mo2P3
_chemical_formula_sum   'Li2 Mn1 Sb4 Mo2 P3'
_cell_volume   196.94887006
_cell_formula_units_Z   1
loop_
 _symmetry_equiv_pos_site_id
 _symmetry_equiv_pos_as_xyz
  1  'x, y, z'
loop_
 _atom_site_type_symbol
 _atom_site_label
 _atom_site_symmetry_multiplicity
 _atom_site_fract_x
 _atom_site_fract_y
 _atom_site_fract_z
 _atom_site_occupancy
  Mn  Mn0  1  0.12500000  0.00000000  0.25000000  1
  Sb  Sb1  1  0.00000000  0.00000000  0.00000000  1
  Sb  Sb2  1  0.37500000  0.00000000  0.25000000  1
  Sb  Sb3  1  0.25000000  0.25000000  0.25000000  1
  Sb  Sb4  1  0.00000000  0.25000000  0.12500000  1
  P  P5  1  0.02236660  0.53415106  0.32344998  1
  P  P6  1  0.59726920  0.30900097  0.66557103  1
  P  P7  1  0.83292495  0.90326779  0.84031022  1
  Mo  Mo8  1  0.15733186  0.63316915  0.08995667  1
  Mo  Mo9  1  0.19612766  0.07242588  0.84199844  1
  Li  Li10  1  0.98926024  0.08003349  0.74761764  1
  Li  Li11  1  0.09698619  0.25102449  0.76686590  1
