# generated using pymatgen
data_Li2Ti3Cu2O2F3
_symmetry_space_group_name_H-M   'P 1'
_cell_length_a   5.78262740
_cell_length_b   5.81513419
_cell_length_c   7.21482339
_cell_angle_alpha   95.70266378
_cell_angle_beta   99.59334407
_cell_angle_gamma   97.25990647
_symmetry_Int_Tables_number   1
_chemical_formula_structural   Li2Ti3Cu2O2F3
_chemical_formula_sum   'Li2 Ti3 Cu2 O2 F3'
_cell_volume   235.49502179
_cell_formula_units_Z   1
loop_
 _symmetry_equiv_pos_site_id
 _symmetry_equiv_pos_as_xyz
  1  'x, y, z'
loop_
 _atom_site_type_symbol
 _atom_site_label
 _atom_site_symmetry_multiplicity
 _atom_site_fract_x
 _atom_site_fract_y
 _atom_site_fract_z
 _atom_site_occupancy
  Li  Li0  1  0.00000000  0.00000000  0.00000000  1
  Li  Li1  1  0.50000000  0.50000000  0.50000000  1
  Cu  Cu2  1  0.25000000  0.25000000  0.25000000  1
  Cu  Cu3  1  0.75000000  0.25000000  0.00000000  1
  F  F4  1  0.25000000  0.75000000  0.50000000  1
  F  F5  1  0.80098493  0.98687126  0.44831635  1
  F  F6  1  0.70007858  0.88904622  0.17311932  1
  Ti  Ti7  1  0.08983955  0.03544682  0.26367664  1
  Ti  Ti8  1  0.17774200  0.52903979  0.64509788  1
  Ti  Ti9  1  0.74465313  0.83611863  0.50196269  1
  O  O10  1  0.16415649  0.72756939  0.11892401  1
  O  O11  1  0.30429797  0.90899881  0.51993936  1
