# generated using pymatgen
data_LiMnSb4P3
_symmetry_space_group_name_H-M   'P 1'
_cell_length_a   5.18593145
_cell_length_b   5.45033934
_cell_length_c   6.45359103
_cell_angle_alpha   99.19671203
_cell_angle_beta   92.80352772
_cell_angle_gamma   99.28995397
_symmetry_Int_Tables_number   1
_chemical_formula_structural   LiMnSb4P3
_chemical_formula_sum   'Li1 Mn1 Sb4 P3'
_cell_volume   177.18139204
_cell_formula_units_Z   1
loop_
 _symmetry_equiv_pos_site_id
 _symmetry_equiv_pos_as_xyz
  1  'x, y, z'
loop_
 _atom_site_type_symbol
 _atom_site_label
 _atom_site_symmetry_multiplicity
 _atom_site_fract_x
 _atom_site_fract_y
 _atom_site_fract_z
 _atom_site_occupancy
  Mn  Mn0  1  0.12500000  0.12500000  0.12500000  1
  Sb  Sb1  1  0.50000000  0.50000000  0.50000000  1
  Sb  Sb2  1  0.25000000  0.25000000  0.25000000  1
  Sb  Sb3  1  0.75000000  0.75000000  0.75000000  1
  Sb  Sb4  1  0.00970026  0.35888363  0.05867607  1
  P  P5  1  0.16630503  0.89252772  0.28837353  1
  P  P6  1  0.01593418  0.70447897  0.96254287  1
  P  P7  1  0.20964392  0.95884793  0.30075205  1
  Li  Li8  1  0.83929890  0.33672892  0.48314784  1
