# generated using pymatgen
data_Li2Mn2Sb4Mo2P3
_symmetry_space_group_name_H-M   'P 1'
_cell_length_a   4.60990129
_cell_length_b   4.89412783
_cell_length_c   6.50717302
_cell_angle_alpha   101.00271179
_cell_angle_beta   94.82235838
_cell_angle_gamma   101.37889929
_symmetry_Int_Tables_number   1
_chemical_formula_structural   Li2Mn2Sb4Mo2P3
_chemical_formula_sum   'Li2 Mn2 Sb4 Mo2 P3'
_cell_volume   140.14515147
_cell_formula_units_Z   1
loop_
 _symmetry_equiv_pos_site_id
 _symmetry_equiv_pos_as_xyz
  1  'x, y, z'
loop_
 _atom_site_type_symbol
 _atom_site_label
 _atom_site_symmetry_multiplicity
 _atom_site_fract_x
 _atom_site_fract_y
 _atom_site_fract_z
 _atom_site_occupancy
  Mn  Mn0  1  0.12500000  0.00000000  0.25000000  1
  Mn  Mn1  1  0.00000000  0.00000000  0.00000000  1
  Sb  Sb2  1  0.37500000  0.00000000  0.25000000  1
  Sb  Sb3  1  0.25000000  0.25000000  0.25000000  1
  Sb  Sb4  1  0.00000000  0.25000000  0.12500000  1
  Sb  Sb5  1  0.43780327  0.33331021  0.61931285  1
  P  P6  1  0.53608355  0.17892207  0.99194538  1
  P  P7  1  0.01726563  0.53852019  0.80942982  1
  P  P8  1  0.09536912  0.71896001  0.81175806  1
  Mo  Mo9  1  0.92597639  0.18435491  0.58907598  1
  Mo  Mo10  1  0.37009447  0.47349812  0.16101737  1
  Li  Li11  1  0.69615182  0.47745786  0.31359413  1
  Li  Li12  1  0.34577459  0.48085208  0.62241406  1
