# generated using pymatgen
data_Li3TiAs6(IO)4
_symmetry_space_group_name_H-M   'P 1'
_cell_length_a   8.23775495
_cell_length_b   8.10485782
_cell_length_c   8.92161897
_cell_angle_alpha   90.07088240
_cell_angle_beta   90.33723695
_cell_angle_gamma   90.08103752
_symmetry_Int_Tables_number   1
_chemical_formula_structural   Li3TiAs6(IO)4
_chemical_formula_sum   'Li3 Ti1 As6 I4 O4'
_cell_volume   595.64794391
_cell_formula_units_Z   1
loop_
 _symmetry_equiv_pos_site_id
 _symmetry_equiv_pos_as_xyz
  1  'x, y, z'
loop_
 _atom_site_type_symbol
 _atom_site_label
 _atom_site_symmetry_multiplicity
 _atom_site_fract_x
 _atom_site_fract_y
 _atom_site_fract_z
 _atom_site_occupancy
  I  I0  1  0.00000000  0.00000000  0.00000000  1
  I  I1  1  0.50000000  0.50000000  0.50000000  1
  I  I2  1  0.50000000  0.50000000  0.00000000  1
  I  I3  1  0.50000000  0.00000000  0.50000000  1
  Li  Li4  1  0.00000000  0.50000000  0.50000000  1
  Li  Li5  1  0.35415764  0.64037409  0.44561917  1
  Li  Li6  1  0.68275418  0.23820035  0.44054009  1
  Ti  Ti7  1  0.16965966  0.26143610  0.24674371  1
  As  As8  1  0.08569393  0.18550017  0.68766894  1
  As  As9  1  0.84531782  0.11905056  0.03289178  1
  As  As10  1  0.56775540  0.10488248  0.45698615  1
  As  As11  1  0.52562762  0.30917013  0.11992341  1
  As  As12  1  0.75131703  0.38801542  0.05435981  1
  As  As13  1  0.72603744  0.72549767  0.93166000  1
  O  O14  1  0.89346078  0.44366182  0.73731926  1
  O  O15  1  0.66635041  0.32345246  0.06171342  1
  O  O16  1  0.78662351  0.06479799  0.14232243  1
  O  O17  1  0.34906469  0.93691807  0.85301128  1
