# generated using pymatgen
data_Li2MnMo2P3
_symmetry_space_group_name_H-M   'P 1'
_cell_length_a   4.52074956
_cell_length_b   4.76765296
_cell_length_c   6.34175582
_cell_angle_alpha   102.15569333
_cell_angle_beta   93.87126565
_cell_angle_gamma   102.36847393
_symmetry_Int_Tables_number   1
_chemical_formula_structural   Li2MnMo2P3
_chemical_formula_sum   'Li2 Mn1 Mo2 P3'
_cell_volume   129.60930693
_cell_formula_units_Z   1
loop_
 _symmetry_equiv_pos_site_id
 _symmetry_equiv_pos_as_xyz
  1  'x, y, z'
loop_
 _atom_site_type_symbol
 _atom_site_label
 _atom_site_symmetry_multiplicity
 _atom_site_fract_x
 _atom_site_fract_y
 _atom_site_fract_z
 _atom_site_occupancy
  Mn  Mn0  1  0.00000000  0.00000000  0.00000000  1
  P  P1  1  0.33300000  0.66700000  0.25000000  1
  P  P2  1  0.66700000  0.33300000  0.50000000  1
  P  P3  1  0.00000000  0.00000000  0.75000000  1
  Mo  Mo4  1  0.08326481  0.94989115  0.84100545  1
  Mo  Mo5  1  0.09986424  0.49379120  0.59698248  1
  Li  Li6  1  0.57215750  0.12665778  0.88984574  1
  Li  Li7  1  0.28688644  0.18500670  0.25098154  1
