# generated using pymatgen
data_LiMnSb4Mo2P3
_symmetry_space_group_name_H-M   'P 1'
_cell_length_a   4.73747342
_cell_length_b   4.96130439
_cell_length_c   6.52286815
_cell_angle_alpha   98.70457523
_cell_angle_beta   95.00636363
_cell_angle_gamma   99.04873997
_symmetry_Int_Tables_number   1
_chemical_formula_structural   LiMnSb4Mo2P3
_chemical_formula_sum   'Li1 Mn1 Sb4 Mo2 P3'
_cell_volume   148.68999554
_cell_formula_units_Z   1
loop_
 _symmetry_equiv_pos_site_id
 _symmetry_equiv_pos_as_xyz
  1  'x, y, z'
loop_
 _atom_site_type_symbol
 _atom_site_label
 _atom_site_symmetry_multiplicity
 _atom_site_fract_x
 _atom_site_fract_y
 _atom_site_fract_z
 _atom_site_occupancy
  Mn  Mn0  1  0.00000000  0.00000000  0.00000000  1
  Sb  Sb1  1  0.50000000  0.50000000  0.50000000  1
  Sb  Sb2  1  0.50000000  0.50000000  0.00000000  1
  Sb  Sb3  1  0.50000000  0.00000000  0.50000000  1
  Sb  Sb4  1  0.00000000  0.50000000  0.50000000  1
  P  P5  1  0.91147474  0.50857572  0.43293146  1
  P  P6  1  0.24284187  0.65448011  0.95223291  1
  P  P7  1  0.41750577  0.99051470  0.49258426  1
  Mo  Mo8  1  0.18685724  0.21975820  0.71307844  1
  Mo  Mo9  1  0.35692645  0.52912113  0.96616317  1
  Li  Li10  1  0.30959026  0.64477510  0.93360318  1
