# generated using pymatgen
data_Li2Zr2SbF4
_symmetry_space_group_name_H-M   'P 1'
_cell_length_a   5.81421977
_cell_length_b   6.53151564
_cell_length_c   6.40814050
_cell_angle_alpha   91.41087237
_cell_angle_beta   92.64879866
_cell_angle_gamma   94.15398927
_symmetry_Int_Tables_number   1
_chemical_formula_structural   Li2Zr2SbF4
_chemical_formula_sum   'Li2 Zr2 Sb1 F4'
_cell_volume   242.35923399
_cell_formula_units_Z   1
loop_
 _symmetry_equiv_pos_site_id
 _symmetry_equiv_pos_as_xyz
  1  'x, y, z'
loop_
 _atom_site_type_symbol
 _atom_site_label
 _atom_site_symmetry_multiplicity
 _atom_site_fract_x
 _atom_site_fract_y
 _atom_site_fract_z
 _atom_site_occupancy
  Sb  Sb0  1  0.00000000  0.00000000  0.00000000  1
  Zr  Zr1  1  0.50000000  0.50000000  0.50000000  1
  Zr  Zr2  1  0.25000000  0.25000000  0.25000000  1
  F  F3  1  0.75000000  0.25000000  0.00000000  1
  F  F4  1  0.25000000  0.75000000  0.50000000  1
  F  F5  1  0.36698884  0.35890908  0.65661012  1
  F  F6  1  0.88187246  0.46032140  0.08876205  1
  Li  Li7  1  0.63479272  0.14668084  0.64736254  1
  Li  Li8  1  0.38686554  0.01454588  0.95041311  1
