# generated using pymatgen
data_Li2Mn3Sb4P3
_symmetry_space_group_name_H-M   'P 1'
_cell_length_a   4.57667076
_cell_length_b   4.79927763
_cell_length_c   5.53486049
_cell_angle_alpha   101.09853295
_cell_angle_beta   92.82533057
_cell_angle_gamma   99.28311998
_symmetry_Int_Tables_number   1
_chemical_formula_structural   Li2Mn3Sb4P3
_chemical_formula_sum   'Li2 Mn3 Sb4 P3'
_cell_volume   117.32966979
_cell_formula_units_Z   1
loop_
 _symmetry_equiv_pos_site_id
 _symmetry_equiv_pos_as_xyz
  1  'x, y, z'
loop_
 _atom_site_type_symbol
 _atom_site_label
 _atom_site_symmetry_multiplicity
 _atom_site_fract_x
 _atom_site_fract_y
 _atom_site_fract_z
 _atom_site_occupancy
  Mn  Mn0  1  0.12500000  0.00000000  0.25000000  1
  Mn  Mn1  1  0.00000000  0.00000000  0.00000000  1
  Mn  Mn2  1  0.37500000  0.00000000  0.25000000  1
  Sb  Sb3  1  0.25000000  0.25000000  0.25000000  1
  Sb  Sb4  1  0.00000000  0.25000000  0.12500000  1
  Sb  Sb5  1  0.28239293  0.10240762  0.64580631  1
  Sb  Sb6  1  0.38808409  0.79030034  0.95898541  1
  P  P7  1  0.68043729  0.15155290  0.23870965  1
  P  P8  1  0.97061164  0.28765484  0.73296890  1
  P  P9  1  0.63604866  0.24488384  0.46782412  1
  Li  Li10  1  0.77459143  0.30093875  0.16609827  1
  Li  Li11  1  0.78524103  0.55709260  0.30283225  1
