# generated using pymatgen
data_Li2TiI4Br3O2
_symmetry_space_group_name_H-M   'P 1'
_cell_length_a   7.71742059
_cell_length_b   7.91003692
_cell_length_c   7.45876464
_cell_angle_alpha   91.21642347
_cell_angle_beta   91.93418556
_cell_angle_gamma   91.55332928
_symmetry_Int_Tables_number   1
_chemical_formula_structural   Li2TiI4Br3O2
_chemical_formula_sum   'Li2 Ti1 I4 Br3 O2'
_cell_volume   454.78250570
_cell_formula_units_Z   1
loop_
 _symmetry_equiv_pos_site_id
 _symmetry_equiv_pos_as_xyz
  1  'x, y, z'
loop_
 _atom_site_type_symbol
 _atom_site_label
 _atom_site_symmetry_multiplicity
 _atom_site_fract_x
 _atom_site_fract_y
 _atom_site_fract_z
 _atom_site_occupancy
  I  I0  1  0.12500000  0.00000000  0.25000000  1
  I  I1  1  0.00000000  0.00000000  0.00000000  1
  I  I2  1  0.37500000  0.00000000  0.25000000  1
  I  I3  1  0.25000000  0.25000000  0.25000000  1
  Li  Li4  1  0.00000000  0.25000000  0.12500000  1
  Li  Li5  1  0.85945704  0.55979124  0.88656394  1
  Br  Br6  1  0.25708701  0.94194311  0.35145936  1
  Br  Br7  1  0.34020134  0.93911687  0.59677459  1
  Br  Br8  1  0.51501353  0.12097979  0.88048312  1
  Ti  Ti9  1  0.74681058  0.05057477  0.10936810  1
  O  O10  1  0.39288275  0.08634037  0.73726714  1
  O  O11  1  0.38588033  0.67831321  0.00976235  1
