# generated using pymatgen
data_Li3TiNi2(I2O3)2
_symmetry_space_group_name_H-M   'P 1'
_cell_length_a   8.63550764
_cell_length_b   8.50607315
_cell_length_c   8.25371229
_cell_angle_alpha   90.00000000
_cell_angle_beta   90.00000000
_cell_angle_gamma   90.00000000
_symmetry_Int_Tables_number   1
_chemical_formula_structural   Li3TiNi2(I2O3)2
_chemical_formula_sum   'Li3 Ti1 Ni2 I4 O6'
_cell_volume   606.27032530
_cell_formula_units_Z   1
loop_
 _symmetry_equiv_pos_site_id
 _symmetry_equiv_pos_as_xyz
  1  'x, y, z'
loop_
 _atom_site_type_symbol
 _atom_site_label
 _atom_site_symmetry_multiplicity
 _atom_site_fract_x
 _atom_site_fract_y
 _atom_site_fract_z
 _atom_site_occupancy
  I  I0  1  0.00000000  0.00000000  0.00000000  1
  I  I1  1  0.50000000  0.50000000  0.50000000  1
  I  I2  1  0.25000000  0.25000000  0.25000000  1
  I  I3  1  0.75000000  0.25000000  0.00000000  1
  Li  Li4  1  0.25000000  0.75000000  0.50000000  1
  Li  Li5  1  0.25446082  0.93091654  0.03307752  1
  Li  Li6  1  0.70290337  0.89369194  0.20697911  1
  Ni  Ni7  1  0.16713923  0.42374479  0.32422232  1
  Ni  Ni8  1  0.48804516  0.60832089  0.21732103  1
  Ti  Ti9  1  0.96092051  0.53489835  0.65903690  1
  O  O10  1  0.63053816  0.06614866  0.04309790  1
  O  O11  1  0.59514536  0.93995388  0.77265921  1
  O  O12  1  0.28257154  0.18368956  0.64178458  1
  O  O13  1  0.11443211  0.39414665  0.64652947  1
  O  O14  1  0.95185410  0.02272839  0.13761824  1
  O  O15  1  0.24598587  0.27336159  0.41900302  1
