# generated using pymatgen
data_Li2TiS
_symmetry_space_group_name_H-M   'P 1'
_cell_length_a   6.46069651
_cell_length_b   5.72712809
_cell_length_c   7.44791499
_cell_angle_alpha   95.18257408
_cell_angle_beta   95.68026452
_cell_angle_gamma   94.66227483
_symmetry_Int_Tables_number   1
_chemical_formula_structural   Li2TiS
_chemical_formula_sum   'Li4 Ti2 S2'
_cell_volume   271.97365141
_cell_formula_units_Z   2
loop_
 _symmetry_equiv_pos_site_id
 _symmetry_equiv_pos_as_xyz
  1  'x, y, z'
loop_
 _atom_site_type_symbol
 _atom_site_label
 _atom_site_symmetry_multiplicity
 _atom_site_fract_x
 _atom_site_fract_y
 _atom_site_fract_z
 _atom_site_occupancy
  S  S0  1  0.12500000  0.00000000  0.25000000  1
  S  S1  1  0.00000000  0.00000000  0.00000000  1
  Ti  Ti2  1  0.37500000  0.00000000  0.25000000  1
  Ti  Ti3  1  0.25000000  0.25000000  0.25000000  1
  Li  Li4  1  0.00000000  0.25000000  0.12500000  1
  Li  Li5  1  0.82596505  0.35297273  0.40110411  1
  Li  Li6  1  0.28043318  0.49556856  0.62367767  1
  Li  Li7  1  0.25976167  0.13929444  0.18001077  1
