# generated using pymatgen
data_Li2Sb4P3N
_symmetry_space_group_name_H-M   'P 1'
_cell_length_a   4.48214775
_cell_length_b   4.61484502
_cell_length_c   5.33840512
_cell_angle_alpha   94.54781660
_cell_angle_beta   93.06727161
_cell_angle_gamma   93.81975708
_symmetry_Int_Tables_number   1
_chemical_formula_structural   Li2Sb4P3N
_chemical_formula_sum   'Li2 Sb4 P3 N1'
_cell_volume   109.63758876
_cell_formula_units_Z   1
loop_
 _symmetry_equiv_pos_site_id
 _symmetry_equiv_pos_as_xyz
  1  'x, y, z'
loop_
 _atom_site_type_symbol
 _atom_site_label
 _atom_site_symmetry_multiplicity
 _atom_site_fract_x
 _atom_site_fract_y
 _atom_site_fract_z
 _atom_site_occupancy
  Sb  Sb0  1  0.12500000  0.12500000  0.12500000  1
  Sb  Sb1  1  0.50000000  0.50000000  0.50000000  1
  Sb  Sb2  1  0.25000000  0.25000000  0.25000000  1
  Sb  Sb3  1  0.75000000  0.75000000  0.75000000  1
  P  P4  1  0.66941060  0.13117189  0.31170575  1
  P  P5  1  0.81786973  0.16069683  0.44449171  1
  P  P6  1  0.63986512  0.19076180  0.74156546  1
  Li  Li7  1  0.94027837  0.47312706  0.36260576  1
  Li  Li8  1  0.90010948  0.97665499  0.97914685  1
  N  N9  1  0.48614551  0.43748545  0.71480269  1
