# generated using pymatgen
data_Li3Zr(P4O)2
_symmetry_space_group_name_H-M   'P 1'
_cell_length_a   6.09062111
_cell_length_b   5.92191946
_cell_length_c   7.71569889
_cell_angle_alpha   100.82017623
_cell_angle_beta   103.81487990
_cell_angle_gamma   100.17871164
_symmetry_Int_Tables_number   1
_chemical_formula_structural   Li3Zr(P4O)2
_chemical_formula_sum   'Li3 Zr1 P8 O2'
_cell_volume   258.17660942
_cell_formula_units_Z   1
loop_
 _symmetry_equiv_pos_site_id
 _symmetry_equiv_pos_as_xyz
  1  'x, y, z'
loop_
 _atom_site_type_symbol
 _atom_site_label
 _atom_site_symmetry_multiplicity
 _atom_site_fract_x
 _atom_site_fract_y
 _atom_site_fract_z
 _atom_site_occupancy
  O  O0  1  0.00000000  0.00000000  0.00000000  1
  O  O1  1  0.50000000  0.50000000  0.50000000  1
  P  P2  1  0.25000000  0.25000000  0.25000000  1
  P  P3  1  0.75000000  0.25000000  0.00000000  1
  P  P4  1  0.25000000  0.75000000  0.50000000  1
  P  P5  1  0.26079263  0.82858152  0.11719255  1
  P  P6  1  0.57708251  0.32299035  0.84809277  1
  P  P7  1  0.92816752  0.30831404  0.87726640  1
  P  P8  1  0.59283148  0.77133259  0.08541105  1
  P  P9  1  0.65556943  0.56862766  0.45294986  1
  Li  Li10  1  0.88962122  0.41934613  0.85216568  1
  Li  Li11  1  0.24778685  0.39957890  0.41904560  1
  Li  Li12  1  0.32109256  0.27234149  0.17777784  1
  Zr  Zr13  1  0.17779904  0.66433937  0.35958291  1
