# generated using pymatgen
data_Li3Ti(IO)4
_symmetry_space_group_name_H-M   'P 1'
_cell_length_a   8.87687184
_cell_length_b   8.75761409
_cell_length_c   7.20693757
_cell_angle_alpha   90.00000000
_cell_angle_beta   90.00000000
_cell_angle_gamma   90.00000000
_symmetry_Int_Tables_number   1
_chemical_formula_structural   Li3Ti(IO)4
_chemical_formula_sum   'Li3 Ti1 I4 O4'
_cell_volume   560.26889682
_cell_formula_units_Z   1
loop_
 _symmetry_equiv_pos_site_id
 _symmetry_equiv_pos_as_xyz
  1  'x, y, z'
loop_
 _atom_site_type_symbol
 _atom_site_label
 _atom_site_symmetry_multiplicity
 _atom_site_fract_x
 _atom_site_fract_y
 _atom_site_fract_z
 _atom_site_occupancy
  I  I0  1  0.12500000  0.12500000  0.12500000  1
  I  I1  1  0.50000000  0.50000000  0.50000000  1
  I  I2  1  0.25000000  0.25000000  0.25000000  1
  I  I3  1  0.75000000  0.75000000  0.75000000  1
  Li  Li4  1  0.31967488  0.24699711  0.61310755  1
  Li  Li5  1  0.99128355  0.95744323  0.67616459  1
  Li  Li6  1  0.22546352  0.08494164  0.20930786  1
  Ti  Ti7  1  0.88844699  0.00369900  0.69435755  1
  O  O8  1  0.77901281  0.44252897  0.44083597  1
  O  O9  1  0.80028826  0.79478930  0.17618731  1
  O  O10  1  0.53475200  0.65388856  0.42165148  1
  O  O11  1  0.61550315  0.68741551  0.64549937  1
