# generated using pymatgen
data_Li2Ti(O2F)2
_symmetry_space_group_name_H-M   'P 1'
_cell_length_a   8.62848625
_cell_length_b   8.40627042
_cell_length_c   7.60255289
_cell_angle_alpha   90.09400293
_cell_angle_beta   90.44723737
_cell_angle_gamma   90.10747044
_symmetry_Int_Tables_number   1
_chemical_formula_structural   Li2Ti(O2F)2
_chemical_formula_sum   'Li2 Ti1 O4 F2'
_cell_volume   551.42039868
_cell_formula_units_Z   1
loop_
 _symmetry_equiv_pos_site_id
 _symmetry_equiv_pos_as_xyz
  1  'x, y, z'
loop_
 _atom_site_type_symbol
 _atom_site_label
 _atom_site_symmetry_multiplicity
 _atom_site_fract_x
 _atom_site_fract_y
 _atom_site_fract_z
 _atom_site_occupancy
  Li  Li0  1  0.00000000  0.00000000  0.00000000  1
  Li  Li1  1  0.50000000  0.50000000  0.50000000  1
  F  F2  1  0.50000000  0.50000000  0.00000000  1
  F  F3  1  0.50000000  0.00000000  0.50000000  1
  Ti  Ti4  1  0.00000000  0.50000000  0.50000000  1
  O  O5  1  0.49885970  0.69727832  0.57583503  1
  O  O6  1  0.27221127  0.18727900  0.12150535  1
  O  O7  1  0.46234596  0.22688512  0.48922446  1
  O  O8  1  0.44043427  0.33336639  0.69464188  1
