# generated using pymatgen
data_Li3Ti2Cu2(I2O)2
_symmetry_space_group_name_H-M   'P 1'
_cell_length_a   7.59967814
_cell_length_b   7.65564792
_cell_length_c   7.00959633
_cell_angle_alpha   93.98684820
_cell_angle_beta   95.39997650
_cell_angle_gamma   95.13070994
_symmetry_Int_Tables_number   1
_chemical_formula_structural   Li3Ti2Cu2(I2O)2
_chemical_formula_sum   'Li3 Ti2 Cu2 I4 O2'
_cell_volume   403.13359630
_cell_formula_units_Z   1
loop_
 _symmetry_equiv_pos_site_id
 _symmetry_equiv_pos_as_xyz
  1  'x, y, z'
loop_
 _atom_site_type_symbol
 _atom_site_label
 _atom_site_symmetry_multiplicity
 _atom_site_fract_x
 _atom_site_fract_y
 _atom_site_fract_z
 _atom_site_occupancy
  I  I0  1  0.00000000  0.00000000  0.00000000  1
  I  I1  1  0.50000000  0.50000000  0.50000000  1
  I  I2  1  0.50000000  0.50000000  0.00000000  1
  I  I3  1  0.50000000  0.00000000  0.50000000  1
  Li  Li4  1  0.00000000  0.50000000  0.50000000  1
  Li  Li5  1  0.51655604  0.70571672  0.85927423  1
  Li  Li6  1  0.37383132  0.59247686  0.59622027  1
  Cu  Cu7  1  0.62874686  0.77492031  0.06858248  1
  Cu  Cu8  1  0.50195892  0.88050736  0.08422483  1
  Ti  Ti9  1  0.50805574  0.44672078  0.22120775  1
  Ti  Ti10  1  0.34624028  0.65426229  0.52557949  1
  O  O11  1  0.37820831  0.49415902  0.37949408  1
  O  O12  1  0.32340887  0.26883862  0.29532087  1
