# generated using pymatgen
data_Li2Mn2Sb4P3
_symmetry_space_group_name_H-M   'P 1'
_cell_length_a   6.44968522
_cell_length_b   6.56602841
_cell_length_c   7.19272051
_cell_angle_alpha   95.40641309
_cell_angle_beta   91.56460441
_cell_angle_gamma   95.47915871
_symmetry_Int_Tables_number   1
_chemical_formula_structural   Li2Mn2Sb4P3
_chemical_formula_sum   'Li2 Mn2 Sb4 P3'
_cell_volume   301.66002576
_cell_formula_units_Z   1
loop_
 _symmetry_equiv_pos_site_id
 _symmetry_equiv_pos_as_xyz
  1  'x, y, z'
loop_
 _atom_site_type_symbol
 _atom_site_label
 _atom_site_symmetry_multiplicity
 _atom_site_fract_x
 _atom_site_fract_y
 _atom_site_fract_z
 _atom_site_occupancy
  Mn  Mn0  1  0.00000000  0.00000000  0.00000000  1
  Mn  Mn1  1  0.50000000  0.50000000  0.50000000  1
  Sb  Sb2  1  0.50000000  0.50000000  0.00000000  1
  Sb  Sb3  1  0.50000000  0.00000000  0.50000000  1
  Sb  Sb4  1  0.00000000  0.50000000  0.50000000  1
  Sb  Sb5  1  0.15788520  0.59641278  0.81606742  1
  P  P6  1  0.74543089  0.70511451  0.07317007  1
  P  P7  1  0.51232295  0.63449801  0.03125645  1
  P  P8  1  0.75893397  0.56879700  0.66993052  1
  Li  Li9  1  0.59176271  0.65634840  0.00127308  1
  Li  Li10  1  0.94475317  0.83985170  0.08274513  1
