# generated using pymatgen
data_LiCuAs3Cl
_symmetry_space_group_name_H-M   'P 1'
_cell_length_a   7.74940514
_cell_length_b   7.65531674
_cell_length_c   8.83855318
_cell_angle_alpha   93.12960056
_cell_angle_beta   94.66080685
_cell_angle_gamma   93.21567791
_symmetry_Int_Tables_number   1
_chemical_formula_structural   LiCuAs3Cl
_chemical_formula_sum   'Li2 Cu2 As6 Cl2'
_cell_volume   520.86025484
_cell_formula_units_Z   2
loop_
 _symmetry_equiv_pos_site_id
 _symmetry_equiv_pos_as_xyz
  1  'x, y, z'
loop_
 _atom_site_type_symbol
 _atom_site_label
 _atom_site_symmetry_multiplicity
 _atom_site_fract_x
 _atom_site_fract_y
 _atom_site_fract_z
 _atom_site_occupancy
  Cl  Cl0  1  0.00000000  0.00000000  0.00000000  1
  Cl  Cl1  1  0.33300000  0.66700000  0.25000000  1
  As  As2  1  0.66700000  0.33300000  0.50000000  1
  As  As3  1  0.00000000  0.00000000  0.75000000  1
  As  As4  1  0.07887861  0.26512477  0.53606636  1
  As  As5  1  0.63223710  0.95249645  0.28961751  1
  As  As6  1  0.18032750  0.44451041  0.63103277  1
  As  As7  1  0.03180488  0.01871328  0.84930433  1
  Li  Li8  1  0.96459684  0.73884786  0.97859600  1
  Li  Li9  1  0.27041180  0.52988268  0.84972522  1
  Cu  Cu10  1  0.21974900  0.16167900  0.21519484  1
  Cu  Cu11  1  0.61590470  0.49951804  0.38476301  1
