# generated using pymatgen
data_Li2Ni2As6O7
_symmetry_space_group_name_H-M   'P 1'
_cell_length_a   7.91055834
_cell_length_b   7.92932719
_cell_length_c   9.06566796
_cell_angle_alpha   90.23172653
_cell_angle_beta   91.10248444
_cell_angle_gamma   90.26492530
_symmetry_Int_Tables_number   1
_chemical_formula_structural   Li2Ni2As6O7
_chemical_formula_sum   'Li2 Ni2 As6 O7'
_cell_volume   568.53149272
_cell_formula_units_Z   1
loop_
 _symmetry_equiv_pos_site_id
 _symmetry_equiv_pos_as_xyz
  1  'x, y, z'
loop_
 _atom_site_type_symbol
 _atom_site_label
 _atom_site_symmetry_multiplicity
 _atom_site_fract_x
 _atom_site_fract_y
 _atom_site_fract_z
 _atom_site_occupancy
  Ni  Ni0  1  0.00000000  0.00000000  0.00000000  1
  Ni  Ni1  1  0.33300000  0.66700000  0.25000000  1
  O  O2  1  0.66700000  0.33300000  0.50000000  1
  O  O3  1  0.00000000  0.00000000  0.75000000  1
  O  O4  1  0.18393795  0.66442221  0.60144386  1
  O  O5  1  0.25387845  0.49238697  0.06956607  1
  O  O6  1  0.91440082  0.48971028  0.96882812  1
  O  O7  1  0.12281581  0.82427643  0.29747295  1
  O  O8  1  0.03849182  0.67652429  0.21989877  1
  As  As9  1  0.72966384  0.10310520  0.24569194  1
  As  As10  1  0.04822707  0.26299020  0.28209767  1
  As  As11  1  0.32598607  0.14698137  0.44177954  1
  As  As12  1  0.22635916  0.22438754  0.71729226  1
  As  As13  1  0.48785331  0.93125632  0.69866749  1
  As  As14  1  0.33128429  0.37129965  0.06646723  1
  Li  Li15  1  0.87273735  0.75551423  0.90672174  1
  Li  Li16  1  0.80979146  0.25334972  0.87475164  1
