# generated using pymatgen
data_Li3Cu2(As3O)2
_symmetry_space_group_name_H-M   'P 1'
_cell_length_a   6.63871145
_cell_length_b   6.90709446
_cell_length_c   7.82123717
_cell_angle_alpha   94.39050818
_cell_angle_beta   97.04172953
_cell_angle_gamma   95.60396588
_symmetry_Int_Tables_number   1
_chemical_formula_structural   Li3Cu2(As3O)2
_chemical_formula_sum   'Li3 Cu2 As6 O2'
_cell_volume   352.80474046
_cell_formula_units_Z   1
loop_
 _symmetry_equiv_pos_site_id
 _symmetry_equiv_pos_as_xyz
  1  'x, y, z'
loop_
 _atom_site_type_symbol
 _atom_site_label
 _atom_site_symmetry_multiplicity
 _atom_site_fract_x
 _atom_site_fract_y
 _atom_site_fract_z
 _atom_site_occupancy
  O  O0  1  0.00000000  0.00000000  0.00000000  1
  O  O1  1  0.50000000  0.50000000  0.50000000  1
  As  As2  1  0.50000000  0.50000000  0.00000000  1
  As  As3  1  0.50000000  0.00000000  0.50000000  1
  As  As4  1  0.00000000  0.50000000  0.50000000  1
  As  As5  1  0.82542536  0.98867477  0.28438791  1
  As  As6  1  0.26598606  0.16136014  0.11834185  1
  As  As7  1  0.70011587  0.35311207  0.67370410  1
  Li  Li8  1  0.54653021  0.54780165  0.40828064  1
  Li  Li9  1  0.35395665  0.14672466  0.60397868  1
  Li  Li10  1  0.38212877  0.64829081  0.09016712  1
  Cu  Cu11  1  0.42145187  0.21891764  0.25056125  1
  Cu  Cu12  1  0.19636733  0.76577787  0.25602907  1
