# generated using pymatgen
data_Li2MnSb4P3N5
_symmetry_space_group_name_H-M   'P 1'
_cell_length_a   4.95820816
_cell_length_b   5.28930525
_cell_length_c   7.34614867
_cell_angle_alpha   97.23837552
_cell_angle_beta   98.57452461
_cell_angle_gamma   98.23816505
_symmetry_Int_Tables_number   1
_chemical_formula_structural   Li2MnSb4P3N5
_chemical_formula_sum   'Li2 Mn1 Sb4 P3 N5'
_cell_volume   186.38732928
_cell_formula_units_Z   1
loop_
 _symmetry_equiv_pos_site_id
 _symmetry_equiv_pos_as_xyz
  1  'x, y, z'
loop_
 _atom_site_type_symbol
 _atom_site_label
 _atom_site_symmetry_multiplicity
 _atom_site_fract_x
 _atom_site_fract_y
 _atom_site_fract_z
 _atom_site_occupancy
  Mn  Mn0  1  0.00000000  0.00000000  0.00000000  1
  Sb  Sb1  1  0.50000000  0.50000000  0.50000000  1
  Sb  Sb2  1  0.50000000  0.50000000  0.00000000  1
  Sb  Sb3  1  0.50000000  0.00000000  0.50000000  1
  Sb  Sb4  1  0.00000000  0.50000000  0.50000000  1
  P  P5  1  0.23652809  0.98300081  0.32983089  1
  P  P6  1  0.86588750  0.82814031  0.81102330  1
  P  P7  1  0.01857787  0.91625991  0.16217532  1
  Li  Li8  1  0.11457090  0.24883752  0.22198017  1
  Li  Li9  1  0.62466084  0.01080092  0.10931625  1
  N  N10  1  0.79758676  0.71023067  0.67442166  1
  N  N11  1  0.37418575  0.71875542  0.55686483  1
  N  N12  1  0.19612862  0.15486641  0.07141834  1
  N  N13  1  0.70799693  0.27083214  0.64689643  1
  N  N14  1  0.08671148  0.39882748  0.67628203  1
