# generated using pymatgen
data_Li3LuP3Se
_symmetry_space_group_name_H-M   'P 1'
_cell_length_a   6.94779109
_cell_length_b   6.65174562
_cell_length_c   7.52607538
_cell_angle_alpha   96.43239847
_cell_angle_beta   97.64294468
_cell_angle_gamma   96.25016001
_symmetry_Int_Tables_number   1
_chemical_formula_structural   Li3LuP3Se
_chemical_formula_sum   'Li3 Lu1 P3 Se1'
_cell_volume   339.84123509
_cell_formula_units_Z   1
loop_
 _symmetry_equiv_pos_site_id
 _symmetry_equiv_pos_as_xyz
  1  'x, y, z'
loop_
 _atom_site_type_symbol
 _atom_site_label
 _atom_site_symmetry_multiplicity
 _atom_site_fract_x
 _atom_site_fract_y
 _atom_site_fract_z
 _atom_site_occupancy
  P  P0  1  0.00000000  0.00000000  0.00000000  1
  P  P1  1  0.50000000  0.50000000  0.50000000  1
  P  P2  1  0.50000000  0.50000000  0.00000000  1
  Lu  Lu3  1  0.50000000  0.00000000  0.50000000  1
  Li  Li4  1  0.00000000  0.50000000  0.50000000  1
  Li  Li5  1  0.12869153  0.61992290  0.82151440  1
  Li  Li6  1  0.50945728  0.90625007  0.43782042  1
  Se  Se7  1  0.96171705  0.74145474  0.92419039  1
