# generated using pymatgen
data_LiCuNiAs3
_symmetry_space_group_name_H-M   'P 1'
_cell_length_a   7.46444437
_cell_length_b   7.54190088
_cell_length_c   8.52106887
_cell_angle_alpha   91.09692912
_cell_angle_beta   92.08335776
_cell_angle_gamma   91.26590960
_symmetry_Int_Tables_number   1
_chemical_formula_structural   LiCuNiAs3
_chemical_formula_sum   'Li2 Cu2 Ni2 As6'
_cell_volume   479.17332362
_cell_formula_units_Z   2
loop_
 _symmetry_equiv_pos_site_id
 _symmetry_equiv_pos_as_xyz
  1  'x, y, z'
loop_
 _atom_site_type_symbol
 _atom_site_label
 _atom_site_symmetry_multiplicity
 _atom_site_fract_x
 _atom_site_fract_y
 _atom_site_fract_z
 _atom_site_occupancy
  Ni  Ni0  1  0.12500000  0.12500000  0.12500000  1
  Ni  Ni1  1  0.50000000  0.50000000  0.50000000  1
  As  As2  1  0.25000000  0.25000000  0.25000000  1
  As  As3  1  0.75000000  0.75000000  0.75000000  1
  As  As4  1  0.08938532  0.07624027  0.55425240  1
  As  As5  1  0.67420776  0.61488847  0.50500563  1
  As  As6  1  0.02667033  0.41491370  0.48709505  1
  As  As7  1  0.46131970  0.67324715  0.99464602  1
  Li  Li8  1  0.83008779  0.21798756  0.20663181  1
  Li  Li9  1  0.66142176  0.84927779  0.81409935  1
  Cu  Cu10  1  0.47569108  0.49633068  0.05973495  1
  Cu  Cu11  1  0.78282550  0.50382276  0.48779165  1
