# generated using pymatgen
data_Li2TiAs6I4N5
_symmetry_space_group_name_H-M   'P 1'
_cell_length_a   7.90397044
_cell_length_b   7.79661712
_cell_length_c   8.19698383
_cell_angle_alpha   91.39089298
_cell_angle_beta   91.19600679
_cell_angle_gamma   91.61061107
_symmetry_Int_Tables_number   1
_chemical_formula_structural   Li2TiAs6I4N5
_chemical_formula_sum   'Li2 Ti1 As6 I4 N5'
_cell_volume   504.66704783
_cell_formula_units_Z   1
loop_
 _symmetry_equiv_pos_site_id
 _symmetry_equiv_pos_as_xyz
  1  'x, y, z'
loop_
 _atom_site_type_symbol
 _atom_site_label
 _atom_site_symmetry_multiplicity
 _atom_site_fract_x
 _atom_site_fract_y
 _atom_site_fract_z
 _atom_site_occupancy
  Ti  Ti0  1  0.12500000  0.00000000  0.25000000  1
  I  I1  1  0.00000000  0.00000000  0.00000000  1
  I  I2  1  0.37500000  0.00000000  0.25000000  1
  I  I3  1  0.25000000  0.25000000  0.25000000  1
  I  I4  1  0.00000000  0.25000000  0.12500000  1
  As  As5  1  0.85691341  0.58948023  0.94278197  1
  As  As6  1  0.76780790  0.68771100  0.94519543  1
  As  As7  1  0.00978464  0.35379864  0.01998859  1
  As  As8  1  0.69321319  0.41739045  0.12719059  1
  As  As9  1  0.73745256  0.26737022  0.87291808  1
  As  As10  1  0.05369198  0.74514063  0.57946712  1
  Li  Li11  1  0.65171824  0.81584608  0.85168082  1
  Li  Li12  1  0.11112151  0.65919561  0.55636776  1
  N  N13  1  0.80280540  0.30513631  0.82659896  1
  N  N14  1  0.96237774  0.02446874  0.28381179  1
  N  N15  1  0.40769021  0.93962006  0.82521519  1
  N  N16  1  0.83095580  0.05157946  0.73269610  1
  N  N17  1  0.47369408  0.93945192  0.26161243  1
