# generated using pymatgen
data_Li2SbMo2OF4
_symmetry_space_group_name_H-M   'P 1'
_cell_length_a   6.50223911
_cell_length_b   6.87378947
_cell_length_c   6.14562381
_cell_angle_alpha   90.11490785
_cell_angle_beta   88.10337409
_cell_angle_gamma   89.23129703
_symmetry_Int_Tables_number   1
_chemical_formula_structural   Li2SbMo2OF4
_chemical_formula_sum   'Li2 Sb1 Mo2 O1 F4'
_cell_volume   274.50278619
_cell_formula_units_Z   1
loop_
 _symmetry_equiv_pos_site_id
 _symmetry_equiv_pos_as_xyz
  1  'x, y, z'
loop_
 _atom_site_type_symbol
 _atom_site_label
 _atom_site_symmetry_multiplicity
 _atom_site_fract_x
 _atom_site_fract_y
 _atom_site_fract_z
 _atom_site_occupancy
  F  F0  1  0.12500000  0.00000000  0.25000000  1
  F  F1  1  0.00000000  0.00000000  0.00000000  1
  F  F2  1  0.37500000  0.00000000  0.25000000  1
  F  F3  1  0.25000000  0.25000000  0.25000000  1
  O  O4  1  0.00000000  0.25000000  0.12500000  1
  Sb  Sb5  1  0.10560796  0.89481640  0.41850264  1
  Mo  Mo6  1  0.33832149  0.38261795  0.08960085  1
  Mo  Mo7  1  0.84366750  0.60422461  0.09869502  1
  Li  Li8  1  0.02288560  0.40544492  0.48309783  1
  Li  Li9  1  0.71360647  0.68845148  0.98295979  1
