# generated using pymatgen
data_Li2Mn(SbP)4
_symmetry_space_group_name_H-M   'P 1'
_cell_length_a   7.36652752
_cell_length_b   7.64830621
_cell_length_c   7.65401591
_cell_angle_alpha   91.07983347
_cell_angle_beta   91.27916252
_cell_angle_gamma   91.22898381
_symmetry_Int_Tables_number   1
_chemical_formula_structural   Li2Mn(SbP)4
_chemical_formula_sum   'Li2 Mn1 Sb4 P4'
_cell_volume   430.95120844
_cell_formula_units_Z   1
loop_
 _symmetry_equiv_pos_site_id
 _symmetry_equiv_pos_as_xyz
  1  'x, y, z'
loop_
 _atom_site_type_symbol
 _atom_site_label
 _atom_site_symmetry_multiplicity
 _atom_site_fract_x
 _atom_site_fract_y
 _atom_site_fract_z
 _atom_site_occupancy
  Mn  Mn0  1  0.00000000  0.00000000  0.00000000  1
  Sb  Sb1  1  0.33300000  0.66700000  0.25000000  1
  Sb  Sb2  1  0.66700000  0.33300000  0.50000000  1
  Sb  Sb3  1  0.00000000  0.00000000  0.75000000  1
  Sb  Sb4  1  0.91950045  0.12510564  0.46408992  1
  P  P5  1  0.66989003  0.58237400  0.77503819  1
  P  P6  1  0.52620413  0.07609403  0.85251577  1
  P  P7  1  0.13586487  0.49765699  0.97640441  1
  P  P8  1  0.48971143  0.46615730  0.91053694  1
  Li  Li9  1  0.70828473  0.22868357  0.07476682  1
  Li  Li10  1  0.06310124  0.03851439  0.07114414  1
