# generated using pymatgen
data_Li4Cr2As3NO2
_symmetry_space_group_name_H-M   'P 1'
_cell_length_a   6.50330191
_cell_length_b   6.10061175
_cell_length_c   7.93742967
_cell_angle_alpha   91.10316414
_cell_angle_beta   99.10955818
_cell_angle_gamma   91.13010674
_symmetry_Int_Tables_number   1
_chemical_formula_structural   Li4Cr2As3NO2
_chemical_formula_sum   'Li4 Cr2 As3 N1 O2'
_cell_volume   310.79835503
_cell_formula_units_Z   1
loop_
 _symmetry_equiv_pos_site_id
 _symmetry_equiv_pos_as_xyz
  1  'x, y, z'
loop_
 _atom_site_type_symbol
 _atom_site_label
 _atom_site_symmetry_multiplicity
 _atom_site_fract_x
 _atom_site_fract_y
 _atom_site_fract_z
 _atom_site_occupancy
  Li  Li0  1  0.00000000  0.00000000  0.00000000  1
  Li  Li1  1  0.50000000  0.50000000  0.50000000  1
  Li  Li2  1  0.25000000  0.25000000  0.25000000  1
  Li  Li3  1  0.75000000  0.25000000  0.00000000  1
  As  As4  1  0.25000000  0.75000000  0.50000000  1
  As  As5  1  0.88157058  0.09333642  0.86690038  1
  As  As6  1  0.59628455  0.33510543  0.37935268  1
  O  O7  1  0.34728610  0.45058373  0.43908912  1
  O  O8  1  0.61479103  0.32332672  0.02014296  1
  N  N9  1  0.89445926  0.23953068  0.53459708  1
  Cr  Cr10  1  0.95772050  0.64669856  0.01606880  1
  Cr  Cr11  1  0.41286753  0.98707814  0.02136907  1
