# generated using pymatgen
data_Li3LuCu2Ni2N5
_symmetry_space_group_name_H-M   'P 1'
_cell_length_a   7.43899353
_cell_length_b   7.15180244
_cell_length_c   8.79752603
_cell_angle_alpha   93.00929729
_cell_angle_beta   91.40879008
_cell_angle_gamma   93.48911973
_symmetry_Int_Tables_number   1
_chemical_formula_structural   Li3LuCu2Ni2N5
_chemical_formula_sum   'Li3 Lu1 Cu2 Ni2 N5'
_cell_volume   466.35480135
_cell_formula_units_Z   1
loop_
 _symmetry_equiv_pos_site_id
 _symmetry_equiv_pos_as_xyz
  1  'x, y, z'
loop_
 _atom_site_type_symbol
 _atom_site_label
 _atom_site_symmetry_multiplicity
 _atom_site_fract_x
 _atom_site_fract_y
 _atom_site_fract_z
 _atom_site_occupancy
  Lu  Lu0  1  0.12500000  0.00000000  0.25000000  1
  Li  Li1  1  0.00000000  0.00000000  0.00000000  1
  Li  Li2  1  0.37500000  0.00000000  0.25000000  1
  Li  Li3  1  0.25000000  0.25000000  0.25000000  1
  Cu  Cu4  1  0.00000000  0.25000000  0.12500000  1
  Cu  Cu5  1  0.61719613  0.47722123  0.38378804  1
  Ni  Ni6  1  0.73228765  0.05939416  0.39849109  1
  Ni  Ni7  1  0.21617497  0.27404622  0.23843925  1
  N  N8  1  0.69795689  0.02792824  0.86228227  1
  N  N9  1  0.40829027  0.27578386  0.91162352  1
  N  N10  1  0.29408724  0.23448168  0.06660404  1
  N  N11  1  0.16019127  0.89024615  0.41624153  1
  N  N12  1  0.30140884  0.54468064  0.04188666  1
