# generated using pymatgen
data_Li2Ti(I2O)2
_symmetry_space_group_name_H-M   'P 1'
_cell_length_a   8.37652572
_cell_length_b   8.26264533
_cell_length_c   7.27397376
_cell_angle_alpha   90.14100699
_cell_angle_beta   90.67086843
_cell_angle_gamma   90.16120864
_symmetry_Int_Tables_number   1
_chemical_formula_structural   Li2Ti(I2O)2
_chemical_formula_sum   'Li2 Ti1 I4 O2'
_cell_volume   503.41010295
_cell_formula_units_Z   1
loop_
 _symmetry_equiv_pos_site_id
 _symmetry_equiv_pos_as_xyz
  1  'x, y, z'
loop_
 _atom_site_type_symbol
 _atom_site_label
 _atom_site_symmetry_multiplicity
 _atom_site_fract_x
 _atom_site_fract_y
 _atom_site_fract_z
 _atom_site_occupancy
  I  I0  1  0.12500000  0.12500000  0.12500000  1
  I  I1  1  0.50000000  0.50000000  0.50000000  1
  I  I2  1  0.25000000  0.25000000  0.25000000  1
  I  I3  1  0.75000000  0.75000000  0.75000000  1
  Li  Li4  1  0.36981748  0.00963570  0.85832788  1
  Li  Li5  1  0.58906604  0.47654654  0.00980583  1
  Ti  Ti6  1  0.33358353  0.24052612  0.65113308  1
  O  O7  1  0.81274463  0.42741855  0.03621659  1
  O  O8  1  0.42611579  0.78762618  0.97482488  1
