# generated using pymatgen
data_Li4LuNi2Se
_symmetry_space_group_name_H-M   'P 1'
_cell_length_a   5.66327404
_cell_length_b   5.33790342
_cell_length_c   7.65543680
_cell_angle_alpha   102.37922226
_cell_angle_beta   105.02609183
_cell_angle_gamma   101.91767012
_symmetry_Int_Tables_number   1
_chemical_formula_structural   Li4LuNi2Se
_chemical_formula_sum   'Li4 Lu1 Ni2 Se1'
_cell_volume   209.71982843
_cell_formula_units_Z   1
loop_
 _symmetry_equiv_pos_site_id
 _symmetry_equiv_pos_as_xyz
  1  'x, y, z'
loop_
 _atom_site_type_symbol
 _atom_site_label
 _atom_site_symmetry_multiplicity
 _atom_site_fract_x
 _atom_site_fract_y
 _atom_site_fract_z
 _atom_site_occupancy
  Lu  Lu0  1  0.00000000  0.00000000  0.00000000  1
  Li  Li1  1  0.50000000  0.50000000  0.50000000  1
  Li  Li2  1  0.25000000  0.25000000  0.25000000  1
  Li  Li3  1  0.75000000  0.25000000  0.00000000  1
  Li  Li4  1  0.25000000  0.75000000  0.50000000  1
  Se  Se5  1  0.78396240  0.84025681  0.47860086  1
  Ni  Ni6  1  0.71887996  0.88056091  0.34839633  1
  Ni  Ni7  1  0.93237138  0.51960938  0.15836889  1
