# generated using pymatgen
data_Li4Zr(TiP3)2
_symmetry_space_group_name_H-M   'P 1'
_cell_length_a   6.57145999
_cell_length_b   6.24562213
_cell_length_c   7.89922853
_cell_angle_alpha   98.98791301
_cell_angle_beta   101.66516028
_cell_angle_gamma   98.46610861
_symmetry_Int_Tables_number   1
_chemical_formula_structural   Li4Zr(TiP3)2
_chemical_formula_sum   'Li4 Zr1 Ti2 P6'
_cell_volume   308.20737247
_cell_formula_units_Z   1
loop_
 _symmetry_equiv_pos_site_id
 _symmetry_equiv_pos_as_xyz
  1  'x, y, z'
loop_
 _atom_site_type_symbol
 _atom_site_label
 _atom_site_symmetry_multiplicity
 _atom_site_fract_x
 _atom_site_fract_y
 _atom_site_fract_z
 _atom_site_occupancy
  Ti  Ti0  1  0.00000000  0.00000000  0.00000000  1
  Ti  Ti1  1  0.50000000  0.50000000  0.50000000  1
  P  P2  1  0.25000000  0.25000000  0.25000000  1
  P  P3  1  0.75000000  0.25000000  0.00000000  1
  P  P4  1  0.25000000  0.75000000  0.50000000  1
  P  P5  1  0.85077742  0.29176809  0.71795380  1
  P  P6  1  0.80279886  0.64064196  0.35303980  1
  P  P7  1  0.25707067  0.16337736  0.43659531  1
  Li  Li8  1  0.57976028  0.04321540  0.34929589  1
  Li  Li9  1  0.71517912  0.07584326  0.96902646  1
  Li  Li10  1  0.75049794  0.63367314  0.24692068  1
  Li  Li11  1  0.05662085  0.83678340  0.22812808  1
  Zr  Zr12  1  0.34926517  0.49510836  0.39225893  1
