# generated using pymatgen
data_Li4Ni2As6O5
_symmetry_space_group_name_H-M   'P 1'
_cell_length_a   6.53748802
_cell_length_b   6.37796739
_cell_length_c   8.12480737
_cell_angle_alpha   91.48044451
_cell_angle_beta   91.89779725
_cell_angle_gamma   93.15406350
_symmetry_Int_Tables_number   1
_chemical_formula_structural   Li4Ni2As6O5
_chemical_formula_sum   'Li4 Ni2 As6 O5'
_cell_volume   337.94246209
_cell_formula_units_Z   1
loop_
 _symmetry_equiv_pos_site_id
 _symmetry_equiv_pos_as_xyz
  1  'x, y, z'
loop_
 _atom_site_type_symbol
 _atom_site_label
 _atom_site_symmetry_multiplicity
 _atom_site_fract_x
 _atom_site_fract_y
 _atom_site_fract_z
 _atom_site_occupancy
  Ni  Ni0  1  0.00000000  0.00000000  0.00000000  1
  Ni  Ni1  1  0.33300000  0.66700000  0.25000000  1
  O  O2  1  0.66700000  0.33300000  0.50000000  1
  O  O3  1  0.00000000  0.00000000  0.75000000  1
  O  O4  1  0.62078149  0.32050919  0.14905573  1
  O  O5  1  0.52334437  0.31773361  0.74929829  1
  O  O6  1  0.03285374  0.58415269  0.36352697  1
  As  As7  1  0.36687975  0.62102656  0.62141738  1
  As  As8  1  0.36245202  0.64070627  0.36004477  1
  As  As9  1  0.18838355  0.78092220  0.11831975  1
  As  As10  1  0.16973925  0.81243253  0.40465932  1
  As  As11  1  0.99837785  0.27717463  0.10082175  1
  As  As12  1  0.25799060  0.30021480  0.89880442  1
  Li  Li13  1  0.41485240  0.09105357  0.55162847  1
  Li  Li14  1  0.71728704  0.93885318  0.85101564  1
  Li  Li15  1  0.39550204  0.57538985  0.90961927  1
  Li  Li16  1  0.74502042  0.71819115  0.68159585  1
