# generated using pymatgen
data_Li3Ti3(CuO)2
_symmetry_space_group_name_H-M   'P 1'
_cell_length_a   5.98929591
_cell_length_b   6.31525815
_cell_length_c   7.34530277
_cell_angle_alpha   97.43326398
_cell_angle_beta   100.73462021
_cell_angle_gamma   99.53779501
_symmetry_Int_Tables_number   1
_chemical_formula_structural   Li3Ti3(CuO)2
_chemical_formula_sum   'Li3 Ti3 Cu2 O2'
_cell_volume   265.48658344
_cell_formula_units_Z   1
loop_
 _symmetry_equiv_pos_site_id
 _symmetry_equiv_pos_as_xyz
  1  'x, y, z'
loop_
 _atom_site_type_symbol
 _atom_site_label
 _atom_site_symmetry_multiplicity
 _atom_site_fract_x
 _atom_site_fract_y
 _atom_site_fract_z
 _atom_site_occupancy
  Li  Li0  1  0.12500000  0.12500000  0.12500000  1
  Li  Li1  1  0.50000000  0.50000000  0.50000000  1
  Li  Li2  1  0.25000000  0.25000000  0.25000000  1
  Ti  Ti3  1  0.75000000  0.75000000  0.75000000  1
  Ti  Ti4  1  0.30293771  0.48749472  0.53938539  1
  Ti  Ti5  1  0.80209752  0.20370184  0.42314707  1
  O  O6  1  0.49006845  0.76857932  0.52350344  1
  O  O7  1  0.17685301  0.46835619  0.46332510  1
  Cu  Cu8  1  0.56164281  0.26943635  0.89300968  1
  Cu  Cu9  1  0.62873586  0.07369559  0.37714352  1
