# generated using pymatgen
data_LiMnSb4Mo2P3
_symmetry_space_group_name_H-M   'P 1'
_cell_length_a   5.46932727
_cell_length_b   5.82201125
_cell_length_c   6.47682796
_cell_angle_alpha   97.17810160
_cell_angle_beta   91.86691459
_cell_angle_gamma   97.10463816
_symmetry_Int_Tables_number   1
_chemical_formula_structural   LiMnSb4Mo2P3
_chemical_formula_sum   'Li1 Mn1 Sb4 Mo2 P3'
_cell_volume   202.80902075
_cell_formula_units_Z   1
loop_
 _symmetry_equiv_pos_site_id
 _symmetry_equiv_pos_as_xyz
  1  'x, y, z'
loop_
 _atom_site_type_symbol
 _atom_site_label
 _atom_site_symmetry_multiplicity
 _atom_site_fract_x
 _atom_site_fract_y
 _atom_site_fract_z
 _atom_site_occupancy
  Mn  Mn0  1  0.12500000  0.00000000  0.25000000  1
  Sb  Sb1  1  0.00000000  0.00000000  0.00000000  1
  Sb  Sb2  1  0.37500000  0.00000000  0.25000000  1
  Sb  Sb3  1  0.25000000  0.25000000  0.25000000  1
  Sb  Sb4  1  0.00000000  0.25000000  0.12500000  1
  P  P5  1  0.99301489  0.46607108  0.68237357  1
  P  P6  1  0.77654098  0.23237488  0.45361291  1
  P  P7  1  0.29265560  0.23593321  0.58528145  1
  Mo  Mo8  1  0.34500063  0.89877501  0.29405947  1
  Mo  Mo9  1  0.67469593  0.98539516  0.08525677  1
  Li  Li10  1  0.98681046  0.07353383  0.84713198  1
