# generated using pymatgen
data_Li2Ni2As6O7
_symmetry_space_group_name_H-M   'P 1'
_cell_length_a   7.78246352
_cell_length_b   7.85261616
_cell_length_c   8.88043652
_cell_angle_alpha   90.30533253
_cell_angle_beta   91.45267947
_cell_angle_gamma   90.34907662
_symmetry_Int_Tables_number   1
_chemical_formula_structural   Li2Ni2As6O7
_chemical_formula_sum   'Li2 Ni2 As6 O7'
_cell_volume   542.51478698
_cell_formula_units_Z   1
loop_
 _symmetry_equiv_pos_site_id
 _symmetry_equiv_pos_as_xyz
  1  'x, y, z'
loop_
 _atom_site_type_symbol
 _atom_site_label
 _atom_site_symmetry_multiplicity
 _atom_site_fract_x
 _atom_site_fract_y
 _atom_site_fract_z
 _atom_site_occupancy
  Ni  Ni0  1  0.00000000  0.00000000  0.00000000  1
  Ni  Ni1  1  0.33300000  0.66700000  0.25000000  1
  O  O2  1  0.66700000  0.33300000  0.50000000  1
  O  O3  1  0.00000000  0.00000000  0.75000000  1
  O  O4  1  0.75728265  0.52817747  0.42810107  1
  O  O5  1  0.02569874  0.98142367  0.63072956  1
  O  O6  1  0.50587972  0.75668972  0.50165111  1
  O  O7  1  0.77312318  0.85164810  0.68464814  1
  O  O8  1  0.47699254  0.69736864  0.58237880  1
  As  As9  1  0.60687541  0.38609478  0.04812631  1
  As  As10  1  0.10298954  0.17915516  0.47421705  1
  As  As11  1  0.67107682  0.72676257  0.33595788  1
  As  As12  1  0.32595062  0.87440675  0.35698322  1
  As  As13  1  0.79968734  0.45476890  0.50681297  1
  As  As14  1  0.47346920  0.85122655  0.38081832  1
  Li  Li15  1  0.48309798  0.54740017  0.66552066  1
  Li  Li16  1  0.85314860  0.70695073  0.82302323  1
