# generated using pymatgen
data_Li2Mn2Sb3P2
_symmetry_space_group_name_H-M   'P 1'
_cell_length_a   5.46922156
_cell_length_b   5.81829731
_cell_length_c   6.86751871
_cell_angle_alpha   96.61618273
_cell_angle_beta   96.92841434
_cell_angle_gamma   95.65962555
_symmetry_Int_Tables_number   1
_chemical_formula_structural   Li2Mn2Sb3P2
_chemical_formula_sum   'Li2 Mn2 Sb3 P2'
_cell_volume   214.08710370
_cell_formula_units_Z   1
loop_
 _symmetry_equiv_pos_site_id
 _symmetry_equiv_pos_as_xyz
  1  'x, y, z'
loop_
 _atom_site_type_symbol
 _atom_site_label
 _atom_site_symmetry_multiplicity
 _atom_site_fract_x
 _atom_site_fract_y
 _atom_site_fract_z
 _atom_site_occupancy
  Mn  Mn0  1  0.12500000  0.00000000  0.25000000  1
  Mn  Mn1  1  0.00000000  0.00000000  0.00000000  1
  Sb  Sb2  1  0.37500000  0.00000000  0.25000000  1
  Sb  Sb3  1  0.25000000  0.25000000  0.25000000  1
  Sb  Sb4  1  0.00000000  0.25000000  0.12500000  1
  P  P5  1  0.37278642  0.02679167  0.71145399  1
  P  P6  1  0.92484427  0.56308614  0.36997032  1
  Li  Li7  1  0.77184118  0.15507777  0.69152021  1
  Li  Li8  1  0.53907605  0.75996356  0.80028196  1
