# generated using pymatgen
data_Li3Ti(IO)4
_symmetry_space_group_name_H-M   'P 1'
_cell_length_a   8.87687184
_cell_length_b   8.75761409
_cell_length_c   7.20693757
_cell_angle_alpha   90.00000000
_cell_angle_beta   90.00000000
_cell_angle_gamma   90.00000000
_symmetry_Int_Tables_number   1
_chemical_formula_structural   Li3Ti(IO)4
_chemical_formula_sum   'Li3 Ti1 I4 O4'
_cell_volume   560.26889682
_cell_formula_units_Z   1
loop_
 _symmetry_equiv_pos_site_id
 _symmetry_equiv_pos_as_xyz
  1  'x, y, z'
loop_
 _atom_site_type_symbol
 _atom_site_label
 _atom_site_symmetry_multiplicity
 _atom_site_fract_x
 _atom_site_fract_y
 _atom_site_fract_z
 _atom_site_occupancy
  I  I0  1  0.12500000  0.00000000  0.25000000  1
  I  I1  1  0.00000000  0.00000000  0.00000000  1
  I  I2  1  0.37500000  0.00000000  0.25000000  1
  I  I3  1  0.25000000  0.25000000  0.25000000  1
  Li  Li4  1  0.00000000  0.25000000  0.12500000  1
  Li  Li5  1  0.10264026  0.52022859  0.44740666  1
  Li  Li6  1  0.42317867  0.20693618  0.04795707  1
  Ti  Ti7  1  0.69630822  0.33830921  0.34780045  1
  O  O8  1  0.26889631  0.70684027  0.79197101  1
  O  O9  1  0.38066793  0.87358027  0.10840190  1
  O  O10  1  0.29423264  0.89687002  0.40632376  1
  O  O11  1  0.28976436  0.77008875  0.65454901  1
