# generated using pymatgen
data_Li2Ni3P3W
_symmetry_space_group_name_H-M   'P 1'
_cell_length_a   6.21426283
_cell_length_b   5.91678564
_cell_length_c   6.96380607
_cell_angle_alpha   94.55027689
_cell_angle_beta   91.30216411
_cell_angle_gamma   94.00775196
_symmetry_Int_Tables_number   1
_chemical_formula_structural   Li2Ni3P3W
_chemical_formula_sum   'Li2 Ni3 P3 W1'
_cell_volume   254.51431682
_cell_formula_units_Z   1
loop_
 _symmetry_equiv_pos_site_id
 _symmetry_equiv_pos_as_xyz
  1  'x, y, z'
loop_
 _atom_site_type_symbol
 _atom_site_label
 _atom_site_symmetry_multiplicity
 _atom_site_fract_x
 _atom_site_fract_y
 _atom_site_fract_z
 _atom_site_occupancy
  Ni  Ni0  1  0.00000000  0.00000000  0.00000000  1
  Ni  Ni1  1  0.50000000  0.50000000  0.50000000  1
  Ni  Ni2  1  0.50000000  0.50000000  0.00000000  1
  W  W3  1  0.50000000  0.00000000  0.50000000  1
  P  P4  1  0.00000000  0.50000000  0.50000000  1
  P  P5  1  0.98342214  0.07964687  0.36538724  1
  P  P6  1  0.56667851  0.64398328  0.53681760  1
  Li  Li7  1  0.12989586  0.51177151  0.69052780  1
  Li  Li8  1  0.82203949  0.78761740  0.91019494  1
