# generated using pymatgen
data_LiCuAs3F
_symmetry_space_group_name_H-M   'P 1'
_cell_length_a   7.75752183
_cell_length_b   7.79886343
_cell_length_c   8.28472642
_cell_angle_alpha   90.39010793
_cell_angle_beta   91.85601506
_cell_angle_gamma   90.44599753
_symmetry_Int_Tables_number   1
_chemical_formula_structural   LiCuAs3F
_chemical_formula_sum   'Li2 Cu2 As6 F2'
_cell_volume   500.93409967
_cell_formula_units_Z   2
loop_
 _symmetry_equiv_pos_site_id
 _symmetry_equiv_pos_as_xyz
  1  'x, y, z'
loop_
 _atom_site_type_symbol
 _atom_site_label
 _atom_site_symmetry_multiplicity
 _atom_site_fract_x
 _atom_site_fract_y
 _atom_site_fract_z
 _atom_site_occupancy
  F  F0  1  0.00000000  0.00000000  0.00000000  1
  F  F1  1  0.50000000  0.50000000  0.50000000  1
  As  As2  1  0.25000000  0.25000000  0.25000000  1
  As  As3  1  0.75000000  0.25000000  0.00000000  1
  As  As4  1  0.25000000  0.75000000  0.50000000  1
  As  As5  1  0.34995399  0.09691000  0.25798596  1
  As  As6  1  0.56588705  0.80312376  0.77312205  1
  As  As7  1  0.58473713  0.10274362  0.33239434  1
  Li  Li8  1  0.15201265  0.22581896  0.85796747  1
  Li  Li9  1  0.80198269  0.23059400  0.12530220  1
  Cu  Cu10  1  0.41592322  0.20988270  0.54175331  1
  Cu  Cu11  1  0.25287895  0.40209172  0.34567523  1
