# generated using pymatgen
data_Li2Lu(CuAs3)2
_symmetry_space_group_name_H-M   'P 1'
_cell_length_a   7.45501166
_cell_length_b   7.39732083
_cell_length_c   8.62353068
_cell_angle_alpha   91.80569969
_cell_angle_beta   91.83334643
_cell_angle_gamma   92.08988583
_symmetry_Int_Tables_number   1
_chemical_formula_structural   Li2Lu(CuAs3)2
_chemical_formula_sum   'Li2 Lu1 Cu2 As6'
_cell_volume   474.74895996
_cell_formula_units_Z   1
loop_
 _symmetry_equiv_pos_site_id
 _symmetry_equiv_pos_as_xyz
  1  'x, y, z'
loop_
 _atom_site_type_symbol
 _atom_site_label
 _atom_site_symmetry_multiplicity
 _atom_site_fract_x
 _atom_site_fract_y
 _atom_site_fract_z
 _atom_site_occupancy
  Lu  Lu0  1  0.00000000  0.00000000  0.00000000  1
  As  As1  1  0.50000000  0.50000000  0.50000000  1
  As  As2  1  0.25000000  0.25000000  0.25000000  1
  As  As3  1  0.75000000  0.25000000  0.00000000  1
  As  As4  1  0.25000000  0.75000000  0.50000000  1
  As  As5  1  0.40227364  0.86420754  0.10520879  1
  As  As6  1  0.10856995  0.12000184  0.77597389  1
  Li  Li7  1  0.24833553  0.69947719  0.61275849  1
  Li  Li8  1  0.02489633  0.76651186  0.19760264  1
  Cu  Cu9  1  0.43892327  0.89290940  0.50334798  1
  Cu  Cu10  1  0.13197530  0.45699658  0.78367436  1
