# generated using pymatgen
data_Li2Cu2P2O3
_symmetry_space_group_name_H-M   'P 1'
_cell_length_a   7.49059106
_cell_length_b   7.76910345
_cell_length_c   8.00864038
_cell_angle_alpha   91.10976225
_cell_angle_beta   92.36420719
_cell_angle_gamma   91.39181844
_symmetry_Int_Tables_number   1
_chemical_formula_structural   Li2Cu2P2O3
_chemical_formula_sum   'Li2 Cu2 P2 O3'
_cell_volume   465.43332808
_cell_formula_units_Z   1
loop_
 _symmetry_equiv_pos_site_id
 _symmetry_equiv_pos_as_xyz
  1  'x, y, z'
loop_
 _atom_site_type_symbol
 _atom_site_label
 _atom_site_symmetry_multiplicity
 _atom_site_fract_x
 _atom_site_fract_y
 _atom_site_fract_z
 _atom_site_occupancy
  O  O0  1  0.00000000  0.00000000  0.00000000  1
  O  O1  1  0.50000000  0.50000000  0.50000000  1
  O  O2  1  0.50000000  0.50000000  0.00000000  1
  P  P3  1  0.50000000  0.00000000  0.50000000  1
  P  P4  1  0.00000000  0.50000000  0.50000000  1
  Li  Li5  1  0.09517155  0.08854810  0.06302794  1
  Li  Li6  1  0.45873508  0.35786639  0.74342389  1
  Cu  Cu7  1  0.80034288  0.58959588  0.07809789  1
  Cu  Cu8  1  0.26766508  0.94657507  0.61427025  1
