# generated using pymatgen
data_Li2MnSb4Mo2P3
_symmetry_space_group_name_H-M   'P 1'
_cell_length_a   5.27119059
_cell_length_b   5.32085950
_cell_length_c   6.86738817
_cell_angle_alpha   98.96726434
_cell_angle_beta   94.32838280
_cell_angle_gamma   99.32930500
_symmetry_Int_Tables_number   1
_chemical_formula_structural   Li2MnSb4Mo2P3
_chemical_formula_sum   'Li2 Mn1 Sb4 Mo2 P3'
_cell_volume   186.73530087
_cell_formula_units_Z   1
loop_
 _symmetry_equiv_pos_site_id
 _symmetry_equiv_pos_as_xyz
  1  'x, y, z'
loop_
 _atom_site_type_symbol
 _atom_site_label
 _atom_site_symmetry_multiplicity
 _atom_site_fract_x
 _atom_site_fract_y
 _atom_site_fract_z
 _atom_site_occupancy
  Mn  Mn0  1  0.00000000  0.00000000  0.00000000  1
  Sb  Sb1  1  0.50000000  0.50000000  0.50000000  1
  Sb  Sb2  1  0.50000000  0.50000000  0.00000000  1
  Sb  Sb3  1  0.50000000  0.00000000  0.50000000  1
  Sb  Sb4  1  0.00000000  0.50000000  0.50000000  1
  P  P5  1  0.28901598  0.02490795  0.23342544  1
  P  P6  1  0.91835483  0.65480348  0.84836259  1
  P  P7  1  0.74155270  0.88451054  0.17834767  1
  Mo  Mo8  1  0.69073770  0.23221683  0.91359824  1
  Mo  Mo9  1  0.43615935  0.09404151  0.88707806  1
  Li  Li10  1  0.46166299  0.67778439  0.09082055  1
  Li  Li11  1  0.55039290  0.19870482  0.06416807  1
