# generated using pymatgen
data_LiMn2Sb4P3
_symmetry_space_group_name_H-M   'P 1'
_cell_length_a   4.95912962
_cell_length_b   5.18112251
_cell_length_c   6.16678065
_cell_angle_alpha   96.47117566
_cell_angle_beta   92.29709056
_cell_angle_gamma   96.70953169
_symmetry_Int_Tables_number   1
_chemical_formula_structural   LiMn2Sb4P3
_chemical_formula_sum   'Li1 Mn2 Sb4 P3'
_cell_volume   156.13279788
_cell_formula_units_Z   1
loop_
 _symmetry_equiv_pos_site_id
 _symmetry_equiv_pos_as_xyz
  1  'x, y, z'
loop_
 _atom_site_type_symbol
 _atom_site_label
 _atom_site_symmetry_multiplicity
 _atom_site_fract_x
 _atom_site_fract_y
 _atom_site_fract_z
 _atom_site_occupancy
  Mn  Mn0  1  0.00000000  0.00000000  0.00000000  1
  Mn  Mn1  1  0.50000000  0.50000000  0.50000000  1
  Sb  Sb2  1  0.50000000  0.50000000  0.00000000  1
  Sb  Sb3  1  0.50000000  0.00000000  0.50000000  1
  Sb  Sb4  1  0.00000000  0.50000000  0.50000000  1
  Sb  Sb5  1  0.63169167  0.67083255  0.83245733  1
  P  P6  1  0.52373421  0.64649676  0.71748836  1
  P  P7  1  0.26831121  0.81954883  0.52851987  1
  P  P8  1  0.45094428  0.45464970  0.69712096  1
  Li  Li9  1  0.45668644  0.99114889  0.25366405  1
