# generated using pymatgen
data_Li3(NiAs3)2
_symmetry_space_group_name_H-M   'P 1'
_cell_length_a   6.37321118
_cell_length_b   6.06664272
_cell_length_c   8.38457284
_cell_angle_alpha   95.65981353
_cell_angle_beta   96.20333400
_cell_angle_gamma   95.09160231
_symmetry_Int_Tables_number   1
_chemical_formula_structural   Li3(NiAs3)2
_chemical_formula_sum   'Li3 Ni2 As6'
_cell_volume   319.08865450
_cell_formula_units_Z   1
loop_
 _symmetry_equiv_pos_site_id
 _symmetry_equiv_pos_as_xyz
  1  'x, y, z'
loop_
 _atom_site_type_symbol
 _atom_site_label
 _atom_site_symmetry_multiplicity
 _atom_site_fract_x
 _atom_site_fract_y
 _atom_site_fract_z
 _atom_site_occupancy
  Ni  Ni0  1  0.00000000  0.00000000  0.00000000  1
  Ni  Ni1  1  0.33300000  0.66700000  0.25000000  1
  As  As2  1  0.66700000  0.33300000  0.50000000  1
  As  As3  1  0.00000000  0.00000000  0.75000000  1
  As  As4  1  0.37872786  0.61479544  0.41309601  1
  As  As5  1  0.10633387  0.43207940  0.48452251  1
  As  As6  1  0.88714046  0.12304299  0.97506126  1
  As  As7  1  0.23852838  0.67839501  0.43975658  1
  Li  Li8  1  0.80217442  0.42094570  0.47047566  1
  Li  Li9  1  0.56194189  0.41200374  0.48163900  1
  Li  Li10  1  0.39213821  0.29025158  0.36071020  1
