# generated using pymatgen
data_Li3Ti2(As2O)3
_symmetry_space_group_name_H-M   'P 1'
_cell_length_a   7.13710893
_cell_length_b   7.14043327
_cell_length_c   7.97353514
_cell_angle_alpha   94.47402065
_cell_angle_beta   96.25962616
_cell_angle_gamma   95.74922342
_symmetry_Int_Tables_number   1
_chemical_formula_structural   Li3Ti2(As2O)3
_chemical_formula_sum   'Li3 Ti2 As6 O3'
_cell_volume   400.26537617
_cell_formula_units_Z   1
loop_
 _symmetry_equiv_pos_site_id
 _symmetry_equiv_pos_as_xyz
  1  'x, y, z'
loop_
 _atom_site_type_symbol
 _atom_site_label
 _atom_site_symmetry_multiplicity
 _atom_site_fract_x
 _atom_site_fract_y
 _atom_site_fract_z
 _atom_site_occupancy
  Li  Li0  1  0.00000000  0.00000000  0.00000000  1
  Li  Li1  1  0.33300000  0.66700000  0.25000000  1
  Li  Li2  1  0.66700000  0.33300000  0.50000000  1
  Ti  Ti3  1  0.00000000  0.00000000  0.75000000  1
  Ti  Ti4  1  0.05873545  0.38904607  0.53306276  1
  As  As5  1  0.67849137  0.51427496  0.18505750  1
  As  As6  1  0.58925149  0.01140140  0.56138463  1
  As  As7  1  0.18090529  0.24279255  0.06614555  1
  As  As8  1  0.17886566  0.06489222  0.93455556  1
  As  As9  1  0.14564089  0.68789255  0.05158534  1
  As  As10  1  0.08980868  0.91286083  0.07428573  1
  O  O11  1  0.79005328  0.97705332  0.00075527  1
  O  O12  1  0.20086122  0.10317613  0.37610097  1
  O  O13  1  0.89647273  0.20526835  0.22982989  1
