# generated using pymatgen
data_Li2TiP6(I2O)2
_symmetry_space_group_name_H-M   'P 1'
_cell_length_a   7.38150226
_cell_length_b   7.35551281
_cell_length_c   7.28299098
_cell_angle_alpha   93.17842126
_cell_angle_beta   94.84641238
_cell_angle_gamma   94.06748689
_symmetry_Int_Tables_number   1
_chemical_formula_structural   Li2TiP6(I2O)2
_chemical_formula_sum   'Li2 Ti1 P6 I4 O2'
_cell_volume   392.27027420
_cell_formula_units_Z   1
loop_
 _symmetry_equiv_pos_site_id
 _symmetry_equiv_pos_as_xyz
  1  'x, y, z'
loop_
 _atom_site_type_symbol
 _atom_site_label
 _atom_site_symmetry_multiplicity
 _atom_site_fract_x
 _atom_site_fract_y
 _atom_site_fract_z
 _atom_site_occupancy
  P  P0  1  0.00000000  0.00000000  0.00000000  1
  P  P1  1  0.50000000  0.50000000  0.50000000  1
  P  P2  1  0.25000000  0.25000000  0.25000000  1
  P  P3  1  0.75000000  0.25000000  0.00000000  1
  P  P4  1  0.25000000  0.75000000  0.50000000  1
  P  P5  1  0.15152338  0.71258145  0.50366008  1
  I  I6  1  0.10893581  0.93605948  0.59251466  1
  I  I7  1  0.25187477  0.80663805  0.73342481  1
  I  I8  1  0.01140640  0.89012042  0.88617948  1
  I  I9  1  0.51877488  0.83910112  0.14885344  1
  Li  Li10  1  0.16790414  0.23508050  0.70080283  1
  Li  Li11  1  0.69833807  0.58641485  0.38060569  1
  Ti  Ti12  1  0.17703521  0.36384326  0.13575608  1
  O  O13  1  0.56432706  0.28848439  0.73195881  1
  O  O14  1  0.44268005  0.67451239  0.37835122  1
