# generated using pymatgen
data_Li2MnSb4P3N
_symmetry_space_group_name_H-M   'P 1'
_cell_length_a   4.57795438
_cell_length_b   4.74025513
_cell_length_c   5.62956261
_cell_angle_alpha   99.04446142
_cell_angle_beta   95.33560517
_cell_angle_gamma   97.03866728
_symmetry_Int_Tables_number   1
_chemical_formula_structural   Li2MnSb4P3N
_chemical_formula_sum   'Li2 Mn1 Sb4 P3 N1'
_cell_volume   118.94925544
_cell_formula_units_Z   1
loop_
 _symmetry_equiv_pos_site_id
 _symmetry_equiv_pos_as_xyz
  1  'x, y, z'
loop_
 _atom_site_type_symbol
 _atom_site_label
 _atom_site_symmetry_multiplicity
 _atom_site_fract_x
 _atom_site_fract_y
 _atom_site_fract_z
 _atom_site_occupancy
  Mn  Mn0  1  0.12500000  0.00000000  0.25000000  1
  Sb  Sb1  1  0.00000000  0.00000000  0.00000000  1
  Sb  Sb2  1  0.37500000  0.00000000  0.25000000  1
  Sb  Sb3  1  0.25000000  0.25000000  0.25000000  1
  Sb  Sb4  1  0.00000000  0.25000000  0.12500000  1
  P  P5  1  0.33458530  0.45607930  0.63319471  1
  P  P6  1  0.34331268  0.30991731  0.20321514  1
  P  P7  1  0.59210375  0.31794859  0.27007435  1
  Li  Li8  1  0.17516704  0.97716998  0.66032187  1
  Li  Li9  1  0.11876590  0.75315019  0.02714296  1
  N  N10  1  0.89662691  0.36507290  0.61456680  1
