# generated using pymatgen
data_Li3Ni2(PO)4
_symmetry_space_group_name_H-M   'P 1'
_cell_length_a   7.00751614
_cell_length_b   7.01583435
_cell_length_c   8.18257562
_cell_angle_alpha   93.74308554
_cell_angle_beta   95.06758110
_cell_angle_gamma   94.53325928
_symmetry_Int_Tables_number   1
_chemical_formula_structural   Li3Ni2(PO)4
_chemical_formula_sum   'Li3 Ni2 P4 O4'
_cell_volume   398.39939793
_cell_formula_units_Z   1
loop_
 _symmetry_equiv_pos_site_id
 _symmetry_equiv_pos_as_xyz
  1  'x, y, z'
loop_
 _atom_site_type_symbol
 _atom_site_label
 _atom_site_symmetry_multiplicity
 _atom_site_fract_x
 _atom_site_fract_y
 _atom_site_fract_z
 _atom_site_occupancy
  P  P0  1  0.00000000  0.00000000  0.00000000  1
  P  P1  1  0.50000000  0.50000000  0.50000000  1
  P  P2  1  0.25000000  0.25000000  0.25000000  1
  P  P3  1  0.75000000  0.25000000  0.00000000  1
  Li  Li4  1  0.25000000  0.75000000  0.50000000  1
  Li  Li5  1  0.61089028  0.04769337  0.28209932  1
  Li  Li6  1  0.59548969  0.37769383  0.63034047  1
  Ni  Ni7  1  0.77899467  0.03705612  0.26699340  1
  Ni  Ni8  1  0.47563035  0.07759480  0.58657824  1
  O  O9  1  0.08078089  0.57970321  0.99666252  1
  O  O10  1  0.72667581  0.81640870  0.84033828  1
  O  O11  1  0.48574560  0.79183356  0.91043151  1
  O  O12  1  0.46151999  0.67026077  0.68929547  1
