# generated using pymatgen
data_Li4ZrTi2(AsP)6
_symmetry_space_group_name_H-M   'P 1'
_cell_length_a   6.07364499
_cell_length_b   5.89111459
_cell_length_c   7.64180107
_cell_angle_alpha   100.50246293
_cell_angle_beta   103.70380871
_cell_angle_gamma   100.70890771
_symmetry_Int_Tables_number   1
_chemical_formula_structural   Li4ZrTi2(AsP)6
_chemical_formula_sum   'Li4 Zr1 Ti2 As6 P6'
_cell_volume   253.57751594
_cell_formula_units_Z   1
loop_
 _symmetry_equiv_pos_site_id
 _symmetry_equiv_pos_as_xyz
  1  'x, y, z'
loop_
 _atom_site_type_symbol
 _atom_site_label
 _atom_site_symmetry_multiplicity
 _atom_site_fract_x
 _atom_site_fract_y
 _atom_site_fract_z
 _atom_site_occupancy
  Ti  Ti0  1  0.00000000  0.00000000  0.00000000  1
  Ti  Ti1  1  0.50000000  0.50000000  0.50000000  1
  P  P2  1  0.50000000  0.50000000  0.00000000  1
  P  P3  1  0.50000000  0.00000000  0.50000000  1
  P  P4  1  0.00000000  0.50000000  0.50000000  1
  P  P5  1  0.03466362  0.17042298  0.72658374  1
  P  P6  1  0.15486246  0.85907745  0.76626858  1
  P  P7  1  0.45954239  0.89958234  0.53809935  1
  As  As8  1  0.43198553  0.44767192  0.38774735  1
  As  As9  1  0.60556693  0.36696497  0.78129203  1
  As  As10  1  0.59376630  0.85121783  0.45367546  1
  As  As11  1  0.63307758  0.00048525  0.83421175  1
  As  As12  1  0.77582538  0.02377123  0.88913899  1
  As  As13  1  0.30458265  0.85270327  0.30615427  1
  Li  Li14  1  0.03604681  0.44182135  0.28729783  1
  Li  Li15  1  0.13370391  0.43087592  0.51488609  1
  Li  Li16  1  0.40332884  0.32059168  0.63116637  1
  Li  Li17  1  0.59315031  0.37950550  0.56403853  1
  Zr  Zr18  1  0.51895936  0.44761794  0.53035456  1
