# generated using pymatgen
data_Li2Mn2Sb4P3
_symmetry_space_group_name_H-M   'P 1'
_cell_length_a   6.68229732
_cell_length_b   7.26742104
_cell_length_c   7.39271251
_cell_angle_alpha   92.35350176
_cell_angle_beta   92.78794029
_cell_angle_gamma   92.67857559
_symmetry_Int_Tables_number   1
_chemical_formula_structural   Li2Mn2Sb4P3
_chemical_formula_sum   'Li2 Mn2 Sb4 P3'
_cell_volume   357.85801432
_cell_formula_units_Z   1
loop_
 _symmetry_equiv_pos_site_id
 _symmetry_equiv_pos_as_xyz
  1  'x, y, z'
loop_
 _atom_site_type_symbol
 _atom_site_label
 _atom_site_symmetry_multiplicity
 _atom_site_fract_x
 _atom_site_fract_y
 _atom_site_fract_z
 _atom_site_occupancy
  Mn  Mn0  1  0.00000000  0.00000000  0.00000000  1
  Mn  Mn1  1  0.33300000  0.66700000  0.25000000  1
  Sb  Sb2  1  0.66700000  0.33300000  0.50000000  1
  Sb  Sb3  1  0.00000000  0.00000000  0.75000000  1
  Sb  Sb4  1  0.21879752  0.70677710  0.81784264  1
  Sb  Sb5  1  0.02831851  0.10414420  0.92512523  1
  P  P6  1  0.57751600  0.39888722  0.10688593  1
  P  P7  1  0.50075798  0.55573291  0.22675663  1
  P  P8  1  0.23990032  0.45239803  0.29172088  1
  Li  Li9  1  0.43111534  0.57083411  0.13469097  1
  Li  Li10  1  0.91971263  0.68509363  0.77257539  1
