# generated using pymatgen
data_LiSb4Mo2P3
_symmetry_space_group_name_H-M   'P 1'
_cell_length_a   5.06731373
_cell_length_b   5.26970963
_cell_length_c   6.19051763
_cell_angle_alpha   97.53132944
_cell_angle_beta   91.59402361
_cell_angle_gamma   97.29044514
_symmetry_Int_Tables_number   1
_chemical_formula_structural   LiSb4Mo2P3
_chemical_formula_sum   'Li1 Sb4 Mo2 P3'
_cell_volume   162.38999690
_cell_formula_units_Z   1
loop_
 _symmetry_equiv_pos_site_id
 _symmetry_equiv_pos_as_xyz
  1  'x, y, z'
loop_
 _atom_site_type_symbol
 _atom_site_label
 _atom_site_symmetry_multiplicity
 _atom_site_fract_x
 _atom_site_fract_y
 _atom_site_fract_z
 _atom_site_occupancy
  Sb  Sb0  1  0.12500000  0.12500000  0.12500000  1
  Sb  Sb1  1  0.50000000  0.50000000  0.50000000  1
  Sb  Sb2  1  0.25000000  0.25000000  0.25000000  1
  Sb  Sb3  1  0.75000000  0.75000000  0.75000000  1
  P  P4  1  0.56382730  0.95228383  0.12612167  1
  P  P5  1  0.83216624  0.58171923  0.26302592  1
  P  P6  1  0.61626086  0.38615143  0.45278085  1
  Mo  Mo7  1  0.15165238  0.69390515  0.69490115  1
  Mo  Mo8  1  0.96505139  0.98947529  0.31652883  1
  Li  Li9  1  0.95436342  0.16878493  0.09434745  1
