# generated using pymatgen
data_LiNiAs3
_symmetry_space_group_name_H-M   'P 1'
_cell_length_a   7.86290440
_cell_length_b   7.82053970
_cell_length_c   8.99943478
_cell_angle_alpha   91.52738433
_cell_angle_beta   92.64231169
_cell_angle_gamma   91.58241482
_symmetry_Int_Tables_number   1
_chemical_formula_structural   LiNiAs3
_chemical_formula_sum   'Li2 Ni2 As6'
_cell_volume   552.37928963
_cell_formula_units_Z   2
loop_
 _symmetry_equiv_pos_site_id
 _symmetry_equiv_pos_as_xyz
  1  'x, y, z'
loop_
 _atom_site_type_symbol
 _atom_site_label
 _atom_site_symmetry_multiplicity
 _atom_site_fract_x
 _atom_site_fract_y
 _atom_site_fract_z
 _atom_site_occupancy
  Ni  Ni0  1  0.00000000  0.00000000  0.00000000  1
  Ni  Ni1  1  0.50000000  0.50000000  0.50000000  1
  As  As2  1  0.25000000  0.25000000  0.25000000  1
  As  As3  1  0.75000000  0.25000000  0.00000000  1
  As  As4  1  0.25000000  0.75000000  0.50000000  1
  As  As5  1  0.51116532  0.41729221  0.15011266  1
  As  As6  1  0.90181583  0.56494717  0.32637250  1
  As  As7  1  0.75320359  0.14423599  0.14493262  1
  Li  Li8  1  0.89715878  0.28302474  0.55812980  1
  Li  Li9  1  0.52588375  0.28984078  0.87604067  1
