# generated using pymatgen
data_Li3Ni2As6P4O7
_symmetry_space_group_name_H-M   'P 1'
_cell_length_a   8.01911590
_cell_length_b   7.85990847
_cell_length_c   9.33498768
_cell_angle_alpha   90.84990799
_cell_angle_beta   90.53883888
_cell_angle_gamma   90.98489131
_symmetry_Int_Tables_number   1
_chemical_formula_structural   Li3Ni2As6P4O7
_chemical_formula_sum   'Li3 Ni2 As6 P4 O7'
_cell_volume   588.20065995
_cell_formula_units_Z   1
loop_
 _symmetry_equiv_pos_site_id
 _symmetry_equiv_pos_as_xyz
  1  'x, y, z'
loop_
 _atom_site_type_symbol
 _atom_site_label
 _atom_site_symmetry_multiplicity
 _atom_site_fract_x
 _atom_site_fract_y
 _atom_site_fract_z
 _atom_site_occupancy
  P  P0  1  0.00000000  0.00000000  0.00000000  1
  P  P1  1  0.50000000  0.50000000  0.50000000  1
  P  P2  1  0.25000000  0.25000000  0.25000000  1
  P  P3  1  0.75000000  0.25000000  0.00000000  1
  Li  Li4  1  0.25000000  0.75000000  0.50000000  1
  Li  Li5  1  0.38422027  0.03840395  0.02897281  1
  Li  Li6  1  0.74278877  0.26487952  0.15429216  1
  Ni  Ni7  1  0.61359066  0.59650442  0.44325000  1
  Ni  Ni8  1  0.45688421  0.95790379  0.38711442  1
  As  As9  1  0.93259449  0.83550646  0.67805741  1
  As  As10  1  0.71902475  0.64307858  0.63476200  1
  As  As11  1  0.02695411  0.33921111  0.82115837  1
  As  As12  1  0.45377401  0.59113325  0.93623537  1
  As  As13  1  0.45069028  0.38518004  0.98752693  1
  As  As14  1  0.74647272  0.15681555  0.33107177  1
  O  O15  1  0.24218645  0.37742216  0.82739973  1
  O  O16  1  0.43684700  0.48460236  0.42173460  1
  O  O17  1  0.96036385  0.21524910  0.90075122  1
  O  O18  1  0.39525150  0.03164542  0.81705002  1
  O  O19  1  0.04746827  0.64419268  0.12525038  1
  O  O20  1  0.96687209  0.38376465  0.62496448  1
  O  O21  1  0.19491310  0.67132295  0.11156797  1
