# generated using pymatgen
data_LiMn3Sb4Mo2P3
_symmetry_space_group_name_H-M   'P 1'
_cell_length_a   6.22885959
_cell_length_b   6.60844714
_cell_length_c   6.70937811
_cell_angle_alpha   92.87616750
_cell_angle_beta   90.53602152
_cell_angle_gamma   92.63130837
_symmetry_Int_Tables_number   1
_chemical_formula_structural   LiMn3Sb4Mo2P3
_chemical_formula_sum   'Li1 Mn3 Sb4 Mo2 P3'
_cell_volume   275.52119146
_cell_formula_units_Z   1
loop_
 _symmetry_equiv_pos_site_id
 _symmetry_equiv_pos_as_xyz
  1  'x, y, z'
loop_
 _atom_site_type_symbol
 _atom_site_label
 _atom_site_symmetry_multiplicity
 _atom_site_fract_x
 _atom_site_fract_y
 _atom_site_fract_z
 _atom_site_occupancy
  Mn  Mn0  1  0.12500000  0.00000000  0.25000000  1
  Mn  Mn1  1  0.00000000  0.00000000  0.00000000  1
  Mn  Mn2  1  0.37500000  0.00000000  0.25000000  1
  Sb  Sb3  1  0.25000000  0.25000000  0.25000000  1
  Sb  Sb4  1  0.00000000  0.25000000  0.12500000  1
  Sb  Sb5  1  0.07192518  0.91429076  0.43849507  1
  Sb  Sb6  1  0.93314652  0.15672319  0.78205048  1
  P  P7  1  0.61576126  0.78411821  0.90207311  1
  P  P8  1  0.26998443  0.71577233  0.21525649  1
  P  P9  1  0.11455953  0.71110843  0.05615426  1
  Mo  Mo10  1  0.51351483  0.31575887  0.40043704  1
  Mo  Mo11  1  0.72639011  0.93985220  0.12102348  1
  Li  Li12  1  0.97470570  0.47476845  0.11427656  1
