# generated using pymatgen
data_Li4LuTi3(NiP)4
_symmetry_space_group_name_H-M   'P 1'
_cell_length_a   6.53072160
_cell_length_b   6.44289650
_cell_length_c   8.03630241
_cell_angle_alpha   96.68412256
_cell_angle_beta   96.83902244
_cell_angle_gamma   98.32083204
_symmetry_Int_Tables_number   1
_chemical_formula_structural   Li4LuTi3(NiP)4
_chemical_formula_sum   'Li4 Lu1 Ti3 Ni4 P4'
_cell_volume   329.11403753
_cell_formula_units_Z   1
loop_
 _symmetry_equiv_pos_site_id
 _symmetry_equiv_pos_as_xyz
  1  'x, y, z'
loop_
 _atom_site_type_symbol
 _atom_site_label
 _atom_site_symmetry_multiplicity
 _atom_site_fract_x
 _atom_site_fract_y
 _atom_site_fract_z
 _atom_site_occupancy
  P  P0  1  0.00000000  0.00000000  0.00000000  1
  P  P1  1  0.50000000  0.50000000  0.50000000  1
  P  P2  1  0.25000000  0.25000000  0.25000000  1
  P  P3  1  0.75000000  0.25000000  0.00000000  1
  Lu  Lu4  1  0.25000000  0.75000000  0.50000000  1
  Li  Li5  1  0.84362464  0.99421428  0.78664448  1
  Li  Li6  1  0.07149344  0.30667102  0.49119055  1
  Li  Li7  1  0.86403583  0.48230130  0.03363294  1
  Li  Li8  1  0.13613366  0.33506000  0.91895479  1
  Ni  Ni9  1  0.96491758  0.23469640  0.79618075  1
  Ni  Ni10  1  0.78850920  0.89212268  0.31871761  1
  Ni  Ni11  1  0.49781010  0.63596637  0.52550290  1
  Ni  Ni12  1  0.81114527  0.80965982  0.12652318  1
  Ti  Ti13  1  0.82897988  0.42030897  0.07792362  1
  Ti  Ti14  1  0.24269690  0.35502321  0.30103479  1
  Ti  Ti15  1  0.38713962  0.13694793  0.63590642  1
