# generated using pymatgen
data_Li2Mn2P2N
_symmetry_space_group_name_H-M   'P 1'
_cell_length_a   4.41046777
_cell_length_b   4.65329212
_cell_length_c   5.68510256
_cell_angle_alpha   102.21206949
_cell_angle_beta   95.59845070
_cell_angle_gamma   99.65071163
_symmetry_Int_Tables_number   1
_chemical_formula_structural   Li2Mn2P2N
_chemical_formula_sum   'Li2 Mn2 P2 N1'
_cell_volume   111.34597672
_cell_formula_units_Z   1
loop_
 _symmetry_equiv_pos_site_id
 _symmetry_equiv_pos_as_xyz
  1  'x, y, z'
loop_
 _atom_site_type_symbol
 _atom_site_label
 _atom_site_symmetry_multiplicity
 _atom_site_fract_x
 _atom_site_fract_y
 _atom_site_fract_z
 _atom_site_occupancy
  Mn  Mn0  1  0.00000000  0.00000000  0.00000000  1
  Mn  Mn1  1  0.50000000  0.50000000  0.50000000  1
  P  P2  1  0.50000000  0.50000000  0.00000000  1
  P  P3  1  0.50000000  0.00000000  0.50000000  1
  Li  Li4  1  0.00000000  0.50000000  0.50000000  1
  Li  Li5  1  0.19549004  0.06730626  0.08618608  1
  N  N6  1  0.50429970  0.31788324  0.11031801  1
