# generated using pymatgen
data_Li2Ti2N5O
_symmetry_space_group_name_H-M   'P 1'
_cell_length_a   7.71941288
_cell_length_b   7.83625739
_cell_length_c   8.23283354
_cell_angle_alpha   91.90163903
_cell_angle_beta   90.67230925
_cell_angle_gamma   92.20567107
_symmetry_Int_Tables_number   1
_chemical_formula_structural   Li2Ti2N5O
_chemical_formula_sum   'Li2 Ti2 N5 O1'
_cell_volume   497.32960251
_cell_formula_units_Z   1
loop_
 _symmetry_equiv_pos_site_id
 _symmetry_equiv_pos_as_xyz
  1  'x, y, z'
loop_
 _atom_site_type_symbol
 _atom_site_label
 _atom_site_symmetry_multiplicity
 _atom_site_fract_x
 _atom_site_fract_y
 _atom_site_fract_z
 _atom_site_occupancy
  Li  Li0  1  0.00000000  0.00000000  0.00000000  1
  Li  Li1  1  0.50000000  0.50000000  0.50000000  1
  Ti  Ti2  1  0.50000000  0.50000000  0.00000000  1
  Ti  Ti3  1  0.50000000  0.00000000  0.50000000  1
  O  O4  1  0.00000000  0.50000000  0.50000000  1
  N  N5  1  0.56936532  0.54639859  0.83969132  1
  N  N6  1  0.37713189  0.05713422  0.58461404  1
  N  N7  1  0.02865060  0.49396752  0.34615639  1
  N  N8  1  0.18298479  0.26019746  0.05253134  1
  N  N9  1  0.23378779  0.99571732  0.47349312  1
