# generated using pymatgen
data_Li3TiI4O3
_symmetry_space_group_name_H-M   'P 1'
_cell_length_a   8.61235507
_cell_length_b   8.22524676
_cell_length_c   7.42862124
_cell_angle_alpha   90.00000000
_cell_angle_beta   90.00000000
_cell_angle_gamma   90.00000000
_symmetry_Int_Tables_number   1
_chemical_formula_structural   Li3TiI4O3
_chemical_formula_sum   'Li3 Ti1 I4 O3'
_cell_volume   526.23421063
_cell_formula_units_Z   1
loop_
 _symmetry_equiv_pos_site_id
 _symmetry_equiv_pos_as_xyz
  1  'x, y, z'
loop_
 _atom_site_type_symbol
 _atom_site_label
 _atom_site_symmetry_multiplicity
 _atom_site_fract_x
 _atom_site_fract_y
 _atom_site_fract_z
 _atom_site_occupancy
  I  I0  1  0.00000000  0.00000000  0.00000000  1
  I  I1  1  0.50000000  0.50000000  0.50000000  1
  I  I2  1  0.50000000  0.50000000  0.00000000  1
  I  I3  1  0.50000000  0.00000000  0.50000000  1
  Li  Li4  1  0.00000000  0.50000000  0.50000000  1
  Li  Li5  1  0.64695957  0.93614895  0.00920381  1
  Li  Li6  1  0.44575342  0.13821462  0.89744507  1
  Ti  Ti7  1  0.37853492  0.13384680  0.29136099  1
  O  O8  1  0.95843084  0.35674066  0.44324034  1
  O  O9  1  0.38215775  0.21801395  0.93452286  1
  O  O10  1  0.98800764  0.73686507  0.75151478  1
