# generated using pymatgen
data_Li2Sb3(SeBr)4
_symmetry_space_group_name_H-M   'P 1'
_cell_length_a   8.49083542
_cell_length_b   8.17125379
_cell_length_c   8.85295091
_cell_angle_alpha   90.00000000
_cell_angle_beta   90.00000000
_cell_angle_gamma   90.00000000
_symmetry_Int_Tables_number   1
_chemical_formula_structural   Li2Sb3(SeBr)4
_chemical_formula_sum   'Li2 Sb3 Se4 Br4'
_cell_volume   614.22456060
_cell_formula_units_Z   1
loop_
 _symmetry_equiv_pos_site_id
 _symmetry_equiv_pos_as_xyz
  1  'x, y, z'
loop_
 _atom_site_type_symbol
 _atom_site_label
 _atom_site_symmetry_multiplicity
 _atom_site_fract_x
 _atom_site_fract_y
 _atom_site_fract_z
 _atom_site_occupancy
  Se  Se0  1  0.00000000  0.00000000  0.00000000  1
  Se  Se1  1  0.50000000  0.50000000  0.50000000  1
  Se  Se2  1  0.25000000  0.25000000  0.25000000  1
  Se  Se3  1  0.75000000  0.25000000  0.00000000  1
  Br  Br4  1  0.25000000  0.75000000  0.50000000  1
  Br  Br5  1  0.13610316  0.82455140  0.96121226  1
  Br  Br6  1  0.25718111  0.04652814  0.70996355  1
  Br  Br7  1  0.19978509  0.65826146  0.65396820  1
  Sb  Sb8  1  0.66023501  0.34086971  0.93772242  1
  Sb  Sb9  1  0.42456391  0.32619322  0.96845816  1
  Sb  Sb10  1  0.53032182  0.93329313  0.56757968  1
  Li  Li11  1  0.14196202  0.56602248  0.94717267  1
  Li  Li12  1  0.42228673  0.54662255  0.22043357  1
