# generated using pymatgen
data_LiMn2Sb4P3
_symmetry_space_group_name_H-M   'P 1'
_cell_length_a   6.42079927
_cell_length_b   6.73710609
_cell_length_c   6.97003934
_cell_angle_alpha   94.45006102
_cell_angle_beta   92.05965792
_cell_angle_gamma   94.78175294
_symmetry_Int_Tables_number   1
_chemical_formula_structural   LiMn2Sb4P3
_chemical_formula_sum   'Li1 Mn2 Sb4 P3'
_cell_volume   299.27901248
_cell_formula_units_Z   1
loop_
 _symmetry_equiv_pos_site_id
 _symmetry_equiv_pos_as_xyz
  1  'x, y, z'
loop_
 _atom_site_type_symbol
 _atom_site_label
 _atom_site_symmetry_multiplicity
 _atom_site_fract_x
 _atom_site_fract_y
 _atom_site_fract_z
 _atom_site_occupancy
  Mn  Mn0  1  0.00000000  0.00000000  0.00000000  1
  Mn  Mn1  1  0.33300000  0.66700000  0.25000000  1
  Sb  Sb2  1  0.66700000  0.33300000  0.50000000  1
  Sb  Sb3  1  0.00000000  0.00000000  0.75000000  1
  Sb  Sb4  1  0.23617414  0.76179067  0.49427923  1
  Sb  Sb5  1  0.62408321  0.27914854  0.65616623  1
  P  P6  1  0.94454631  0.67136590  0.79121550  1
  P  P7  1  0.93340377  0.68378908  0.80334149  1
  P  P8  1  0.99364725  0.68991394  0.19201686  1
  Li  Li9  1  0.53090592  0.66713049  0.98424000  1
