# generated using pymatgen
data_Li2MnSb4P3
_symmetry_space_group_name_H-M   'P 1'
_cell_length_a   4.81087193
_cell_length_b   5.14157580
_cell_length_c   6.71592942
_cell_angle_alpha   99.41938834
_cell_angle_beta   95.65362816
_cell_angle_gamma   99.95384923
_symmetry_Int_Tables_number   1
_chemical_formula_structural   Li2MnSb4P3
_chemical_formula_sum   'Li2 Mn1 Sb4 P3'
_cell_volume   160.03451717
_cell_formula_units_Z   1
loop_
 _symmetry_equiv_pos_site_id
 _symmetry_equiv_pos_as_xyz
  1  'x, y, z'
loop_
 _atom_site_type_symbol
 _atom_site_label
 _atom_site_symmetry_multiplicity
 _atom_site_fract_x
 _atom_site_fract_y
 _atom_site_fract_z
 _atom_site_occupancy
  Mn  Mn0  1  0.12500000  0.00000000  0.25000000  1
  Sb  Sb1  1  0.00000000  0.00000000  0.00000000  1
  Sb  Sb2  1  0.37500000  0.00000000  0.25000000  1
  Sb  Sb3  1  0.25000000  0.25000000  0.25000000  1
  Sb  Sb4  1  0.00000000  0.25000000  0.12500000  1
  P  P5  1  0.66900456  0.21619568  0.93190493  1
  P  P6  1  0.60802604  0.69047309  0.69054069  1
  P  P7  1  0.62964255  0.60829089  0.99340980  1
  Li  Li8  1  0.25670805  0.49171956  0.27571436  1
  Li  Li9  1  0.93388630  0.36487136  0.26060493  1
