# generated using pymatgen
data_Li2Mn2Sb4P3
_symmetry_space_group_name_H-M   'P 1'
_cell_length_a   5.56944007
_cell_length_b   5.57677424
_cell_length_c   6.83686665
_cell_angle_alpha   98.85543020
_cell_angle_beta   92.74919948
_cell_angle_gamma   99.00055050
_symmetry_Int_Tables_number   1
_chemical_formula_structural   Li2Mn2Sb4P3
_chemical_formula_sum   'Li2 Mn2 Sb4 P3'
_cell_volume   206.66946132
_cell_formula_units_Z   1
loop_
 _symmetry_equiv_pos_site_id
 _symmetry_equiv_pos_as_xyz
  1  'x, y, z'
loop_
 _atom_site_type_symbol
 _atom_site_label
 _atom_site_symmetry_multiplicity
 _atom_site_fract_x
 _atom_site_fract_y
 _atom_site_fract_z
 _atom_site_occupancy
  Mn  Mn0  1  0.00000000  0.00000000  0.00000000  1
  Mn  Mn1  1  0.50000000  0.50000000  0.50000000  1
  Sb  Sb2  1  0.50000000  0.50000000  0.00000000  1
  Sb  Sb3  1  0.50000000  0.00000000  0.50000000  1
  Sb  Sb4  1  0.00000000  0.50000000  0.50000000  1
  Sb  Sb5  1  0.50383792  0.62232251  0.46201252  1
  P  P6  1  0.75817603  0.62121061  0.65960601  1
  P  P7  1  0.97319877  0.11347751  0.37929080  1
  P  P8  1  0.76813514  0.20094550  0.53413392  1
  Li  Li9  1  0.31997050  0.83721601  0.06461564  1
  Li  Li10  1  0.62505506  0.21641483  0.01266455  1
