# generated using pymatgen
data_LiMn2Sb4Mo2P3
_symmetry_space_group_name_H-M   'P 1'
_cell_length_a   6.91379652
_cell_length_b   7.44310603
_cell_length_c   7.15365313
_cell_angle_alpha   90.87148463
_cell_angle_beta   90.55994198
_cell_angle_gamma   90.78281646
_symmetry_Int_Tables_number   1
_chemical_formula_structural   LiMn2Sb4Mo2P3
_chemical_formula_sum   'Li1 Mn2 Sb4 Mo2 P3'
_cell_volume   368.03257596
_cell_formula_units_Z   1
loop_
 _symmetry_equiv_pos_site_id
 _symmetry_equiv_pos_as_xyz
  1  'x, y, z'
loop_
 _atom_site_type_symbol
 _atom_site_label
 _atom_site_symmetry_multiplicity
 _atom_site_fract_x
 _atom_site_fract_y
 _atom_site_fract_z
 _atom_site_occupancy
  Mn  Mn0  1  0.12500000  0.00000000  0.25000000  1
  Mn  Mn1  1  0.00000000  0.00000000  0.00000000  1
  Sb  Sb2  1  0.37500000  0.00000000  0.25000000  1
  Sb  Sb3  1  0.25000000  0.25000000  0.25000000  1
  Sb  Sb4  1  0.00000000  0.25000000  0.12500000  1
  Sb  Sb5  1  0.73529063  0.38336723  0.35845125  1
  P  P6  1  0.29836380  0.30806197  0.61477628  1
  P  P7  1  0.15238612  0.00512053  0.09016733  1
  P  P8  1  0.72032231  0.09336998  0.07377523  1
  Mo  Mo9  1  0.24378015  0.57407879  0.93716663  1
  Mo  Mo10  1  0.11289220  0.57454710  0.59446402  1
  Li  Li11  1  0.37571326  0.89613290  0.12218275  1
