# generated using pymatgen
data_Li2Ti2I4O4F3
_symmetry_space_group_name_H-M   'P 1'
_cell_length_a   6.76860855
_cell_length_b   6.59387100
_cell_length_c   7.97533930
_cell_angle_alpha   96.84954441
_cell_angle_beta   100.49169931
_cell_angle_gamma   96.37715769
_symmetry_Int_Tables_number   1
_chemical_formula_structural   Li2Ti2I4O4F3
_chemical_formula_sum   'Li2 Ti2 I4 O4 F3'
_cell_volume   344.27140378
_cell_formula_units_Z   1
loop_
 _symmetry_equiv_pos_site_id
 _symmetry_equiv_pos_as_xyz
  1  'x, y, z'
loop_
 _atom_site_type_symbol
 _atom_site_label
 _atom_site_symmetry_multiplicity
 _atom_site_fract_x
 _atom_site_fract_y
 _atom_site_fract_z
 _atom_site_occupancy
  I  I0  1  0.00000000  0.00000000  0.00000000  1
  I  I1  1  0.50000000  0.50000000  0.50000000  1
  I  I2  1  0.50000000  0.50000000  0.00000000  1
  I  I3  1  0.50000000  0.00000000  0.50000000  1
  Li  Li4  1  0.00000000  0.50000000  0.50000000  1
  Li  Li5  1  0.28932692  0.37611777  0.08889955  1
  F  F6  1  0.66431306  0.98549296  0.29818907  1
  F  F7  1  0.34668257  0.89529339  0.23011381  1
  F  F8  1  0.15415237  0.59034748  0.35627960  1
  Ti  Ti9  1  0.23172781  0.05338393  0.62294227  1
  Ti  Ti10  1  0.20171732  0.33128506  0.55627147  1
  O  O11  1  0.24217982  0.36091333  0.16112052  1
  O  O12  1  0.93097950  0.16436268  0.50027613  1
  O  O13  1  0.78577968  0.86715239  0.19684296  1
  O  O14  1  0.07207047  0.46362340  0.94733297  1
