# generated using pymatgen
data_Li2YP2(IO)4
_symmetry_space_group_name_H-M   'P 1'
_cell_length_a   8.47320913
_cell_length_b   8.25436430
_cell_length_c   7.06989781
_cell_angle_alpha   90.00000000
_cell_angle_beta   90.00000000
_cell_angle_gamma   90.00000000
_symmetry_Int_Tables_number   1
_chemical_formula_structural   Li2YP2(IO)4
_chemical_formula_sum   'Li2 Y1 P2 I4 O4'
_cell_volume   494.47540393
_cell_formula_units_Z   1
loop_
 _symmetry_equiv_pos_site_id
 _symmetry_equiv_pos_as_xyz
  1  'x, y, z'
loop_
 _atom_site_type_symbol
 _atom_site_label
 _atom_site_symmetry_multiplicity
 _atom_site_fract_x
 _atom_site_fract_y
 _atom_site_fract_z
 _atom_site_occupancy
  P  P0  1  0.00000000  0.00000000  0.00000000  1
  P  P1  1  0.50000000  0.50000000  0.50000000  1
  I  I2  1  0.25000000  0.25000000  0.25000000  1
  I  I3  1  0.75000000  0.25000000  0.00000000  1
  I  I4  1  0.25000000  0.75000000  0.50000000  1
  I  I5  1  0.04561431  0.28980319  0.66028227  1
  Li  Li6  1  0.30221728  0.67137257  0.83410606  1
  Li  Li7  1  0.80469342  0.09403767  0.08639270  1
  Y  Y8  1  0.82254964  0.12634748  0.76980500  1
  O  O9  1  0.12543288  0.71454907  0.86951231  1
  O  O10  1  0.06737661  0.85756563  0.07610621  1
  O  O11  1  0.14370584  0.66292657  0.32875113  1
  O  O12  1  0.84273106  0.82373123  0.59080242  1
