# generated using pymatgen
data_Li2MnSb4P3
_symmetry_space_group_name_H-M   'P 1'
_cell_length_a   6.16606304
_cell_length_b   6.61800322
_cell_length_c   7.33046450
_cell_angle_alpha   95.04245482
_cell_angle_beta   93.27666291
_cell_angle_gamma   95.36339916
_symmetry_Int_Tables_number   1
_chemical_formula_structural   Li2MnSb4P3
_chemical_formula_sum   'Li2 Mn1 Sb4 P3'
_cell_volume   296.02697080
_cell_formula_units_Z   1
loop_
 _symmetry_equiv_pos_site_id
 _symmetry_equiv_pos_as_xyz
  1  'x, y, z'
loop_
 _atom_site_type_symbol
 _atom_site_label
 _atom_site_symmetry_multiplicity
 _atom_site_fract_x
 _atom_site_fract_y
 _atom_site_fract_z
 _atom_site_occupancy
  Mn  Mn0  1  0.00000000  0.00000000  0.00000000  1
  Sb  Sb1  1  0.50000000  0.50000000  0.50000000  1
  Sb  Sb2  1  0.50000000  0.50000000  0.00000000  1
  Sb  Sb3  1  0.50000000  0.00000000  0.50000000  1
  Sb  Sb4  1  0.00000000  0.50000000  0.50000000  1
  P  P5  1  0.42261829  0.16594062  0.18012282  1
  P  P6  1  0.44766205  0.38813335  0.25865109  1
  P  P7  1  0.57457881  0.68874279  0.31625537  1
  Li  Li8  1  0.37766374  0.36860624  0.70941407  1
  Li  Li9  1  0.66277044  0.50483477  0.97834414  1
