# generated using pymatgen
data_Li3La2Al2Sb
_symmetry_space_group_name_H-M   'P 1'
_cell_length_a   8.29872296
_cell_length_b   7.29067718
_cell_length_c   7.15753676
_cell_angle_alpha   90.00000000
_cell_angle_beta   90.00000000
_cell_angle_gamma   90.00000000
_symmetry_Int_Tables_number   1
_chemical_formula_structural   Li3La2Al2Sb
_chemical_formula_sum   'Li3 La2 Al2 Sb1'
_cell_volume   433.05466599
_cell_formula_units_Z   1
loop_
 _symmetry_equiv_pos_site_id
 _symmetry_equiv_pos_as_xyz
  1  'x, y, z'
loop_
 _atom_site_type_symbol
 _atom_site_label
 _atom_site_symmetry_multiplicity
 _atom_site_fract_x
 _atom_site_fract_y
 _atom_site_fract_z
 _atom_site_occupancy
  Al  Al0  1  0.00000000  0.00000000  0.00000000  1
  Al  Al1  1  0.33300000  0.66700000  0.25000000  1
  Sb  Sb2  1  0.66700000  0.33300000  0.50000000  1
  La  La3  1  0.00000000  0.00000000  0.75000000  1
  La  La4  1  0.23401709  0.13759183  0.14200819  1
  Li  Li5  1  0.68010295  0.26442241  0.36498941  1
  Li  Li6  1  0.20562813  0.67097912  0.41956630  1
  Li  Li7  1  0.99462352  0.53826284  0.89826430  1
