# generated using pymatgen
data_Li2Ti(P3O)2
_symmetry_space_group_name_H-M   'P 1'
_cell_length_a   7.34877423
_cell_length_b   7.06966859
_cell_length_c   7.14946534
_cell_angle_alpha   95.11196167
_cell_angle_beta   96.93336152
_cell_angle_gamma   94.83256084
_symmetry_Int_Tables_number   1
_chemical_formula_structural   Li2Ti(P3O)2
_chemical_formula_sum   'Li2 Ti1 P6 O2'
_cell_volume   365.55702621
_cell_formula_units_Z   1
loop_
 _symmetry_equiv_pos_site_id
 _symmetry_equiv_pos_as_xyz
  1  'x, y, z'
loop_
 _atom_site_type_symbol
 _atom_site_label
 _atom_site_symmetry_multiplicity
 _atom_site_fract_x
 _atom_site_fract_y
 _atom_site_fract_z
 _atom_site_occupancy
  P  P0  1  0.12500000  0.00000000  0.25000000  1
  P  P1  1  0.00000000  0.00000000  0.00000000  1
  P  P2  1  0.37500000  0.00000000  0.25000000  1
  P  P3  1  0.25000000  0.25000000  0.25000000  1
  P  P4  1  0.00000000  0.25000000  0.12500000  1
  P  P5  1  0.26734243  0.67101618  0.87883364  1
  Li  Li6  1  0.64098943  0.44721743  0.47276013  1
  Li  Li7  1  0.99788850  0.41687828  0.66457132  1
  Ti  Ti8  1  0.50465867  0.07116949  0.62591447  1
  O  O9  1  0.03456252  0.73080227  0.01741043  1
  O  O10  1  0.23966543  0.22116696  0.09638928  1
