# generated using pymatgen
data_Li4LuTi(SI2)2
_symmetry_space_group_name_H-M   'P 1'
_cell_length_a   6.38422345
_cell_length_b   6.02432803
_cell_length_c   7.71186307
_cell_angle_alpha   96.49759857
_cell_angle_beta   96.09745506
_cell_angle_gamma   96.20427390
_symmetry_Int_Tables_number   1
_chemical_formula_structural   Li4LuTi(SI2)2
_chemical_formula_sum   'Li4 Lu1 Ti1 S2 I4'
_cell_volume   290.85789987
_cell_formula_units_Z   1
loop_
 _symmetry_equiv_pos_site_id
 _symmetry_equiv_pos_as_xyz
  1  'x, y, z'
loop_
 _atom_site_type_symbol
 _atom_site_label
 _atom_site_symmetry_multiplicity
 _atom_site_fract_x
 _atom_site_fract_y
 _atom_site_fract_z
 _atom_site_occupancy
  I  I0  1  0.00000000  0.00000000  0.00000000  1
  I  I1  1  0.50000000  0.50000000  0.50000000  1
  I  I2  1  0.50000000  0.50000000  0.00000000  1
  I  I3  1  0.50000000  0.00000000  0.50000000  1
  Lu  Lu4  1  0.00000000  0.50000000  0.50000000  1
  Li  Li5  1  0.25689530  0.75918825  0.66479034  1
  Li  Li6  1  0.06945627  0.86636961  0.77325577  1
  Li  Li7  1  0.62828838  0.79369006  0.00708630  1
  Li  Li8  1  0.68551633  0.93901830  0.63687352  1
  S  S9  1  0.38943184  0.36465018  0.71468125  1
  S  S10  1  0.16814147  0.23654659  0.94203874  1
  Ti  Ti11  1  0.91168857  0.89995500  0.46710617  1
