# generated using pymatgen
data_Li4TiP3SeO2
_symmetry_space_group_name_H-M   'P 1'
_cell_length_a   5.43405359
_cell_length_b   5.04214231
_cell_length_c   6.83996931
_cell_angle_alpha   101.30266828
_cell_angle_beta   103.91536765
_cell_angle_gamma   100.48238990
_symmetry_Int_Tables_number   1
_chemical_formula_structural   Li4TiP3SeO2
_chemical_formula_sum   'Li4 Ti1 P3 Se1 O2'
_cell_volume   173.13925545
_cell_formula_units_Z   1
loop_
 _symmetry_equiv_pos_site_id
 _symmetry_equiv_pos_as_xyz
  1  'x, y, z'
loop_
 _atom_site_type_symbol
 _atom_site_label
 _atom_site_symmetry_multiplicity
 _atom_site_fract_x
 _atom_site_fract_y
 _atom_site_fract_z
 _atom_site_occupancy
  P  P0  1  0.00000000  0.00000000  0.00000000  1
  P  P1  1  0.50000000  0.50000000  0.50000000  1
  P  P2  1  0.50000000  0.50000000  0.00000000  1
  Li  Li3  1  0.50000000  0.00000000  0.50000000  1
  Li  Li4  1  0.00000000  0.50000000  0.50000000  1
  Li  Li5  1  0.12272884  0.07198622  0.41694907  1
  Li  Li6  1  0.89901930  0.47399345  0.30106374  1
  Se  Se7  1  0.12710075  0.92648474  0.57675953  1
  Ti  Ti8  1  0.03419314  0.09115287  0.84311252  1
  O  O9  1  0.91885671  0.17477878  0.60645624  1
  O  O10  1  0.48865667  0.37536149  0.62497354  1
