# generated using pymatgen
data_Li4Ti2Ni2P3O4
_symmetry_space_group_name_H-M   'P 1'
_cell_length_a   8.20562894
_cell_length_b   7.91873254
_cell_length_c   8.27208539
_cell_angle_alpha   90.00000000
_cell_angle_beta   90.00000000
_cell_angle_gamma   90.00000000
_symmetry_Int_Tables_number   1
_chemical_formula_structural   Li4Ti2Ni2P3O4
_chemical_formula_sum   'Li4 Ti2 Ni2 P3 O4'
_cell_volume   537.50506076
_cell_formula_units_Z   1
loop_
 _symmetry_equiv_pos_site_id
 _symmetry_equiv_pos_as_xyz
  1  'x, y, z'
loop_
 _atom_site_type_symbol
 _atom_site_label
 _atom_site_symmetry_multiplicity
 _atom_site_fract_x
 _atom_site_fract_y
 _atom_site_fract_z
 _atom_site_occupancy
  P  P0  1  0.12500000  0.00000000  0.25000000  1
  P  P1  1  0.00000000  0.00000000  0.00000000  1
  P  P2  1  0.37500000  0.00000000  0.25000000  1
  Li  Li3  1  0.25000000  0.25000000  0.25000000  1
  Li  Li4  1  0.00000000  0.25000000  0.12500000  1
  Li  Li5  1  0.90880769  0.97875308  0.16394655  1
  Li  Li6  1  0.53462355  0.44342793  0.74181840  1
  Ni  Ni7  1  0.38318639  0.96929755  0.85434360  1
  Ni  Ni8  1  0.29715106  0.76794572  0.44638329  1
  Ti  Ti9  1  0.40665822  0.30671971  0.60899189  1
  Ti  Ti10  1  0.07207192  0.08980875  0.98271820  1
  O  O11  1  0.89909311  0.49575017  0.87730032  1
  O  O12  1  0.37889439  0.34216985  0.99785919  1
  O  O13  1  0.86200587  0.64088554  0.81722615  1
  O  O14  1  0.48445516  0.98897164  0.50530584  1
