# generated using pymatgen
data_LiMn2Ni3Sb4P3
_symmetry_space_group_name_H-M   'P 1'
_cell_length_a   5.28533355
_cell_length_b   5.40512206
_cell_length_c   6.49913748
_cell_angle_alpha   96.54737538
_cell_angle_beta   93.46204133
_cell_angle_gamma   96.93719376
_symmetry_Int_Tables_number   1
_chemical_formula_structural   LiMn2Ni3Sb4P3
_chemical_formula_sum   'Li1 Mn2 Ni3 Sb4 P3'
_cell_volume   182.58680657
_cell_formula_units_Z   1
loop_
 _symmetry_equiv_pos_site_id
 _symmetry_equiv_pos_as_xyz
  1  'x, y, z'
loop_
 _atom_site_type_symbol
 _atom_site_label
 _atom_site_symmetry_multiplicity
 _atom_site_fract_x
 _atom_site_fract_y
 _atom_site_fract_z
 _atom_site_occupancy
  Ni  Ni0  1  0.00000000  0.00000000  0.00000000  1
  Ni  Ni1  1  0.50000000  0.50000000  0.50000000  1
  Ni  Ni2  1  0.50000000  0.50000000  0.00000000  1
  Mn  Mn3  1  0.50000000  0.00000000  0.50000000  1
  Mn  Mn4  1  0.00000000  0.50000000  0.50000000  1
  Sb  Sb5  1  0.18151792  0.89147647  0.72120199  1
  Sb  Sb6  1  0.22907741  0.16831467  0.85106736  1
  Sb  Sb7  1  0.19899368  0.60322981  0.59317294  1
  Sb  Sb8  1  0.19572449  0.32345163  0.64747958  1
  P  P9  1  0.65703315  0.43319515  0.59349624  1
  P  P10  1  0.72325668  0.36522630  0.67125475  1
  P  P11  1  0.02968855  0.49034437  0.09590206  1
  Li  Li12  1  0.45696616  0.32229486  0.20862103  1
