# generated using pymatgen
data_Li2Mn2Sb4P3
_symmetry_space_group_name_H-M   'P 1'
_cell_length_a   6.00597749
_cell_length_b   6.45059836
_cell_length_c   6.91785229
_cell_angle_alpha   96.32592785
_cell_angle_beta   91.96390657
_cell_angle_gamma   96.42959537
_symmetry_Int_Tables_number   1
_chemical_formula_structural   Li2Mn2Sb4P3
_chemical_formula_sum   'Li2 Mn2 Sb4 P3'
_cell_volume   264.41019579
_cell_formula_units_Z   1
loop_
 _symmetry_equiv_pos_site_id
 _symmetry_equiv_pos_as_xyz
  1  'x, y, z'
loop_
 _atom_site_type_symbol
 _atom_site_label
 _atom_site_symmetry_multiplicity
 _atom_site_fract_x
 _atom_site_fract_y
 _atom_site_fract_z
 _atom_site_occupancy
  Mn  Mn0  1  0.00000000  0.00000000  0.00000000  1
  Mn  Mn1  1  0.50000000  0.50000000  0.50000000  1
  Sb  Sb2  1  0.50000000  0.50000000  0.00000000  1
  Sb  Sb3  1  0.50000000  0.00000000  0.50000000  1
  Sb  Sb4  1  0.00000000  0.50000000  0.50000000  1
  Sb  Sb5  1  0.08791042  0.64879435  0.18617136  1
  P  P6  1  0.49049252  0.44921909  0.24883660  1
  P  P7  1  0.87067546  0.09180804  0.88914353  1
  P  P8  1  0.70330205  0.56202399  0.84225220  1
  Li  Li9  1  0.46885932  0.48346548  0.75308843  1
  Li  Li10  1  0.61878061  0.78290135  0.28927695  1
