# generated using pymatgen
data_Li3Ti2Cu2N5
_symmetry_space_group_name_H-M   'P 1'
_cell_length_a   6.99691835
_cell_length_b   6.98027704
_cell_length_c   7.55376928
_cell_angle_alpha   95.52643201
_cell_angle_beta   96.30126875
_cell_angle_gamma   96.96174747
_symmetry_Int_Tables_number   1
_chemical_formula_structural   Li3Ti2Cu2N5
_chemical_formula_sum   'Li3 Ti2 Cu2 N5'
_cell_volume   361.74372427
_cell_formula_units_Z   1
loop_
 _symmetry_equiv_pos_site_id
 _symmetry_equiv_pos_as_xyz
  1  'x, y, z'
loop_
 _atom_site_type_symbol
 _atom_site_label
 _atom_site_symmetry_multiplicity
 _atom_site_fract_x
 _atom_site_fract_y
 _atom_site_fract_z
 _atom_site_occupancy
  Li  Li0  1  0.00000000  0.00000000  0.00000000  1
  Li  Li1  1  0.50000000  0.50000000  0.50000000  1
  Li  Li2  1  0.50000000  0.50000000  0.00000000  1
  Cu  Cu3  1  0.50000000  0.00000000  0.50000000  1
  Cu  Cu4  1  0.00000000  0.50000000  0.50000000  1
  Ti  Ti5  1  0.08754780  0.62818491  0.42733318  1
  Ti  Ti6  1  0.38745438  0.51961640  0.32941623  1
  N  N7  1  0.87418554  0.74891075  0.47214867  1
  N  N8  1  0.64916408  0.72437638  0.51390006  1
  N  N9  1  0.42061590  0.09045127  0.23714847  1
  N  N10  1  0.49924990  0.24905940  0.23072658  1
  N  N11  1  0.97106989  0.42618366  0.63960345  1
