# generated using pymatgen
data_Li2SbMo2F4
_symmetry_space_group_name_H-M   'P 1'
_cell_length_a   6.31673383
_cell_length_b   6.61874068
_cell_length_c   5.99199656
_cell_angle_alpha   90.12668070
_cell_angle_beta   87.90905581
_cell_angle_gamma   89.15253978
_symmetry_Int_Tables_number   1
_chemical_formula_structural   Li2SbMo2F4
_chemical_formula_sum   'Li2 Sb1 Mo2 F4'
_cell_volume   250.32318975
_cell_formula_units_Z   1
loop_
 _symmetry_equiv_pos_site_id
 _symmetry_equiv_pos_as_xyz
  1  'x, y, z'
loop_
 _atom_site_type_symbol
 _atom_site_label
 _atom_site_symmetry_multiplicity
 _atom_site_fract_x
 _atom_site_fract_y
 _atom_site_fract_z
 _atom_site_occupancy
  F  F0  1  0.00000000  0.00000000  0.00000000  1
  F  F1  1  0.33300000  0.66700000  0.25000000  1
  F  F2  1  0.66700000  0.33300000  0.50000000  1
  F  F3  1  0.00000000  0.00000000  0.75000000  1
  Sb  Sb4  1  0.86409235  0.18772262  0.88740709  1
  Mo  Mo5  1  0.24865998  0.12935309  0.88385021  1
  Mo  Mo6  1  0.30687123  0.74205458  0.01932304  1
  Li  Li7  1  0.38796373  0.04609846  0.43007543  1
  Li  Li8  1  0.16967597  0.71523602  0.68426745  1
