# generated using pymatgen
data_Li3Ti2P2O3
_symmetry_space_group_name_H-M   'P 1'
_cell_length_a   6.20943566
_cell_length_b   6.10695071
_cell_length_c   7.12476992
_cell_angle_alpha   95.81765601
_cell_angle_beta   96.58572961
_cell_angle_gamma   95.54743100
_symmetry_Int_Tables_number   1
_chemical_formula_structural   Li3Ti2P2O3
_chemical_formula_sum   'Li3 Ti2 P2 O3'
_cell_volume   265.40332524
_cell_formula_units_Z   1
loop_
 _symmetry_equiv_pos_site_id
 _symmetry_equiv_pos_as_xyz
  1  'x, y, z'
loop_
 _atom_site_type_symbol
 _atom_site_label
 _atom_site_symmetry_multiplicity
 _atom_site_fract_x
 _atom_site_fract_y
 _atom_site_fract_z
 _atom_site_occupancy
  P  P0  1  0.00000000  0.00000000  0.00000000  1
  P  P1  1  0.33300000  0.66700000  0.25000000  1
  Li  Li2  1  0.66700000  0.33300000  0.50000000  1
  Li  Li3  1  0.00000000  0.00000000  0.75000000  1
  Li  Li4  1  0.06854243  0.52784396  0.73533316  1
  Ti  Ti5  1  0.63959379  0.17054364  0.97545076  1
  Ti  Ti6  1  0.55497048  0.04704478  0.88321017  1
  O  O7  1  0.18634003  0.80659172  0.86133171  1
  O  O8  1  0.63142410  0.18482010  0.01899132  1
  O  O9  1  0.83158084  0.82159882  0.84651068  1
