# generated using pymatgen
data_Li3Ti2I4ClF3
_symmetry_space_group_name_H-M   'P 1'
_cell_length_a   5.58881284
_cell_length_b   5.23688909
_cell_length_c   7.20022735
_cell_angle_alpha   96.68501740
_cell_angle_beta   98.58237936
_cell_angle_gamma   96.09742024
_symmetry_Int_Tables_number   1
_chemical_formula_structural   Li3Ti2I4ClF3
_chemical_formula_sum   'Li3 Ti2 I4 Cl1 F3'
_cell_volume   205.31433050
_cell_formula_units_Z   1
loop_
 _symmetry_equiv_pos_site_id
 _symmetry_equiv_pos_as_xyz
  1  'x, y, z'
loop_
 _atom_site_type_symbol
 _atom_site_label
 _atom_site_symmetry_multiplicity
 _atom_site_fract_x
 _atom_site_fract_y
 _atom_site_fract_z
 _atom_site_occupancy
  I  I0  1  0.00000000  0.00000000  0.00000000  1
  I  I1  1  0.50000000  0.50000000  0.50000000  1
  I  I2  1  0.25000000  0.25000000  0.25000000  1
  I  I3  1  0.75000000  0.25000000  0.00000000  1
  Li  Li4  1  0.25000000  0.75000000  0.50000000  1
  Li  Li5  1  0.37707368  0.13229172  0.83261571  1
  Li  Li6  1  0.00659984  0.99525588  0.03916971  1
  F  F7  1  0.52605550  0.95225984  0.24760791  1
  F  F8  1  0.15029697  0.50734076  0.81817232  1
  F  F9  1  0.99448892  0.80886122  0.77023514  1
  Cl  Cl10  1  0.49372417  0.15409898  0.80644827  1
  Ti  Ti11  1  0.98679151  0.95818088  0.34848436  1
  Ti  Ti12  1  0.39058687  0.32596909  0.36655621  1
