# generated using pymatgen
data_Li4TiP3I4O3
_symmetry_space_group_name_H-M   'P 1'
_cell_length_a   5.10171273
_cell_length_b   4.75018108
_cell_length_c   6.78683983
_cell_angle_alpha   102.75123516
_cell_angle_beta   106.12804499
_cell_angle_gamma   101.87829862
_symmetry_Int_Tables_number   1
_chemical_formula_structural   Li4TiP3I4O3
_chemical_formula_sum   'Li4 Ti1 P3 I4 O3'
_cell_volume   147.70628429
_cell_formula_units_Z   1
loop_
 _symmetry_equiv_pos_site_id
 _symmetry_equiv_pos_as_xyz
  1  'x, y, z'
loop_
 _atom_site_type_symbol
 _atom_site_label
 _atom_site_symmetry_multiplicity
 _atom_site_fract_x
 _atom_site_fract_y
 _atom_site_fract_z
 _atom_site_occupancy
  I  I0  1  0.00000000  0.00000000  0.00000000  1
  I  I1  1  0.50000000  0.50000000  0.50000000  1
  I  I2  1  0.25000000  0.25000000  0.25000000  1
  I  I3  1  0.75000000  0.25000000  0.00000000  1
  P  P4  1  0.25000000  0.75000000  0.50000000  1
  P  P5  1  0.61046427  0.69707402  0.28818464  1
  P  P6  1  0.76386822  0.59493860  0.79898232  1
  Li  Li7  1  0.13955232  0.02193250  0.76821072  1
  Li  Li8  1  0.13674435  0.63314134  0.20230746  1
  Li  Li9  1  0.66065756  0.59940844  0.53247900  1
  Li  Li10  1  0.54182945  0.13948790  0.85778916  1
  Ti  Ti11  1  0.35480478  0.60730051  0.40903194  1
  O  O12  1  0.78674935  0.18532503  0.96604217  1
  O  O13  1  0.98159869  0.76268953  0.25942583  1
  O  O14  1  0.41258637  0.92192336  0.05573922  1
