# generated using pymatgen
data_Li3Ni2As6O7F3
_symmetry_space_group_name_H-M   'P 1'
_cell_length_a   7.83680799
_cell_length_b   7.79045193
_cell_length_c   8.95354978
_cell_angle_alpha   90.27673238
_cell_angle_beta   91.60900384
_cell_angle_gamma   90.30645050
_symmetry_Int_Tables_number   1
_chemical_formula_structural   Li3Ni2As6O7F3
_chemical_formula_sum   'Li3 Ni2 As6 O7 F3'
_cell_volume   546.40446452
_cell_formula_units_Z   1
loop_
 _symmetry_equiv_pos_site_id
 _symmetry_equiv_pos_as_xyz
  1  'x, y, z'
loop_
 _atom_site_type_symbol
 _atom_site_label
 _atom_site_symmetry_multiplicity
 _atom_site_fract_x
 _atom_site_fract_y
 _atom_site_fract_z
 _atom_site_occupancy
  Li  Li0  1  0.12500000  0.00000000  0.25000000  1
  Li  Li1  1  0.00000000  0.00000000  0.00000000  1
  Li  Li2  1  0.37500000  0.00000000  0.25000000  1
  F  F3  1  0.25000000  0.25000000  0.25000000  1
  F  F4  1  0.00000000  0.25000000  0.12500000  1
  F  F5  1  0.70315118  0.27650606  0.14481851  1
  Ni  Ni6  1  0.33481978  0.38038535  0.76666007  1
  Ni  Ni7  1  0.84929437  0.31659872  0.61900290  1
  As  As8  1  0.77928903  0.23457666  0.74044367  1
  As  As9  1  0.20917302  0.59305900  0.74408394  1
  As  As10  1  0.03046553  0.17378322  0.86865508  1
  As  As11  1  0.30617580  0.10154240  0.53712958  1
  As  As12  1  0.48965818  0.05679533  0.41731239  1
  As  As13  1  0.12815416  0.35248364  0.89960917  1
  O  O14  1  0.09834089  0.30859247  0.75025055  1
  O  O15  1  0.20675231  0.24095455  0.99062520  1
  O  O16  1  0.99049484  0.53877183  0.37198629  1
  O  O17  1  0.67214198  0.11539780  0.68466217  1
  O  O18  1  0.16761933  0.81492915  0.00377471  1
  O  O19  1  0.53957098  0.90515180  0.74591820  1
  O  O20  1  0.28786556  0.95936224  0.56765359  1
