# generated using pymatgen
data_Li2Sb4Mo2P3
_symmetry_space_group_name_H-M   'P 1'
_cell_length_a   5.07649489
_cell_length_b   5.41587407
_cell_length_c   6.61708772
_cell_angle_alpha   99.59743887
_cell_angle_beta   93.61548970
_cell_angle_gamma   99.84328106
_symmetry_Int_Tables_number   1
_chemical_formula_structural   Li2Sb4Mo2P3
_chemical_formula_sum   'Li2 Sb4 Mo2 P3'
_cell_volume   175.95416826
_cell_formula_units_Z   1
loop_
 _symmetry_equiv_pos_site_id
 _symmetry_equiv_pos_as_xyz
  1  'x, y, z'
loop_
 _atom_site_type_symbol
 _atom_site_label
 _atom_site_symmetry_multiplicity
 _atom_site_fract_x
 _atom_site_fract_y
 _atom_site_fract_z
 _atom_site_occupancy
  Sb  Sb0  1  0.12500000  0.12500000  0.12500000  1
  Sb  Sb1  1  0.50000000  0.50000000  0.50000000  1
  Sb  Sb2  1  0.25000000  0.25000000  0.25000000  1
  Sb  Sb3  1  0.75000000  0.75000000  0.75000000  1
  P  P4  1  0.58928441  0.64820301  0.20663215  1
  P  P5  1  0.99049006  0.87439269  0.48368499  1
  P  P6  1  0.39494709  0.18351291  0.54946543  1
  Mo  Mo7  1  0.54044056  0.86787561  0.27844652  1
  Mo  Mo8  1  0.79482315  0.16040761  0.11484268  1
  Li  Li9  1  0.82378403  0.78224007  0.54415415  1
  Li  Li10  1  0.08002020  0.16445591  0.94135217  1
