# generated using pymatgen
data_Li2Ti3Cu2(SO)2
_symmetry_space_group_name_H-M   'P 1'
_cell_length_a   4.88052361
_cell_length_b   4.73433040
_cell_length_c   6.63866619
_cell_angle_alpha   99.71393611
_cell_angle_beta   103.30193035
_cell_angle_gamma   101.07837772
_symmetry_Int_Tables_number   1
_chemical_formula_structural   Li2Ti3Cu2(SO)2
_chemical_formula_sum   'Li2 Ti3 Cu2 S2 O2'
_cell_volume   142.80814748
_cell_formula_units_Z   1
loop_
 _symmetry_equiv_pos_site_id
 _symmetry_equiv_pos_as_xyz
  1  'x, y, z'
loop_
 _atom_site_type_symbol
 _atom_site_label
 _atom_site_symmetry_multiplicity
 _atom_site_fract_x
 _atom_site_fract_y
 _atom_site_fract_z
 _atom_site_occupancy
  Li  Li0  1  0.00000000  0.00000000  0.00000000  1
  Li  Li1  1  0.50000000  0.50000000  0.50000000  1
  Cu  Cu2  1  0.25000000  0.25000000  0.25000000  1
  Cu  Cu3  1  0.75000000  0.25000000  0.00000000  1
  S  S4  1  0.25000000  0.75000000  0.50000000  1
  S  S5  1  0.26465235  0.14542825  0.38271925  1
  Ti  Ti6  1  0.35998443  0.92658254  0.88886274  1
  Ti  Ti7  1  0.00050933  0.73295149  0.94844897  1
  Ti  Ti8  1  0.37939337  0.97219357  0.41055066  1
  O  O9  1  0.66610958  0.00274526  0.93168446  1
  O  O10  1  0.69491334  0.47032956  0.83662979  1
