# generated using pymatgen
data_Li4ZrTiP7O2
_symmetry_space_group_name_H-M   'P 1'
_cell_length_a   8.00196529
_cell_length_b   7.92922260
_cell_length_c   7.77981899
_cell_angle_alpha   92.55083517
_cell_angle_beta   93.39570004
_cell_angle_gamma   92.40769181
_symmetry_Int_Tables_number   1
_chemical_formula_structural   Li4ZrTiP7O2
_chemical_formula_sum   'Li4 Zr1 Ti1 P7 O2'
_cell_volume   491.77607600
_cell_formula_units_Z   1
loop_
 _symmetry_equiv_pos_site_id
 _symmetry_equiv_pos_as_xyz
  1  'x, y, z'
loop_
 _atom_site_type_symbol
 _atom_site_label
 _atom_site_symmetry_multiplicity
 _atom_site_fract_x
 _atom_site_fract_y
 _atom_site_fract_z
 _atom_site_occupancy
  P  P0  1  0.12500000  0.00000000  0.25000000  1
  P  P1  1  0.00000000  0.00000000  0.00000000  1
  P  P2  1  0.37500000  0.00000000  0.25000000  1
  P  P3  1  0.25000000  0.25000000  0.25000000  1
  P  P4  1  0.00000000  0.25000000  0.12500000  1
  P  P5  1  0.25760157  0.30024712  0.56858484  1
  P  P6  1  0.94864560  0.38357197  0.73502541  1
  Li  Li7  1  0.98698061  0.12849652  0.16921864  1
  Li  Li8  1  0.38946970  0.86031523  0.99460874  1
  Li  Li9  1  0.16003154  0.91030680  0.88726309  1
  Li  Li10  1  0.86407534  0.74574837  0.43685906  1
  Ti  Ti11  1  0.76034346  0.92098721  0.49246441  1
  O  O12  1  0.57564433  0.93405708  0.21069358  1
  O  O13  1  0.16326491  0.91991300  0.67215226  1
  Zr  Zr14  1  0.29595923  0.56507929  0.61625728  1
