# generated using pymatgen
data_Li2MnSb2P3N5
_symmetry_space_group_name_H-M   'P 1'
_cell_length_a   6.07295725
_cell_length_b   6.42501424
_cell_length_c   7.08922803
_cell_angle_alpha   96.24379830
_cell_angle_beta   91.44870461
_cell_angle_gamma   96.19600342
_symmetry_Int_Tables_number   1
_chemical_formula_structural   Li2MnSb2P3N5
_chemical_formula_sum   'Li2 Mn1 Sb2 P3 N5'
_cell_volume   273.17446952
_cell_formula_units_Z   1
loop_
 _symmetry_equiv_pos_site_id
 _symmetry_equiv_pos_as_xyz
  1  'x, y, z'
loop_
 _atom_site_type_symbol
 _atom_site_label
 _atom_site_symmetry_multiplicity
 _atom_site_fract_x
 _atom_site_fract_y
 _atom_site_fract_z
 _atom_site_occupancy
  N  N0  1  0.00000000  0.00000000  0.00000000  1
  N  N1  1  0.50000000  0.50000000  0.50000000  1
  N  N2  1  0.25000000  0.25000000  0.25000000  1
  N  N3  1  0.75000000  0.25000000  0.00000000  1
  N  N4  1  0.25000000  0.75000000  0.50000000  1
  Mn  Mn5  1  0.57012452  0.66540063  0.87989188  1
  Sb  Sb6  1  0.34311833  0.66365713  0.87728319  1
  Sb  Sb7  1  0.38051865  0.71610664  0.99454444  1
  P  P8  1  0.82583860  0.80313712  0.71952847  1
  P  P9  1  0.26225092  0.75163415  0.01739218  1
  P  P10  1  0.13203484  0.41547426  0.93092522  1
  Li  Li11  1  0.92601127  0.79890556  0.15077731  1
  Li  Li12  1  0.36152852  0.04178244  0.73609663  1
