# generated using pymatgen
data_Li2Ti2P3(SF)2
_symmetry_space_group_name_H-M   'P 1'
_cell_length_a   7.41357047
_cell_length_b   7.03936214
_cell_length_c   7.48710065
_cell_angle_alpha   91.77805942
_cell_angle_beta   93.34707795
_cell_angle_gamma   91.69259904
_symmetry_Int_Tables_number   1
_chemical_formula_structural   Li2Ti2P3(SF)2
_chemical_formula_sum   'Li2 Ti2 P3 S2 F2'
_cell_volume   389.68109936
_cell_formula_units_Z   1
loop_
 _symmetry_equiv_pos_site_id
 _symmetry_equiv_pos_as_xyz
  1  'x, y, z'
loop_
 _atom_site_type_symbol
 _atom_site_label
 _atom_site_symmetry_multiplicity
 _atom_site_fract_x
 _atom_site_fract_y
 _atom_site_fract_z
 _atom_site_occupancy
  P  P0  1  0.00000000  0.00000000  0.00000000  1
  P  P1  1  0.50000000  0.50000000  0.50000000  1
  P  P2  1  0.50000000  0.50000000  0.00000000  1
  Li  Li3  1  0.50000000  0.00000000  0.50000000  1
  Li  Li4  1  0.00000000  0.50000000  0.50000000  1
  F  F5  1  0.59717230  0.15001221  0.36067316  1
  F  F6  1  0.45947677  0.44126378  0.88483534  1
  S  S7  1  0.45604380  0.61667536  0.89373691  1
  S  S8  1  0.56076374  0.56089714  0.86085676  1
  Ti  Ti9  1  0.31931816  0.94998994  0.78907245  1
  Ti  Ti10  1  0.97695578  0.76285561  0.83384565  1
