# generated using pymatgen
data_Li4LuP4N5O2
_symmetry_space_group_name_H-M   'P 1'
_cell_length_a   6.07098715
_cell_length_b   6.13226881
_cell_length_c   7.61223426
_cell_angle_alpha   98.30864993
_cell_angle_beta   99.69522874
_cell_angle_gamma   100.49469017
_symmetry_Int_Tables_number   1
_chemical_formula_structural   Li4LuP4N5O2
_chemical_formula_sum   'Li4 Lu1 P4 N5 O2'
_cell_volume   270.15098623
_cell_formula_units_Z   1
loop_
 _symmetry_equiv_pos_site_id
 _symmetry_equiv_pos_as_xyz
  1  'x, y, z'
loop_
 _atom_site_type_symbol
 _atom_site_label
 _atom_site_symmetry_multiplicity
 _atom_site_fract_x
 _atom_site_fract_y
 _atom_site_fract_z
 _atom_site_occupancy
  P  P0  1  0.00000000  0.00000000  0.00000000  1
  P  P1  1  0.50000000  0.50000000  0.50000000  1
  P  P2  1  0.25000000  0.25000000  0.25000000  1
  P  P3  1  0.75000000  0.25000000  0.00000000  1
  Lu  Lu4  1  0.25000000  0.75000000  0.50000000  1
  Li  Li5  1  0.75174220  0.26001173  0.88489344  1
  Li  Li6  1  0.46181185  0.06541605  0.04855543  1
  Li  Li7  1  0.02386407  0.84359966  0.24268591  1
  Li  Li8  1  0.75558634  0.02896182  0.00259646  1
  O  O9  1  0.32671075  0.46935942  0.22774739  1
  O  O10  1  0.15203959  0.98687946  0.67116806  1
  N  N11  1  0.90220158  0.44684246  0.70221379  1
  N  N12  1  0.14186053  0.11640006  0.84567299  1
  N  N13  1  0.28714615  0.74335396  0.29894274  1
  N  N14  1  0.01071508  0.59397574  0.95810758  1
  N  N15  1  0.10926258  0.30077680  0.47761053  1
