# generated using pymatgen
data_Li3Ti(I2O)2
_symmetry_space_group_name_H-M   'P 1'
_cell_length_a   7.01160284
_cell_length_b   6.72930923
_cell_length_c   7.04515537
_cell_angle_alpha   94.11090600
_cell_angle_beta   94.71688892
_cell_angle_gamma   93.71225025
_symmetry_Int_Tables_number   1
_chemical_formula_structural   Li3Ti(I2O)2
_chemical_formula_sum   'Li3 Ti1 I4 O2'
_cell_volume   329.59970157
_cell_formula_units_Z   1
loop_
 _symmetry_equiv_pos_site_id
 _symmetry_equiv_pos_as_xyz
  1  'x, y, z'
loop_
 _atom_site_type_symbol
 _atom_site_label
 _atom_site_symmetry_multiplicity
 _atom_site_fract_x
 _atom_site_fract_y
 _atom_site_fract_z
 _atom_site_occupancy
  I  I0  1  0.12500000  0.12500000  0.12500000  1
  I  I1  1  0.50000000  0.50000000  0.50000000  1
  I  I2  1  0.25000000  0.25000000  0.25000000  1
  I  I3  1  0.75000000  0.75000000  0.75000000  1
  Li  Li4  1  0.86519060  0.41029834  0.78360071  1
  Li  Li5  1  0.63770835  0.61540840  0.19697411  1
  Li  Li6  1  0.00576736  0.34196646  0.28567880  1
  Ti  Ti7  1  0.64836044  0.78750175  0.56169332  1
  O  O8  1  0.27455146  0.84539132  0.96713102  1
  O  O9  1  0.08461316  0.47878414  0.32904746  1
