# generated using pymatgen
data_LiNi3Mo2P3
_symmetry_space_group_name_H-M   'P 1'
_cell_length_a   4.62051870
_cell_length_b   4.66495501
_cell_length_c   6.17733976
_cell_angle_alpha   96.63642799
_cell_angle_beta   93.93984980
_cell_angle_gamma   97.06172876
_symmetry_Int_Tables_number   1
_chemical_formula_structural   LiNi3Mo2P3
_chemical_formula_sum   'Li1 Ni3 Mo2 P3'
_cell_volume   130.78895429
_cell_formula_units_Z   1
loop_
 _symmetry_equiv_pos_site_id
 _symmetry_equiv_pos_as_xyz
  1  'x, y, z'
loop_
 _atom_site_type_symbol
 _atom_site_label
 _atom_site_symmetry_multiplicity
 _atom_site_fract_x
 _atom_site_fract_y
 _atom_site_fract_z
 _atom_site_occupancy
  P  P0  1  0.12500000  0.00000000  0.25000000  1
  P  P1  1  0.00000000  0.00000000  0.00000000  1
  P  P2  1  0.37500000  0.00000000  0.25000000  1
  Mo  Mo3  1  0.25000000  0.25000000  0.25000000  1
  Mo  Mo4  1  0.00000000  0.25000000  0.12500000  1
  Li  Li5  1  0.99579529  0.70781772  0.55283611  1
  Ni  Ni6  1  0.63834246  0.87505726  0.35144674  1
  Ni  Ni7  1  0.88518523  0.01405802  0.10190549  1
  Ni  Ni8  1  0.50457639  0.95292091  0.74165310  1
