# generated using pymatgen
data_LiMn3(SbP)4
_symmetry_space_group_name_H-M   'P 1'
_cell_length_a   7.05395600
_cell_length_b   7.63243441
_cell_length_c   7.19662231
_cell_angle_alpha   90.09911001
_cell_angle_beta   90.35086673
_cell_angle_gamma   90.26872121
_symmetry_Int_Tables_number   1
_chemical_formula_structural   LiMn3(SbP)4
_chemical_formula_sum   'Li1 Mn3 Sb4 P4'
_cell_volume   387.44579090
_cell_formula_units_Z   1
loop_
 _symmetry_equiv_pos_site_id
 _symmetry_equiv_pos_as_xyz
  1  'x, y, z'
loop_
 _atom_site_type_symbol
 _atom_site_label
 _atom_site_symmetry_multiplicity
 _atom_site_fract_x
 _atom_site_fract_y
 _atom_site_fract_z
 _atom_site_occupancy
  Mn  Mn0  1  0.00000000  0.00000000  0.00000000  1
  Mn  Mn1  1  0.50000000  0.50000000  0.50000000  1
  Mn  Mn2  1  0.25000000  0.25000000  0.25000000  1
  Sb  Sb3  1  0.75000000  0.25000000  0.00000000  1
  Sb  Sb4  1  0.25000000  0.75000000  0.50000000  1
  Sb  Sb5  1  0.08547875  0.80731076  0.19350701  1
  Sb  Sb6  1  0.73420694  0.43808071  0.71615038  1
  P  P7  1  0.91000598  0.60134675  0.84399562  1
  P  P8  1  0.72040572  0.55890691  0.42688014  1
  P  P9  1  0.52285483  0.41688546  0.08342508  1
  P  P10  1  0.62505550  0.41053492  0.68941822  1
  Li  Li11  1  0.19603907  0.74647776  0.33290313  1
