# generated using pymatgen
data_Li2Ti2Ni2P5F2
_symmetry_space_group_name_H-M   'P 1'
_cell_length_a   7.79629586
_cell_length_b   7.56190312
_cell_length_c   8.44201135
_cell_angle_alpha   91.66026887
_cell_angle_beta   91.31442058
_cell_angle_gamma   91.92296707
_symmetry_Int_Tables_number   1
_chemical_formula_structural   Li2Ti2Ni2P5F2
_chemical_formula_sum   'Li2 Ti2 Ni2 P5 F2'
_cell_volume   497.06583947
_cell_formula_units_Z   1
loop_
 _symmetry_equiv_pos_site_id
 _symmetry_equiv_pos_as_xyz
  1  'x, y, z'
loop_
 _atom_site_type_symbol
 _atom_site_label
 _atom_site_symmetry_multiplicity
 _atom_site_fract_x
 _atom_site_fract_y
 _atom_site_fract_z
 _atom_site_occupancy
  P  P0  1  0.00000000  0.00000000  0.00000000  1
  P  P1  1  0.50000000  0.50000000  0.50000000  1
  P  P2  1  0.25000000  0.25000000  0.25000000  1
  P  P3  1  0.75000000  0.25000000  0.00000000  1
  P  P4  1  0.25000000  0.75000000  0.50000000  1
  Li  Li5  1  0.71368479  0.87399931  0.99181291  1
  Li  Li6  1  0.32300066  0.20549553  0.69809513  1
  F  F7  1  0.54257163  0.04000049  0.65781727  1
  F  F8  1  0.94411035  0.10058333  0.83328725  1
  Ni  Ni9  1  0.77378937  0.16041709  0.49069848  1
  Ni  Ni10  1  0.88294770  0.55026742  0.88160338  1
  Ti  Ti11  1  0.31299330  0.71877334  0.61084328  1
  Ti  Ti12  1  0.83694858  0.12660458  0.63123616  1
