# generated using pymatgen
data_LiMnSb4P3N5
_symmetry_space_group_name_H-M   'P 1'
_cell_length_a   5.51729801
_cell_length_b   5.81154529
_cell_length_c   6.66646038
_cell_angle_alpha   95.44167082
_cell_angle_beta   92.22486911
_cell_angle_gamma   95.80036526
_symmetry_Int_Tables_number   1
_chemical_formula_structural   LiMnSb4P3N5
_chemical_formula_sum   'Li1 Mn1 Sb4 P3 N5'
_cell_volume   211.44776059
_cell_formula_units_Z   1
loop_
 _symmetry_equiv_pos_site_id
 _symmetry_equiv_pos_as_xyz
  1  'x, y, z'
loop_
 _atom_site_type_symbol
 _atom_site_label
 _atom_site_symmetry_multiplicity
 _atom_site_fract_x
 _atom_site_fract_y
 _atom_site_fract_z
 _atom_site_occupancy
  N  N0  1  0.00000000  0.00000000  0.00000000  1
  N  N1  1  0.50000000  0.50000000  0.50000000  1
  N  N2  1  0.50000000  0.50000000  0.00000000  1
  N  N3  1  0.50000000  0.00000000  0.50000000  1
  N  N4  1  0.00000000  0.50000000  0.50000000  1
  Mn  Mn5  1  0.97484064  0.07257146  0.52571117  1
  Sb  Sb6  1  0.24336979  0.72310460  0.28951079  1
  Sb  Sb7  1  0.06546013  0.68972203  0.23056741  1
  Sb  Sb8  1  0.80064152  0.55276623  0.33263071  1
  Sb  Sb9  1  0.59465338  0.61122323  0.59394033  1
  P  P10  1  0.66003104  0.52743571  0.53245799  1
  P  P11  1  0.17047575  0.59259092  0.72885112  1
  P  P12  1  0.14928442  0.08440781  0.34897873  1
  Li  Li13  1  0.66272974  0.22683801  0.68438532  1
