# generated using pymatgen
data_LiMn(Sb2P)2
_symmetry_space_group_name_H-M   'P 1'
_cell_length_a   5.38080885
_cell_length_b   5.58871657
_cell_length_c   6.75402597
_cell_angle_alpha   98.00936946
_cell_angle_beta   93.83295047
_cell_angle_gamma   98.29674104
_symmetry_Int_Tables_number   1
_chemical_formula_structural   LiMn(Sb2P)2
_chemical_formula_sum   'Li1 Mn1 Sb4 P2'
_cell_volume   198.23446534
_cell_formula_units_Z   1
loop_
 _symmetry_equiv_pos_site_id
 _symmetry_equiv_pos_as_xyz
  1  'x, y, z'
loop_
 _atom_site_type_symbol
 _atom_site_label
 _atom_site_symmetry_multiplicity
 _atom_site_fract_x
 _atom_site_fract_y
 _atom_site_fract_z
 _atom_site_occupancy
  Mn  Mn0  1  0.00000000  0.00000000  0.00000000  1
  Sb  Sb1  1  0.33300000  0.66700000  0.25000000  1
  Sb  Sb2  1  0.66700000  0.33300000  0.50000000  1
  Sb  Sb3  1  0.00000000  0.00000000  0.75000000  1
  Sb  Sb4  1  0.78785440  0.62204290  0.74930110  1
  P  P5  1  0.30373022  0.59284708  0.04218526  1
  P  P6  1  0.11144427  0.41663826  0.84630252  1
  Li  Li7  1  0.90532579  0.18250261  0.92507385  1
