# generated using pymatgen
data_Li4VNi2BiO4
_symmetry_space_group_name_H-M   'P 1'
_cell_length_a   5.73674836
_cell_length_b   5.94469824
_cell_length_c   7.28106046
_cell_angle_alpha   104.56157007
_cell_angle_beta   95.51321800
_cell_angle_gamma   93.20118920
_symmetry_Int_Tables_number   1
_chemical_formula_structural   Li4VNi2BiO4
_chemical_formula_sum   'Li4 V1 Ni2 Bi1 O4'
_cell_volume   238.39369615
_cell_formula_units_Z   1
loop_
 _symmetry_equiv_pos_site_id
 _symmetry_equiv_pos_as_xyz
  1  'x, y, z'
loop_
 _atom_site_type_symbol
 _atom_site_label
 _atom_site_symmetry_multiplicity
 _atom_site_fract_x
 _atom_site_fract_y
 _atom_site_fract_z
 _atom_site_occupancy
  Li  Li0  1  0.00000000  0.00000000  0.00000000  1
  Li  Li1  1  0.50000000  0.50000000  0.50000000  1
  Li  Li2  1  0.50000000  0.50000000  0.00000000  1
  Li  Li3  1  0.50000000  0.00000000  0.50000000  1
  Ni  Ni4  1  0.00000000  0.50000000  0.50000000  1
  Ni  Ni5  1  0.88350423  0.89687238  0.60372977  1
  V  V6  1  0.61394187  0.95261998  0.61967202  1
  Bi  Bi7  1  0.79393850  0.43624940  0.57671350  1
  O  O8  1  0.51952429  0.40581468  0.53736279  1
  O  O9  1  0.64737121  0.12431806  0.32360668  1
  O  O10  1  0.85662342  0.15377802  0.87727634  1
  O  O11  1  0.44966630  0.98084889  0.47381107  1
