# generated using pymatgen
data_LiSb4P3
_symmetry_space_group_name_H-M   'P 1'
_cell_length_a   5.42501433
_cell_length_b   5.73548061
_cell_length_c   6.76676160
_cell_angle_alpha   96.55534028
_cell_angle_beta   94.65132136
_cell_angle_gamma   96.96175825
_symmetry_Int_Tables_number   1
_chemical_formula_structural   LiSb4P3
_chemical_formula_sum   'Li1 Sb4 P3'
_cell_volume   206.66524930
_cell_formula_units_Z   1
loop_
 _symmetry_equiv_pos_site_id
 _symmetry_equiv_pos_as_xyz
  1  'x, y, z'
loop_
 _atom_site_type_symbol
 _atom_site_label
 _atom_site_symmetry_multiplicity
 _atom_site_fract_x
 _atom_site_fract_y
 _atom_site_fract_z
 _atom_site_occupancy
  Sb  Sb0  1  0.00000000  0.00000000  0.00000000  1
  Sb  Sb1  1  0.33300000  0.66700000  0.25000000  1
  Sb  Sb2  1  0.66700000  0.33300000  0.50000000  1
  Sb  Sb3  1  0.00000000  0.00000000  0.75000000  1
  P  P4  1  0.00646284  0.45497238  0.44607913  1
  P  P5  1  0.57457649  0.84679863  0.66877638  1
  P  P6  1  0.48052354  0.47553448  0.57816277  1
  Li  Li7  1  0.99125778  0.86641763  0.79845890  1
