# generated using pymatgen
data_LiSb4Mo2P3
_symmetry_space_group_name_H-M   'P 1'
_cell_length_a   6.16426932
_cell_length_b   6.58856780
_cell_length_c   6.89910799
_cell_angle_alpha   93.26827075
_cell_angle_beta   91.95353177
_cell_angle_gamma   93.29071883
_symmetry_Int_Tables_number   1
_chemical_formula_structural   LiSb4Mo2P3
_chemical_formula_sum   'Li1 Sb4 Mo2 P3'
_cell_volume   279.08508178
_cell_formula_units_Z   1
loop_
 _symmetry_equiv_pos_site_id
 _symmetry_equiv_pos_as_xyz
  1  'x, y, z'
loop_
 _atom_site_type_symbol
 _atom_site_label
 _atom_site_symmetry_multiplicity
 _atom_site_fract_x
 _atom_site_fract_y
 _atom_site_fract_z
 _atom_site_occupancy
  Sb  Sb0  1  0.12500000  0.12500000  0.12500000  1
  Sb  Sb1  1  0.50000000  0.50000000  0.50000000  1
  Sb  Sb2  1  0.25000000  0.25000000  0.25000000  1
  Sb  Sb3  1  0.75000000  0.75000000  0.75000000  1
  P  P4  1  0.02612668  0.08247348  0.16710794  1
  P  P5  1  0.27470174  0.31396241  0.84029154  1
  P  P6  1  0.82466414  0.22426054  0.77532011  1
  Mo  Mo7  1  0.08055057  0.85458005  0.80623175  1
  Mo  Mo8  1  0.76468413  0.14626479  0.07348884  1
  Li  Li9  1  0.79635846  0.97365600  0.09028458  1
