# generated using pymatgen
data_Li2MnSb4P3
_symmetry_space_group_name_H-M   'P 1'
_cell_length_a   6.21345245
_cell_length_b   6.72960512
_cell_length_c   7.18599404
_cell_angle_alpha   94.34889849
_cell_angle_beta   93.19479052
_cell_angle_gamma   94.67706101
_symmetry_Int_Tables_number   1
_chemical_formula_structural   Li2MnSb4P3
_chemical_formula_sum   'Li2 Mn1 Sb4 P3'
_cell_volume   298.03286815
_cell_formula_units_Z   1
loop_
 _symmetry_equiv_pos_site_id
 _symmetry_equiv_pos_as_xyz
  1  'x, y, z'
loop_
 _atom_site_type_symbol
 _atom_site_label
 _atom_site_symmetry_multiplicity
 _atom_site_fract_x
 _atom_site_fract_y
 _atom_site_fract_z
 _atom_site_occupancy
  Mn  Mn0  1  0.12500000  0.00000000  0.25000000  1
  Sb  Sb1  1  0.00000000  0.00000000  0.00000000  1
  Sb  Sb2  1  0.37500000  0.00000000  0.25000000  1
  Sb  Sb3  1  0.25000000  0.25000000  0.25000000  1
  Sb  Sb4  1  0.00000000  0.25000000  0.12500000  1
  P  P5  1  0.74266512  0.21962355  0.13335567  1
  P  P6  1  0.02978856  0.73380566  0.18901004  1
  P  P7  1  0.93460033  0.77203415  0.71800147  1
  Li  Li8  1  0.68590853  0.23600616  0.73815277  1
  Li  Li9  1  0.72479488  0.47626112  0.16348232  1
