# generated using pymatgen
data_Li3Ti2SeCl2F3
_symmetry_space_group_name_H-M   'P 1'
_cell_length_a   4.66318376
_cell_length_b   4.29894289
_cell_length_c   6.85511865
_cell_angle_alpha   106.52387823
_cell_angle_beta   111.27435560
_cell_angle_gamma   105.51130994
_symmetry_Int_Tables_number   1
_chemical_formula_structural   Li3Ti2SeCl2F3
_chemical_formula_sum   'Li3 Ti2 Se1 Cl2 F3'
_cell_volume   111.70604121
_cell_formula_units_Z   1
loop_
 _symmetry_equiv_pos_site_id
 _symmetry_equiv_pos_as_xyz
  1  'x, y, z'
loop_
 _atom_site_type_symbol
 _atom_site_label
 _atom_site_symmetry_multiplicity
 _atom_site_fract_x
 _atom_site_fract_y
 _atom_site_fract_z
 _atom_site_occupancy
  Li  Li0  1  0.12500000  0.00000000  0.25000000  1
  Li  Li1  1  0.00000000  0.00000000  0.00000000  1
  Li  Li2  1  0.37500000  0.00000000  0.25000000  1
  Se  Se3  1  0.25000000  0.25000000  0.25000000  1
  F  F4  1  0.00000000  0.25000000  0.12500000  1
  F  F5  1  0.40875498  0.54444950  0.39567728  1
  F  F6  1  0.02012072  0.69161461  0.05533805  1
  Cl  Cl7  1  0.42961106  0.40726523  0.10559693  1
  Cl  Cl8  1  0.95238467  0.53240352  0.94438584  1
  Ti  Ti9  1  0.56487897  0.19720343  0.93132635  1
  Ti  Ti10  1  0.76105536  0.45140954  0.38377161  1
