# generated using pymatgen
data_Li5Ti2(PO)3
_symmetry_space_group_name_H-M   'P 1'
_cell_length_a   5.14191792
_cell_length_b   4.65101849
_cell_length_c   6.78138670
_cell_angle_alpha   99.11636625
_cell_angle_beta   99.99182472
_cell_angle_gamma   98.20113794
_symmetry_Int_Tables_number   1
_chemical_formula_structural   Li5Ti2(PO)3
_chemical_formula_sum   'Li5 Ti2 P3 O3'
_cell_volume   155.26790535
_cell_formula_units_Z   1
loop_
 _symmetry_equiv_pos_site_id
 _symmetry_equiv_pos_as_xyz
  1  'x, y, z'
loop_
 _atom_site_type_symbol
 _atom_site_label
 _atom_site_symmetry_multiplicity
 _atom_site_fract_x
 _atom_site_fract_y
 _atom_site_fract_z
 _atom_site_occupancy
  Li  Li0  1  0.00000000  0.00000000  0.00000000  1
  Li  Li1  1  0.33300000  0.66700000  0.25000000  1
  Li  Li2  1  0.66700000  0.33300000  0.50000000  1
  Li  Li3  1  0.00000000  0.00000000  0.75000000  1
  Li  Li4  1  0.62624324  0.44108892  0.38758729  1
  Ti  Ti5  1  0.76141259  0.15396376  0.10169341  1
  Ti  Ti6  1  0.21726294  0.65446808  0.98082919  1
  P  P7  1  0.56121143  0.06045938  0.02735069  1
  P  P8  1  0.83885305  0.99558331  0.21198236  1
  P  P9  1  0.43714211  0.00834459  0.08587703  1
  O  O10  1  0.04034892  0.09034239  0.03708232  1
  O  O11  1  0.79545267  0.83328966  0.14025309  1
  O  O12  1  0.48027999  0.65536262  0.92450608  1
