# generated using pymatgen
data_Li5ZrCu2(P4O)2
_symmetry_space_group_name_H-M   'P 1'
_cell_length_a   6.97617601
_cell_length_b   7.07974254
_cell_length_c   8.20727399
_cell_angle_alpha   96.20218150
_cell_angle_beta   97.91876128
_cell_angle_gamma   95.83449065
_symmetry_Int_Tables_number   1
_chemical_formula_structural   Li5ZrCu2(P4O)2
_chemical_formula_sum   'Li5 Zr1 Cu2 P8 O2'
_cell_volume   396.33279039
_cell_formula_units_Z   1
loop_
 _symmetry_equiv_pos_site_id
 _symmetry_equiv_pos_as_xyz
  1  'x, y, z'
loop_
 _atom_site_type_symbol
 _atom_site_label
 _atom_site_symmetry_multiplicity
 _atom_site_fract_x
 _atom_site_fract_y
 _atom_site_fract_z
 _atom_site_occupancy
  P  P0  1  0.12500000  0.00000000  0.25000000  1
  P  P1  1  0.00000000  0.00000000  0.00000000  1
  P  P2  1  0.37500000  0.00000000  0.25000000  1
  P  P3  1  0.25000000  0.25000000  0.25000000  1
  P  P4  1  0.00000000  0.25000000  0.12500000  1
  P  P5  1  0.09314141  0.01005563  0.41010417  1
  P  P6  1  0.03224837  0.81636685  0.80004100  1
  P  P7  1  0.55985841  0.79723964  0.47805124  1
  Li  Li8  1  0.66270892  0.73550944  0.80820994  1
  Li  Li9  1  0.98843635  0.13062959  0.06468672  1
  Li  Li10  1  0.05795106  0.64974269  0.90811107  1
  Li  Li11  1  0.50669095  0.13689667  0.03981774  1
  Li  Li12  1  0.65843377  0.30768938  0.51763673  1
  Cu  Cu13  1  0.68446192  0.21179304  0.69374416  1
  Cu  Cu14  1  0.77666999  0.47282973  0.14285024  1
  O  O15  1  0.46893071  0.97087778  0.49287098  1
  O  O16  1  0.47473401  0.09163740  0.64468509  1
  Zr  Zr17  1  0.14299313  0.47117124  0.80390560  1
