# generated using pymatgen
data_Li2LuCu2(NiAs3)2
_symmetry_space_group_name_H-M   'P 1'
_cell_length_a   7.46022381
_cell_length_b   7.47721008
_cell_length_c   8.56691431
_cell_angle_alpha   91.41406092
_cell_angle_beta   91.97149287
_cell_angle_gamma   91.63458893
_symmetry_Int_Tables_number   1
_chemical_formula_structural   Li2LuCu2(NiAs3)2
_chemical_formula_sum   'Li2 Lu1 Cu2 Ni2 As6'
_cell_volume   477.24199754
_cell_formula_units_Z   1
loop_
 _symmetry_equiv_pos_site_id
 _symmetry_equiv_pos_as_xyz
  1  'x, y, z'
loop_
 _atom_site_type_symbol
 _atom_site_label
 _atom_site_symmetry_multiplicity
 _atom_site_fract_x
 _atom_site_fract_y
 _atom_site_fract_z
 _atom_site_occupancy
  Lu  Lu0  1  0.00000000  0.00000000  0.00000000  1
  Li  Li1  1  0.50000000  0.50000000  0.50000000  1
  Li  Li2  1  0.50000000  0.50000000  0.00000000  1
  Cu  Cu3  1  0.50000000  0.00000000  0.50000000  1
  Cu  Cu4  1  0.00000000  0.50000000  0.50000000  1
  Ni  Ni5  1  0.89801115  0.48097116  0.92754980  1
  Ni  Ni6  1  0.28865679  0.21228361  0.71249636  1
  As  As7  1  0.57541982  0.08835880  0.37896542  1
  As  As8  1  0.59675218  0.10645695  0.97212034  1
  As  As9  1  0.97747352  0.35820751  0.44084639  1
  As  As10  1  0.38933826  0.31976882  0.62898419  1
  As  As11  1  0.30072431  0.86673071  0.56118427  1
  As  As12  1  0.99535693  0.39488819  0.52586784  1
