# generated using pymatgen
data_Li2Mn2Sb4P3
_symmetry_space_group_name_H-M   'P 1'
_cell_length_a   6.61754866
_cell_length_b   6.80651266
_cell_length_c   7.52898936
_cell_angle_alpha   93.06439513
_cell_angle_beta   93.63005917
_cell_angle_gamma   93.48766001
_symmetry_Int_Tables_number   1
_chemical_formula_structural   Li2Mn2Sb4P3
_chemical_formula_sum   'Li2 Mn2 Sb4 P3'
_cell_volume   337.25720938
_cell_formula_units_Z   1
loop_
 _symmetry_equiv_pos_site_id
 _symmetry_equiv_pos_as_xyz
  1  'x, y, z'
loop_
 _atom_site_type_symbol
 _atom_site_label
 _atom_site_symmetry_multiplicity
 _atom_site_fract_x
 _atom_site_fract_y
 _atom_site_fract_z
 _atom_site_occupancy
  Mn  Mn0  1  0.12500000  0.12500000  0.12500000  1
  Mn  Mn1  1  0.50000000  0.50000000  0.50000000  1
  Sb  Sb2  1  0.25000000  0.25000000  0.25000000  1
  Sb  Sb3  1  0.75000000  0.75000000  0.75000000  1
  Sb  Sb4  1  0.10460806  0.41359704  0.68589748  1
  Sb  Sb5  1  0.21423303  0.34236629  0.38564058  1
  P  P6  1  0.62912970  0.95549273  0.05574270  1
  P  P7  1  0.42854137  0.72353173  0.72610690  1
  P  P8  1  0.60187437  0.51704887  0.84926182  1
  Li  Li9  1  0.04596770  0.49684162  0.54291396  1
  Li  Li10  1  0.10358771  0.59277101  0.70052945  1
