# generated using pymatgen
data_Li3TiNi2(I2O3)2
_symmetry_space_group_name_H-M   'P 1'
_cell_length_a   8.50735855
_cell_length_b   8.37252085
_cell_length_c   8.80948331
_cell_angle_alpha   90.00000000
_cell_angle_beta   90.00000000
_cell_angle_gamma   90.00000000
_symmetry_Int_Tables_number   1
_chemical_formula_structural   Li3TiNi2(I2O3)2
_chemical_formula_sum   'Li3 Ti1 Ni2 I4 O6'
_cell_volume   627.48220184
_cell_formula_units_Z   1
loop_
 _symmetry_equiv_pos_site_id
 _symmetry_equiv_pos_as_xyz
  1  'x, y, z'
loop_
 _atom_site_type_symbol
 _atom_site_label
 _atom_site_symmetry_multiplicity
 _atom_site_fract_x
 _atom_site_fract_y
 _atom_site_fract_z
 _atom_site_occupancy
  I  I0  1  0.12500000  0.00000000  0.25000000  1
  I  I1  1  0.00000000  0.00000000  0.00000000  1
  I  I2  1  0.37500000  0.00000000  0.25000000  1
  I  I3  1  0.25000000  0.25000000  0.25000000  1
  Li  Li4  1  0.00000000  0.25000000  0.12500000  1
  Li  Li5  1  0.26095048  0.39238043  0.22608896  1
  Li  Li6  1  0.29684380  0.61208082  0.94216188  1
  Ni  Ni7  1  0.99972446  0.45388470  0.02378194  1
  Ni  Ni8  1  0.54832354  0.91394137  0.53789869  1
  Ti  Ti9  1  0.89493848  0.14876779  0.33581335  1
  O  O10  1  0.45043786  0.92496642  0.98620318  1
  O  O11  1  0.70788778  0.87525503  0.14766661  1
  O  O12  1  0.19284091  0.76818389  0.63001633  1
  O  O13  1  0.37731282  0.03011550  0.03070965  1
  O  O14  1  0.56179206  0.57864249  0.31841393  1
  O  O15  1  0.87316939  0.87632275  0.05100775  1
