# generated using pymatgen
data_Li2Sb2As6OF2
_symmetry_space_group_name_H-M   'P 1'
_cell_length_a   7.44541019
_cell_length_b   7.23687723
_cell_length_c   7.55980895
_cell_angle_alpha   95.51330058
_cell_angle_beta   97.03921857
_cell_angle_gamma   95.18644943
_symmetry_Int_Tables_number   1
_chemical_formula_structural   Li2Sb2As6OF2
_chemical_formula_sum   'Li2 Sb2 As6 O1 F2'
_cell_volume   400.23560055
_cell_formula_units_Z   1
loop_
 _symmetry_equiv_pos_site_id
 _symmetry_equiv_pos_as_xyz
  1  'x, y, z'
loop_
 _atom_site_type_symbol
 _atom_site_label
 _atom_site_symmetry_multiplicity
 _atom_site_fract_x
 _atom_site_fract_y
 _atom_site_fract_z
 _atom_site_occupancy
  Li  Li0  1  0.00000000  0.00000000  0.00000000  1
  Li  Li1  1  0.50000000  0.50000000  0.50000000  1
  Sb  Sb2  1  0.25000000  0.25000000  0.25000000  1
  Sb  Sb3  1  0.75000000  0.25000000  0.00000000  1
  F  F4  1  0.25000000  0.75000000  0.50000000  1
  F  F5  1  0.30535650  0.38698792  0.09308977  1
  As  As6  1  0.07727760  0.84477298  0.22078393  1
  As  As7  1  0.69252647  0.09906695  0.35987568  1
  As  As8  1  0.53101818  0.05823914  0.89318106  1
  As  As9  1  0.64352458  0.48590961  0.52086031  1
  As  As10  1  0.61274367  0.24244300  0.33775420  1
  As  As11  1  0.89957443  0.43707049  0.12294992  1
  O  O12  1  0.94722356  0.97171911  0.55191743  1
