# generated using pymatgen
data_Li3LuCu2(NiAs3)2
_symmetry_space_group_name_H-M   'P 1'
_cell_length_a   7.44207076
_cell_length_b   7.19896874
_cell_length_c   8.76409994
_cell_angle_alpha   92.77807530
_cell_angle_beta   91.49035120
_cell_angle_gamma   93.22031423
_symmetry_Int_Tables_number   1
_chemical_formula_structural   Li3LuCu2(NiAs3)2
_chemical_formula_sum   'Li3 Lu1 Cu2 Ni2 As6'
_cell_volume   468.05194327
_cell_formula_units_Z   1
loop_
 _symmetry_equiv_pos_site_id
 _symmetry_equiv_pos_as_xyz
  1  'x, y, z'
loop_
 _atom_site_type_symbol
 _atom_site_label
 _atom_site_symmetry_multiplicity
 _atom_site_fract_x
 _atom_site_fract_y
 _atom_site_fract_z
 _atom_site_occupancy
  Lu  Lu0  1  0.00000000  0.00000000  0.00000000  1
  Li  Li1  1  0.50000000  0.50000000  0.50000000  1
  Li  Li2  1  0.50000000  0.50000000  0.00000000  1
  Li  Li3  1  0.50000000  0.00000000  0.50000000  1
  Cu  Cu4  1  0.00000000  0.50000000  0.50000000  1
  Cu  Cu5  1  0.43506974  0.45199773  0.65324474  1
  Ni  Ni6  1  0.12326122  0.03920909  0.85275006  1
  Ni  Ni7  1  0.73537496  0.95258442  0.84875724  1
  As  As8  1  0.66859286  0.81294261  0.48482751  1
  As  As9  1  0.67046794  0.53806709  0.26632857  1
  As  As10  1  0.56873263  0.38357064  0.18810494  1
  As  As11  1  0.98618314  0.26453232  0.40063727  1
  As  As12  1  0.95571369  0.34141829  0.06634217  1
  As  As13  1  0.56167179  0.52589882  0.93427821  1
