# generated using pymatgen
data_Li4Ti2Se(OF)3
_symmetry_space_group_name_H-M   'P 1'
_cell_length_a   4.68702638
_cell_length_b   4.73722930
_cell_length_c   6.63170532
_cell_angle_alpha   104.62497335
_cell_angle_beta   109.28803853
_cell_angle_gamma   105.93951129
_symmetry_Int_Tables_number   1
_chemical_formula_structural   Li4Ti2Se(OF)3
_chemical_formula_sum   'Li4 Ti2 Se1 O3 F3'
_cell_volume   123.71507359
_cell_formula_units_Z   1
loop_
 _symmetry_equiv_pos_site_id
 _symmetry_equiv_pos_as_xyz
  1  'x, y, z'
loop_
 _atom_site_type_symbol
 _atom_site_label
 _atom_site_symmetry_multiplicity
 _atom_site_fract_x
 _atom_site_fract_y
 _atom_site_fract_z
 _atom_site_occupancy
  Li  Li0  1  0.00000000  0.00000000  0.00000000  1
  Li  Li1  1  0.50000000  0.50000000  0.50000000  1
  Li  Li2  1  0.50000000  0.50000000  0.00000000  1
  Li  Li3  1  0.50000000  0.00000000  0.50000000  1
  Se  Se4  1  0.00000000  0.50000000  0.50000000  1
  F  F5  1  0.14006184  0.74056324  0.99416515  1
  F  F6  1  0.81416790  0.03482818  0.86053867  1
  F  F7  1  0.10616290  0.75272929  0.61315454  1
  Ti  Ti8  1  0.94456612  0.65395003  0.12286618  1
  Ti  Ti9  1  0.01103316  0.15101966  0.42179886  1
  O  O10  1  0.15576343  0.38125817  0.81880110  1
  O  O11  1  0.09531727  0.28577575  0.02996569  1
  O  O12  1  0.42902365  0.18940986  0.57902464  1
