# generated using pymatgen
data_Li2Mn2Sb4P3N
_symmetry_space_group_name_H-M   'P 1'
_cell_length_a   6.49196530
_cell_length_b   7.03159340
_cell_length_c   7.02457249
_cell_angle_alpha   94.69895098
_cell_angle_beta   92.16224032
_cell_angle_gamma   93.89798118
_symmetry_Int_Tables_number   1
_chemical_formula_structural   Li2Mn2Sb4P3N
_chemical_formula_sum   'Li2 Mn2 Sb4 P3 N1'
_cell_volume   318.54419918
_cell_formula_units_Z   1
loop_
 _symmetry_equiv_pos_site_id
 _symmetry_equiv_pos_as_xyz
  1  'x, y, z'
loop_
 _atom_site_type_symbol
 _atom_site_label
 _atom_site_symmetry_multiplicity
 _atom_site_fract_x
 _atom_site_fract_y
 _atom_site_fract_z
 _atom_site_occupancy
  N  N0  1  0.12500000  0.00000000  0.25000000  1
  Mn  Mn1  1  0.00000000  0.00000000  0.00000000  1
  Mn  Mn2  1  0.37500000  0.00000000  0.25000000  1
  Sb  Sb3  1  0.25000000  0.25000000  0.25000000  1
  Sb  Sb4  1  0.00000000  0.25000000  0.12500000  1
  Sb  Sb5  1  0.24875247  0.84268151  0.27841445  1
  Sb  Sb6  1  0.60334786  0.50559047  0.83973931  1
  P  P7  1  0.88376526  0.77424990  0.96536675  1
  P  P8  1  0.22805572  0.56774197  0.76085076  1
  P  P9  1  0.32616322  0.84699576  0.93900914  1
  Li  Li10  1  0.18578052  0.66682316  0.40689846  1
  Li  Li11  1  0.10528505  0.98058048  0.47654644  1
