# generated using pymatgen
data_Li3Ti2Cu2(I2O)2
_symmetry_space_group_name_H-M   'P 1'
_cell_length_a   6.57038954
_cell_length_b   6.76757494
_cell_length_c   6.85055930
_cell_angle_alpha   97.19984355
_cell_angle_beta   99.75180996
_cell_angle_gamma   99.26554187
_symmetry_Int_Tables_number   1
_chemical_formula_structural   Li3Ti2Cu2(I2O)2
_chemical_formula_sum   'Li3 Ti2 Cu2 I4 O2'
_cell_volume   292.62668297
_cell_formula_units_Z   1
loop_
 _symmetry_equiv_pos_site_id
 _symmetry_equiv_pos_as_xyz
  1  'x, y, z'
loop_
 _atom_site_type_symbol
 _atom_site_label
 _atom_site_symmetry_multiplicity
 _atom_site_fract_x
 _atom_site_fract_y
 _atom_site_fract_z
 _atom_site_occupancy
  I  I0  1  0.00000000  0.00000000  0.00000000  1
  I  I1  1  0.50000000  0.50000000  0.50000000  1
  I  I2  1  0.25000000  0.25000000  0.25000000  1
  I  I3  1  0.75000000  0.25000000  0.00000000  1
  Li  Li4  1  0.25000000  0.75000000  0.50000000  1
  Li  Li5  1  0.38010814  0.56104270  0.61299948  1
  Li  Li6  1  0.63436391  0.53536081  0.87038576  1
  Cu  Cu7  1  0.49127593  0.98923487  0.47261847  1
  Cu  Cu8  1  0.17564705  0.33302716  0.62210516  1
  Ti  Ti9  1  0.91487938  0.21807641  0.68352017  1
  Ti  Ti10  1  0.56749371  0.49647621  0.68158200  1
  O  O11  1  0.87937374  0.74609177  0.42692828  1
  O  O12  1  0.03553912  0.58639714  0.03036126  1
