# generated using pymatgen
data_Li3Sc(P4O)2
_symmetry_space_group_name_H-M   'P 1'
_cell_length_a   7.41515090
_cell_length_b   8.15445145
_cell_length_c   8.51979306
_cell_angle_alpha   92.75320038
_cell_angle_beta   93.51520453
_cell_angle_gamma   92.58997932
_symmetry_Int_Tables_number   1
_chemical_formula_structural   Li3Sc(P4O)2
_chemical_formula_sum   'Li3 Sc1 P8 O2'
_cell_volume   513.00025475
_cell_formula_units_Z   1
loop_
 _symmetry_equiv_pos_site_id
 _symmetry_equiv_pos_as_xyz
  1  'x, y, z'
loop_
 _atom_site_type_symbol
 _atom_site_label
 _atom_site_symmetry_multiplicity
 _atom_site_fract_x
 _atom_site_fract_y
 _atom_site_fract_z
 _atom_site_occupancy
  Sc  Sc0  1  0.12500000  0.12500000  0.12500000  1
  P  P1  1  0.50000000  0.50000000  0.50000000  1
  P  P2  1  0.25000000  0.25000000  0.25000000  1
  P  P3  1  0.75000000  0.75000000  0.75000000  1
  P  P4  1  0.89032397  0.83466843  0.03925167  1
  P  P5  1  0.34342935  0.58727040  0.06769097  1
  P  P6  1  0.74744491  0.16339265  0.26040134  1
  P  P7  1  0.96912565  0.22604548  0.25492973  1
  P  P8  1  0.95395144  0.31716536  0.07147217  1
  Li  Li9  1  0.89922934  0.91778392  0.30810343  1
  Li  Li10  1  0.37283846  0.06642157  0.89367506  1
  Li  Li11  1  0.12036862  0.53985593  0.55803768  1
  O  O12  1  0.46277142  0.64255307  0.48811073  1
  O  O13  1  0.45702141  0.23904552  0.53064675  1
