# generated using pymatgen
data_Li3LuNi2As6O7
_symmetry_space_group_name_H-M   'P 1'
_cell_length_a   8.00499103
_cell_length_b   7.84817892
_cell_length_c   9.31729571
_cell_angle_alpha   90.87458273
_cell_angle_beta   90.57096160
_cell_angle_gamma   91.01342276
_symmetry_Int_Tables_number   1
_chemical_formula_structural   Li3LuNi2As6O7
_chemical_formula_sum   'Li3 Lu1 Ni2 As6 O7'
_cell_volume   585.16498110
_cell_formula_units_Z   1
loop_
 _symmetry_equiv_pos_site_id
 _symmetry_equiv_pos_as_xyz
  1  'x, y, z'
loop_
 _atom_site_type_symbol
 _atom_site_label
 _atom_site_symmetry_multiplicity
 _atom_site_fract_x
 _atom_site_fract_y
 _atom_site_fract_z
 _atom_site_occupancy
  Lu  Lu0  1  0.00000000  0.00000000  0.00000000  1
  Li  Li1  1  0.50000000  0.50000000  0.50000000  1
  Li  Li2  1  0.25000000  0.25000000  0.25000000  1
  Li  Li3  1  0.75000000  0.25000000  0.00000000  1
  Ni  Ni4  1  0.25000000  0.75000000  0.50000000  1
  Ni  Ni5  1  0.91372219  0.37505945  0.91362347  1
  As  As6  1  0.61609597  0.45162625  0.00514493  1
  As  As7  1  0.67509691  0.25127611  0.01981204  1
  As  As8  1  0.93124523  0.11225723  0.01084625  1
  As  As9  1  0.45222459  0.86887985  0.38388385  1
  As  As10  1  0.41673977  0.51777102  0.70307818  1
  As  As11  1  0.11422736  0.06025132  0.33333344  1
  O  O12  1  0.56348858  0.74749759  0.02049232  1
  O  O13  1  0.33573172  0.26302274  0.11137478  1
  O  O14  1  0.07768742  0.24892968  0.98092076  1
  O  O15  1  0.78496810  0.63491246  0.45377600  1
  O  O16  1  0.02354972  0.39771895  0.84683166  1
  O  O17  1  0.99077605  0.35958713  0.57542141  1
  O  O18  1  0.91084789  0.78177136  0.83967302  1
