# generated using pymatgen
data_Li2LuCu2(I2O)2
_symmetry_space_group_name_H-M   'P 1'
_cell_length_a   7.64886982
_cell_length_b   7.49020736
_cell_length_c   8.26194921
_cell_angle_alpha   91.73236444
_cell_angle_beta   91.43432726
_cell_angle_gamma   92.00623307
_symmetry_Int_Tables_number   1
_chemical_formula_structural   Li2LuCu2(I2O)2
_chemical_formula_sum   'Li2 Lu1 Cu2 I4 O2'
_cell_volume   472.67281444
_cell_formula_units_Z   1
loop_
 _symmetry_equiv_pos_site_id
 _symmetry_equiv_pos_as_xyz
  1  'x, y, z'
loop_
 _atom_site_type_symbol
 _atom_site_label
 _atom_site_symmetry_multiplicity
 _atom_site_fract_x
 _atom_site_fract_y
 _atom_site_fract_z
 _atom_site_occupancy
  I  I0  1  0.12500000  0.00000000  0.25000000  1
  I  I1  1  0.00000000  0.00000000  0.00000000  1
  I  I2  1  0.37500000  0.00000000  0.25000000  1
  I  I3  1  0.25000000  0.25000000  0.25000000  1
  Lu  Lu4  1  0.00000000  0.25000000  0.12500000  1
  Li  Li5  1  0.79874534  0.59999632  0.97929281  1
  Li  Li6  1  0.15760227  0.31865261  0.11022819  1
  Cu  Cu7  1  0.22192039  0.41982723  0.09675040  1
  Cu  Cu8  1  0.06531636  0.88074028  0.36453144  1
  O  O9  1  0.22714307  0.67882583  0.24000931  1
  O  O10  1  0.59350435  0.04164208  0.40028500  1
