# generated using pymatgen
data_LiMn2(Sb2P)2
_symmetry_space_group_name_H-M   'P 1'
_cell_length_a   5.13878896
_cell_length_b   5.48672538
_cell_length_c   6.41343704
_cell_angle_alpha   99.84389491
_cell_angle_beta   92.97584552
_cell_angle_gamma   99.50855183
_symmetry_Int_Tables_number   1
_chemical_formula_structural   LiMn2(Sb2P)2
_chemical_formula_sum   'Li1 Mn2 Sb4 P2'
_cell_volume   175.11870005
_cell_formula_units_Z   1
loop_
 _symmetry_equiv_pos_site_id
 _symmetry_equiv_pos_as_xyz
  1  'x, y, z'
loop_
 _atom_site_type_symbol
 _atom_site_label
 _atom_site_symmetry_multiplicity
 _atom_site_fract_x
 _atom_site_fract_y
 _atom_site_fract_z
 _atom_site_occupancy
  Mn  Mn0  1  0.12500000  0.12500000  0.12500000  1
  Mn  Mn1  1  0.50000000  0.50000000  0.50000000  1
  Sb  Sb2  1  0.25000000  0.25000000  0.25000000  1
  Sb  Sb3  1  0.75000000  0.75000000  0.75000000  1
  Sb  Sb4  1  0.76226414  0.81340239  0.70107650  1
  Sb  Sb5  1  0.25164419  0.98803491  0.41725559  1
  P  P6  1  0.27970912  0.42090149  0.10190690  1
  P  P7  1  0.45931423  0.82203906  0.73664024  1
  Li  Li8  1  0.07508101  0.77986928  0.07785035  1
