# generated using pymatgen
data_Li2ZrSbPF2
_symmetry_space_group_name_H-M   'P 1'
_cell_length_a   8.37936542
_cell_length_b   8.29243990
_cell_length_c   7.40823266
_cell_angle_alpha   90.00000000
_cell_angle_beta   90.00000000
_cell_angle_gamma   90.00000000
_symmetry_Int_Tables_number   1
_chemical_formula_structural   Li2ZrSbPF2
_chemical_formula_sum   'Li4 Zr2 Sb2 P2 F4'
_cell_volume   514.76389165
_cell_formula_units_Z   2
loop_
 _symmetry_equiv_pos_site_id
 _symmetry_equiv_pos_as_xyz
  1  'x, y, z'
loop_
 _atom_site_type_symbol
 _atom_site_label
 _atom_site_symmetry_multiplicity
 _atom_site_fract_x
 _atom_site_fract_y
 _atom_site_fract_z
 _atom_site_occupancy
  F  F0  1  0.12500000  0.00000000  0.25000000  1
  F  F1  1  0.00000000  0.00000000  0.00000000  1
  F  F2  1  0.37500000  0.00000000  0.25000000  1
  F  F3  1  0.25000000  0.25000000  0.25000000  1
  Sb  Sb4  1  0.00000000  0.25000000  0.12500000  1
  Sb  Sb5  1  0.09310119  0.65211251  0.19747599  1
  Zr  Zr6  1  0.81255321  0.41541758  0.62878620  1
  Zr  Zr7  1  0.75378794  0.58964529  0.28532952  1
  P  P8  1  0.16913929  0.30926460  0.03197519  1
  P  P9  1  0.11387660  0.93540581  0.29913729  1
  Li  Li10  1  0.37722332  0.83469017  0.11821222  1
  Li  Li11  1  0.05914792  0.97251188  0.56793292  1
  Li  Li12  1  0.71061208  0.46589609  0.87908434  1
  Li  Li13  1  0.03254062  0.05167328  0.28047006  1
