# generated using pymatgen
data_LiMn3Sb4P3
_symmetry_space_group_name_H-M   'P 1'
_cell_length_a   5.78286392
_cell_length_b   6.16324745
_cell_length_c   6.54897373
_cell_angle_alpha   96.35087497
_cell_angle_beta   90.62517310
_cell_angle_gamma   96.37728387
_symmetry_Int_Tables_number   1
_chemical_formula_structural   LiMn3Sb4P3
_chemical_formula_sum   'Li1 Mn3 Sb4 P3'
_cell_volume   230.48190865
_cell_formula_units_Z   1
loop_
 _symmetry_equiv_pos_site_id
 _symmetry_equiv_pos_as_xyz
  1  'x, y, z'
loop_
 _atom_site_type_symbol
 _atom_site_label
 _atom_site_symmetry_multiplicity
 _atom_site_fract_x
 _atom_site_fract_y
 _atom_site_fract_z
 _atom_site_occupancy
  Mn  Mn0  1  0.00000000  0.00000000  0.00000000  1
  Mn  Mn1  1  0.33300000  0.66700000  0.25000000  1
  Mn  Mn2  1  0.66700000  0.33300000  0.50000000  1
  Sb  Sb3  1  0.00000000  0.00000000  0.75000000  1
  Sb  Sb4  1  0.17624809  0.41262079  0.54408281  1
  Sb  Sb5  1  0.76960863  0.88590652  0.84540404  1
  Sb  Sb6  1  0.25896126  0.09115039  0.67387747  1
  P  P7  1  0.59479066  0.62475478  0.67224870  1
  P  P8  1  0.66627545  0.08057755  0.76659530  1
  P  P9  1  0.30174818  0.47051560  0.98871458  1
  Li  Li10  1  0.42500313  0.42825135  0.49672143  1
