# generated using pymatgen
data_Li3Ti2Cu2Br3O2
_symmetry_space_group_name_H-M   'P 1'
_cell_length_a   6.60749341
_cell_length_b   6.99429015
_cell_length_c   7.20850304
_cell_angle_alpha   95.49617066
_cell_angle_beta   97.44427451
_cell_angle_gamma   97.07307027
_symmetry_Int_Tables_number   1
_chemical_formula_structural   Li3Ti2Cu2Br3O2
_chemical_formula_sum   'Li3 Ti2 Cu2 Br3 O2'
_cell_volume   325.69712848
_cell_formula_units_Z   1
loop_
 _symmetry_equiv_pos_site_id
 _symmetry_equiv_pos_as_xyz
  1  'x, y, z'
loop_
 _atom_site_type_symbol
 _atom_site_label
 _atom_site_symmetry_multiplicity
 _atom_site_fract_x
 _atom_site_fract_y
 _atom_site_fract_z
 _atom_site_occupancy
  Li  Li0  1  0.12500000  0.00000000  0.25000000  1
  Li  Li1  1  0.00000000  0.00000000  0.00000000  1
  Li  Li2  1  0.37500000  0.00000000  0.25000000  1
  Br  Br3  1  0.25000000  0.25000000  0.25000000  1
  Br  Br4  1  0.00000000  0.25000000  0.12500000  1
  Br  Br5  1  0.49084731  0.11722901  0.59659429  1
  Cu  Cu6  1  0.39895170  0.09215240  0.32244300  1
  Cu  Cu7  1  0.12043504  0.43581252  0.61091037  1
  Ti  Ti8  1  0.45760276  0.22370019  0.20359457  1
  Ti  Ti9  1  0.17180062  0.52058267  0.59326408  1
  O  O10  1  0.11105480  0.99077197  0.91708134  1
  O  O11  1  0.56019659  0.95986999  0.06014780  1
