# generated using pymatgen
data_LiCuNiAs3P2
_symmetry_space_group_name_H-M   'P 1'
_cell_length_a   7.46286395
_cell_length_b   7.51767697
_cell_length_c   8.53823601
_cell_angle_alpha   91.21568128
_cell_angle_beta   92.04146919
_cell_angle_gamma   91.40396408
_symmetry_Int_Tables_number   1
_chemical_formula_structural   LiCuNiAs3P2
_chemical_formula_sum   'Li2 Cu2 Ni2 As6 P4'
_cell_volume   478.45934118
_cell_formula_units_Z   2
loop_
 _symmetry_equiv_pos_site_id
 _symmetry_equiv_pos_as_xyz
  1  'x, y, z'
loop_
 _atom_site_type_symbol
 _atom_site_label
 _atom_site_symmetry_multiplicity
 _atom_site_fract_x
 _atom_site_fract_y
 _atom_site_fract_z
 _atom_site_occupancy
  Ni  Ni0  1  0.12500000  0.00000000  0.25000000  1
  Ni  Ni1  1  0.00000000  0.00000000  0.00000000  1
  P  P2  1  0.37500000  0.00000000  0.25000000  1
  P  P3  1  0.25000000  0.25000000  0.25000000  1
  P  P4  1  0.00000000  0.25000000  0.12500000  1
  P  P5  1  0.69269485  0.00587390  0.27442744  1
  As  As6  1  0.70324094  0.24479187  0.17536348  1
  As  As7  1  0.05116330  0.67324043  0.18925784  1
  As  As8  1  0.13176951  0.40528300  0.33838548  1
  As  As9  1  0.21391795  0.82763779  0.44623586  1
  As  As10  1  0.10770146  0.14393353  0.04003673  1
  As  As11  1  0.23551562  0.98063457  0.86100737  1
  Li  Li12  1  0.64667861  0.37059646  0.18316838  1
  Li  Li13  1  0.69025621  0.84038160  0.05828256  1
  Cu  Cu14  1  0.42987942  0.83696459  0.29058942  1
  Cu  Cu15  1  0.76131514  0.18389384  0.14728739  1
