# generated using pymatgen
data_Li3Ti2SeO3
_symmetry_space_group_name_H-M   'P 1'
_cell_length_a   5.97979199
_cell_length_b   6.14183481
_cell_length_c   4.98468120
_cell_angle_alpha   89.09571750
_cell_angle_beta   91.95448348
_cell_angle_gamma   90.38050229
_symmetry_Int_Tables_number   1
_chemical_formula_structural   Li3Ti2SeO3
_chemical_formula_sum   'Li3 Ti2 Se1 O3'
_cell_volume   182.93915783
_cell_formula_units_Z   1
loop_
 _symmetry_equiv_pos_site_id
 _symmetry_equiv_pos_as_xyz
  1  'x, y, z'
loop_
 _atom_site_type_symbol
 _atom_site_label
 _atom_site_symmetry_multiplicity
 _atom_site_fract_x
 _atom_site_fract_y
 _atom_site_fract_z
 _atom_site_occupancy
  Li  Li0  1  0.12500000  0.12500000  0.12500000  1
  Li  Li1  1  0.50000000  0.50000000  0.50000000  1
  Li  Li2  1  0.25000000  0.25000000  0.25000000  1
  Se  Se3  1  0.75000000  0.75000000  0.75000000  1
  Ti  Ti4  1  0.05016890  0.63679992  0.87329317  1
  Ti  Ti5  1  0.38924468  0.72714227  0.02820447  1
  O  O6  1  0.49029988  0.79119627  0.70368791  1
  O  O7  1  0.60504497  0.54002097  0.15917572  1
  O  O8  1  0.21588159  0.27821262  0.69025903  1
