# generated using pymatgen
data_Li2Ti(CuO)2
_symmetry_space_group_name_H-M   'P 1'
_cell_length_a   6.70880995
_cell_length_b   6.82987349
_cell_length_c   7.00228912
_cell_angle_alpha   95.48473675
_cell_angle_beta   97.86211554
_cell_angle_gamma   97.04006630
_symmetry_Int_Tables_number   1
_chemical_formula_structural   Li2Ti(CuO)2
_chemical_formula_sum   'Li2 Ti1 Cu2 O2'
_cell_volume   313.36868489
_cell_formula_units_Z   1
loop_
 _symmetry_equiv_pos_site_id
 _symmetry_equiv_pos_as_xyz
  1  'x, y, z'
loop_
 _atom_site_type_symbol
 _atom_site_label
 _atom_site_symmetry_multiplicity
 _atom_site_fract_x
 _atom_site_fract_y
 _atom_site_fract_z
 _atom_site_occupancy
  Li  Li0  1  0.00000000  0.00000000  0.00000000  1
  Li  Li1  1  0.50000000  0.50000000  0.50000000  1
  Cu  Cu2  1  0.25000000  0.25000000  0.25000000  1
  Cu  Cu3  1  0.75000000  0.25000000  0.00000000  1
  Ti  Ti4  1  0.25000000  0.75000000  0.50000000  1
  O  O5  1  0.24575484  0.63106188  0.38072027  1
  O  O6  1  0.99965118  0.67171005  0.37289035  1
