# generated using pymatgen
data_Li2MnSb4P3
_symmetry_space_group_name_H-M   'P 1'
_cell_length_a   6.73557373
_cell_length_b   7.08485956
_cell_length_c   7.49347928
_cell_angle_alpha   92.54921527
_cell_angle_beta   93.01978103
_cell_angle_gamma   92.90132173
_symmetry_Int_Tables_number   1
_chemical_formula_structural   Li2MnSb4P3
_chemical_formula_sum   'Li2 Mn1 Sb4 P3'
_cell_volume   356.24032803
_cell_formula_units_Z   1
loop_
 _symmetry_equiv_pos_site_id
 _symmetry_equiv_pos_as_xyz
  1  'x, y, z'
loop_
 _atom_site_type_symbol
 _atom_site_label
 _atom_site_symmetry_multiplicity
 _atom_site_fract_x
 _atom_site_fract_y
 _atom_site_fract_z
 _atom_site_occupancy
  Mn  Mn0  1  0.12500000  0.00000000  0.25000000  1
  Sb  Sb1  1  0.00000000  0.00000000  0.00000000  1
  Sb  Sb2  1  0.37500000  0.00000000  0.25000000  1
  Sb  Sb3  1  0.25000000  0.25000000  0.25000000  1
  Sb  Sb4  1  0.00000000  0.25000000  0.12500000  1
  P  P5  1  0.47988508  0.78609847  0.40441619  1
  P  P6  1  0.91763079  0.88214343  0.74305877  1
  P  P7  1  0.83726833  0.74171919  0.71373702  1
  Li  Li8  1  0.69521260  0.72614666  0.21106366  1
  Li  Li9  1  0.02373923  0.46379325  0.66707917  1
