# generated using pymatgen
data_Li2MnSb4P3
_symmetry_space_group_name_H-M   'P 1'
_cell_length_a   6.12608110
_cell_length_b   6.62958807
_cell_length_c   7.14894421
_cell_angle_alpha   94.71182392
_cell_angle_beta   93.28293907
_cell_angle_gamma   95.04251881
_symmetry_Int_Tables_number   1
_chemical_formula_structural   Li2MnSb4P3
_chemical_formula_sum   'Li2 Mn1 Sb4 P3'
_cell_volume   287.63301306
_cell_formula_units_Z   1
loop_
 _symmetry_equiv_pos_site_id
 _symmetry_equiv_pos_as_xyz
  1  'x, y, z'
loop_
 _atom_site_type_symbol
 _atom_site_label
 _atom_site_symmetry_multiplicity
 _atom_site_fract_x
 _atom_site_fract_y
 _atom_site_fract_z
 _atom_site_occupancy
  Mn  Mn0  1  0.12500000  0.12500000  0.12500000  1
  Sb  Sb1  1  0.50000000  0.50000000  0.50000000  1
  Sb  Sb2  1  0.25000000  0.25000000  0.25000000  1
  Sb  Sb3  1  0.75000000  0.75000000  0.75000000  1
  Sb  Sb4  1  0.05722076  0.14424192  0.46345821  1
  P  P5  1  0.33740523  0.18164298  0.38776926  1
  P  P6  1  0.14370750  0.62136266  0.52237649  1
  P  P7  1  0.81962005  0.97071621  0.57063208  1
  Li  Li8  1  0.37147023  0.62812462  0.35580428  1
  Li  Li9  1  0.37793100  0.22202470  0.79545171  1
