# generated using pymatgen
data_Li2Cu2Ni2As6N5
_symmetry_space_group_name_H-M   'P 1'
_cell_length_a   7.75717821
_cell_length_b   7.77896299
_cell_length_c   8.84582438
_cell_angle_alpha   91.24457622
_cell_angle_beta   92.54952401
_cell_angle_gamma   91.30345930
_symmetry_Int_Tables_number   1
_chemical_formula_structural   Li2Cu2Ni2As6N5
_chemical_formula_sum   'Li2 Cu2 Ni2 As6 N5'
_cell_volume   532.97737280
_cell_formula_units_Z   1
loop_
 _symmetry_equiv_pos_site_id
 _symmetry_equiv_pos_as_xyz
  1  'x, y, z'
loop_
 _atom_site_type_symbol
 _atom_site_label
 _atom_site_symmetry_multiplicity
 _atom_site_fract_x
 _atom_site_fract_y
 _atom_site_fract_z
 _atom_site_occupancy
  Ni  Ni0  1  0.00000000  0.00000000  0.00000000  1
  Ni  Ni1  1  0.50000000  0.50000000  0.50000000  1
  As  As2  1  0.25000000  0.25000000  0.25000000  1
  As  As3  1  0.75000000  0.25000000  0.00000000  1
  As  As4  1  0.25000000  0.75000000  0.50000000  1
  As  As5  1  0.07274525  0.31666408  0.40197412  1
  As  As6  1  0.65888941  0.67460155  0.42708253  1
  As  As7  1  0.07322319  0.16058755  0.64506013  1
  Li  Li8  1  0.58577909  0.88436015  0.92908688  1
  Li  Li9  1  0.68144324  0.48869784  0.00813018  1
  N  N10  1  0.91204017  0.49570143  0.76567480  1
  N  N11  1  0.17484963  0.83501479  0.19804722  1
  N  N12  1  0.13794405  0.54611268  0.76340825  1
  N  N13  1  0.23533980  0.76093426  0.83678989  1
  N  N14  1  0.72220889  0.37026179  0.33075088  1
  Cu  Cu15  1  0.42208903  0.43059782  0.79980409  1
  Cu  Cu16  1  0.09305327  0.53847825  0.58216036  1
