# generated using pymatgen
data_Li2Ni3Sb4P3
_symmetry_space_group_name_H-M   'P 1'
_cell_length_a   5.45785186
_cell_length_b   5.37517274
_cell_length_c   7.20769572
_cell_angle_alpha   96.20290846
_cell_angle_beta   96.16965772
_cell_angle_gamma   96.68345415
_symmetry_Int_Tables_number   1
_chemical_formula_structural   Li2Ni3Sb4P3
_chemical_formula_sum   'Li2 Ni3 Sb4 P3'
_cell_volume   207.23605315
_cell_formula_units_Z   1
loop_
 _symmetry_equiv_pos_site_id
 _symmetry_equiv_pos_as_xyz
  1  'x, y, z'
loop_
 _atom_site_type_symbol
 _atom_site_label
 _atom_site_symmetry_multiplicity
 _atom_site_fract_x
 _atom_site_fract_y
 _atom_site_fract_z
 _atom_site_occupancy
  Sb  Sb0  1  0.00000000  0.00000000  0.00000000  1
  Sb  Sb1  1  0.33300000  0.66700000  0.25000000  1
  Sb  Sb2  1  0.66700000  0.33300000  0.50000000  1
  Sb  Sb3  1  0.00000000  0.00000000  0.75000000  1
  P  P4  1  0.21688271  0.10053143  0.87954466  1
  P  P5  1  0.38224625  0.87763289  0.23730228  1
  P  P6  1  0.70151063  0.23242284  0.82787282  1
  Li  Li7  1  0.42359372  0.95004946  0.60140097  1
  Li  Li8  1  0.07706910  0.09996649  0.50631517  1
  Ni  Ni9  1  0.02466023  0.60306413  0.82110871  1
  Ni  Ni10  1  0.57478205  0.40682640  0.66512906  1
  Ni  Ni11  1  0.95378662  0.82000409  0.76629598  1
