# generated using pymatgen
data_LiMn2Mo2P3
_symmetry_space_group_name_H-M   'P 1'
_cell_length_a   4.87846237
_cell_length_b   5.06063386
_cell_length_c   6.14884766
_cell_angle_alpha   98.18728439
_cell_angle_beta   92.07240085
_cell_angle_gamma   98.00123513
_symmetry_Int_Tables_number   1
_chemical_formula_structural   LiMn2Mo2P3
_chemical_formula_sum   'Li1 Mn2 Mo2 P3'
_cell_volume   148.55059249
_cell_formula_units_Z   1
loop_
 _symmetry_equiv_pos_site_id
 _symmetry_equiv_pos_as_xyz
  1  'x, y, z'
loop_
 _atom_site_type_symbol
 _atom_site_label
 _atom_site_symmetry_multiplicity
 _atom_site_fract_x
 _atom_site_fract_y
 _atom_site_fract_z
 _atom_site_occupancy
  Mn  Mn0  1  0.00000000  0.00000000  0.00000000  1
  Mn  Mn1  1  0.50000000  0.50000000  0.50000000  1
  P  P2  1  0.50000000  0.50000000  0.00000000  1
  P  P3  1  0.50000000  0.00000000  0.50000000  1
  P  P4  1  0.00000000  0.50000000  0.50000000  1
  Mo  Mo5  1  0.29030665  0.07864451  0.84711252  1
  Mo  Mo6  1  0.13589020  0.23393974  0.60045347  1
  Li  Li7  1  0.06726521  0.88929583  0.67668902  1
