# generated using pymatgen
data_Li2Mn2Sb4P3
_symmetry_space_group_name_H-M   'P 1'
_cell_length_a   5.71139735
_cell_length_b   6.14676297
_cell_length_c   6.69543845
_cell_angle_alpha   95.79745571
_cell_angle_beta   93.75273255
_cell_angle_gamma   95.40660724
_symmetry_Int_Tables_number   1
_chemical_formula_structural   Li2Mn2Sb4P3
_chemical_formula_sum   'Li2 Mn2 Sb4 P3'
_cell_volume   232.14362618
_cell_formula_units_Z   1
loop_
 _symmetry_equiv_pos_site_id
 _symmetry_equiv_pos_as_xyz
  1  'x, y, z'
loop_
 _atom_site_type_symbol
 _atom_site_label
 _atom_site_symmetry_multiplicity
 _atom_site_fract_x
 _atom_site_fract_y
 _atom_site_fract_z
 _atom_site_occupancy
  Mn  Mn0  1  0.00000000  0.00000000  0.00000000  1
  Mn  Mn1  1  0.50000000  0.50000000  0.50000000  1
  Sb  Sb2  1  0.50000000  0.50000000  0.00000000  1
  Sb  Sb3  1  0.50000000  0.00000000  0.50000000  1
  Sb  Sb4  1  0.00000000  0.50000000  0.50000000  1
  Sb  Sb5  1  0.89940305  0.04087123  0.79355145  1
  P  P6  1  0.00203493  0.36642895  0.41504925  1
  P  P7  1  0.06192530  0.95248082  0.62514492  1
  P  P8  1  0.20695786  0.88587934  0.62056365  1
  Li  Li9  1  0.96683773  0.72078058  0.63256447  1
  Li  Li10  1  0.97435654  0.29119036  0.02648677  1
