# generated using pymatgen
data_Li2TiP6(O2F)2
_symmetry_space_group_name_H-M   'P 1'
_cell_length_a   8.66047970
_cell_length_b   8.45152545
_cell_length_c   7.55159542
_cell_angle_alpha   90.08189482
_cell_angle_beta   90.38963069
_cell_angle_gamma   90.09362765
_symmetry_Int_Tables_number   1
_chemical_formula_structural   Li2TiP6(O2F)2
_chemical_formula_sum   'Li2 Ti1 P6 O4 F2'
_cell_volume   552.71938172
_cell_formula_units_Z   1
loop_
 _symmetry_equiv_pos_site_id
 _symmetry_equiv_pos_as_xyz
  1  'x, y, z'
loop_
 _atom_site_type_symbol
 _atom_site_label
 _atom_site_symmetry_multiplicity
 _atom_site_fract_x
 _atom_site_fract_y
 _atom_site_fract_z
 _atom_site_occupancy
  P  P0  1  0.12500000  0.00000000  0.25000000  1
  P  P1  1  0.00000000  0.00000000  0.00000000  1
  P  P2  1  0.37500000  0.00000000  0.25000000  1
  P  P3  1  0.25000000  0.25000000  0.25000000  1
  P  P4  1  0.00000000  0.25000000  0.12500000  1
  P  P5  1  0.10387446  0.33633678  0.50023059  1
  Li  Li6  1  0.52605730  0.52801084  0.07607017  1
  Li  Li7  1  0.64943662  0.21626151  0.81113479  1
  F  F8  1  0.24063746  0.91478922  0.09749863  1
  F  F9  1  0.22839581  0.29799870  0.35376737  1
  Ti  Ti10  1  0.86668771  0.44125842  0.72936139  1
  O  O11  1  0.54271762  0.32374534  0.69048061  1
  O  O12  1  0.61678850  0.83195621  0.99268036  1
  O  O13  1  0.40879071  0.82516930  0.45893701  1
  O  O14  1  0.00224385  0.88926460  0.92014902  1
