# generated using pymatgen
data_Li3ZrSe3(BrF)2
_symmetry_space_group_name_H-M   'P 1'
_cell_length_a   6.38871026
_cell_length_b   6.56170337
_cell_length_c   8.16373179
_cell_angle_alpha   98.81380153
_cell_angle_beta   101.25320024
_cell_angle_gamma   98.29128310
_symmetry_Int_Tables_number   1
_chemical_formula_structural   Li3ZrSe3(BrF)2
_chemical_formula_sum   'Li3 Zr1 Se3 Br2 F2'
_cell_volume   326.29142821
_cell_formula_units_Z   1
loop_
 _symmetry_equiv_pos_site_id
 _symmetry_equiv_pos_as_xyz
  1  'x, y, z'
loop_
 _atom_site_type_symbol
 _atom_site_label
 _atom_site_symmetry_multiplicity
 _atom_site_fract_x
 _atom_site_fract_y
 _atom_site_fract_z
 _atom_site_occupancy
  Li  Li0  1  0.00000000  0.00000000  0.00000000  1
  Li  Li1  1  0.50000000  0.50000000  0.50000000  1
  Li  Li2  1  0.50000000  0.50000000  0.00000000  1
  Br  Br3  1  0.50000000  0.00000000  0.50000000  1
  Br  Br4  1  0.00000000  0.50000000  0.50000000  1
  Se  Se5  1  0.44508843  0.87154446  0.27924633  1
  Se  Se6  1  0.93920062  0.18203003  0.00170930  1
  Se  Se7  1  0.49029762  0.83498162  0.01857557  1
  F  F8  1  0.40484533  0.23231363  0.58732076  1
  F  F9  1  0.55488681  0.11806648  0.58908369  1
  Zr  Zr10  1  0.11535306  0.36927247  0.74031731  1
