# generated using pymatgen
data_Li2TiP6(O2F)2
_symmetry_space_group_name_H-M   'P 1'
_cell_length_a   8.69975130
_cell_length_b   8.50707549
_cell_length_c   7.48904571
_cell_angle_alpha   90.06703226
_cell_angle_beta   90.31891915
_cell_angle_gamma   90.07663578
_symmetry_Int_Tables_number   1
_chemical_formula_structural   Li2TiP6(O2F)2
_chemical_formula_sum   'Li2 Ti1 P6 O4 F2'
_cell_volume   554.25062083
_cell_formula_units_Z   1
loop_
 _symmetry_equiv_pos_site_id
 _symmetry_equiv_pos_as_xyz
  1  'x, y, z'
loop_
 _atom_site_type_symbol
 _atom_site_label
 _atom_site_symmetry_multiplicity
 _atom_site_fract_x
 _atom_site_fract_y
 _atom_site_fract_z
 _atom_site_occupancy
  P  P0  1  0.12500000  0.00000000  0.25000000  1
  P  P1  1  0.00000000  0.00000000  0.00000000  1
  P  P2  1  0.37500000  0.00000000  0.25000000  1
  P  P3  1  0.25000000  0.25000000  0.25000000  1
  P  P4  1  0.00000000  0.25000000  0.12500000  1
  P  P5  1  0.29955670  0.55996626  0.37818818  1
  Li  Li6  1  0.08416164  0.49901222  0.44609237  1
  Li  Li7  1  0.22842307  0.11861700  0.59214339  1
  F  F8  1  0.21164812  0.11196170  0.92148137  1
  F  F9  1  0.80930081  0.75298003  0.19651240  1
  Ti  Ti10  1  0.01933805  0.23959163  0.14549267  1
  O  O11  1  0.78781297  0.73168352  0.88500318  1
  O  O12  1  0.61551496  0.47307325  0.23915230  1
  O  O13  1  0.21663888  0.87185619  0.86479019  1
  O  O14  1  0.07900021  0.40898377  0.58154762  1
