# generated using pymatgen
data_LiTiTe3P3I2
_symmetry_space_group_name_H-M   'P 1'
_cell_length_a   7.26001881
_cell_length_b   7.03072312
_cell_length_c   7.75528975
_cell_angle_alpha   95.66841568
_cell_angle_beta   97.48744888
_cell_angle_gamma   95.34692658
_symmetry_Int_Tables_number   1
_chemical_formula_structural   LiTiTe3P3I2
_chemical_formula_sum   'Li2 Ti2 Te6 P6 I4'
_cell_volume   388.29719305
_cell_formula_units_Z   2
loop_
 _symmetry_equiv_pos_site_id
 _symmetry_equiv_pos_as_xyz
  1  'x, y, z'
loop_
 _atom_site_type_symbol
 _atom_site_label
 _atom_site_symmetry_multiplicity
 _atom_site_fract_x
 _atom_site_fract_y
 _atom_site_fract_z
 _atom_site_occupancy
  I  I0  1  0.12500000  0.00000000  0.25000000  1
  I  I1  1  0.00000000  0.00000000  0.00000000  1
  I  I2  1  0.37500000  0.00000000  0.25000000  1
  I  I3  1  0.25000000  0.25000000  0.25000000  1
  P  P4  1  0.00000000  0.25000000  0.12500000  1
  P  P5  1  0.19106773  0.77618897  0.36818228  1
  P  P6  1  0.50979984  0.44443538  0.24792252  1
  P  P7  1  0.15673899  0.42502171  0.66052547  1
  P  P8  1  0.32546387  0.99242187  0.48765548  1
  P  P9  1  0.22670538  0.22628770  0.13412811  1
  Li  Li10  1  0.36560766  0.31703626  0.62749287  1
  Li  Li11  1  0.64617159  0.53069444  0.35173001  1
  Te  Te12  1  0.54618153  0.83102787  0.35730623  1
  Te  Te13  1  0.80564772  0.42658894  0.01847431  1
  Te  Te14  1  0.98558962  0.78834873  0.27215670  1
  Te  Te15  1  0.92874205  0.08105282  0.54335034  1
  Te  Te16  1  0.45615857  0.97069006  0.87625045  1
  Te  Te17  1  0.14837013  0.96103875  0.88554025  1
  Ti  Ti18  1  0.33765734  0.48683866  0.55667792  1
  Ti  Ti19  1  0.36394450  0.71309276  0.63920447  1
