# generated using pymatgen
data_Li3SeO4F3
_symmetry_space_group_name_H-M   'P 1'
_cell_length_a   5.74440231
_cell_length_b   5.63547702
_cell_length_c   7.44685897
_cell_angle_alpha   99.85293633
_cell_angle_beta   103.46714629
_cell_angle_gamma   99.28600864
_symmetry_Int_Tables_number   1
_chemical_formula_structural   Li3SeO4F3
_chemical_formula_sum   'Li3 Se1 O4 F3'
_cell_volume   225.83567620
_cell_formula_units_Z   1
loop_
 _symmetry_equiv_pos_site_id
 _symmetry_equiv_pos_as_xyz
  1  'x, y, z'
loop_
 _atom_site_type_symbol
 _atom_site_label
 _atom_site_symmetry_multiplicity
 _atom_site_fract_x
 _atom_site_fract_y
 _atom_site_fract_z
 _atom_site_occupancy
  Li  Li0  1  0.12500000  0.00000000  0.25000000  1
  Li  Li1  1  0.00000000  0.00000000  0.00000000  1
  Li  Li2  1  0.37500000  0.00000000  0.25000000  1
  Se  Se3  1  0.25000000  0.25000000  0.25000000  1
  F  F4  1  0.00000000  0.25000000  0.12500000  1
  F  F5  1  0.05511767  0.36804208  0.25623172  1
  F  F6  1  0.77848097  0.74697754  0.77360953  1
  O  O7  1  0.56518765  0.43782153  0.85333985  1
  O  O8  1  0.79703335  0.21947805  0.46938504  1
  O  O9  1  0.60669640  0.26414550  0.36313833  1
  O  O10  1  0.51410866  0.21027359  0.11438407  1
