# generated using pymatgen
data_Li2TiNi2(PI)4
_symmetry_space_group_name_H-M   'P 1'
_cell_length_a   7.66899841
_cell_length_b   7.38880704
_cell_length_c   8.29169208
_cell_angle_alpha   92.28385936
_cell_angle_beta   91.17928541
_cell_angle_gamma   92.64759783
_symmetry_Int_Tables_number   1
_chemical_formula_structural   Li2TiNi2(PI)4
_chemical_formula_sum   'Li2 Ti1 Ni2 P4 I4'
_cell_volume   468.85395285
_cell_formula_units_Z   1
loop_
 _symmetry_equiv_pos_site_id
 _symmetry_equiv_pos_as_xyz
  1  'x, y, z'
loop_
 _atom_site_type_symbol
 _atom_site_label
 _atom_site_symmetry_multiplicity
 _atom_site_fract_x
 _atom_site_fract_y
 _atom_site_fract_z
 _atom_site_occupancy
  I  I0  1  0.12500000  0.00000000  0.25000000  1
  I  I1  1  0.00000000  0.00000000  0.00000000  1
  I  I2  1  0.37500000  0.00000000  0.25000000  1
  I  I3  1  0.25000000  0.25000000  0.25000000  1
  P  P4  1  0.00000000  0.25000000  0.12500000  1
  P  P5  1  0.52856387  0.60896126  0.65325575  1
  P  P6  1  0.11441603  0.45937851  0.58183100  1
  P  P7  1  0.17078046  0.00572144  0.85692046  1
  Li  Li8  1  0.35317119  0.47174756  0.48463364  1
  Li  Li9  1  0.67060959  0.51155676  0.71141293  1
  Ni  Ni10  1  0.76276465  0.08788475  0.84697322  1
  Ni  Ni11  1  0.62321051  0.22133115  0.19028239  1
  Ti  Ti12  1  0.91856960  0.14466530  0.04807854  1
