# generated using pymatgen
data_Li3YTiClO4
_symmetry_space_group_name_H-M   'P 1'
_cell_length_a   7.21112372
_cell_length_b   7.02311012
_cell_length_c   6.83538025
_cell_angle_alpha   92.43513172
_cell_angle_beta   95.98684813
_cell_angle_gamma   94.25695011
_symmetry_Int_Tables_number   1
_chemical_formula_structural   Li3YTiClO4
_chemical_formula_sum   'Li3 Y1 Ti1 Cl1 O4'
_cell_volume   342.89601102
_cell_formula_units_Z   1
loop_
 _symmetry_equiv_pos_site_id
 _symmetry_equiv_pos_as_xyz
  1  'x, y, z'
loop_
 _atom_site_type_symbol
 _atom_site_label
 _atom_site_symmetry_multiplicity
 _atom_site_fract_x
 _atom_site_fract_y
 _atom_site_fract_z
 _atom_site_occupancy
  Y  Y0  1  0.00000000  0.00000000  0.00000000  1
  Cl  Cl1  1  0.50000000  0.50000000  0.50000000  1
  O  O2  1  0.50000000  0.50000000  0.00000000  1
  O  O3  1  0.50000000  0.00000000  0.50000000  1
  O  O4  1  0.00000000  0.50000000  0.50000000  1
  O  O5  1  0.66083891  0.15868735  0.27359760  1
  Ti  Ti6  1  0.39745633  0.41920719  0.86565506  1
  Li  Li7  1  0.54576994  0.48840006  0.47809117  1
  Li  Li8  1  0.17362238  0.68742162  0.76966724  1
  Li  Li9  1  0.65475125  0.31533491  0.64710028  1
