# generated using pymatgen
data_Li(NiP)3
_symmetry_space_group_name_H-M   'P 1'
_cell_length_a   4.58895556
_cell_length_b   4.63965867
_cell_length_c   6.41782455
_cell_angle_alpha   97.88767626
_cell_angle_beta   95.09941061
_cell_angle_gamma   98.38401217
_symmetry_Int_Tables_number   1
_chemical_formula_structural   Li(NiP)3
_chemical_formula_sum   'Li1 Ni3 P3'
_cell_volume   133.07456267
_cell_formula_units_Z   1
loop_
 _symmetry_equiv_pos_site_id
 _symmetry_equiv_pos_as_xyz
  1  'x, y, z'
loop_
 _atom_site_type_symbol
 _atom_site_label
 _atom_site_symmetry_multiplicity
 _atom_site_fract_x
 _atom_site_fract_y
 _atom_site_fract_z
 _atom_site_occupancy
  P  P0  1  0.12500000  0.12500000  0.12500000  1
  P  P1  1  0.50000000  0.50000000  0.50000000  1
  P  P2  1  0.25000000  0.25000000  0.25000000  1
  Li  Li3  1  0.75000000  0.75000000  0.75000000  1
  Ni  Ni4  1  0.30361932  0.52764649  0.83940966  1
  Ni  Ni5  1  0.88151447  0.34093103  0.64245907  1
  Ni  Ni6  1  0.65542235  0.85255140  0.53742741  1
