# generated using pymatgen
data_Li2MnSb4P2N
_symmetry_space_group_name_H-M   'P 1'
_cell_length_a   4.49039804
_cell_length_b   4.76361168
_cell_length_c   6.09276476
_cell_angle_alpha   100.04871561
_cell_angle_beta   96.24821984
_cell_angle_gamma   99.05751633
_symmetry_Int_Tables_number   1
_chemical_formula_structural   Li2MnSb4P2N
_chemical_formula_sum   'Li2 Mn1 Sb4 P2 N1'
_cell_volume   125.47672514
_cell_formula_units_Z   1
loop_
 _symmetry_equiv_pos_site_id
 _symmetry_equiv_pos_as_xyz
  1  'x, y, z'
loop_
 _atom_site_type_symbol
 _atom_site_label
 _atom_site_symmetry_multiplicity
 _atom_site_fract_x
 _atom_site_fract_y
 _atom_site_fract_z
 _atom_site_occupancy
  N  N0  1  0.12500000  0.00000000  0.25000000  1
  Mn  Mn1  1  0.00000000  0.00000000  0.00000000  1
  Sb  Sb2  1  0.37500000  0.00000000  0.25000000  1
  Sb  Sb3  1  0.25000000  0.25000000  0.25000000  1
  Sb  Sb4  1  0.00000000  0.25000000  0.12500000  1
  Sb  Sb5  1  0.95643571  0.73592099  0.66494356  1
  P  P6  1  0.68997771  0.45039220  0.84647410  1
  P  P7  1  0.02226390  0.88297171  0.60042716  1
  Li  Li8  1  0.35972924  0.78312287  0.40495782  1
  Li  Li9  1  0.21672380  0.33737451  0.01016003  1
