# generated using pymatgen
data_Li2TiP5I4O
_symmetry_space_group_name_H-M   'P 1'
_cell_length_a   7.90764215
_cell_length_b   7.79880099
_cell_length_c   7.33679462
_cell_angle_alpha   90.27314724
_cell_angle_beta   91.29955160
_cell_angle_gamma   90.31228023
_symmetry_Int_Tables_number   1
_chemical_formula_structural   Li2TiP5I4O
_chemical_formula_sum   'Li2 Ti1 P5 I4 O1'
_cell_volume   452.33254798
_cell_formula_units_Z   1
loop_
 _symmetry_equiv_pos_site_id
 _symmetry_equiv_pos_as_xyz
  1  'x, y, z'
loop_
 _atom_site_type_symbol
 _atom_site_label
 _atom_site_symmetry_multiplicity
 _atom_site_fract_x
 _atom_site_fract_y
 _atom_site_fract_z
 _atom_site_occupancy
  I  I0  1  0.12500000  0.00000000  0.25000000  1
  I  I1  1  0.00000000  0.00000000  0.00000000  1
  I  I2  1  0.37500000  0.00000000  0.25000000  1
  I  I3  1  0.25000000  0.25000000  0.25000000  1
  P  P4  1  0.00000000  0.25000000  0.12500000  1
  P  P5  1  0.06699270  0.75461072  0.64210544  1
  P  P6  1  0.27321143  0.37547302  0.72719377  1
  P  P7  1  0.56849797  0.17814190  0.79172215  1
  P  P8  1  0.40190889  0.85460405  0.34098655  1
  Li  Li9  1  0.22644473  0.32642708  0.21933235  1
  Li  Li10  1  0.72363973  0.35225843  0.69123700  1
  Ti  Ti11  1  0.51082280  0.30185482  0.81713507  1
  O  O12  1  0.28654005  0.45568271  0.52098057  1
