# generated using pymatgen
data_LiMn3Sb4P3
_symmetry_space_group_name_H-M   'P 1'
_cell_length_a   6.21903865
_cell_length_b   6.66247308
_cell_length_c   6.75321514
_cell_angle_alpha   93.67372640
_cell_angle_beta   90.58216515
_cell_angle_gamma   93.79838994
_symmetry_Int_Tables_number   1
_chemical_formula_structural   LiMn3Sb4P3
_chemical_formula_sum   'Li1 Mn3 Sb4 P3'
_cell_volume   278.59637414
_cell_formula_units_Z   1
loop_
 _symmetry_equiv_pos_site_id
 _symmetry_equiv_pos_as_xyz
  1  'x, y, z'
loop_
 _atom_site_type_symbol
 _atom_site_label
 _atom_site_symmetry_multiplicity
 _atom_site_fract_x
 _atom_site_fract_y
 _atom_site_fract_z
 _atom_site_occupancy
  Mn  Mn0  1  0.00000000  0.00000000  0.00000000  1
  Mn  Mn1  1  0.50000000  0.50000000  0.50000000  1
  Mn  Mn2  1  0.50000000  0.50000000  0.00000000  1
  Sb  Sb3  1  0.50000000  0.00000000  0.50000000  1
  Sb  Sb4  1  0.00000000  0.50000000  0.50000000  1
  Sb  Sb5  1  0.50112348  0.05640043  0.20899379  1
  Sb  Sb6  1  0.44992294  0.28086638  0.49043822  1
  P  P7  1  0.30468840  0.73680236  0.64705976  1
  P  P8  1  0.16491649  0.50610774  0.60384242  1
  P  P9  1  0.31973410  0.49634232  0.13927651  1
  Li  Li10  1  0.38882754  0.00480885  0.55134290  1
