# generated using pymatgen
data_Li2Sb4P3N5
_symmetry_space_group_name_H-M   'P 1'
_cell_length_a   6.93344819
_cell_length_b   7.55603437
_cell_length_c   7.62029911
_cell_angle_alpha   93.92164859
_cell_angle_beta   90.19591287
_cell_angle_gamma   93.84364698
_symmetry_Int_Tables_number   1
_chemical_formula_structural   Li2Sb4P3N5
_chemical_formula_sum   'Li2 Sb4 P3 N5'
_cell_volume   397.37919585
_cell_formula_units_Z   1
loop_
 _symmetry_equiv_pos_site_id
 _symmetry_equiv_pos_as_xyz
  1  'x, y, z'
loop_
 _atom_site_type_symbol
 _atom_site_label
 _atom_site_symmetry_multiplicity
 _atom_site_fract_x
 _atom_site_fract_y
 _atom_site_fract_z
 _atom_site_occupancy
  N  N0  1  0.00000000  0.00000000  0.00000000  1
  N  N1  1  0.33300000  0.66700000  0.25000000  1
  N  N2  1  0.66700000  0.33300000  0.50000000  1
  N  N3  1  0.00000000  0.00000000  0.75000000  1
  N  N4  1  0.41809967  0.53211562  0.94633472  1
  Sb  Sb5  1  0.10835224  0.82873101  0.47819282  1
  Sb  Sb6  1  0.61602257  0.49648887  0.42852833  1
  Sb  Sb7  1  0.65178002  0.98482096  0.91090488  1
  Sb  Sb8  1  0.81619208  0.34909174  0.57315719  1
  P  P9  1  0.94747996  0.21601282  0.62182187  1
  P  P10  1  0.53459299  0.19689624  0.67560970  1
  P  P11  1  0.79605953  0.11055961  0.38614739  1
  Li  Li12  1  0.73820619  0.58923718  0.24487945  1
  Li  Li13  1  0.97024238  0.37071461  0.04252410  1
