# generated using pymatgen
data_LiTi2F3
_symmetry_space_group_name_H-M   'P 1'
_cell_length_a   3.72000806
_cell_length_b   3.77715190
_cell_length_c   5.64741228
_cell_angle_alpha   92.83769571
_cell_angle_beta   109.88045058
_cell_angle_gamma   93.02762133
_symmetry_Int_Tables_number   1
_chemical_formula_structural   LiTi2F3
_chemical_formula_sum   'Li1 Ti2 F3'
_cell_volume   74.32622217
_cell_formula_units_Z   1
loop_
 _symmetry_equiv_pos_site_id
 _symmetry_equiv_pos_as_xyz
  1  'x, y, z'
loop_
 _atom_site_type_symbol
 _atom_site_label
 _atom_site_symmetry_multiplicity
 _atom_site_fract_x
 _atom_site_fract_y
 _atom_site_fract_z
 _atom_site_occupancy
  F  F0  1  0.00000000  0.00000000  0.00000000  1
  F  F1  1  0.33300000  0.66700000  0.25000000  1
  F  F2  1  0.66700000  0.33300000  0.50000000  1
  Ti  Ti3  1  0.00000000  0.00000000  0.75000000  1
  Ti  Ti4  1  0.45559078  0.94210700  0.90664472  1
  Li  Li5  1  0.39524090  0.68882635  0.02207979  1
