# generated using pymatgen
data_Li3Ni2As6O7F3
_symmetry_space_group_name_H-M   'P 1'
_cell_length_a   7.24475873
_cell_length_b   6.92971017
_cell_length_c   8.42346368
_cell_angle_alpha   92.63313204
_cell_angle_beta   92.78755544
_cell_angle_gamma   93.02817257
_symmetry_Int_Tables_number   1
_chemical_formula_structural   Li3Ni2As6O7F3
_chemical_formula_sum   'Li3 Ni2 As6 O7 F3'
_cell_volume   421.30288099
_cell_formula_units_Z   1
loop_
 _symmetry_equiv_pos_site_id
 _symmetry_equiv_pos_as_xyz
  1  'x, y, z'
loop_
 _atom_site_type_symbol
 _atom_site_label
 _atom_site_symmetry_multiplicity
 _atom_site_fract_x
 _atom_site_fract_y
 _atom_site_fract_z
 _atom_site_occupancy
  Li  Li0  1  0.12500000  0.00000000  0.25000000  1
  Li  Li1  1  0.00000000  0.00000000  0.00000000  1
  Li  Li2  1  0.37500000  0.00000000  0.25000000  1
  F  F3  1  0.25000000  0.25000000  0.25000000  1
  F  F4  1  0.00000000  0.25000000  0.12500000  1
  F  F5  1  0.00790532  0.32482586  0.43751977  1
  Ni  Ni6  1  0.99173051  0.57662550  0.56102947  1
  Ni  Ni7  1  0.00775564  0.69276577  0.49183070  1
  As  As8  1  0.33698507  0.62971267  0.03277861  1
  As  As9  1  0.96509038  0.60004804  0.77902652  1
  As  As10  1  0.84984015  0.72718071  0.11812967  1
  As  As11  1  0.31195518  0.85177749  0.63469058  1
  As  As12  1  0.73808367  0.25532207  0.81823948  1
  As  As13  1  0.74230527  0.26917915  0.02960965  1
  O  O14  1  0.80082378  0.84029336  0.25032765  1
  O  O15  1  0.99706775  0.84718857  0.40372447  1
  O  O16  1  0.40744729  0.13887085  0.41432253  1
  O  O17  1  0.20785689  0.08646020  0.31280058  1
  O  O18  1  0.23739090  0.44965902  0.45811898  1
  O  O19  1  0.23109691  0.28288896  0.54449159  1
  O  O20  1  0.42629829  0.44126577  0.91916742  1
