# generated using pymatgen
data_LiMn2Sb4P3
_symmetry_space_group_name_H-M   'P 1'
_cell_length_a   5.75889510
_cell_length_b   6.17413073
_cell_length_c   6.96022748
_cell_angle_alpha   94.56984929
_cell_angle_beta   93.98031375
_cell_angle_gamma   94.89714236
_symmetry_Int_Tables_number   1
_chemical_formula_structural   LiMn2Sb4P3
_chemical_formula_sum   'Li1 Mn2 Sb4 P3'
_cell_volume   245.06697596
_cell_formula_units_Z   1
loop_
 _symmetry_equiv_pos_site_id
 _symmetry_equiv_pos_as_xyz
  1  'x, y, z'
loop_
 _atom_site_type_symbol
 _atom_site_label
 _atom_site_symmetry_multiplicity
 _atom_site_fract_x
 _atom_site_fract_y
 _atom_site_fract_z
 _atom_site_occupancy
  Mn  Mn0  1  0.00000000  0.00000000  0.00000000  1
  Mn  Mn1  1  0.50000000  0.50000000  0.50000000  1
  Sb  Sb2  1  0.25000000  0.25000000  0.25000000  1
  Sb  Sb3  1  0.75000000  0.25000000  0.00000000  1
  Sb  Sb4  1  0.25000000  0.75000000  0.50000000  1
  Sb  Sb5  1  0.05707756  0.82775726  0.65664260  1
  P  P6  1  0.31732756  0.89981702  0.81381283  1
  P  P7  1  0.58195086  0.29614052  0.65345355  1
  P  P8  1  0.06855212  0.15213283  0.26504274  1
  Li  Li9  1  0.02970487  0.23801341  0.82919951  1
