# generated using pymatgen
data_Li2MnSb4P3
_symmetry_space_group_name_H-M   'P 1'
_cell_length_a   5.49459549
_cell_length_b   5.92679621
_cell_length_c   7.02389231
_cell_angle_alpha   96.47007263
_cell_angle_beta   95.11473806
_cell_angle_gamma   97.00866649
_symmetry_Int_Tables_number   1
_chemical_formula_structural   Li2MnSb4P3
_chemical_formula_sum   'Li2 Mn1 Sb4 P3'
_cell_volume   224.34907716
_cell_formula_units_Z   1
loop_
 _symmetry_equiv_pos_site_id
 _symmetry_equiv_pos_as_xyz
  1  'x, y, z'
loop_
 _atom_site_type_symbol
 _atom_site_label
 _atom_site_symmetry_multiplicity
 _atom_site_fract_x
 _atom_site_fract_y
 _atom_site_fract_z
 _atom_site_occupancy
  Mn  Mn0  1  0.00000000  0.00000000  0.00000000  1
  Sb  Sb1  1  0.50000000  0.50000000  0.50000000  1
  Sb  Sb2  1  0.25000000  0.25000000  0.25000000  1
  Sb  Sb3  1  0.75000000  0.25000000  0.00000000  1
  Sb  Sb4  1  0.25000000  0.75000000  0.50000000  1
  P  P5  1  0.64622678  0.05084491  0.59350405  1
  P  P6  1  0.47237483  0.01206609  0.72153000  1
  P  P7  1  0.72922401  0.90760010  0.22547667  1
  Li  Li8  1  0.78024745  0.60860990  0.86954847  1
  Li  Li9  1  0.39845893  0.13724702  0.76563516  1
