# generated using pymatgen
data_Li3Se(O2F)2
_symmetry_space_group_name_H-M   'P 1'
_cell_length_a   7.12545631
_cell_length_b   6.87536036
_cell_length_c   7.18832979
_cell_angle_alpha   96.33603263
_cell_angle_beta   98.33024589
_cell_angle_gamma   95.95192495
_symmetry_Int_Tables_number   1
_chemical_formula_structural   Li3Se(O2F)2
_chemical_formula_sum   'Li3 Se1 O4 F2'
_cell_volume   343.73876915
_cell_formula_units_Z   1
loop_
 _symmetry_equiv_pos_site_id
 _symmetry_equiv_pos_as_xyz
  1  'x, y, z'
loop_
 _atom_site_type_symbol
 _atom_site_label
 _atom_site_symmetry_multiplicity
 _atom_site_fract_x
 _atom_site_fract_y
 _atom_site_fract_z
 _atom_site_occupancy
  Li  Li0  1  0.00000000  0.00000000  0.00000000  1
  Li  Li1  1  0.50000000  0.50000000  0.50000000  1
  Li  Li2  1  0.50000000  0.50000000  0.00000000  1
  F  F3  1  0.50000000  0.00000000  0.50000000  1
  F  F4  1  0.00000000  0.50000000  0.50000000  1
  Se  Se5  1  0.95800624  0.40221603  0.31332549  1
  O  O6  1  0.81347201  0.91839539  0.53890269  1
  O  O7  1  0.21332787  0.59081701  0.76438278  1
  O  O8  1  0.59247695  0.35067233  0.27018692  1
  O  O9  1  0.20221135  0.18231118  0.38792955  1
