# generated using pymatgen
data_Li2P4Br3Cl2
_symmetry_space_group_name_H-M   'P 1'
_cell_length_a   6.32306335
_cell_length_b   6.27218544
_cell_length_c   7.41260310
_cell_angle_alpha   98.87976815
_cell_angle_beta   101.40024590
_cell_angle_gamma   98.63332266
_symmetry_Int_Tables_number   1
_chemical_formula_structural   Li2P4Br3Cl2
_chemical_formula_sum   'Li2 P4 Br3 Cl2'
_cell_volume   279.73036756
_cell_formula_units_Z   1
loop_
 _symmetry_equiv_pos_site_id
 _symmetry_equiv_pos_as_xyz
  1  'x, y, z'
loop_
 _atom_site_type_symbol
 _atom_site_label
 _atom_site_symmetry_multiplicity
 _atom_site_fract_x
 _atom_site_fract_y
 _atom_site_fract_z
 _atom_site_occupancy
  P  P0  1  0.00000000  0.00000000  0.00000000  1
  P  P1  1  0.50000000  0.50000000  0.50000000  1
  P  P2  1  0.50000000  0.50000000  0.00000000  1
  P  P3  1  0.50000000  0.00000000  0.50000000  1
  Li  Li4  1  0.00000000  0.50000000  0.50000000  1
  Li  Li5  1  0.89611100  0.30475996  0.07928146  1
  Cl  Cl6  1  0.39658977  0.93977760  0.80409293  1
  Cl  Cl7  1  0.76367442  0.81216828  0.89070757  1
  Br  Br8  1  0.21969760  0.19553245  0.38975846  1
  Br  Br9  1  0.23292781  0.10787226  0.92076102  1
  Br  Br10  1  0.67679444  0.77537644  0.13655859  1
