# generated using pymatgen
data_LiCuAs3
_symmetry_space_group_name_H-M   'P 1'
_cell_length_a   7.46281768
_cell_length_b   7.51696777
_cell_length_c   8.53873860
_cell_angle_alpha   91.21915795
_cell_angle_beta   92.04024283
_cell_angle_gamma   91.40800586
_symmetry_Int_Tables_number   1
_chemical_formula_structural   LiCuAs3
_chemical_formula_sum   'Li2 Cu2 As6'
_cell_volume   478.43827155
_cell_formula_units_Z   2
loop_
 _symmetry_equiv_pos_site_id
 _symmetry_equiv_pos_as_xyz
  1  'x, y, z'
loop_
 _atom_site_type_symbol
 _atom_site_label
 _atom_site_symmetry_multiplicity
 _atom_site_fract_x
 _atom_site_fract_y
 _atom_site_fract_z
 _atom_site_occupancy
  As  As0  1  0.12500000  0.00000000  0.25000000  1
  As  As1  1  0.00000000  0.00000000  0.00000000  1
  As  As2  1  0.37500000  0.00000000  0.25000000  1
  As  As3  1  0.25000000  0.25000000  0.25000000  1
  As  As4  1  0.00000000  0.25000000  0.12500000  1
  As  As5  1  0.98605311  0.42937215  0.26345380  1
  Li  Li6  1  0.32815748  0.97122316  0.01068989  1
  Li  Li7  1  0.37632491  0.89487074  0.74235537  1
  Cu  Cu8  1  0.70037652  0.50468749  0.52029232  1
  Cu  Cu9  1  0.87939951  0.22782230  0.09858429  1
