# generated using pymatgen
data_Li2As6I4O5
_symmetry_space_group_name_H-M   'P 1'
_cell_length_a   7.75683253
_cell_length_b   7.61245290
_cell_length_c   8.16414640
_cell_angle_alpha   90.35507003
_cell_angle_beta   92.31521796
_cell_angle_gamma   90.38468687
_symmetry_Int_Tables_number   1
_chemical_formula_structural   Li2As6I4O5
_chemical_formula_sum   'Li2 As6 I4 O5'
_cell_volume   481.66630850
_cell_formula_units_Z   1
loop_
 _symmetry_equiv_pos_site_id
 _symmetry_equiv_pos_as_xyz
  1  'x, y, z'
loop_
 _atom_site_type_symbol
 _atom_site_label
 _atom_site_symmetry_multiplicity
 _atom_site_fract_x
 _atom_site_fract_y
 _atom_site_fract_z
 _atom_site_occupancy
  I  I0  1  0.00000000  0.00000000  0.00000000  1
  I  I1  1  0.50000000  0.50000000  0.50000000  1
  I  I2  1  0.25000000  0.25000000  0.25000000  1
  I  I3  1  0.75000000  0.25000000  0.00000000  1
  Li  Li4  1  0.25000000  0.75000000  0.50000000  1
  Li  Li5  1  0.94008497  0.52370588  0.41428633  1
  As  As6  1  0.12594015  0.73132890  0.80148006  1
  As  As7  1  0.56255832  0.29890006  0.64215219  1
  As  As8  1  0.75337217  0.65888066  0.04468667  1
  As  As9  1  0.60341976  0.81331072  0.27070902  1
  As  As10  1  0.97079633  0.12618829  0.79974904  1
  As  As11  1  0.85958572  0.10190858  0.70599448  1
  O  O12  1  0.17692729  0.93463722  0.40632328  1
  O  O13  1  0.76759500  0.92041972  0.23336627  1
  O  O14  1  0.32551473  0.21743358  0.51653841  1
  O  O15  1  0.74133912  0.96949580  0.11869541  1
  O  O16  1  0.21017077  0.69644793  0.79047157  1
