# generated using pymatgen
data_LiMnSb4Mo2P3
_symmetry_space_group_name_H-M   'P 1'
_cell_length_a   4.76825964
_cell_length_b   4.99253460
_cell_length_c   6.34712251
_cell_angle_alpha   98.60408684
_cell_angle_beta   93.76799356
_cell_angle_gamma   98.72364349
_symmetry_Int_Tables_number   1
_chemical_formula_structural   LiMnSb4Mo2P3
_chemical_formula_sum   'Li1 Mn1 Sb4 Mo2 P3'
_cell_volume   147.06345944
_cell_formula_units_Z   1
loop_
 _symmetry_equiv_pos_site_id
 _symmetry_equiv_pos_as_xyz
  1  'x, y, z'
loop_
 _atom_site_type_symbol
 _atom_site_label
 _atom_site_symmetry_multiplicity
 _atom_site_fract_x
 _atom_site_fract_y
 _atom_site_fract_z
 _atom_site_occupancy
  Mn  Mn0  1  0.00000000  0.00000000  0.00000000  1
  Sb  Sb1  1  0.50000000  0.50000000  0.50000000  1
  Sb  Sb2  1  0.25000000  0.25000000  0.25000000  1
  Sb  Sb3  1  0.75000000  0.25000000  0.00000000  1
  Sb  Sb4  1  0.25000000  0.75000000  0.50000000  1
  P  P5  1  0.09034320  0.15984174  0.29641864  1
  P  P6  1  0.56758443  0.95023851  0.87525674  1
  P  P7  1  0.97133468  0.66795491  0.69078476  1
  Mo  Mo8  1  0.37716600  0.21447131  0.77591021  1
  Mo  Mo9  1  0.98377901  0.11561165  0.69596593  1
  Li  Li10  1  0.92777920  0.78099815  0.28939243  1
