# generated using pymatgen
data_Li3Ti2P3
_symmetry_space_group_name_H-M   'P 1'
_cell_length_a   6.59101962
_cell_length_b   6.26275727
_cell_length_c   7.76920939
_cell_angle_alpha   93.51473756
_cell_angle_beta   94.50965952
_cell_angle_gamma   93.59659038
_symmetry_Int_Tables_number   1
_chemical_formula_structural   Li3Ti2P3
_chemical_formula_sum   'Li3 Ti2 P3'
_cell_volume   318.36668559
_cell_formula_units_Z   1
loop_
 _symmetry_equiv_pos_site_id
 _symmetry_equiv_pos_as_xyz
  1  'x, y, z'
loop_
 _atom_site_type_symbol
 _atom_site_label
 _atom_site_symmetry_multiplicity
 _atom_site_fract_x
 _atom_site_fract_y
 _atom_site_fract_z
 _atom_site_occupancy
  P  P0  1  0.00000000  0.00000000  0.00000000  1
  P  P1  1  0.50000000  0.50000000  0.50000000  1
  P  P2  1  0.50000000  0.50000000  0.00000000  1
  Li  Li3  1  0.50000000  0.00000000  0.50000000  1
  Li  Li4  1  0.00000000  0.50000000  0.50000000  1
  Li  Li5  1  0.14959932  0.26069579  0.38063049  1
  Ti  Ti6  1  0.55606708  0.31317635  0.12806251  1
  Ti  Ti7  1  0.02875999  0.79855469  0.96214649  1
