# generated using pymatgen
data_Li2Mn2Sb4P3
_symmetry_space_group_name_H-M   'P 1'
_cell_length_a   6.51136147
_cell_length_b   6.77928919
_cell_length_c   7.16904492
_cell_angle_alpha   94.92843858
_cell_angle_beta   91.30211336
_cell_angle_gamma   94.97746101
_symmetry_Int_Tables_number   1
_chemical_formula_structural   Li2Mn2Sb4P3
_chemical_formula_sum   'Li2 Mn2 Sb4 P3'
_cell_volume   313.95464323
_cell_formula_units_Z   1
loop_
 _symmetry_equiv_pos_site_id
 _symmetry_equiv_pos_as_xyz
  1  'x, y, z'
loop_
 _atom_site_type_symbol
 _atom_site_label
 _atom_site_symmetry_multiplicity
 _atom_site_fract_x
 _atom_site_fract_y
 _atom_site_fract_z
 _atom_site_occupancy
  Mn  Mn0  1  0.00000000  0.00000000  0.00000000  1
  Mn  Mn1  1  0.50000000  0.50000000  0.50000000  1
  Sb  Sb2  1  0.50000000  0.50000000  0.00000000  1
  Sb  Sb3  1  0.50000000  0.00000000  0.50000000  1
  Sb  Sb4  1  0.00000000  0.50000000  0.50000000  1
  Sb  Sb5  1  0.84565231  0.85864001  0.11347376  1
  P  P6  1  0.15462083  0.53134212  0.08457434  1
  P  P7  1  0.91380391  0.89879932  0.94566538  1
  P  P8  1  0.61846803  0.15813421  0.73747189  1
  Li  Li9  1  0.61441882  0.19885377  0.19195176  1
  Li  Li10  1  0.68902843  0.34282574  0.39383691  1
