# generated using pymatgen
data_LiTi2P3Se3O
_symmetry_space_group_name_H-M   'P 1'
_cell_length_a   7.77207537
_cell_length_b   7.72043096
_cell_length_c   7.02052556
_cell_angle_alpha   90.23162172
_cell_angle_beta   91.10198581
_cell_angle_gamma   90.26480548
_symmetry_Int_Tables_number   1
_chemical_formula_structural   LiTi2P3Se3O
_chemical_formula_sum   'Li1 Ti2 P3 Se3 O1'
_cell_volume   421.17200233
_cell_formula_units_Z   1
loop_
 _symmetry_equiv_pos_site_id
 _symmetry_equiv_pos_as_xyz
  1  'x, y, z'
loop_
 _atom_site_type_symbol
 _atom_site_label
 _atom_site_symmetry_multiplicity
 _atom_site_fract_x
 _atom_site_fract_y
 _atom_site_fract_z
 _atom_site_occupancy
  P  P0  1  0.00000000  0.00000000  0.00000000  1
  P  P1  1  0.50000000  0.50000000  0.50000000  1
  P  P2  1  0.50000000  0.50000000  0.00000000  1
  Li  Li3  1  0.50000000  0.00000000  0.50000000  1
  Se  Se4  1  0.00000000  0.50000000  0.50000000  1
  Se  Se5  1  0.28382808  0.99897283  0.51271327  1
  Se  Se6  1  0.36724885  0.84172837  0.01791600  1
  Ti  Ti7  1  0.77707537  0.17636985  0.99705947  1
  Ti  Ti8  1  0.35696792  0.48895041  0.41976689  1
  O  O9  1  0.05777165  0.61786590  0.15873041  1
