# generated using pymatgen
data_Li3Ni2P4I4N5
_symmetry_space_group_name_H-M   'P 1'
_cell_length_a   8.27595266
_cell_length_b   8.04809103
_cell_length_c   7.89805496
_cell_angle_alpha   91.45514184
_cell_angle_beta   90.51445374
_cell_angle_gamma   91.68778838
_symmetry_Int_Tables_number   1
_chemical_formula_structural   Li3Ni2P4I4N5
_chemical_formula_sum   'Li3 Ni2 P4 I4 N5'
_cell_volume   525.63215000
_cell_formula_units_Z   1
loop_
 _symmetry_equiv_pos_site_id
 _symmetry_equiv_pos_as_xyz
  1  'x, y, z'
loop_
 _atom_site_type_symbol
 _atom_site_label
 _atom_site_symmetry_multiplicity
 _atom_site_fract_x
 _atom_site_fract_y
 _atom_site_fract_z
 _atom_site_occupancy
  I  I0  1  0.00000000  0.00000000  0.00000000  1
  I  I1  1  0.50000000  0.50000000  0.50000000  1
  I  I2  1  0.50000000  0.50000000  0.00000000  1
  I  I3  1  0.50000000  0.00000000  0.50000000  1
  P  P4  1  0.00000000  0.50000000  0.50000000  1
  P  P5  1  0.35997058  0.03588045  0.95633064  1
  P  P6  1  0.39462267  0.21564373  0.79423989  1
  P  P7  1  0.87951688  0.71157371  0.43478288  1
  Li  Li8  1  0.02504090  0.41680830  0.53112884  1
  Li  Li9  1  0.11197648  0.04249648  0.77464517  1
  Li  Li10  1  0.80355148  0.77599161  0.69316427  1
  Ni  Ni11  1  0.17384357  0.30423472  0.79142057  1
  Ni  Ni12  1  0.31764990  0.09874207  0.74557911  1
  N  N13  1  0.95178480  0.68952347  0.71807453  1
  N  N14  1  0.35257342  0.39478803  0.65544929  1
  N  N15  1  0.82312045  0.98257856  0.02840726  1
  N  N16  1  0.64814669  0.75815493  0.92925683  1
  N  N17  1  0.64079910  0.60753286  0.67094771  1
