# generated using pymatgen
data_LiMn2(Sb2P)2
_symmetry_space_group_name_H-M   'P 1'
_cell_length_a   5.44521006
_cell_length_b   5.78664451
_cell_length_c   6.59547666
_cell_angle_alpha   95.95682667
_cell_angle_beta   94.32386970
_cell_angle_gamma   95.24759765
_symmetry_Int_Tables_number   1
_chemical_formula_structural   LiMn2(Sb2P)2
_chemical_formula_sum   'Li1 Mn2 Sb4 P2'
_cell_volume   205.07430695
_cell_formula_units_Z   1
loop_
 _symmetry_equiv_pos_site_id
 _symmetry_equiv_pos_as_xyz
  1  'x, y, z'
loop_
 _atom_site_type_symbol
 _atom_site_label
 _atom_site_symmetry_multiplicity
 _atom_site_fract_x
 _atom_site_fract_y
 _atom_site_fract_z
 _atom_site_occupancy
  Mn  Mn0  1  0.00000000  0.00000000  0.00000000  1
  Mn  Mn1  1  0.33300000  0.66700000  0.25000000  1
  Sb  Sb2  1  0.66700000  0.33300000  0.50000000  1
  Sb  Sb3  1  0.00000000  0.00000000  0.75000000  1
  Sb  Sb4  1  0.22745581  0.73054288  0.95925177  1
  Sb  Sb5  1  0.15744054  0.70636535  0.36382523  1
  P  P6  1  0.21919144  0.47915908  0.19053338  1
  P  P7  1  0.76233298  0.99558336  0.52585855  1
  Li  Li8  1  0.92485107  0.75658302  0.20275404  1
