# generated using pymatgen
data_Li2TiZn2I4O3
_symmetry_space_group_name_H-M   'P 1'
_cell_length_a   8.25931961
_cell_length_b   8.36586709
_cell_length_c   7.28786777
_cell_angle_alpha   90.14523388
_cell_angle_beta   90.69097868
_cell_angle_gamma   90.16604110
_symmetry_Int_Tables_number   1
_chemical_formula_structural   Li2TiZn2I4O3
_chemical_formula_sum   'Li2 Ti1 Zn2 I4 O3'
_cell_volume   503.52481283
_cell_formula_units_Z   1
loop_
 _symmetry_equiv_pos_site_id
 _symmetry_equiv_pos_as_xyz
  1  'x, y, z'
loop_
 _atom_site_type_symbol
 _atom_site_label
 _atom_site_symmetry_multiplicity
 _atom_site_fract_x
 _atom_site_fract_y
 _atom_site_fract_z
 _atom_site_occupancy
  I  I0  1  0.00000000  0.00000000  0.00000000  1
  I  I1  1  0.50000000  0.50000000  0.50000000  1
  I  I2  1  0.25000000  0.25000000  0.25000000  1
  I  I3  1  0.75000000  0.25000000  0.00000000  1
  Li  Li4  1  0.25000000  0.75000000  0.50000000  1
  Li  Li5  1  0.36996010  0.95203308  0.49044728  1
  Zn  Zn6  1  0.17969115  0.20842962  0.65754845  1
  Zn  Zn7  1  0.85794156  0.07827714  0.00134619  1
  Ti  Ti8  1  0.15038580  0.94075610  0.80614688  1
  O  O9  1  0.33964944  0.75348774  0.06609453  1
  O  O10  1  0.62005481  0.72117248  0.84610031  1
  O  O11  1  0.93663959  0.77878467  0.36243539  1
