# generated using pymatgen
data_Li3Ti3Cu2(NiO)2
_symmetry_space_group_name_H-M   'P 1'
_cell_length_a   5.80606439
_cell_length_b   6.02133365
_cell_length_c   7.31311843
_cell_angle_alpha   98.91214377
_cell_angle_beta   101.49311000
_cell_angle_gamma   101.36355065
_symmetry_Int_Tables_number   1
_chemical_formula_structural   Li3Ti3Cu2(NiO)2
_chemical_formula_sum   'Li3 Ti3 Cu2 Ni2 O2'
_cell_volume   240.56119219
_cell_formula_units_Z   1
loop_
 _symmetry_equiv_pos_site_id
 _symmetry_equiv_pos_as_xyz
  1  'x, y, z'
loop_
 _atom_site_type_symbol
 _atom_site_label
 _atom_site_symmetry_multiplicity
 _atom_site_fract_x
 _atom_site_fract_y
 _atom_site_fract_z
 _atom_site_occupancy
  Li  Li0  1  0.12500000  0.00000000  0.25000000  1
  Li  Li1  1  0.00000000  0.00000000  0.00000000  1
  Li  Li2  1  0.37500000  0.00000000  0.25000000  1
  Cu  Cu3  1  0.25000000  0.25000000  0.25000000  1
  Cu  Cu4  1  0.00000000  0.25000000  0.12500000  1
  Ni  Ni5  1  0.83219968  0.55266268  0.76843656  1
  Ni  Ni6  1  0.29669079  0.20584175  0.76606888  1
  Ti  Ti7  1  0.93540834  0.16968423  0.42402208  1
  Ti  Ti8  1  0.24279457  0.63301729  0.77303647  1
  Ti  Ti9  1  0.68532643  0.30094616  0.63861507  1
  O  O10  1  0.08352974  0.30719207  0.91076035  1
  O  O11  1  0.29406080  0.83428405  0.16776651  1
