# generated using pymatgen
data_Li3LuTi2(NiP2)2
_symmetry_space_group_name_H-M   'P 1'
_cell_length_a   7.69645034
_cell_length_b   7.53450544
_cell_length_c   8.48067529
_cell_angle_alpha   91.59837374
_cell_angle_beta   91.50541314
_cell_angle_gamma   91.85037326
_symmetry_Int_Tables_number   1
_chemical_formula_structural   Li3LuTi2(NiP2)2
_chemical_formula_sum   'Li3 Lu1 Ti2 Ni2 P4'
_cell_volume   491.15599453
_cell_formula_units_Z   1
loop_
 _symmetry_equiv_pos_site_id
 _symmetry_equiv_pos_as_xyz
  1  'x, y, z'
loop_
 _atom_site_type_symbol
 _atom_site_label
 _atom_site_symmetry_multiplicity
 _atom_site_fract_x
 _atom_site_fract_y
 _atom_site_fract_z
 _atom_site_occupancy
  P  P0  1  0.00000000  0.00000000  0.00000000  1
  P  P1  1  0.50000000  0.50000000  0.50000000  1
  P  P2  1  0.25000000  0.25000000  0.25000000  1
  P  P3  1  0.75000000  0.25000000  0.00000000  1
  Lu  Lu4  1  0.25000000  0.75000000  0.50000000  1
  Li  Li5  1  0.40229045  0.95948886  0.24893530  1
  Li  Li6  1  0.29502947  0.56676492  0.50251299  1
  Li  Li7  1  0.36536517  0.21703446  0.77307455  1
  Ni  Ni8  1  0.40526106  0.51210858  0.56637423  1
  Ni  Ni9  1  0.56720331  0.71258759  0.50380699  1
  Ti  Ti10  1  0.47299969  0.41444922  0.22826791  1
  Ti  Ti11  1  0.55659421  0.96405526  0.94138690  1
