# generated using pymatgen
data_Li3Ti2Cu2(P2O)2
_symmetry_space_group_name_H-M   'P 1'
_cell_length_a   6.07971972
_cell_length_b   6.24865827
_cell_length_c   6.92110641
_cell_angle_alpha   95.26131659
_cell_angle_beta   97.69700880
_cell_angle_gamma   96.19577065
_symmetry_Int_Tables_number   1
_chemical_formula_structural   Li3Ti2Cu2(P2O)2
_chemical_formula_sum   'Li3 Ti2 Cu2 P4 O2'
_cell_volume   257.53442944
_cell_formula_units_Z   1
loop_
 _symmetry_equiv_pos_site_id
 _symmetry_equiv_pos_as_xyz
  1  'x, y, z'
loop_
 _atom_site_type_symbol
 _atom_site_label
 _atom_site_symmetry_multiplicity
 _atom_site_fract_x
 _atom_site_fract_y
 _atom_site_fract_z
 _atom_site_occupancy
  P  P0  1  0.12500000  0.00000000  0.25000000  1
  P  P1  1  0.00000000  0.00000000  0.00000000  1
  P  P2  1  0.37500000  0.00000000  0.25000000  1
  P  P3  1  0.25000000  0.25000000  0.25000000  1
  Li  Li4  1  0.00000000  0.25000000  0.12500000  1
  Li  Li5  1  0.14355343  0.11235322  0.51582007  1
  Li  Li6  1  0.40036732  0.86135279  0.34599481  1
  Cu  Cu7  1  0.98423042  0.38539324  0.95362891  1
  Cu  Cu8  1  0.63735096  0.77164649  0.63631852  1
  Ti  Ti9  1  0.57827333  0.07133155  0.22125959  1
  Ti  Ti10  1  0.75819688  0.88910831  0.95774239  1
  O  O11  1  0.77892402  0.50608447  0.21453109  1
  O  O12  1  0.56711685  0.84416843  0.27868841  1
