# generated using pymatgen
data_Li2Mn2Sb4P3N5
_symmetry_space_group_name_H-M   'P 1'
_cell_length_a   7.60268526
_cell_length_b   8.11604083
_cell_length_c   8.00150129
_cell_angle_alpha   90.61650273
_cell_angle_beta   90.73030445
_cell_angle_gamma   90.70165623
_symmetry_Int_Tables_number   1
_chemical_formula_structural   Li2Mn2Sb4P3N5
_chemical_formula_sum   'Li2 Mn2 Sb4 P3 N5'
_cell_volume   493.61572226
_cell_formula_units_Z   1
loop_
 _symmetry_equiv_pos_site_id
 _symmetry_equiv_pos_as_xyz
  1  'x, y, z'
loop_
 _atom_site_type_symbol
 _atom_site_label
 _atom_site_symmetry_multiplicity
 _atom_site_fract_x
 _atom_site_fract_y
 _atom_site_fract_z
 _atom_site_occupancy
  N  N0  1  0.00000000  0.00000000  0.00000000  1
  N  N1  1  0.50000000  0.50000000  0.50000000  1
  N  N2  1  0.25000000  0.25000000  0.25000000  1
  N  N3  1  0.75000000  0.25000000  0.00000000  1
  N  N4  1  0.25000000  0.75000000  0.50000000  1
  Mn  Mn5  1  0.86422982  0.57137497  0.91798179  1
  Mn  Mn6  1  0.67746678  0.18629806  0.43754836  1
  Sb  Sb7  1  0.26379087  0.47858119  0.59933521  1
  Sb  Sb8  1  0.09748902  0.28819842  0.60109238  1
  Sb  Sb9  1  0.00910476  0.11878936  0.55919210  1
  Sb  Sb10  1  0.29329024  0.03248966  0.73968256  1
  P  P11  1  0.73424535  0.43009585  0.31363642  1
  P  P12  1  0.34114645  0.69443517  0.73645558  1
  P  P13  1  0.29269107  0.04852600  0.76513823  1
  Li  Li14  1  0.89139199  0.79113483  0.32126898  1
  Li  Li15  1  0.17244923  0.86827458  0.29800122  1
