# generated using pymatgen
data_Li2MnSb2PN5
_symmetry_space_group_name_H-M   'P 1'
_cell_length_a   6.07295725
_cell_length_b   6.42501424
_cell_length_c   7.08922803
_cell_angle_alpha   96.24379830
_cell_angle_beta   91.44870461
_cell_angle_gamma   96.19600342
_symmetry_Int_Tables_number   1
_chemical_formula_structural   Li2MnSb2PN5
_chemical_formula_sum   'Li2 Mn1 Sb2 P1 N5'
_cell_volume   273.17446952
_cell_formula_units_Z   1
loop_
 _symmetry_equiv_pos_site_id
 _symmetry_equiv_pos_as_xyz
  1  'x, y, z'
loop_
 _atom_site_type_symbol
 _atom_site_label
 _atom_site_symmetry_multiplicity
 _atom_site_fract_x
 _atom_site_fract_y
 _atom_site_fract_z
 _atom_site_occupancy
  N  N0  1  0.00000000  0.00000000  0.00000000  1
  N  N1  1  0.50000000  0.50000000  0.50000000  1
  N  N2  1  0.25000000  0.25000000  0.25000000  1
  N  N3  1  0.75000000  0.25000000  0.00000000  1
  N  N4  1  0.25000000  0.75000000  0.50000000  1
  Mn  Mn5  1  0.27915830  0.21049395  0.63993409  1
  Sb  Sb6  1  0.85921600  0.10022645  0.12432984  1
  Sb  Sb7  1  0.55304370  0.11323222  0.81813465  1
  P  P8  1  0.39195473  0.73138574  0.02384954  1
  Li  Li9  1  0.61697116  0.67103366  0.76112416  1
  Li  Li10  1  0.15331268  0.99882082  0.81005364  1
