# generated using pymatgen
data_Li2TiP5(I2O)2
_symmetry_space_group_name_H-M   'P 1'
_cell_length_a   8.29921062
_cell_length_b   8.18616117
_cell_length_c   7.28433241
_cell_angle_alpha   90.16279584
_cell_angle_beta   90.77453318
_cell_angle_gamma   90.18611912
_symmetry_Int_Tables_number   1
_chemical_formula_structural   Li2TiP5(I2O)2
_chemical_formula_sum   'Li2 Ti1 P5 I4 O2'
_cell_volume   494.83800926
_cell_formula_units_Z   1
loop_
 _symmetry_equiv_pos_site_id
 _symmetry_equiv_pos_as_xyz
  1  'x, y, z'
loop_
 _atom_site_type_symbol
 _atom_site_label
 _atom_site_symmetry_multiplicity
 _atom_site_fract_x
 _atom_site_fract_y
 _atom_site_fract_z
 _atom_site_occupancy
  P  P0  1  0.00000000  0.00000000  0.00000000  1
  P  P1  1  0.50000000  0.50000000  0.50000000  1
  P  P2  1  0.50000000  0.50000000  0.00000000  1
  P  P3  1  0.50000000  0.00000000  0.50000000  1
  P  P4  1  0.00000000  0.50000000  0.50000000  1
  I  I5  1  0.71744745  0.77534391  0.82658509  1
  I  I6  1  0.40327627  0.69707530  0.74394068  1
  I  I7  1  0.58673465  0.44216527  0.85111066  1
  I  I8  1  0.23714240  0.49100406  0.37540396  1
  Li  Li9  1  0.76174394  0.81823849  0.56625856  1
  Li  Li10  1  0.98780153  0.64673145  0.84563259  1
  Ti  Ti11  1  0.00383802  0.54263595  0.53656548  1
  O  O12  1  0.71044440  0.54283270  0.09502374  1
  O  O13  1  0.99030440  0.19826085  0.01392396  1
