# generated using pymatgen
data_Li2MnSb4P3
_symmetry_space_group_name_H-M   'P 1'
_cell_length_a   5.73543495
_cell_length_b   6.18987553
_cell_length_c   7.03638358
_cell_angle_alpha   96.01279755
_cell_angle_beta   94.12146615
_cell_angle_gamma   96.42534131
_symmetry_Int_Tables_number   1
_chemical_formula_structural   Li2MnSb4P3
_chemical_formula_sum   'Li2 Mn1 Sb4 P3'
_cell_volume   245.98352916
_cell_formula_units_Z   1
loop_
 _symmetry_equiv_pos_site_id
 _symmetry_equiv_pos_as_xyz
  1  'x, y, z'
loop_
 _atom_site_type_symbol
 _atom_site_label
 _atom_site_symmetry_multiplicity
 _atom_site_fract_x
 _atom_site_fract_y
 _atom_site_fract_z
 _atom_site_occupancy
  Mn  Mn0  1  0.00000000  0.00000000  0.00000000  1
  Sb  Sb1  1  0.50000000  0.50000000  0.50000000  1
  Sb  Sb2  1  0.50000000  0.50000000  0.00000000  1
  Sb  Sb3  1  0.50000000  0.00000000  0.50000000  1
  Sb  Sb4  1  0.00000000  0.50000000  0.50000000  1
  P  P5  1  0.84496976  0.55943175  0.94641346  1
  P  P6  1  0.33265764  0.30711316  0.04035730  1
  P  P7  1  0.90438473  0.97230979  0.35930625  1
  Li  Li8  1  0.38759372  0.53647070  0.37699674  1
  Li  Li9  1  0.75556573  0.06716818  0.99310438  1
