# generated using pymatgen
data_Li4LaO
_symmetry_space_group_name_H-M   'P 1'
_cell_length_a   5.16907837
_cell_length_b   5.08147205
_cell_length_c   6.74053931
_cell_angle_alpha   108.32374570
_cell_angle_beta   106.09702237
_cell_angle_gamma   97.12268388
_symmetry_Int_Tables_number   1
_chemical_formula_structural   Li4LaO
_chemical_formula_sum   'Li4 La1 O1'
_cell_volume   157.09628105
_cell_formula_units_Z   1
loop_
 _symmetry_equiv_pos_site_id
 _symmetry_equiv_pos_as_xyz
  1  'x, y, z'
loop_
 _atom_site_type_symbol
 _atom_site_label
 _atom_site_symmetry_multiplicity
 _atom_site_fract_x
 _atom_site_fract_y
 _atom_site_fract_z
 _atom_site_occupancy
  O  O0  1  0.12500000  0.00000000  0.25000000  1
  La  La1  1  0.00000000  0.00000000  0.00000000  1
  Li  Li2  1  0.37500000  0.00000000  0.25000000  1
  Li  Li3  1  0.25000000  0.25000000  0.25000000  1
  Li  Li4  1  0.00000000  0.25000000  0.12500000  1
  Li  Li5  1  0.92466194  0.70140673  0.19691515  1
