# generated using pymatgen
data_LiMn2(Sb2P)2
_symmetry_space_group_name_H-M   'P 1'
_cell_length_a   5.80601307
_cell_length_b   6.26358075
_cell_length_c   6.70899483
_cell_angle_alpha   93.65065634
_cell_angle_beta   94.18245060
_cell_angle_gamma   93.44097835
_symmetry_Int_Tables_number   1
_chemical_formula_structural   LiMn2(Sb2P)2
_chemical_formula_sum   'Li1 Mn2 Sb4 P2'
_cell_volume   242.32563608
_cell_formula_units_Z   1
loop_
 _symmetry_equiv_pos_site_id
 _symmetry_equiv_pos_as_xyz
  1  'x, y, z'
loop_
 _atom_site_type_symbol
 _atom_site_label
 _atom_site_symmetry_multiplicity
 _atom_site_fract_x
 _atom_site_fract_y
 _atom_site_fract_z
 _atom_site_occupancy
  Mn  Mn0  1  0.00000000  0.00000000  0.00000000  1
  Mn  Mn1  1  0.33300000  0.66700000  0.25000000  1
  Sb  Sb2  1  0.66700000  0.33300000  0.50000000  1
  Sb  Sb3  1  0.00000000  0.00000000  0.75000000  1
  Sb  Sb4  1  0.58881317  0.82414106  0.24957521  1
  Sb  Sb5  1  0.02542690  0.18712464  0.75862335  1
  P  P6  1  0.75696667  0.88776763  0.81287804  1
  P  P7  1  0.57802034  0.89601456  0.34999689  1
  Li  Li8  1  0.08785114  0.22306863  0.18734436  1
