# generated using pymatgen
data_LiP6Se2OF2
_symmetry_space_group_name_H-M   'P 1'
_cell_length_a   8.59037366
_cell_length_b   8.39616092
_cell_length_c   7.57087158
_cell_angle_alpha   90.06976247
_cell_angle_beta   90.33190866
_cell_angle_gamma   90.07975714
_symmetry_Int_Tables_number   1
_chemical_formula_structural   LiP6Se2OF2
_chemical_formula_sum   'Li1 P6 Se2 O1 F2'
_cell_volume   546.04779069
_cell_formula_units_Z   1
loop_
 _symmetry_equiv_pos_site_id
 _symmetry_equiv_pos_as_xyz
  1  'x, y, z'
loop_
 _atom_site_type_symbol
 _atom_site_label
 _atom_site_symmetry_multiplicity
 _atom_site_fract_x
 _atom_site_fract_y
 _atom_site_fract_z
 _atom_site_occupancy
  P  P0  1  0.12500000  0.00000000  0.25000000  1
  P  P1  1  0.00000000  0.00000000  0.00000000  1
  P  P2  1  0.37500000  0.00000000  0.25000000  1
  P  P3  1  0.25000000  0.25000000  0.25000000  1
  P  P4  1  0.00000000  0.25000000  0.12500000  1
  P  P5  1  0.39631727  0.29084384  0.34763059  1
  Li  Li6  1  0.41773698  0.00855027  0.35116972  1
  Se  Se7  1  0.67736265  0.04575767  0.24822941  1
  Se  Se8  1  0.87925681  0.15807724  0.94222934  1
  F  F9  1  0.09597677  0.83612469  0.34695112  1
  F  F10  1  0.13822930  0.20046005  0.45759463  1
  O  O11  1  0.82920187  0.77058496  0.77739265  1
