# generated using pymatgen
data_Li2As6O7F2
_symmetry_space_group_name_H-M   'P 1'
_cell_length_a   7.52933993
_cell_length_b   7.23831204
_cell_length_c   8.30089554
_cell_angle_alpha   91.44673189
_cell_angle_beta   92.58444353
_cell_angle_gamma   91.36795129
_symmetry_Int_Tables_number   1
_chemical_formula_structural   Li2As6O7F2
_chemical_formula_sum   'Li2 As6 O7 F2'
_cell_volume   451.65048074
_cell_formula_units_Z   1
loop_
 _symmetry_equiv_pos_site_id
 _symmetry_equiv_pos_as_xyz
  1  'x, y, z'
loop_
 _atom_site_type_symbol
 _atom_site_label
 _atom_site_symmetry_multiplicity
 _atom_site_fract_x
 _atom_site_fract_y
 _atom_site_fract_z
 _atom_site_occupancy
  Li  Li0  1  0.00000000  0.00000000  0.00000000  1
  Li  Li1  1  0.50000000  0.50000000  0.50000000  1
  F  F2  1  0.25000000  0.25000000  0.25000000  1
  F  F3  1  0.75000000  0.25000000  0.00000000  1
  As  As4  1  0.25000000  0.75000000  0.50000000  1
  As  As5  1  0.84860156  0.54942662  0.89457942  1
  As  As6  1  0.83969516  0.76969041  0.68852167  1
  As  As7  1  0.51424869  0.58650025  0.50615527  1
  As  As8  1  0.78160837  0.44670317  0.39730744  1
  As  As9  1  0.34406200  0.97093743  0.07010086  1
  O  O10  1  0.73761523  0.86541977  0.61821513  1
  O  O11  1  0.57191467  0.73033406  0.94471477  1
  O  O12  1  0.91753391  0.65905249  0.01906043  1
  O  O13  1  0.75104029  0.29983235  0.84570964  1
  O  O14  1  0.62551414  0.04244469  0.78380925  1
  O  O15  1  0.42795525  0.75318349  0.31743293  1
  O  O16  1  0.05373578  0.56738611  0.48760423  1
