# generated using pymatgen
data_LiCaLaPO
_symmetry_space_group_name_H-M   'P 1'
_cell_length_a   8.75648563
_cell_length_b   7.38658477
_cell_length_c   8.57138376
_cell_angle_alpha   90.00000000
_cell_angle_beta   90.00000000
_cell_angle_gamma   90.00000000
_symmetry_Int_Tables_number   1
_chemical_formula_structural   LiCaLaPO
_chemical_formula_sum   'Li2 Ca2 La2 P2 O2'
_cell_volume   554.40158790
_cell_formula_units_Z   2
loop_
 _symmetry_equiv_pos_site_id
 _symmetry_equiv_pos_as_xyz
  1  'x, y, z'
loop_
 _atom_site_type_symbol
 _atom_site_label
 _atom_site_symmetry_multiplicity
 _atom_site_fract_x
 _atom_site_fract_y
 _atom_site_fract_z
 _atom_site_occupancy
  O  O0  1  0.12500000  0.00000000  0.25000000  1
  O  O1  1  0.00000000  0.00000000  0.00000000  1
  La  La2  1  0.37500000  0.00000000  0.25000000  1
  La  La3  1  0.25000000  0.25000000  0.25000000  1
  Ca  Ca4  1  0.00000000  0.25000000  0.12500000  1
  Ca  Ca5  1  0.26121726  0.49989751  0.04292588  1
  P  P6  1  0.11214762  0.20249795  0.69343222  1
  P  P7  1  0.42044884  0.74974867  0.79865311  1
  Li  Li8  1  0.41909135  0.65373658  0.54836538  1
  Li  Li9  1  0.80069368  0.66899823  0.98750855  1
