# generated using pymatgen
data_Li2Ti3Nb2O2F3
_symmetry_space_group_name_H-M   'P 1'
_cell_length_a   5.84233473
_cell_length_b   5.84639430
_cell_length_c   7.26013893
_cell_angle_alpha   95.22248513
_cell_angle_beta   99.08179174
_cell_angle_gamma   96.63610095
_symmetry_Int_Tables_number   1
_chemical_formula_structural   Li2Ti3Nb2O2F3
_chemical_formula_sum   'Li2 Ti3 Nb2 O2 F3'
_cell_volume   241.71839769
_cell_formula_units_Z   1
loop_
 _symmetry_equiv_pos_site_id
 _symmetry_equiv_pos_as_xyz
  1  'x, y, z'
loop_
 _atom_site_type_symbol
 _atom_site_label
 _atom_site_symmetry_multiplicity
 _atom_site_fract_x
 _atom_site_fract_y
 _atom_site_fract_z
 _atom_site_occupancy
  Li  Li0  1  0.00000000  0.00000000  0.00000000  1
  Li  Li1  1  0.50000000  0.50000000  0.50000000  1
  Nb  Nb2  1  0.50000000  0.50000000  0.00000000  1
  Nb  Nb3  1  0.50000000  0.00000000  0.50000000  1
  F  F4  1  0.00000000  0.50000000  0.50000000  1
  F  F5  1  0.07204038  0.39652251  0.59165302  1
  F  F6  1  0.65317442  0.67832393  0.29122459  1
  Ti  Ti7  1  0.35834016  0.50383815  0.97060043  1
  Ti  Ti8  1  0.69052784  0.98298723  0.50462080  1
  Ti  Ti9  1  0.61626966  0.34803011  0.60581475  1
  O  O10  1  0.70217183  0.58924543  0.76003015  1
  O  O11  1  0.91285429  0.75271455  0.65810478  1
