# generated using pymatgen
data_Li3Ti2ClO2
_symmetry_space_group_name_H-M   'P 1'
_cell_length_a   3.32348012
_cell_length_b   3.21071994
_cell_length_c   6.06293541
_cell_angle_alpha   100.03551189
_cell_angle_beta   95.67584225
_cell_angle_gamma   106.39891537
_symmetry_Int_Tables_number   1
_chemical_formula_structural   Li3Ti2ClO2
_chemical_formula_sum   'Li3 Ti2 Cl1 O2'
_cell_volume   60.35894560
_cell_formula_units_Z   1
loop_
 _symmetry_equiv_pos_site_id
 _symmetry_equiv_pos_as_xyz
  1  'x, y, z'
loop_
 _atom_site_type_symbol
 _atom_site_label
 _atom_site_symmetry_multiplicity
 _atom_site_fract_x
 _atom_site_fract_y
 _atom_site_fract_z
 _atom_site_occupancy
  Ti  Ti0  1  0.00000000  0.00000000  0.00000000  1
  Ti  Ti1  1  0.50000000  0.50000000  0.50000000  1
  Cl  Cl2  1  0.50000000  0.50000000  0.00000000  1
  O  O3  1  0.50000000  0.00000000  0.50000000  1
  O  O4  1  0.00000000  0.50000000  0.50000000  1
  Li  Li5  1  0.37673350  0.36229501  0.40625573  1
  Li  Li6  1  0.26272211  0.91492012  0.34467092  1
  Li  Li7  1  0.63815896  0.86983304  0.81239743  1
