# generated using pymatgen
data_Li2Mn2Sb4P3
_symmetry_space_group_name_H-M   'P 1'
_cell_length_a   5.21777633
_cell_length_b   5.28041518
_cell_length_c   6.48534540
_cell_angle_alpha   97.18633470
_cell_angle_beta   95.62115446
_cell_angle_gamma   96.42884293
_symmetry_Int_Tables_number   1
_chemical_formula_structural   Li2Mn2Sb4P3
_chemical_formula_sum   'Li2 Mn2 Sb4 P3'
_cell_volume   175.02640945
_cell_formula_units_Z   1
loop_
 _symmetry_equiv_pos_site_id
 _symmetry_equiv_pos_as_xyz
  1  'x, y, z'
loop_
 _atom_site_type_symbol
 _atom_site_label
 _atom_site_symmetry_multiplicity
 _atom_site_fract_x
 _atom_site_fract_y
 _atom_site_fract_z
 _atom_site_occupancy
  Mn  Mn0  1  0.00000000  0.00000000  0.00000000  1
  Mn  Mn1  1  0.50000000  0.50000000  0.50000000  1
  Sb  Sb2  1  0.50000000  0.50000000  0.00000000  1
  Sb  Sb3  1  0.50000000  0.00000000  0.50000000  1
  Sb  Sb4  1  0.00000000  0.50000000  0.50000000  1
  Sb  Sb5  1  0.57049599  0.49507259  0.84826358  1
  P  P6  1  0.95293634  0.78621185  0.35204515  1
  P  P7  1  0.97990064  0.51749976  0.07951880  1
  P  P8  1  0.50125080  0.30633682  0.80332778  1
  Li  Li9  1  0.39232589  0.65282972  0.92573183  1
  Li  Li10  1  0.61963221  0.46759939  0.25715259  1
