# generated using pymatgen
data_Li2Mn2Sb4P3
_symmetry_space_group_name_H-M   'P 1'
_cell_length_a   6.81539971
_cell_length_b   7.41507412
_cell_length_c   7.41566773
_cell_angle_alpha   92.00352237
_cell_angle_beta   92.37335737
_cell_angle_gamma   92.28025583
_symmetry_Int_Tables_number   1
_chemical_formula_structural   Li2Mn2Sb4P3
_chemical_formula_sum   'Li2 Mn2 Sb4 P3'
_cell_volume   373.89373517
_cell_formula_units_Z   1
loop_
 _symmetry_equiv_pos_site_id
 _symmetry_equiv_pos_as_xyz
  1  'x, y, z'
loop_
 _atom_site_type_symbol
 _atom_site_label
 _atom_site_symmetry_multiplicity
 _atom_site_fract_x
 _atom_site_fract_y
 _atom_site_fract_z
 _atom_site_occupancy
  Mn  Mn0  1  0.00000000  0.00000000  0.00000000  1
  Mn  Mn1  1  0.50000000  0.50000000  0.50000000  1
  Sb  Sb2  1  0.25000000  0.25000000  0.25000000  1
  Sb  Sb3  1  0.75000000  0.25000000  0.00000000  1
  Sb  Sb4  1  0.25000000  0.75000000  0.50000000  1
  Sb  Sb5  1  0.11091422  0.11435750  0.73830008  1
  P  P6  1  0.20199530  0.06742711  0.16486513  1
  P  P7  1  0.03457730  0.29078948  0.63840500  1
  P  P8  1  0.91277282  0.06110860  0.53432005  1
  Li  Li9  1  0.83547164  0.63360180  0.21583968  1
  Li  Li10  1  0.49347032  0.55396455  0.35701698  1
