# generated using pymatgen
data_Li3Ni2As6(IO)4
_symmetry_space_group_name_H-M   'P 1'
_cell_length_a   7.88651872
_cell_length_b   7.72396246
_cell_length_c   8.25278855
_cell_angle_alpha   91.70069745
_cell_angle_beta   91.11028140
_cell_angle_gamma   91.97068323
_symmetry_Int_Tables_number   1
_chemical_formula_structural   Li3Ni2As6(IO)4
_chemical_formula_sum   'Li3 Ni2 As6 I4 O4'
_cell_volume   502.09670574
_cell_formula_units_Z   1
loop_
 _symmetry_equiv_pos_site_id
 _symmetry_equiv_pos_as_xyz
  1  'x, y, z'
loop_
 _atom_site_type_symbol
 _atom_site_label
 _atom_site_symmetry_multiplicity
 _atom_site_fract_x
 _atom_site_fract_y
 _atom_site_fract_z
 _atom_site_occupancy
  I  I0  1  0.00000000  0.00000000  0.00000000  1
  I  I1  1  0.50000000  0.50000000  0.50000000  1
  I  I2  1  0.25000000  0.25000000  0.25000000  1
  I  I3  1  0.75000000  0.25000000  0.00000000  1
  Li  Li4  1  0.25000000  0.75000000  0.50000000  1
  Li  Li5  1  0.24546340  0.40417958  0.20436452  1
  Li  Li6  1  0.05995327  0.11675613  0.88033311  1
  Ni  Ni7  1  0.42059449  0.49435145  0.18737132  1
  Ni  Ni8  1  0.49991754  0.13344662  0.65200682  1
  As  As9  1  0.09082166  0.45673418  0.05201467  1
  As  As10  1  0.21128867  0.34058827  0.35518336  1
  As  As11  1  0.96898471  0.54546454  0.20280341  1
  As  As12  1  0.24747289  0.06089913  0.94791539  1
  As  As13  1  0.52815763  0.28909553  0.79491477  1
  As  As14  1  0.60122457  0.50923723  0.33380255  1
  O  O15  1  0.61183716  0.01326798  0.97966954  1
  O  O16  1  0.48510902  0.58488180  0.23893842  1
  O  O17  1  0.41689072  0.07354318  0.78112301  1
  O  O18  1  0.39924041  0.73415402  0.26354729  1
