# generated using pymatgen
data_LiMnSb4Mo2P3
_symmetry_space_group_name_H-M   'P 1'
_cell_length_a   5.20668907
_cell_length_b   5.39208696
_cell_length_c   6.49969482
_cell_angle_alpha   97.32213707
_cell_angle_beta   92.90658682
_cell_angle_gamma   97.35591140
_symmetry_Int_Tables_number   1
_chemical_formula_structural   LiMnSb4Mo2P3
_chemical_formula_sum   'Li1 Mn1 Sb4 Mo2 P3'
_cell_volume   179.08363258
_cell_formula_units_Z   1
loop_
 _symmetry_equiv_pos_site_id
 _symmetry_equiv_pos_as_xyz
  1  'x, y, z'
loop_
 _atom_site_type_symbol
 _atom_site_label
 _atom_site_symmetry_multiplicity
 _atom_site_fract_x
 _atom_site_fract_y
 _atom_site_fract_z
 _atom_site_occupancy
  Mn  Mn0  1  0.12500000  0.00000000  0.25000000  1
  Sb  Sb1  1  0.00000000  0.00000000  0.00000000  1
  Sb  Sb2  1  0.37500000  0.00000000  0.25000000  1
  Sb  Sb3  1  0.25000000  0.25000000  0.25000000  1
  Sb  Sb4  1  0.00000000  0.25000000  0.12500000  1
  P  P5  1  0.06167826  0.05379892  0.31406438  1
  P  P6  1  0.68338942  0.92898033  0.45899088  1
  P  P7  1  0.57219954  0.16532449  0.90880534  1
  Mo  Mo8  1  0.78146971  0.79511516  0.00938857  1
  Mo  Mo9  1  0.83057581  0.61175367  0.06818261  1
  Li  Li10  1  0.19668138  0.83284799  0.42655250  1
