# generated using pymatgen
data_LiMnSb4Mo2P3
_symmetry_space_group_name_H-M   'P 1'
_cell_length_a   5.62631992
_cell_length_b   5.92590296
_cell_length_c   6.85389037
_cell_angle_alpha   94.02563836
_cell_angle_beta   94.12635334
_cell_angle_gamma   94.29741944
_symmetry_Int_Tables_number   1
_chemical_formula_structural   LiMnSb4Mo2P3
_chemical_formula_sum   'Li1 Mn1 Sb4 Mo2 P3'
_cell_volume   226.62514285
_cell_formula_units_Z   1
loop_
 _symmetry_equiv_pos_site_id
 _symmetry_equiv_pos_as_xyz
  1  'x, y, z'
loop_
 _atom_site_type_symbol
 _atom_site_label
 _atom_site_symmetry_multiplicity
 _atom_site_fract_x
 _atom_site_fract_y
 _atom_site_fract_z
 _atom_site_occupancy
  Mn  Mn0  1  0.12500000  0.00000000  0.25000000  1
  Sb  Sb1  1  0.00000000  0.00000000  0.00000000  1
  Sb  Sb2  1  0.37500000  0.00000000  0.25000000  1
  Sb  Sb3  1  0.25000000  0.25000000  0.25000000  1
  Sb  Sb4  1  0.00000000  0.25000000  0.12500000  1
  P  P5  1  0.31572286  0.71558859  0.61494546  1
  P  P6  1  0.84437184  0.20275238  0.16650486  1
  P  P7  1  0.22942024  0.65132839  0.64063868  1
  Mo  Mo8  1  0.56695125  0.89825444  0.14053350  1
  Mo  Mo9  1  0.23017258  0.10846084  0.81985525  1
  Li  Li10  1  0.89795359  0.70182912  0.90661803  1
