# generated using pymatgen
data_LiTiP3
_symmetry_space_group_name_H-M   'P 1'
_cell_length_a   7.61413013
_cell_length_b   7.47204836
_cell_length_c   7.63278067
_cell_angle_alpha   92.96687089
_cell_angle_beta   94.47620055
_cell_angle_gamma   93.79877268
_symmetry_Int_Tables_number   1
_chemical_formula_structural   LiTiP3
_chemical_formula_sum   'Li2 Ti2 P6'
_cell_volume   431.26921045
_cell_formula_units_Z   2
loop_
 _symmetry_equiv_pos_site_id
 _symmetry_equiv_pos_as_xyz
  1  'x, y, z'
loop_
 _atom_site_type_symbol
 _atom_site_label
 _atom_site_symmetry_multiplicity
 _atom_site_fract_x
 _atom_site_fract_y
 _atom_site_fract_z
 _atom_site_occupancy
  P  P0  1  0.12500000  0.00000000  0.25000000  1
  P  P1  1  0.00000000  0.00000000  0.00000000  1
  P  P2  1  0.37500000  0.00000000  0.25000000  1
  P  P3  1  0.25000000  0.25000000  0.25000000  1
  P  P4  1  0.00000000  0.25000000  0.12500000  1
  P  P5  1  0.30836234  0.34652763  0.66918844  1
  Li  Li6  1  0.90792871  0.92533428  0.31422729  1
  Li  Li7  1  0.36053286  0.65642703  0.72089390  1
  Ti  Ti8  1  0.37174888  0.41539299  0.09222605  1
  Ti  Ti9  1  0.57002301  0.27531001  0.65662553  1
