# generated using pymatgen
data_Li2Ti2P5N5F2
_symmetry_space_group_name_H-M   'P 1'
_cell_length_a   7.96330986
_cell_length_b   7.62036145
_cell_length_c   8.36854861
_cell_angle_alpha   91.70024010
_cell_angle_beta   91.01878510
_cell_angle_gamma   91.97049726
_symmetry_Int_Tables_number   1
_chemical_formula_structural   Li2Ti2P5N5F2
_chemical_formula_sum   'Li2 Ti2 P5 N5 F2'
_cell_volume   507.21754678
_cell_formula_units_Z   1
loop_
 _symmetry_equiv_pos_site_id
 _symmetry_equiv_pos_as_xyz
  1  'x, y, z'
loop_
 _atom_site_type_symbol
 _atom_site_label
 _atom_site_symmetry_multiplicity
 _atom_site_fract_x
 _atom_site_fract_y
 _atom_site_fract_z
 _atom_site_occupancy
  P  P0  1  0.00000000  0.00000000  0.00000000  1
  P  P1  1  0.50000000  0.50000000  0.50000000  1
  P  P2  1  0.50000000  0.50000000  0.00000000  1
  P  P3  1  0.50000000  0.00000000  0.50000000  1
  P  P4  1  0.00000000  0.50000000  0.50000000  1
  Li  Li5  1  0.06484283  0.14549347  0.40707595  1
  Li  Li6  1  0.62681661  0.89977595  0.57379669  1
  F  F7  1  0.45470811  0.12707007  0.27750413  1
  F  F8  1  0.82236879  0.25369154  0.03998357  1
  Ti  Ti9  1  0.48721361  0.32350530  0.52414612  1
  Ti  Ti10  1  0.51911254  0.51292134  0.36455451  1
  N  N11  1  0.54628928  0.65547615  0.04313854  1
  N  N12  1  0.05469672  0.79211737  0.61773015  1
  N  N13  1  0.22110110  0.14495499  0.93094348  1
  N  N14  1  0.83924502  0.22927322  0.55413472  1
  N  N15  1  0.64577401  0.31988157  0.49061056  1
