# generated using pymatgen
data_LiMn3(SbP)4
_symmetry_space_group_name_H-M   'P 1'
_cell_length_a   7.05395600
_cell_length_b   7.63243441
_cell_length_c   7.19662231
_cell_angle_alpha   90.09911001
_cell_angle_beta   90.35086673
_cell_angle_gamma   90.26872121
_symmetry_Int_Tables_number   1
_chemical_formula_structural   LiMn3(SbP)4
_chemical_formula_sum   'Li1 Mn3 Sb4 P4'
_cell_volume   387.44579090
_cell_formula_units_Z   1
loop_
 _symmetry_equiv_pos_site_id
 _symmetry_equiv_pos_as_xyz
  1  'x, y, z'
loop_
 _atom_site_type_symbol
 _atom_site_label
 _atom_site_symmetry_multiplicity
 _atom_site_fract_x
 _atom_site_fract_y
 _atom_site_fract_z
 _atom_site_occupancy
  Mn  Mn0  1  0.12500000  0.12500000  0.12500000  1
  Mn  Mn1  1  0.50000000  0.50000000  0.50000000  1
  Mn  Mn2  1  0.25000000  0.25000000  0.25000000  1
  Sb  Sb3  1  0.75000000  0.75000000  0.75000000  1
  Sb  Sb4  1  0.69841137  0.35343185  0.94241494  1
  Sb  Sb5  1  0.93118612  0.77014644  0.44599253  1
  Sb  Sb6  1  0.97619574  0.40032354  0.36989343  1
  P  P7  1  0.10877597  0.85233222  0.09464062  1
  P  P8  1  0.47249923  0.92893824  0.18246878  1
  P  P9  1  0.25370582  0.62422044  0.97326733  1
  P  P10  1  0.68782320  0.25436127  0.16480969  1
  Li  Li11  1  0.98995567  0.17900941  0.55127918  1
