# generated using pymatgen
data_LiI2
_symmetry_space_group_name_H-M   'P 1'
_cell_length_a   7.77948090
_cell_length_b   7.63161379
_cell_length_c   7.97057244
_cell_angle_alpha   91.28607465
_cell_angle_beta   91.31712041
_cell_angle_gamma   91.48843789
_symmetry_Int_Tables_number   1
_chemical_formula_structural   LiI2
_chemical_formula_sum   'Li2 I4'
_cell_volume   472.80247147
_cell_formula_units_Z   2
loop_
 _symmetry_equiv_pos_site_id
 _symmetry_equiv_pos_as_xyz
  1  'x, y, z'
loop_
 _atom_site_type_symbol
 _atom_site_label
 _atom_site_symmetry_multiplicity
 _atom_site_fract_x
 _atom_site_fract_y
 _atom_site_fract_z
 _atom_site_occupancy
  I  I0  1  0.00000000  0.00000000  0.00000000  1
  I  I1  1  0.50000000  0.50000000  0.50000000  1
  I  I2  1  0.25000000  0.25000000  0.25000000  1
  I  I3  1  0.75000000  0.25000000  0.00000000  1
  Li  Li4  1  0.25000000  0.75000000  0.50000000  1
  Li  Li5  1  0.11333155  0.95491449  0.24580516  1
