# generated using pymatgen
data_LiSb4Mo2P3
_symmetry_space_group_name_H-M   'P 1'
_cell_length_a   5.80664749
_cell_length_b   6.02650941
_cell_length_c   6.17346739
_cell_angle_alpha   93.82848546
_cell_angle_beta   88.93237425
_cell_angle_gamma   93.16912282
_symmetry_Int_Tables_number   1
_chemical_formula_structural   LiSb4Mo2P3
_chemical_formula_sum   'Li1 Sb4 Mo2 P3'
_cell_volume   215.19723203
_cell_formula_units_Z   1
loop_
 _symmetry_equiv_pos_site_id
 _symmetry_equiv_pos_as_xyz
  1  'x, y, z'
loop_
 _atom_site_type_symbol
 _atom_site_label
 _atom_site_symmetry_multiplicity
 _atom_site_fract_x
 _atom_site_fract_y
 _atom_site_fract_z
 _atom_site_occupancy
  Sb  Sb0  1  0.12500000  0.00000000  0.25000000  1
  Sb  Sb1  1  0.00000000  0.00000000  0.00000000  1
  Sb  Sb2  1  0.37500000  0.00000000  0.25000000  1
  Sb  Sb3  1  0.25000000  0.25000000  0.25000000  1
  P  P4  1  0.00000000  0.25000000  0.12500000  1
  P  P5  1  0.88579593  0.64348756  0.91123035  1
  P  P6  1  0.23881610  0.87735325  0.95851547  1
  Mo  Mo7  1  0.64175636  0.22819998  0.05624207  1
  Mo  Mo8  1  0.71126781  0.99374656  0.53725761  1
  Li  Li9  1  0.87535019  0.93834148  0.73542904  1
