# generated using pymatgen
data_Li3Ti3Cu2(As3O)2
_symmetry_space_group_name_H-M   'P 1'
_cell_length_a   6.42542437
_cell_length_b   6.71271809
_cell_length_c   7.66492638
_cell_angle_alpha   95.38983826
_cell_angle_beta   98.25458293
_cell_angle_gamma   96.89595052
_symmetry_Int_Tables_number   1
_chemical_formula_structural   Li3Ti3Cu2(As3O)2
_chemical_formula_sum   'Li3 Ti3 Cu2 As6 O2'
_cell_volume   322.72607083
_cell_formula_units_Z   1
loop_
 _symmetry_equiv_pos_site_id
 _symmetry_equiv_pos_as_xyz
  1  'x, y, z'
loop_
 _atom_site_type_symbol
 _atom_site_label
 _atom_site_symmetry_multiplicity
 _atom_site_fract_x
 _atom_site_fract_y
 _atom_site_fract_z
 _atom_site_occupancy
  O  O0  1  0.12500000  0.00000000  0.25000000  1
  O  O1  1  0.00000000  0.00000000  0.00000000  1
  Ti  Ti2  1  0.37500000  0.00000000  0.25000000  1
  Ti  Ti3  1  0.25000000  0.25000000  0.25000000  1
  Ti  Ti4  1  0.00000000  0.25000000  0.12500000  1
  As  As5  1  0.44268088  0.33361108  0.13403657  1
  As  As6  1  0.03150017  0.98324305  0.39492556  1
  As  As7  1  0.73635540  0.69580419  0.96686044  1
  As  As8  1  0.89195624  0.54916610  0.71119583  1
  As  As9  1  0.40631024  0.24613625  0.07212125  1
  As  As10  1  0.76980772  0.46710877  0.81864460  1
  Li  Li11  1  0.88604306  0.07335864  0.05458926  1
  Li  Li12  1  0.74958519  0.45045246  0.60630213  1
  Li  Li13  1  0.70131109  0.34531227  0.12890271  1
  Cu  Cu14  1  0.83807776  0.66789662  0.03557759  1
  Cu  Cu15  1  0.53340400  0.14389069  0.11762016  1
