# generated using pymatgen
data_Li3Ti3Nb2As6F3
_symmetry_space_group_name_H-M   'P 1'
_cell_length_a   6.06481515
_cell_length_b   5.77520238
_cell_length_c   7.76821983
_cell_angle_alpha   96.80822357
_cell_angle_beta   100.39208216
_cell_angle_gamma   96.50349862
_symmetry_Int_Tables_number   1
_chemical_formula_structural   Li3Ti3Nb2As6F3
_chemical_formula_sum   'Li3 Ti3 Nb2 As6 F3'
_cell_volume   263.19820767
_cell_formula_units_Z   1
loop_
 _symmetry_equiv_pos_site_id
 _symmetry_equiv_pos_as_xyz
  1  'x, y, z'
loop_
 _atom_site_type_symbol
 _atom_site_label
 _atom_site_symmetry_multiplicity
 _atom_site_fract_x
 _atom_site_fract_y
 _atom_site_fract_z
 _atom_site_occupancy
  F  F0  1  0.12500000  0.00000000  0.25000000  1
  F  F1  1  0.00000000  0.00000000  0.00000000  1
  F  F2  1  0.37500000  0.00000000  0.25000000  1
  Ti  Ti3  1  0.25000000  0.25000000  0.25000000  1
  Ti  Ti4  1  0.00000000  0.25000000  0.12500000  1
  Ti  Ti5  1  0.28053328  0.58433385  0.03829054  1
  As  As6  1  0.61917336  0.73802736  0.48612653  1
  As  As7  1  0.13371943  0.76503157  0.01604438  1
  As  As8  1  0.17960312  0.48960956  0.43999829  1
  As  As9  1  0.14916670  0.27323114  0.17435420  1
  As  As10  1  0.77763729  0.83842575  0.12708323  1
  As  As11  1  0.07997436  0.10452369  0.51350122  1
  Li  Li12  1  0.36481367  0.88035253  0.51891381  1
  Li  Li13  1  0.01241765  0.87663220  0.38446766  1
  Li  Li14  1  0.73956065  0.41345353  0.82200550  1
  Nb  Nb15  1  0.68147870  0.80976620  0.72596118  1
  Nb  Nb16  1  0.77517121  0.06693028  0.57022338  1
