# generated using pymatgen
data_Li2Ti(I2O)2
_symmetry_space_group_name_H-M   'P 1'
_cell_length_a   8.08737309
_cell_length_b   7.92249094
_cell_length_c   7.59985949
_cell_angle_alpha   90.82715484
_cell_angle_beta   90.92159636
_cell_angle_gamma   90.95702636
_symmetry_Int_Tables_number   1
_chemical_formula_structural   Li2Ti(I2O)2
_chemical_formula_sum   'Li2 Ti1 I4 O2'
_cell_volume   486.75569195
_cell_formula_units_Z   1
loop_
 _symmetry_equiv_pos_site_id
 _symmetry_equiv_pos_as_xyz
  1  'x, y, z'
loop_
 _atom_site_type_symbol
 _atom_site_label
 _atom_site_symmetry_multiplicity
 _atom_site_fract_x
 _atom_site_fract_y
 _atom_site_fract_z
 _atom_site_occupancy
  I  I0  1  0.12500000  0.12500000  0.12500000  1
  I  I1  1  0.50000000  0.50000000  0.50000000  1
  I  I2  1  0.25000000  0.25000000  0.25000000  1
  I  I3  1  0.75000000  0.75000000  0.75000000  1
  Li  Li4  1  0.67794895  0.70735513  0.99278748  1
  Li  Li5  1  0.66983312  0.86301497  0.05042490  1
  Ti  Ti6  1  0.96395779  0.05584390  0.35525872  1
  O  O7  1  0.32953377  0.19708187  0.32384941  1
  O  O8  1  0.97014690  0.61880747  0.58376519  1
