# generated using pymatgen
data_Li3Cu2Te3(PO2)2
_symmetry_space_group_name_H-M   'P 1'
_cell_length_a   5.86110767
_cell_length_b   6.71547191
_cell_length_c   6.13997625
_cell_angle_alpha   91.00740034
_cell_angle_beta   87.66523638
_cell_angle_gamma   91.88450818
_symmetry_Int_Tables_number   1
_chemical_formula_structural   Li3Cu2Te3(PO2)2
_chemical_formula_sum   'Li3 Cu2 Te3 P2 O4'
_cell_volume   241.30696132
_cell_formula_units_Z   1
loop_
 _symmetry_equiv_pos_site_id
 _symmetry_equiv_pos_as_xyz
  1  'x, y, z'
loop_
 _atom_site_type_symbol
 _atom_site_label
 _atom_site_symmetry_multiplicity
 _atom_site_fract_x
 _atom_site_fract_y
 _atom_site_fract_z
 _atom_site_occupancy
  O  O0  1  0.00000000  0.00000000  0.00000000  1
  O  O1  1  0.50000000  0.50000000  0.50000000  1
  O  O2  1  0.50000000  0.50000000  0.00000000  1
  O  O3  1  0.50000000  0.00000000  0.50000000  1
  Cu  Cu4  1  0.00000000  0.50000000  0.50000000  1
  Cu  Cu5  1  0.74764223  0.18112487  0.34293742  1
  P  P6  1  0.37691564  0.34463473  0.57230175  1
  P  P7  1  0.94499006  0.43508389  0.55384980  1
  Li  Li8  1  0.77834424  0.59116052  0.07057100  1
  Li  Li9  1  0.00625659  0.93947826  0.70108708  1
  Li  Li10  1  0.36451024  0.13815267  0.65908240  1
  Te  Te11  1  0.01575702  0.71357351  0.55675357  1
  Te  Te12  1  0.58508744  0.92502749  0.31418416  1
  Te  Te13  1  0.11442002  0.56471803  0.65086270  1
