# generated using pymatgen
data_Li2Mn2Sb4P3N5
_symmetry_space_group_name_H-M   'P 1'
_cell_length_a   7.59465639
_cell_length_b   8.10008380
_cell_length_c   7.99061379
_cell_angle_alpha   90.63337528
_cell_angle_beta   90.75029154
_cell_angle_gamma   90.72085927
_symmetry_Int_Tables_number   1
_chemical_formula_structural   Li2Mn2Sb4P3N5
_chemical_formula_sum   'Li2 Mn2 Sb4 P3 N5'
_cell_volume   491.44942189
_cell_formula_units_Z   1
loop_
 _symmetry_equiv_pos_site_id
 _symmetry_equiv_pos_as_xyz
  1  'x, y, z'
loop_
 _atom_site_type_symbol
 _atom_site_label
 _atom_site_symmetry_multiplicity
 _atom_site_fract_x
 _atom_site_fract_y
 _atom_site_fract_z
 _atom_site_occupancy
  N  N0  1  0.00000000  0.00000000  0.00000000  1
  N  N1  1  0.50000000  0.50000000  0.50000000  1
  N  N2  1  0.50000000  0.50000000  0.00000000  1
  N  N3  1  0.50000000  0.00000000  0.50000000  1
  N  N4  1  0.00000000  0.50000000  0.50000000  1
  Mn  Mn5  1  0.72853369  0.02165827  0.47987119  1
  Mn  Mn6  1  0.32097603  0.11091917  0.02691720  1
  Sb  Sb7  1  0.35541587  0.54105476  0.99672139  1
  Sb  Sb8  1  0.79306535  0.62023622  0.03671403  1
  Sb  Sb9  1  0.91126672  0.70452833  0.11726335  1
  Sb  Sb10  1  0.75620891  0.08295238  0.22039539  1
  P  P11  1  0.77398223  0.64304472  0.67714796  1
  P  P12  1  0.84212447  0.45228645  0.80314438  1
  P  P13  1  0.89034209  0.92164387  0.65685845  1
  Li  Li14  1  0.70194224  0.56913171  0.81293821  1
  Li  Li15  1  0.45527278  0.34564097  0.23119228  1
