# generated using pymatgen
data_LiCu(AsP)3
_symmetry_space_group_name_H-M   'P 1'
_cell_length_a   8.08306706
_cell_length_b   7.94946792
_cell_length_c   8.11602334
_cell_angle_alpha   90.28353249
_cell_angle_beta   91.34896146
_cell_angle_gamma   90.32415334
_symmetry_Int_Tables_number   1
_chemical_formula_structural   LiCu(AsP)3
_chemical_formula_sum   'Li2 Cu2 As6 P6'
_cell_volume   521.34425247
_cell_formula_units_Z   2
loop_
 _symmetry_equiv_pos_site_id
 _symmetry_equiv_pos_as_xyz
  1  'x, y, z'
loop_
 _atom_site_type_symbol
 _atom_site_label
 _atom_site_symmetry_multiplicity
 _atom_site_fract_x
 _atom_site_fract_y
 _atom_site_fract_z
 _atom_site_occupancy
  P  P0  1  0.00000000  0.00000000  0.00000000  1
  P  P1  1  0.50000000  0.50000000  0.50000000  1
  P  P2  1  0.25000000  0.25000000  0.25000000  1
  P  P3  1  0.75000000  0.25000000  0.00000000  1
  P  P4  1  0.25000000  0.75000000  0.50000000  1
  P  P5  1  0.50080657  0.64845110  0.82259638  1
  As  As6  1  0.35933568  0.53813478  0.40398817  1
  As  As7  1  0.80457761  0.95651944  0.44727583  1
  As  As8  1  0.71506906  0.42757406  0.87299753  1
  As  As9  1  0.34874608  0.67352871  0.67173246  1
  As  As10  1  0.79752657  0.37117711  0.26528755  1
  As  As11  1  0.51146806  0.14331903  0.00000134  1
  Li  Li12  1  0.93808107  0.00661886  0.19247636  1
  Li  Li13  1  0.03493235  0.10052734  0.49668365  1
  Cu  Cu14  1  0.87486495  0.75371552  0.25090430  1
  Cu  Cu15  1  0.03152896  0.79541448  0.92447197  1
