# generated using pymatgen
data_Li3LuNi2(As3P2)2
_symmetry_space_group_name_H-M   'P 1'
_cell_length_a   8.13547715
_cell_length_b   7.94642230
_cell_length_c   8.77716728
_cell_angle_alpha   91.06866926
_cell_angle_beta   90.49800750
_cell_angle_gamma   91.23907363
_symmetry_Int_Tables_number   1
_chemical_formula_structural   Li3LuNi2(As3P2)2
_chemical_formula_sum   'Li3 Lu1 Ni2 As6 P4'
_cell_volume   567.17092145
_cell_formula_units_Z   1
loop_
 _symmetry_equiv_pos_site_id
 _symmetry_equiv_pos_as_xyz
  1  'x, y, z'
loop_
 _atom_site_type_symbol
 _atom_site_label
 _atom_site_symmetry_multiplicity
 _atom_site_fract_x
 _atom_site_fract_y
 _atom_site_fract_z
 _atom_site_occupancy
  P  P0  1  0.12500000  0.00000000  0.25000000  1
  P  P1  1  0.00000000  0.00000000  0.00000000  1
  P  P2  1  0.37500000  0.00000000  0.25000000  1
  P  P3  1  0.25000000  0.25000000  0.25000000  1
  Lu  Lu4  1  0.00000000  0.25000000  0.12500000  1
  Li  Li5  1  0.65071645  0.58162763  0.41207256  1
  Li  Li6  1  0.79737705  0.84660699  0.43504853  1
  Li  Li7  1  0.25674299  0.04549938  0.33610807  1
  Ni  Ni8  1  0.24917025  0.31372973  0.88240570  1
  Ni  Ni9  1  0.09336400  0.71185083  0.61232737  1
  As  As10  1  0.04761137  0.03520561  0.65915002  1
  As  As11  1  0.77832292  0.86100612  0.35473618  1
  As  As12  1  0.88837381  0.81717639  0.66526975  1
  As  As13  1  0.55572824  0.09255383  0.41486050  1
  As  As14  1  0.28228633  0.70958379  0.94168958  1
  As  As15  1  0.85963664  0.09086583  0.12301036  1
