# generated using pymatgen
data_Li2TiCu2(As3O)2
_symmetry_space_group_name_H-M   'P 1'
_cell_length_a   7.76289582
_cell_length_b   7.80904606
_cell_length_c   7.88917835
_cell_angle_alpha   90.35896809
_cell_angle_beta   91.70786116
_cell_angle_gamma   90.41039638
_symmetry_Int_Tables_number   1
_chemical_formula_structural   Li2TiCu2(As3O)2
_chemical_formula_sum   'Li2 Ti1 Cu2 As6 O2'
_cell_volume   478.01363834
_cell_formula_units_Z   1
loop_
 _symmetry_equiv_pos_site_id
 _symmetry_equiv_pos_as_xyz
  1  'x, y, z'
loop_
 _atom_site_type_symbol
 _atom_site_label
 _atom_site_symmetry_multiplicity
 _atom_site_fract_x
 _atom_site_fract_y
 _atom_site_fract_z
 _atom_site_occupancy
  Li  Li0  1  0.00000000  0.00000000  0.00000000  1
  Li  Li1  1  0.50000000  0.50000000  0.50000000  1
  Ti  Ti2  1  0.50000000  0.50000000  0.00000000  1
  As  As3  1  0.50000000  0.00000000  0.50000000  1
  As  As4  1  0.00000000  0.50000000  0.50000000  1
  As  As5  1  0.84452391  0.76960903  0.04755517  1
  As  As6  1  0.09631182  0.33022124  0.60931142  1
  As  As7  1  0.99269090  0.40051514  0.23902677  1
  As  As8  1  0.10310746  0.87237239  0.35571437  1
  O  O9  1  0.41147390  0.09873953  0.73203128  1
  O  O10  1  0.99148768  0.40212963  0.60838672  1
  Cu  Cu11  1  0.30835004  0.57590780  0.93929727  1
  Cu  Cu12  1  0.90851264  0.74475121  0.81774186  1
