# generated using pymatgen
data_Li3Ti(OF)3
_symmetry_space_group_name_H-M   'P 1'
_cell_length_a   6.85477771
_cell_length_b   6.66540550
_cell_length_c   7.10060508
_cell_angle_alpha   95.83600029
_cell_angle_beta   98.06635785
_cell_angle_gamma   95.50551028
_symmetry_Int_Tables_number   1
_chemical_formula_structural   Li3Ti(OF)3
_chemical_formula_sum   'Li3 Ti1 O3 F3'
_cell_volume   317.54447903
_cell_formula_units_Z   1
loop_
 _symmetry_equiv_pos_site_id
 _symmetry_equiv_pos_as_xyz
  1  'x, y, z'
loop_
 _atom_site_type_symbol
 _atom_site_label
 _atom_site_symmetry_multiplicity
 _atom_site_fract_x
 _atom_site_fract_y
 _atom_site_fract_z
 _atom_site_occupancy
  Li  Li0  1  0.00000000  0.00000000  0.00000000  1
  Li  Li1  1  0.50000000  0.50000000  0.50000000  1
  Li  Li2  1  0.50000000  0.50000000  0.00000000  1
  F  F3  1  0.50000000  0.00000000  0.50000000  1
  F  F4  1  0.00000000  0.50000000  0.50000000  1
  F  F5  1  0.31478431  0.68170184  0.32579872  1
  Ti  Ti6  1  0.98740706  0.75499167  0.60651237  1
  O  O7  1  0.38243567  0.00836006  0.26194684  1
  O  O8  1  0.32288848  0.07919108  0.67893740  1
  O  O9  1  0.80479147  0.51420801  0.09954756  1
