# generated using pymatgen
data_Li3Ti2Cu2(I2O)2
_symmetry_space_group_name_H-M   'P 1'
_cell_length_a   5.35767842
_cell_length_b   5.53580971
_cell_length_c   6.71913925
_cell_angle_alpha   100.22778580
_cell_angle_beta   103.47627501
_cell_angle_gamma   102.46371999
_symmetry_Int_Tables_number   1
_chemical_formula_structural   Li3Ti2Cu2(I2O)2
_chemical_formula_sum   'Li3 Ti2 Cu2 I4 O2'
_cell_volume   183.70038711
_cell_formula_units_Z   1
loop_
 _symmetry_equiv_pos_site_id
 _symmetry_equiv_pos_as_xyz
  1  'x, y, z'
loop_
 _atom_site_type_symbol
 _atom_site_label
 _atom_site_symmetry_multiplicity
 _atom_site_fract_x
 _atom_site_fract_y
 _atom_site_fract_z
 _atom_site_occupancy
  I  I0  1  0.12500000  0.00000000  0.25000000  1
  I  I1  1  0.00000000  0.00000000  0.00000000  1
  I  I2  1  0.37500000  0.00000000  0.25000000  1
  I  I3  1  0.25000000  0.25000000  0.25000000  1
  Li  Li4  1  0.00000000  0.25000000  0.12500000  1
  Li  Li5  1  0.38197221  0.42192831  0.75540881  1
  Li  Li6  1  0.87524626  0.71637406  0.74757522  1
  Cu  Cu7  1  0.40025294  0.23811557  0.37781819  1
  Cu  Cu8  1  0.20347862  0.50928828  0.84560392  1
  Ti  Ti9  1  0.52537920  0.24180329  0.66202760  1
  Ti  Ti10  1  0.94099902  0.41010850  0.34306295  1
  O  O11  1  0.97481861  0.07274901  0.35560852  1
  O  O12  1  0.35226887  0.31658266  0.20511125  1
