# generated using pymatgen
data_LiMn2(SbP)3
_symmetry_space_group_name_H-M   'P 1'
_cell_length_a   5.94615574
_cell_length_b   6.24569639
_cell_length_c   6.53283371
_cell_angle_alpha   92.04969987
_cell_angle_beta   91.18830571
_cell_angle_gamma   91.78422521
_symmetry_Int_Tables_number   1
_chemical_formula_structural   LiMn2(SbP)3
_chemical_formula_sum   'Li1 Mn2 Sb3 P3'
_cell_volume   242.28483655
_cell_formula_units_Z   1
loop_
 _symmetry_equiv_pos_site_id
 _symmetry_equiv_pos_as_xyz
  1  'x, y, z'
loop_
 _atom_site_type_symbol
 _atom_site_label
 _atom_site_symmetry_multiplicity
 _atom_site_fract_x
 _atom_site_fract_y
 _atom_site_fract_z
 _atom_site_occupancy
  Mn  Mn0  1  0.00000000  0.00000000  0.00000000  1
  Mn  Mn1  1  0.50000000  0.50000000  0.50000000  1
  Sb  Sb2  1  0.50000000  0.50000000  0.00000000  1
  Sb  Sb3  1  0.50000000  0.00000000  0.50000000  1
  Sb  Sb4  1  0.00000000  0.50000000  0.50000000  1
  P  P5  1  0.16893480  0.15767747  0.47887008  1
  P  P6  1  0.14844308  0.58152646  0.58793918  1
  P  P7  1  0.29361570  0.10073258  0.34510633  1
  Li  Li8  1  0.76525621  0.99410806  0.97659911  1
