# generated using pymatgen
data_Li2MnSb4P3
_symmetry_space_group_name_H-M   'P 1'
_cell_length_a   5.98787399
_cell_length_b   6.32141293
_cell_length_c   7.33952124
_cell_angle_alpha   94.42351932
_cell_angle_beta   95.24006736
_cell_angle_gamma   95.03451115
_symmetry_Int_Tables_number   1
_chemical_formula_structural   Li2MnSb4P3
_chemical_formula_sum   'Li2 Mn1 Sb4 P3'
_cell_volume   274.56889441
_cell_formula_units_Z   1
loop_
 _symmetry_equiv_pos_site_id
 _symmetry_equiv_pos_as_xyz
  1  'x, y, z'
loop_
 _atom_site_type_symbol
 _atom_site_label
 _atom_site_symmetry_multiplicity
 _atom_site_fract_x
 _atom_site_fract_y
 _atom_site_fract_z
 _atom_site_occupancy
  Mn  Mn0  1  0.00000000  0.00000000  0.00000000  1
  Sb  Sb1  1  0.50000000  0.50000000  0.50000000  1
  Sb  Sb2  1  0.50000000  0.50000000  0.00000000  1
  Sb  Sb3  1  0.50000000  0.00000000  0.50000000  1
  Sb  Sb4  1  0.00000000  0.50000000  0.50000000  1
  P  P5  1  0.56010283  0.84745477  0.32812752  1
  P  P6  1  0.67236324  0.73967012  0.97428339  1
  P  P7  1  0.33184393  0.10008659  0.75612109  1
  Li  Li8  1  0.95964391  0.72651685  0.44260760  1
  Li  Li9  1  0.83860117  0.19505522  0.95129829  1
