# generated using pymatgen
data_Li2Ti3Cu2O2F3
_symmetry_space_group_name_H-M   'P 1'
_cell_length_a   5.49671591
_cell_length_b   5.66544360
_cell_length_c   6.99782769
_cell_angle_alpha   98.00202293
_cell_angle_beta   102.04293761
_cell_angle_gamma   100.24702995
_symmetry_Int_Tables_number   1
_chemical_formula_structural   Li2Ti3Cu2O2F3
_chemical_formula_sum   'Li2 Ti3 Cu2 O2 F3'
_cell_volume   206.17614462
_cell_formula_units_Z   1
loop_
 _symmetry_equiv_pos_site_id
 _symmetry_equiv_pos_as_xyz
  1  'x, y, z'
loop_
 _atom_site_type_symbol
 _atom_site_label
 _atom_site_symmetry_multiplicity
 _atom_site_fract_x
 _atom_site_fract_y
 _atom_site_fract_z
 _atom_site_occupancy
  Li  Li0  1  0.00000000  0.00000000  0.00000000  1
  Li  Li1  1  0.50000000  0.50000000  0.50000000  1
  Cu  Cu2  1  0.25000000  0.25000000  0.25000000  1
  Cu  Cu3  1  0.75000000  0.25000000  0.00000000  1
  F  F4  1  0.25000000  0.75000000  0.50000000  1
  F  F5  1  0.02125018  0.90862481  0.30050226  1
  F  F6  1  0.37387204  0.84537057  0.36226302  1
  Ti  Ti7  1  0.01553146  0.77178823  0.65214693  1
  Ti  Ti8  1  0.61170668  0.48292819  0.93245155  1
  Ti  Ti9  1  0.72678624  0.97549277  0.17900104  1
  O  O10  1  0.41209515  0.71026272  0.52464779  1
  O  O11  1  0.48897508  0.63757721  0.33554677  1
