# generated using pymatgen
data_Li3Ti2(P3O)2
_symmetry_space_group_name_H-M   'P 1'
_cell_length_a   6.07069679
_cell_length_b   6.25519359
_cell_length_c   7.03065483
_cell_angle_alpha   98.35571396
_cell_angle_beta   101.50704538
_cell_angle_gamma   100.74503620
_symmetry_Int_Tables_number   1
_chemical_formula_structural   Li3Ti2(P3O)2
_chemical_formula_sum   'Li3 Ti2 P6 O2'
_cell_volume   252.36360734
_cell_formula_units_Z   1
loop_
 _symmetry_equiv_pos_site_id
 _symmetry_equiv_pos_as_xyz
  1  'x, y, z'
loop_
 _atom_site_type_symbol
 _atom_site_label
 _atom_site_symmetry_multiplicity
 _atom_site_fract_x
 _atom_site_fract_y
 _atom_site_fract_z
 _atom_site_occupancy
  P  P0  1  0.12500000  0.00000000  0.25000000  1
  P  P1  1  0.00000000  0.00000000  0.00000000  1
  P  P2  1  0.37500000  0.00000000  0.25000000  1
  P  P3  1  0.25000000  0.25000000  0.25000000  1
  P  P4  1  0.00000000  0.25000000  0.12500000  1
  P  P5  1  0.04776633  0.35810734  0.57256727  1
  Li  Li6  1  0.64190112  0.11162318  0.02502799  1
  Li  Li7  1  0.59384616  0.57222775  0.51039384  1
  Li  Li8  1  0.84528511  0.94556899  0.54430809  1
  Ti  Ti9  1  0.87052812  0.42667250  0.95436042  1
  Ti  Ti10  1  0.66746301  0.68815230  0.77671881  1
  O  O11  1  0.23922359  0.32329135  0.70522695  1
  O  O12  1  0.95108106  0.43268082  0.31163747  1
