# generated using pymatgen
data_Li3Ti3Zn2I4O3
_symmetry_space_group_name_H-M   'P 1'
_cell_length_a   6.92805966
_cell_length_b   7.38374969
_cell_length_c   6.94709838
_cell_angle_alpha   95.60754912
_cell_angle_beta   97.59513078
_cell_angle_gamma   97.21640418
_symmetry_Int_Tables_number   1
_chemical_formula_structural   Li3Ti3Zn2I4O3
_chemical_formula_sum   'Li3 Ti3 Zn2 I4 O3'
_cell_volume   347.10165032
_cell_formula_units_Z   1
loop_
 _symmetry_equiv_pos_site_id
 _symmetry_equiv_pos_as_xyz
  1  'x, y, z'
loop_
 _atom_site_type_symbol
 _atom_site_label
 _atom_site_symmetry_multiplicity
 _atom_site_fract_x
 _atom_site_fract_y
 _atom_site_fract_z
 _atom_site_occupancy
  I  I0  1  0.00000000  0.00000000  0.00000000  1
  I  I1  1  0.50000000  0.50000000  0.50000000  1
  I  I2  1  0.25000000  0.25000000  0.25000000  1
  I  I3  1  0.75000000  0.25000000  0.00000000  1
  Li  Li4  1  0.25000000  0.75000000  0.50000000  1
  Li  Li5  1  0.28903400  0.75507790  0.71107063  1
  Li  Li6  1  0.52259683  0.10423029  0.74899807  1
  Zn  Zn7  1  0.44026292  0.23060645  0.15935481  1
  Zn  Zn8  1  0.01471793  0.26542741  0.67240219  1
  Ti  Ti9  1  0.58257033  0.22670900  0.30888090  1
  Ti  Ti10  1  0.38048755  0.89231978  0.49568722  1
  Ti  Ti11  1  0.70354159  0.09138164  0.18975875  1
  O  O12  1  0.68057064  0.27121178  0.20561985  1
  O  O13  1  0.32781439  0.25968575  0.65293546  1
  O  O14  1  0.67527192  0.48541916  0.66170251  1
