# generated using pymatgen
data_LiMn2Sb4P3
_symmetry_space_group_name_H-M   'P 1'
_cell_length_a   5.36519006
_cell_length_b   5.68509806
_cell_length_c   6.49834307
_cell_angle_alpha   92.54161019
_cell_angle_beta   93.60945467
_cell_angle_gamma   93.29250749
_symmetry_Int_Tables_number   1
_chemical_formula_structural   LiMn2Sb4P3
_chemical_formula_sum   'Li1 Mn2 Sb4 P3'
_cell_volume   197.26143114
_cell_formula_units_Z   1
loop_
 _symmetry_equiv_pos_site_id
 _symmetry_equiv_pos_as_xyz
  1  'x, y, z'
loop_
 _atom_site_type_symbol
 _atom_site_label
 _atom_site_symmetry_multiplicity
 _atom_site_fract_x
 _atom_site_fract_y
 _atom_site_fract_z
 _atom_site_occupancy
  Mn  Mn0  1  0.00000000  0.00000000  0.00000000  1
  Mn  Mn1  1  0.33300000  0.66700000  0.25000000  1
  Sb  Sb2  1  0.66700000  0.33300000  0.50000000  1
  Sb  Sb3  1  0.00000000  0.00000000  0.75000000  1
  Sb  Sb4  1  0.10278703  0.79426172  0.41847972  1
  Sb  Sb5  1  0.39590123  0.12986817  0.93670609  1
  P  P6  1  0.23688413  0.34951590  0.56977018  1
  P  P7  1  0.17050091  0.09846128  0.17774828  1
  P  P8  1  0.25663361  0.50840015  0.70222313  1
  Li  Li9  1  0.42082751  0.58191649  0.02289945  1
