# generated using pymatgen
data_Li7SeO3
_symmetry_space_group_name_H-M   'P 1'
_cell_length_a   3.70575095
_cell_length_b   3.54878624
_cell_length_c   6.24235290
_cell_angle_alpha   110.85361972
_cell_angle_beta   117.14332128
_cell_angle_gamma   111.92613418
_symmetry_Int_Tables_number   1
_chemical_formula_structural   Li7SeO3
_chemical_formula_sum   'Li7 Se1 O3'
_cell_volume   52.20595774
_cell_formula_units_Z   1
loop_
 _symmetry_equiv_pos_site_id
 _symmetry_equiv_pos_as_xyz
  1  'x, y, z'
loop_
 _atom_site_type_symbol
 _atom_site_label
 _atom_site_symmetry_multiplicity
 _atom_site_fract_x
 _atom_site_fract_y
 _atom_site_fract_z
 _atom_site_occupancy
  Se  Se0  1  0.00000000  0.00000000  0.00000000  1
  O  O1  1  0.50000000  0.50000000  0.50000000  1
  O  O2  1  0.50000000  0.50000000  0.00000000  1
  O  O3  1  0.50000000  0.00000000  0.50000000  1
  Li  Li4  1  0.00000000  0.50000000  0.50000000  1
  Li  Li5  1  0.57884426  0.85676824  0.32955772  1
  Li  Li6  1  0.48625659  0.89175845  0.65114401  1
  Li  Li7  1  0.99723833  0.81711021  0.28400328  1
  Li  Li8  1  0.74485631  0.05144097  0.16688530  1
  Li  Li9  1  0.53188992  0.41063673  0.00715398  1
  Li  Li10  1  0.13870396  0.47223105  0.56342998  1
