# generated using pymatgen
data_Li3TiNi2(P2O)2
_symmetry_space_group_name_H-M   'P 1'
_cell_length_a   6.39019937
_cell_length_b   6.09103941
_cell_length_c   6.46297374
_cell_angle_alpha   91.73955716
_cell_angle_beta   91.21454133
_cell_angle_gamma   90.60586980
_symmetry_Int_Tables_number   1
_chemical_formula_structural   Li3TiNi2(P2O)2
_chemical_formula_sum   'Li3 Ti1 Ni2 P4 O2'
_cell_volume   251.36978176
_cell_formula_units_Z   1
loop_
 _symmetry_equiv_pos_site_id
 _symmetry_equiv_pos_as_xyz
  1  'x, y, z'
loop_
 _atom_site_type_symbol
 _atom_site_label
 _atom_site_symmetry_multiplicity
 _atom_site_fract_x
 _atom_site_fract_y
 _atom_site_fract_z
 _atom_site_occupancy
  P  P0  1  0.00000000  0.00000000  0.00000000  1
  P  P1  1  0.50000000  0.50000000  0.50000000  1
  P  P2  1  0.25000000  0.25000000  0.25000000  1
  P  P3  1  0.75000000  0.25000000  0.00000000  1
  Li  Li4  1  0.25000000  0.75000000  0.50000000  1
  Li  Li5  1  0.41953691  0.85347003  0.27098156  1
  Li  Li6  1  0.55893422  0.61194977  0.31511346  1
  Ni  Ni7  1  0.79050372  0.95905635  0.87576298  1
  Ni  Ni8  1  0.91184208  0.49144087  0.29048150  1
  Ti  Ti9  1  0.82583785  0.76229995  0.22818498  1
  O  O10  1  0.39657026  0.11545349  0.03593250  1
  O  O11  1  0.36818934  0.42438647  0.20341723  1
