# generated using pymatgen
data_LiTi2Nb2P3O2
_symmetry_space_group_name_H-M   'P 1'
_cell_length_a   7.69702930
_cell_length_b   7.46793179
_cell_length_c   7.27093621
_cell_angle_alpha   90.44097154
_cell_angle_beta   92.09800864
_cell_angle_gamma   90.50414822
_symmetry_Int_Tables_number   1
_chemical_formula_structural   LiTi2Nb2P3O2
_chemical_formula_sum   'Li1 Ti2 Nb2 P3 O2'
_cell_volume   417.63011051
_cell_formula_units_Z   1
loop_
 _symmetry_equiv_pos_site_id
 _symmetry_equiv_pos_as_xyz
  1  'x, y, z'
loop_
 _atom_site_type_symbol
 _atom_site_label
 _atom_site_symmetry_multiplicity
 _atom_site_fract_x
 _atom_site_fract_y
 _atom_site_fract_z
 _atom_site_occupancy
  P  P0  1  0.12500000  0.00000000  0.25000000  1
  P  P1  1  0.00000000  0.00000000  0.00000000  1
  P  P2  1  0.37500000  0.00000000  0.25000000  1
  Li  Li3  1  0.25000000  0.25000000  0.25000000  1
  Nb  Nb4  1  0.00000000  0.25000000  0.12500000  1
  Nb  Nb5  1  0.14804805  0.55722000  0.25558528  1
  Ti  Ti6  1  0.58206050  0.35989051  0.28601253  1
  Ti  Ti7  1  0.48207353  0.88380562  0.16762398  1
  O  O8  1  0.22481878  0.48895177  0.13266366  1
  O  O9  1  0.69188582  0.17973674  0.26517017  1
