# generated using pymatgen
data_Li2Sb4P3N
_symmetry_space_group_name_H-M   'P 1'
_cell_length_a   4.53274028
_cell_length_b   4.59012789
_cell_length_c   5.85615653
_cell_angle_alpha   103.27460240
_cell_angle_beta   93.28202745
_cell_angle_gamma   102.61894643
_symmetry_Int_Tables_number   1
_chemical_formula_structural   Li2Sb4P3N
_chemical_formula_sum   'Li2 Sb4 P3 N1'
_cell_volume   114.97984905
_cell_formula_units_Z   1
loop_
 _symmetry_equiv_pos_site_id
 _symmetry_equiv_pos_as_xyz
  1  'x, y, z'
loop_
 _atom_site_type_symbol
 _atom_site_label
 _atom_site_symmetry_multiplicity
 _atom_site_fract_x
 _atom_site_fract_y
 _atom_site_fract_z
 _atom_site_occupancy
  N  N0  1  0.12500000  0.00000000  0.25000000  1
  Sb  Sb1  1  0.00000000  0.00000000  0.00000000  1
  Sb  Sb2  1  0.37500000  0.00000000  0.25000000  1
  Sb  Sb3  1  0.25000000  0.25000000  0.25000000  1
  Sb  Sb4  1  0.00000000  0.25000000  0.12500000  1
  P  P5  1  0.14400990  0.24548797  0.04753377  1
  P  P6  1  0.85960196  0.63329905  0.04461842  1
  P  P7  1  0.47874696  0.24266200  0.68060460  1
  Li  Li8  1  0.52950462  0.24520481  0.12250124  1
  Li  Li9  1  0.55890163  0.12978213  0.38912678  1
