# generated using pymatgen
data_Li4Cu2As6Se
_symmetry_space_group_name_H-M   'P 1'
_cell_length_a   5.93878934
_cell_length_b   5.67429661
_cell_length_c   7.71094957
_cell_angle_alpha   99.73354659
_cell_angle_beta   101.76917502
_cell_angle_gamma   99.40681635
_symmetry_Int_Tables_number   1
_chemical_formula_structural   Li4Cu2As6Se
_chemical_formula_sum   'Li4 Cu2 As6 Se1'
_cell_volume   245.39068740
_cell_formula_units_Z   1
loop_
 _symmetry_equiv_pos_site_id
 _symmetry_equiv_pos_as_xyz
  1  'x, y, z'
loop_
 _atom_site_type_symbol
 _atom_site_label
 _atom_site_symmetry_multiplicity
 _atom_site_fract_x
 _atom_site_fract_y
 _atom_site_fract_z
 _atom_site_occupancy
  Li  Li0  1  0.00000000  0.00000000  0.00000000  1
  Li  Li1  1  0.50000000  0.50000000  0.50000000  1
  Li  Li2  1  0.50000000  0.50000000  0.00000000  1
  Li  Li3  1  0.50000000  0.00000000  0.50000000  1
  Cu  Cu4  1  0.00000000  0.50000000  0.50000000  1
  Cu  Cu5  1  0.92280952  0.99965093  0.72382957  1
  Se  Se6  1  0.70083892  0.63151329  0.96204696  1
  As  As7  1  0.20882592  0.42398132  0.49545552  1
  As  As8  1  0.59927636  0.93372328  0.14909662  1
  As  As9  1  0.74190471  0.87245579  0.35308566  1
  As  As10  1  0.32197401  0.51128358  0.56886698  1
  As  As11  1  0.71513841  0.56799215  0.18238689  1
  As  As12  1  0.97348474  0.93730915  0.09409557  1
