# generated using pymatgen
data_Li3Cu2As6O7F3
_symmetry_space_group_name_H-M   'P 1'
_cell_length_a   7.50257682
_cell_length_b   7.32829111
_cell_length_c   8.67237266
_cell_angle_alpha   91.70045484
_cell_angle_beta   92.10057023
_cell_angle_gamma   91.95608708
_symmetry_Int_Tables_number   1
_chemical_formula_structural   Li3Cu2As6O7F3
_chemical_formula_sum   'Li3 Cu2 As6 O7 F3'
_cell_volume   475.98988467
_cell_formula_units_Z   1
loop_
 _symmetry_equiv_pos_site_id
 _symmetry_equiv_pos_as_xyz
  1  'x, y, z'
loop_
 _atom_site_type_symbol
 _atom_site_label
 _atom_site_symmetry_multiplicity
 _atom_site_fract_x
 _atom_site_fract_y
 _atom_site_fract_z
 _atom_site_occupancy
  Li  Li0  1  0.00000000  0.00000000  0.00000000  1
  Li  Li1  1  0.50000000  0.50000000  0.50000000  1
  Li  Li2  1  0.25000000  0.25000000  0.25000000  1
  Cu  Cu3  1  0.75000000  0.25000000  0.00000000  1
  Cu  Cu4  1  0.25000000  0.75000000  0.50000000  1
  F  F5  1  0.83437261  0.82878745  0.42829087  1
  F  F6  1  0.85518567  0.37709543  0.08853072  1
  F  F7  1  0.07932043  0.87191285  0.75495159  1
  As  As8  1  0.35129181  0.61413937  0.31941941  1
  As  As9  1  0.19901474  0.03256906  0.91339456  1
  As  As10  1  0.69512832  0.49286810  0.09803494  1
  As  As11  1  0.73867056  0.08748143  0.88588520  1
  As  As12  1  0.34124422  0.60319483  0.35448797  1
  As  As13  1  0.46392411  0.60306207  0.89671081  1
  O  O14  1  0.85153640  0.36876460  0.14163477  1
  O  O15  1  0.27184257  0.21983591  0.27966216  1
  O  O16  1  0.70189820  0.01286912  0.40797426  1
  O  O17  1  0.87256488  0.52445571  0.00553985  1
  O  O18  1  0.24128694  0.03221946  0.05803343  1
  O  O19  1  0.76111743  0.69667998  0.07572253  1
  O  O20  1  0.24833603  0.22008485  0.31725193  1
