# generated using pymatgen
data_Li4Cu2As6P8O3
_symmetry_space_group_name_H-M   'P 1'
_cell_length_a   7.25131557
_cell_length_b   7.23753372
_cell_length_c   8.37921355
_cell_angle_alpha   93.64287295
_cell_angle_beta   95.71595055
_cell_angle_gamma   93.45036724
_symmetry_Int_Tables_number   1
_chemical_formula_structural   Li4Cu2As6P8O3
_chemical_formula_sum   'Li4 Cu2 As6 P8 O3'
_cell_volume   435.70359692
_cell_formula_units_Z   1
loop_
 _symmetry_equiv_pos_site_id
 _symmetry_equiv_pos_as_xyz
  1  'x, y, z'
loop_
 _atom_site_type_symbol
 _atom_site_label
 _atom_site_symmetry_multiplicity
 _atom_site_fract_x
 _atom_site_fract_y
 _atom_site_fract_z
 _atom_site_occupancy
  P  P0  1  0.00000000  0.00000000  0.00000000  1
  P  P1  1  0.50000000  0.50000000  0.50000000  1
  P  P2  1  0.50000000  0.50000000  0.00000000  1
  P  P3  1  0.50000000  0.00000000  0.50000000  1
  P  P4  1  0.00000000  0.50000000  0.50000000  1
  P  P5  1  0.43363621  0.65745023  0.55823502  1
  P  P6  1  0.67214617  0.80717025  0.43297352  1
  P  P7  1  0.34155299  0.36571526  0.07727929  1
  Li  Li8  1  0.46831271  0.15014389  0.06419124  1
  Li  Li9  1  0.37130041  0.12918066  0.65352540  1
  Li  Li10  1  0.66575068  0.92929978  0.07004436  1
  Li  Li11  1  0.83011378  0.36323239  0.45356814  1
  Cu  Cu12  1  0.62651049  0.09048918  0.86761894  1
  Cu  Cu13  1  0.71362679  0.20270695  0.08263842  1
  As  As14  1  0.61716904  0.99972488  0.81523627  1
  As  As15  1  0.16357569  0.91206542  0.94597075  1
  As  As16  1  0.24155905  0.45261091  0.46657669  1
  As  As17  1  0.07410412  0.48880281  0.19025123  1
  As  As18  1  0.23092668  0.59777303  0.48589106  1
  As  As19  1  0.39755475  0.85283162  0.69274218  1
  O  O20  1  0.48104381  0.22865965  0.37174817  1
  O  O21  1  0.09986337  0.73557825  0.47019561  1
  O  O22  1  0.40401425  0.65032914  0.50321692  1
