# generated using pymatgen
data_Li2Mn2Sb4Mo2P3
_symmetry_space_group_name_H-M   'P 1'
_cell_length_a   4.22717056
_cell_length_b   4.38836740
_cell_length_c   5.94498135
_cell_angle_alpha   105.03212734
_cell_angle_beta   91.90888970
_cell_angle_gamma   104.89439625
_symmetry_Int_Tables_number   1
_chemical_formula_structural   Li2Mn2Sb4Mo2P3
_chemical_formula_sum   'Li2 Mn2 Sb4 Mo2 P3'
_cell_volume   102.33712223
_cell_formula_units_Z   1
loop_
 _symmetry_equiv_pos_site_id
 _symmetry_equiv_pos_as_xyz
  1  'x, y, z'
loop_
 _atom_site_type_symbol
 _atom_site_label
 _atom_site_symmetry_multiplicity
 _atom_site_fract_x
 _atom_site_fract_y
 _atom_site_fract_z
 _atom_site_occupancy
  Mn  Mn0  1  0.00000000  0.00000000  0.00000000  1
  Mn  Mn1  1  0.50000000  0.50000000  0.50000000  1
  Sb  Sb2  1  0.50000000  0.50000000  0.00000000  1
  Sb  Sb3  1  0.50000000  0.00000000  0.50000000  1
  Sb  Sb4  1  0.00000000  0.50000000  0.50000000  1
  Sb  Sb5  1  0.02185960  0.81587900  0.53956695  1
  P  P6  1  0.98223389  0.06479749  0.17341175  1
  P  P7  1  0.08086297  0.38760149  0.94264483  1
  P  P8  1  0.87769516  0.51913589  0.05271709  1
  Mo  Mo9  1  0.56409828  0.78400925  0.11935710  1
  Mo  Mo10  1  0.67409459  0.30101708  0.64129290  1
  Li  Li11  1  0.15003312  0.47351484  0.03199596  1
  Li  Li12  1  0.73496580  0.22390301  0.53339565  1
