# generated using pymatgen
data_Li3Ni2P4N5O2
_symmetry_space_group_name_H-M   'P 1'
_cell_length_a   7.71992454
_cell_length_b   7.46128937
_cell_length_c   8.16757109
_cell_angle_alpha   92.02250599
_cell_angle_beta   91.16695521
_cell_angle_gamma   92.34415754
_symmetry_Int_Tables_number   1
_chemical_formula_structural   Li3Ni2P4N5O2
_chemical_formula_sum   'Li3 Ni2 P4 N5 O2'
_cell_volume   469.65833572
_cell_formula_units_Z   1
loop_
 _symmetry_equiv_pos_site_id
 _symmetry_equiv_pos_as_xyz
  1  'x, y, z'
loop_
 _atom_site_type_symbol
 _atom_site_label
 _atom_site_symmetry_multiplicity
 _atom_site_fract_x
 _atom_site_fract_y
 _atom_site_fract_z
 _atom_site_occupancy
  P  P0  1  0.00000000  0.00000000  0.00000000  1
  P  P1  1  0.50000000  0.50000000  0.50000000  1
  P  P2  1  0.50000000  0.50000000  0.00000000  1
  P  P3  1  0.50000000  0.00000000  0.50000000  1
  Li  Li4  1  0.00000000  0.50000000  0.50000000  1
  Li  Li5  1  0.19710983  0.39408501  0.36846650  1
  Li  Li6  1  0.17121432  0.06589154  0.97719941  1
  Ni  Ni7  1  0.77393002  0.24918795  0.43422417  1
  Ni  Ni8  1  0.05836492  0.83853092  0.95893143  1
  O  O9  1  0.67967830  0.22218544  0.32263669  1
  O  O10  1  0.26291345  0.75458227  0.65233508  1
  N  N11  1  0.16031868  0.01388468  0.29231329  1
  N  N12  1  0.04261570  0.89381196  0.88019349  1
  N  N13  1  0.03912707  0.74856990  0.20660909  1
  N  N14  1  0.63182563  0.20812274  0.22196666  1
  N  N15  1  0.04091206  0.87618620  0.57566330  1
