# generated using pymatgen
data_LiSb4Mo2P3
_symmetry_space_group_name_H-M   'P 1'
_cell_length_a   5.21311898
_cell_length_b   5.52740044
_cell_length_c   6.54352045
_cell_angle_alpha   98.21184855
_cell_angle_beta   92.89864354
_cell_angle_gamma   98.30482671
_symmetry_Int_Tables_number   1
_chemical_formula_structural   LiSb4Mo2P3
_chemical_formula_sum   'Li1 Sb4 Mo2 P3'
_cell_volume   184.17265355
_cell_formula_units_Z   1
loop_
 _symmetry_equiv_pos_site_id
 _symmetry_equiv_pos_as_xyz
  1  'x, y, z'
loop_
 _atom_site_type_symbol
 _atom_site_label
 _atom_site_symmetry_multiplicity
 _atom_site_fract_x
 _atom_site_fract_y
 _atom_site_fract_z
 _atom_site_occupancy
  Sb  Sb0  1  0.12500000  0.12500000  0.12500000  1
  Sb  Sb1  1  0.50000000  0.50000000  0.50000000  1
  Sb  Sb2  1  0.25000000  0.25000000  0.25000000  1
  Sb  Sb3  1  0.75000000  0.75000000  0.75000000  1
  P  P4  1  0.41897287  0.18156261  0.42339638  1
  P  P5  1  0.22199806  0.98264934  0.00504373  1
  P  P6  1  0.69408004  0.14717579  0.44056696  1
  Mo  Mo7  1  0.56960982  0.19253364  0.21695122  1
  Mo  Mo8  1  0.95715844  0.25841881  0.25798043  1
  Li  Li9  1  0.25531665  0.78075327  0.76377965  1
