# generated using pymatgen
data_Li2TiP2(I2O)2
_symmetry_space_group_name_H-M   'P 1'
_cell_length_a   7.81138003
_cell_length_b   7.92312654
_cell_length_c   7.42044154
_cell_angle_alpha   90.95265001
_cell_angle_beta   91.70696079
_cell_angle_gamma   91.20838816
_symmetry_Int_Tables_number   1
_chemical_formula_structural   Li2TiP2(I2O)2
_chemical_formula_sum   'Li2 Ti1 P2 I4 O2'
_cell_volume   458.88092796
_cell_formula_units_Z   1
loop_
 _symmetry_equiv_pos_site_id
 _symmetry_equiv_pos_as_xyz
  1  'x, y, z'
loop_
 _atom_site_type_symbol
 _atom_site_label
 _atom_site_symmetry_multiplicity
 _atom_site_fract_x
 _atom_site_fract_y
 _atom_site_fract_z
 _atom_site_occupancy
  I  I0  1  0.00000000  0.00000000  0.00000000  1
  I  I1  1  0.50000000  0.50000000  0.50000000  1
  I  I2  1  0.25000000  0.25000000  0.25000000  1
  I  I3  1  0.75000000  0.25000000  0.00000000  1
  P  P4  1  0.25000000  0.75000000  0.50000000  1
  P  P5  1  0.89824618  0.89278755  0.67716648  1
  Li  Li6  1  0.26348699  0.79533163  0.45400320  1
  Li  Li7  1  0.84718736  0.14557901  0.01627661  1
  Ti  Ti8  1  0.19249694  0.57913459  0.24509376  1
  O  O9  1  0.94124980  0.06225433  0.73265494  1
  O  O10  1  0.96721015  0.11533715  0.40512396  1
