# generated using pymatgen
data_Li4Te6N5OF
_symmetry_space_group_name_H-M   'P 1'
_cell_length_a   5.45584680
_cell_length_b   5.92921719
_cell_length_c   7.65156338
_cell_angle_alpha   91.64371122
_cell_angle_beta   96.51339199
_cell_angle_gamma   93.34396995
_symmetry_Int_Tables_number   1
_chemical_formula_structural   Li4Te6N5OF
_chemical_formula_sum   'Li4 Te6 N5 O1 F1'
_cell_volume   245.34775562
_cell_formula_units_Z   1
loop_
 _symmetry_equiv_pos_site_id
 _symmetry_equiv_pos_as_xyz
  1  'x, y, z'
loop_
 _atom_site_type_symbol
 _atom_site_label
 _atom_site_symmetry_multiplicity
 _atom_site_fract_x
 _atom_site_fract_y
 _atom_site_fract_z
 _atom_site_occupancy
  F  F0  1  0.12500000  0.00000000  0.25000000  1
  O  O1  1  0.00000000  0.00000000  0.00000000  1
  N  N2  1  0.37500000  0.00000000  0.25000000  1
  N  N3  1  0.25000000  0.25000000  0.25000000  1
  N  N4  1  0.00000000  0.25000000  0.12500000  1
  N  N5  1  0.52476114  0.30492523  0.20004525  1
  N  N6  1  0.97000011  0.74051034  0.08873102  1
  Li  Li7  1  0.35455237  0.49496610  0.70789388  1
  Li  Li8  1  0.80201841  0.89601489  0.94359363  1
  Li  Li9  1  0.72354967  0.33923545  0.00852075  1
  Li  Li10  1  0.83986709  0.72458076  0.60005673  1
  Te  Te11  1  0.66725613  0.92531136  0.09053648  1
  Te  Te12  1  0.35168066  0.36597216  0.24250626  1
  Te  Te13  1  0.35281771  0.63104932  0.28653267  1
  Te  Te14  1  0.73863019  0.07555400  0.46629084  1
  Te  Te15  1  0.96739100  0.53881538  0.49789570  1
  Te  Te16  1  0.10233585  0.85081188  0.31539079  1
