# generated using pymatgen
data_Li4Zr(NiAs3)2
_symmetry_space_group_name_H-M   'P 1'
_cell_length_a   6.80942170
_cell_length_b   6.57138050
_cell_length_c   8.40436725
_cell_angle_alpha   96.37953186
_cell_angle_beta   97.18480223
_cell_angle_gamma   96.33693889
_symmetry_Int_Tables_number   1
_chemical_formula_structural   Li4Zr(NiAs3)2
_chemical_formula_sum   'Li4 Zr1 Ni2 As6'
_cell_volume   367.85235466
_cell_formula_units_Z   1
loop_
 _symmetry_equiv_pos_site_id
 _symmetry_equiv_pos_as_xyz
  1  'x, y, z'
loop_
 _atom_site_type_symbol
 _atom_site_label
 _atom_site_symmetry_multiplicity
 _atom_site_fract_x
 _atom_site_fract_y
 _atom_site_fract_z
 _atom_site_occupancy
  Li  Li0  1  0.12500000  0.00000000  0.25000000  1
  Li  Li1  1  0.00000000  0.00000000  0.00000000  1
  Li  Li2  1  0.37500000  0.00000000  0.25000000  1
  Li  Li3  1  0.25000000  0.25000000  0.25000000  1
  Ni  Ni4  1  0.00000000  0.25000000  0.12500000  1
  Ni  Ni5  1  0.40044255  0.07452207  0.89522344  1
  As  As6  1  0.72225437  0.14592208  0.61464348  1
  As  As7  1  0.79536873  0.13789124  0.56424196  1
  As  As8  1  0.29184885  0.92947506  0.99937580  1
  As  As9  1  0.33258255  0.52564996  0.54718839  1
  As  As10  1  0.26618247  0.83200792  0.33656900  1
  As  As11  1  0.28216146  0.87887524  0.54453780  1
  Zr  Zr12  1  0.24931924  0.33423894  0.64160547  1
