# generated using pymatgen
data_LiMnP3
_symmetry_space_group_name_H-M   'P 1'
_cell_length_a   4.68613469
_cell_length_b   4.91584419
_cell_length_c   6.37131654
_cell_angle_alpha   99.13974844
_cell_angle_beta   94.16648105
_cell_angle_gamma   99.33127005
_symmetry_Int_Tables_number   1
_chemical_formula_structural   LiMnP3
_chemical_formula_sum   'Li1 Mn1 P3'
_cell_volume   142.25929068
_cell_formula_units_Z   1
loop_
 _symmetry_equiv_pos_site_id
 _symmetry_equiv_pos_as_xyz
  1  'x, y, z'
loop_
 _atom_site_type_symbol
 _atom_site_label
 _atom_site_symmetry_multiplicity
 _atom_site_fract_x
 _atom_site_fract_y
 _atom_site_fract_z
 _atom_site_occupancy
  Mn  Mn0  1  0.12500000  0.12500000  0.12500000  1
  P  P1  1  0.50000000  0.50000000  0.50000000  1
  P  P2  1  0.25000000  0.25000000  0.25000000  1
  P  P3  1  0.75000000  0.75000000  0.75000000  1
  Li  Li4  1  0.88846591  0.41650169  0.72869581  1
