# generated using pymatgen
data_Li2Ti2Cu2P3O
_symmetry_space_group_name_H-M   'P 1'
_cell_length_a   7.01461353
_cell_length_b   6.79335904
_cell_length_c   7.15727076
_cell_angle_alpha   91.66103709
_cell_angle_beta   93.55736751
_cell_angle_gamma   91.60985343
_symmetry_Int_Tables_number   1
_chemical_formula_structural   Li2Ti2Cu2P3O
_chemical_formula_sum   'Li2 Ti2 Cu2 P3 O1'
_cell_volume   340.11092943
_cell_formula_units_Z   1
loop_
 _symmetry_equiv_pos_site_id
 _symmetry_equiv_pos_as_xyz
  1  'x, y, z'
loop_
 _atom_site_type_symbol
 _atom_site_label
 _atom_site_symmetry_multiplicity
 _atom_site_fract_x
 _atom_site_fract_y
 _atom_site_fract_z
 _atom_site_occupancy
  P  P0  1  0.12500000  0.00000000  0.25000000  1
  P  P1  1  0.00000000  0.00000000  0.00000000  1
  P  P2  1  0.37500000  0.00000000  0.25000000  1
  Li  Li3  1  0.25000000  0.25000000  0.25000000  1
  Li  Li4  1  0.00000000  0.25000000  0.12500000  1
  Cu  Cu5  1  0.74339608  0.15084034  0.92322668  1
  Cu  Cu6  1  0.35988925  0.85703587  0.07349961  1
  Ti  Ti7  1  0.73645634  0.20622407  0.66475399  1
  Ti  Ti8  1  0.01625676  0.83140029  0.57311205  1
  O  O9  1  0.91707459  0.03450134  0.25069454  1
