# generated using pymatgen
data_Li3Ti2P5O2
_symmetry_space_group_name_H-M   'P 1'
_cell_length_a   7.10915302
_cell_length_b   6.90837413
_cell_length_c   8.21740025
_cell_angle_alpha   94.66807870
_cell_angle_beta   94.34282421
_cell_angle_gamma   95.73667080
_symmetry_Int_Tables_number   1
_chemical_formula_structural   Li3Ti2P5O2
_chemical_formula_sum   'Li3 Ti2 P5 O2'
_cell_volume   398.79190613
_cell_formula_units_Z   1
loop_
 _symmetry_equiv_pos_site_id
 _symmetry_equiv_pos_as_xyz
  1  'x, y, z'
loop_
 _atom_site_type_symbol
 _atom_site_label
 _atom_site_symmetry_multiplicity
 _atom_site_fract_x
 _atom_site_fract_y
 _atom_site_fract_z
 _atom_site_occupancy
  P  P0  1  0.00000000  0.00000000  0.00000000  1
  P  P1  1  0.33300000  0.66700000  0.25000000  1
  P  P2  1  0.66700000  0.33300000  0.50000000  1
  P  P3  1  0.00000000  0.00000000  0.75000000  1
  P  P4  1  0.46817688  0.04830899  0.77071506  1
  Li  Li5  1  0.83726707  0.29492782  0.86614918  1
  Li  Li6  1  0.78207491  0.04942135  0.55681944  1
  Li  Li7  1  0.52875112  0.20265041  0.15674482  1
  Ti  Ti8  1  0.05649386  0.12849210  0.30709166  1
  Ti  Ti9  1  0.87173334  0.16253164  0.42109055  1
  O  O10  1  0.17725247  0.25044118  0.42130202  1
  O  O11  1  0.09276410  0.32755728  0.75645484  1
