# generated using pymatgen
data_Li2Ti2Cu2P4O
_symmetry_space_group_name_H-M   'P 1'
_cell_length_a   7.63875074
_cell_length_b   7.89142041
_cell_length_c   7.64561445
_cell_angle_alpha   91.09370924
_cell_angle_beta   91.83076839
_cell_angle_gamma   91.39275695
_symmetry_Int_Tables_number   1
_chemical_formula_structural   Li2Ti2Cu2P4O
_chemical_formula_sum   'Li2 Ti2 Cu2 P4 O1'
_cell_volume   460.41981874
_cell_formula_units_Z   1
loop_
 _symmetry_equiv_pos_site_id
 _symmetry_equiv_pos_as_xyz
  1  'x, y, z'
loop_
 _atom_site_type_symbol
 _atom_site_label
 _atom_site_symmetry_multiplicity
 _atom_site_fract_x
 _atom_site_fract_y
 _atom_site_fract_z
 _atom_site_occupancy
  P  P0  1  0.12500000  0.00000000  0.25000000  1
  P  P1  1  0.00000000  0.00000000  0.00000000  1
  P  P2  1  0.37500000  0.00000000  0.25000000  1
  P  P3  1  0.25000000  0.25000000  0.25000000  1
  Li  Li4  1  0.00000000  0.25000000  0.12500000  1
  Li  Li5  1  0.98316095  0.64250686  0.02966836  1
  Cu  Cu6  1  0.48682774  0.46709375  0.15077166  1
  Cu  Cu7  1  0.07612330  0.98712335  0.13348041  1
  Ti  Ti8  1  0.88030448  0.37155303  0.53649777  1
  Ti  Ti9  1  0.88757133  0.55444467  0.34131928  1
  O  O10  1  0.73685525  0.21180490  0.77718926  1
