# generated using pymatgen
data_Li2Mn3Sb4P3
_symmetry_space_group_name_H-M   'P 1'
_cell_length_a   6.69635239
_cell_length_b   6.93639092
_cell_length_c   7.15051472
_cell_angle_alpha   94.89112215
_cell_angle_beta   90.24434463
_cell_angle_gamma   94.79383771
_symmetry_Int_Tables_number   1
_chemical_formula_structural   Li2Mn3Sb4P3
_chemical_formula_sum   'Li2 Mn3 Sb4 P3'
_cell_volume   329.74205190
_cell_formula_units_Z   1
loop_
 _symmetry_equiv_pos_site_id
 _symmetry_equiv_pos_as_xyz
  1  'x, y, z'
loop_
 _atom_site_type_symbol
 _atom_site_label
 _atom_site_symmetry_multiplicity
 _atom_site_fract_x
 _atom_site_fract_y
 _atom_site_fract_z
 _atom_site_occupancy
  Mn  Mn0  1  0.12500000  0.12500000  0.12500000  1
  Mn  Mn1  1  0.50000000  0.50000000  0.50000000  1
  Mn  Mn2  1  0.25000000  0.25000000  0.25000000  1
  Sb  Sb3  1  0.75000000  0.75000000  0.75000000  1
  Sb  Sb4  1  0.78118564  0.52380728  0.00986519  1
  Sb  Sb5  1  0.09272653  0.33469229  0.90827023  1
  Sb  Sb6  1  0.57661160  0.85132288  0.30035569  1
  P  P7  1  0.32848571  0.08933600  0.82825666  1
  P  P8  1  0.68051884  0.34426866  0.75782410  1
  P  P9  1  0.38528585  0.76937832  0.46896800  1
  Li  Li10  1  0.01046739  0.32974913  0.78648831  1
  Li  Li11  1  0.23829013  0.74360166  0.26268405  1
