# generated using pymatgen
data_Li2Mn3Sb4P3
_symmetry_space_group_name_H-M   'P 1'
_cell_length_a   6.59802224
_cell_length_b   7.12651055
_cell_length_c   7.04129586
_cell_angle_alpha   94.61634416
_cell_angle_beta   90.23061761
_cell_angle_gamma   94.52452506
_symmetry_Int_Tables_number   1
_chemical_formula_structural   Li2Mn3Sb4P3
_chemical_formula_sum   'Li2 Mn3 Sb4 P3'
_cell_volume   328.96746499
_cell_formula_units_Z   1
loop_
 _symmetry_equiv_pos_site_id
 _symmetry_equiv_pos_as_xyz
  1  'x, y, z'
loop_
 _atom_site_type_symbol
 _atom_site_label
 _atom_site_symmetry_multiplicity
 _atom_site_fract_x
 _atom_site_fract_y
 _atom_site_fract_z
 _atom_site_occupancy
  Mn  Mn0  1  0.12500000  0.00000000  0.25000000  1
  Mn  Mn1  1  0.00000000  0.00000000  0.00000000  1
  Mn  Mn2  1  0.37500000  0.00000000  0.25000000  1
  Sb  Sb3  1  0.25000000  0.25000000  0.25000000  1
  Sb  Sb4  1  0.00000000  0.25000000  0.12500000  1
  Sb  Sb5  1  0.69936957  0.18440362  0.44236941  1
  Sb  Sb6  1  0.60233641  0.96060143  0.19344671  1
  P  P7  1  0.36587731  0.56151992  0.68974648  1
  P  P8  1  0.68325051  0.12535895  0.98894452  1
  P  P9  1  0.36548062  0.90547688  0.22691040  1
  Li  Li10  1  0.05940528  0.77352638  0.80984594  1
  Li  Li11  1  0.26759426  0.64865238  0.60313035  1
