# generated using pymatgen
data_LiMn2Sb4P3
_symmetry_space_group_name_H-M   'P 1'
_cell_length_a   6.66561261
_cell_length_b   6.95656194
_cell_length_c   7.17384999
_cell_angle_alpha   92.08584938
_cell_angle_beta   91.45446128
_cell_angle_gamma   92.34069447
_symmetry_Int_Tables_number   1
_chemical_formula_structural   LiMn2Sb4P3
_chemical_formula_sum   'Li1 Mn2 Sb4 P3'
_cell_volume   332.03155558
_cell_formula_units_Z   1
loop_
 _symmetry_equiv_pos_site_id
 _symmetry_equiv_pos_as_xyz
  1  'x, y, z'
loop_
 _atom_site_type_symbol
 _atom_site_label
 _atom_site_symmetry_multiplicity
 _atom_site_fract_x
 _atom_site_fract_y
 _atom_site_fract_z
 _atom_site_occupancy
  Mn  Mn0  1  0.00000000  0.00000000  0.00000000  1
  Mn  Mn1  1  0.50000000  0.50000000  0.50000000  1
  Sb  Sb2  1  0.50000000  0.50000000  0.00000000  1
  Sb  Sb3  1  0.50000000  0.00000000  0.50000000  1
  Sb  Sb4  1  0.00000000  0.50000000  0.50000000  1
  Sb  Sb5  1  0.79181480  0.99961898  0.52091338  1
  P  P6  1  0.47536741  0.48000715  0.96329027  1
  P  P7  1  0.87909446  0.70613205  0.56616626  1
  P  P8  1  0.61232683  0.99876367  0.50370260  1
  Li  Li9  1  0.38235096  0.17690305  0.49887798  1
