# generated using pymatgen
data_Li3TiNi2(IO)4
_symmetry_space_group_name_H-M   'P 1'
_cell_length_a   8.69631596
_cell_length_b   8.56944536
_cell_length_c   7.98999208
_cell_angle_alpha   90.00000000
_cell_angle_beta   90.00000000
_cell_angle_gamma   90.00000000
_symmetry_Int_Tables_number   1
_chemical_formula_structural   Li3TiNi2(IO)4
_chemical_formula_sum   'Li3 Ti1 Ni2 I4 O4'
_cell_volume   595.43501968
_cell_formula_units_Z   1
loop_
 _symmetry_equiv_pos_site_id
 _symmetry_equiv_pos_as_xyz
  1  'x, y, z'
loop_
 _atom_site_type_symbol
 _atom_site_label
 _atom_site_symmetry_multiplicity
 _atom_site_fract_x
 _atom_site_fract_y
 _atom_site_fract_z
 _atom_site_occupancy
  I  I0  1  0.12500000  0.00000000  0.25000000  1
  I  I1  1  0.00000000  0.00000000  0.00000000  1
  I  I2  1  0.37500000  0.00000000  0.25000000  1
  I  I3  1  0.25000000  0.25000000  0.25000000  1
  Li  Li4  1  0.00000000  0.25000000  0.12500000  1
  Li  Li5  1  0.48064187  0.20422866  0.43670095  1
  Li  Li6  1  0.45638440  0.09278638  0.76102667  1
  Ni  Ni7  1  0.40964755  0.68799763  0.70870023  1
  Ni  Ni8  1  0.01044117  0.26916601  0.22359689  1
  Ti  Ti9  1  0.47118399  0.54299679  0.25645739  1
  O  O10  1  0.92008022  0.79253002  0.09543972  1
  O  O11  1  0.89822228  0.75550403  0.32265597  1
  O  O12  1  0.21557620  0.83951605  0.60827454  1
  O  O13  1  0.22232776  0.84139386  0.41199609  1
