# generated using pymatgen
data_Li3Ni2As6I4O5
_symmetry_space_group_name_H-M   'P 1'
_cell_length_a   8.51752830
_cell_length_b   8.38311939
_cell_length_c   8.76537804
_cell_angle_alpha   90.00000000
_cell_angle_beta   90.00000000
_cell_angle_gamma   90.00000000
_symmetry_Int_Tables_number   1
_chemical_formula_structural   Li3Ni2As6I4O5
_chemical_formula_sum   'Li3 Ni2 As6 I4 O5'
_cell_volume   625.87829046
_cell_formula_units_Z   1
loop_
 _symmetry_equiv_pos_site_id
 _symmetry_equiv_pos_as_xyz
  1  'x, y, z'
loop_
 _atom_site_type_symbol
 _atom_site_label
 _atom_site_symmetry_multiplicity
 _atom_site_fract_x
 _atom_site_fract_y
 _atom_site_fract_z
 _atom_site_occupancy
  I  I0  1  0.00000000  0.00000000  0.00000000  1
  I  I1  1  0.50000000  0.50000000  0.50000000  1
  I  I2  1  0.50000000  0.50000000  0.00000000  1
  I  I3  1  0.50000000  0.00000000  0.50000000  1
  Li  Li4  1  0.00000000  0.50000000  0.50000000  1
  Li  Li5  1  0.93830109  0.09863941  0.63606018  1
  Li  Li6  1  0.97211758  0.79251594  0.89923050  1
  Ni  Ni7  1  0.31833151  0.92978786  0.83480731  1
  Ni  Ni8  1  0.17764605  0.92386013  0.24001752  1
  As  As9  1  0.55037827  0.03253938  0.52778865  1
  As  As10  1  0.63569991  0.00792709  0.49317832  1
  As  As11  1  0.87170668  0.69423502  0.92387456  1
  As  As12  1  0.98853664  0.77234515  0.85244061  1
  As  As13  1  0.56172981  0.64145871  0.73334105  1
  As  As14  1  0.67493356  0.02728308  0.33841272  1
  O  O15  1  0.76598415  0.53595556  0.73644616  1
  O  O16  1  0.35538527  0.28702490  0.42060895  1
  O  O17  1  0.79060316  0.23277308  0.85652415  1
  O  O18  1  0.39431374  0.95103171  0.67220321  1
  O  O19  1  0.86451576  0.58710878  0.20723071  1
