# generated using pymatgen
data_LiAs2POF
_symmetry_space_group_name_H-M   'P 1'
_cell_length_a   6.13018293
_cell_length_b   5.84797150
_cell_length_c   7.49701523
_cell_angle_alpha   95.53925403
_cell_angle_beta   96.95029460
_cell_angle_gamma   95.02186005
_symmetry_Int_Tables_number   1
_chemical_formula_structural   LiAs2POF
_chemical_formula_sum   'Li3 As6 P3 O3 F3'
_cell_volume   264.19843602
_cell_formula_units_Z   3
loop_
 _symmetry_equiv_pos_site_id
 _symmetry_equiv_pos_as_xyz
  1  'x, y, z'
loop_
 _atom_site_type_symbol
 _atom_site_label
 _atom_site_symmetry_multiplicity
 _atom_site_fract_x
 _atom_site_fract_y
 _atom_site_fract_z
 _atom_site_occupancy
  P  P0  1  0.00000000  0.00000000  0.00000000  1
  P  P1  1  0.50000000  0.50000000  0.50000000  1
  P  P2  1  0.25000000  0.25000000  0.25000000  1
  Li  Li3  1  0.75000000  0.25000000  0.00000000  1
  Li  Li4  1  0.25000000  0.75000000  0.50000000  1
  Li  Li5  1  0.34704110  0.83903160  0.54893070  1
  F  F6  1  0.43962128  0.84186378  0.15656137  1
  F  F7  1  0.32905486  0.92222501  0.81004490  1
  F  F8  1  0.21990592  0.07394041  0.23535781  1
  As  As9  1  0.90310412  0.60608118  0.38947555  1
  As  As10  1  0.18303358  0.41523648  0.93767990  1
  As  As11  1  0.85404843  0.63429970  0.66414848  1
  As  As12  1  0.83792277  0.06989013  0.21996888  1
  As  As13  1  0.38052335  0.40385885  0.42829194  1
  As  As14  1  0.06537742  0.88956532  0.91246869  1
  O  O15  1  0.76230298  0.43299772  0.73624914  1
  O  O16  1  0.48825554  0.29093312  0.12815212  1
  O  O17  1  0.41783166  0.48868288  0.27164557  1
