# generated using pymatgen
data_Li2Mn3Sb4P3
_symmetry_space_group_name_H-M   'P 1'
_cell_length_a   6.74350620
_cell_length_b   7.33332568
_cell_length_c   7.49457051
_cell_angle_alpha   94.75661353
_cell_angle_beta   90.23762502
_cell_angle_gamma   94.66200447
_symmetry_Int_Tables_number   1
_chemical_formula_structural   Li2Mn3Sb4P3
_chemical_formula_sum   'Li2 Mn3 Sb4 P3'
_cell_volume   368.10340194
_cell_formula_units_Z   1
loop_
 _symmetry_equiv_pos_site_id
 _symmetry_equiv_pos_as_xyz
  1  'x, y, z'
loop_
 _atom_site_type_symbol
 _atom_site_label
 _atom_site_symmetry_multiplicity
 _atom_site_fract_x
 _atom_site_fract_y
 _atom_site_fract_z
 _atom_site_occupancy
  Mn  Mn0  1  0.00000000  0.00000000  0.00000000  1
  Mn  Mn1  1  0.50000000  0.50000000  0.50000000  1
  Mn  Mn2  1  0.25000000  0.25000000  0.25000000  1
  Sb  Sb3  1  0.75000000  0.25000000  0.00000000  1
  Sb  Sb4  1  0.25000000  0.75000000  0.50000000  1
  Sb  Sb5  1  0.39083943  0.57895581  0.80757195  1
  Sb  Sb6  1  0.09492648  0.87205259  0.19302539  1
  P  P7  1  0.78157515  0.87389878  0.89861125  1
  P  P8  1  0.85123288  0.86956402  0.21522908  1
  P  P9  1  0.88920215  0.07616634  0.10194064  1
  Li  Li10  1  0.43718950  0.03676066  0.55014701  1
  Li  Li11  1  0.42534028  0.35292977  0.11689612  1
