# generated using pymatgen
data_Li2MnSb4P3
_symmetry_space_group_name_H-M   'P 1'
_cell_length_a   3.90553625
_cell_length_b   4.16890725
_cell_length_c   6.78454378
_cell_angle_alpha   100.43805724
_cell_angle_beta   100.35478137
_cell_angle_gamma   101.59986941
_symmetry_Int_Tables_number   1
_chemical_formula_structural   Li2MnSb4P3
_chemical_formula_sum   'Li2 Mn1 Sb4 P3'
_cell_volume   103.70405523
_cell_formula_units_Z   1
loop_
 _symmetry_equiv_pos_site_id
 _symmetry_equiv_pos_as_xyz
  1  'x, y, z'
loop_
 _atom_site_type_symbol
 _atom_site_label
 _atom_site_symmetry_multiplicity
 _atom_site_fract_x
 _atom_site_fract_y
 _atom_site_fract_z
 _atom_site_occupancy
  Mn  Mn0  1  0.00000000  0.00000000  0.00000000  1
  Sb  Sb1  1  0.33300000  0.66700000  0.25000000  1
  Sb  Sb2  1  0.66700000  0.33300000  0.50000000  1
  Sb  Sb3  1  0.00000000  0.00000000  0.75000000  1
  Sb  Sb4  1  0.27604724  0.80752690  0.20952297  1
  P  P5  1  0.22148840  0.15492325  0.58699046  1
  P  P6  1  0.43695989  0.70269616  0.14463043  1
  P  P7  1  0.22901164  0.99327313  0.90866600  1
  Li  Li8  1  0.55170869  0.84511143  0.99529186  1
  Li  Li9  1  0.82407952  0.54752395  0.30780742  1
