# generated using pymatgen
data_Li3LuTi(PI)4
_symmetry_space_group_name_H-M   'P 1'
_cell_length_a   7.70100224
_cell_length_b   7.43435756
_cell_length_c   8.21368994
_cell_angle_alpha   92.11961541
_cell_angle_beta   91.17153666
_cell_angle_gamma   92.45690493
_symmetry_Int_Tables_number   1
_chemical_formula_structural   Li3LuTi(PI)4
_chemical_formula_sum   'Li3 Lu1 Ti1 P4 I4'
_cell_volume   469.38215752
_cell_formula_units_Z   1
loop_
 _symmetry_equiv_pos_site_id
 _symmetry_equiv_pos_as_xyz
  1  'x, y, z'
loop_
 _atom_site_type_symbol
 _atom_site_label
 _atom_site_symmetry_multiplicity
 _atom_site_fract_x
 _atom_site_fract_y
 _atom_site_fract_z
 _atom_site_occupancy
  P  P0  1  0.00000000  0.00000000  0.00000000  1
  P  P1  1  0.50000000  0.50000000  0.50000000  1
  P  P2  1  0.50000000  0.50000000  0.00000000  1
  P  P3  1  0.50000000  0.00000000  0.50000000  1
  I  I4  1  0.00000000  0.50000000  0.50000000  1
  I  I5  1  0.51442585  0.67394375  0.35528335  1
  I  I6  1  0.46614212  0.46670348  0.24171006  1
  I  I7  1  0.29084486  0.61445055  0.39030707  1
  Lu  Lu8  1  0.19246249  0.03625121  0.23868143  1
  Li  Li9  1  0.01770072  0.52455279  0.10801929  1
  Li  Li10  1  0.65103048  0.18228937  0.55780157  1
  Li  Li11  1  0.13993143  0.04150750  0.40471206  1
  Ti  Ti12  1  0.84151152  0.13805996  0.24799488  1
