# generated using pymatgen
data_Li2NiAs3
_symmetry_space_group_name_H-M   'P 1'
_cell_length_a   8.34617931
_cell_length_b   8.14866008
_cell_length_c   9.09662941
_cell_angle_alpha   90.05680272
_cell_angle_beta   90.27025009
_cell_angle_gamma   90.06494068
_symmetry_Int_Tables_number   1
_chemical_formula_structural   Li2NiAs3
_chemical_formula_sum   'Li4 Ni2 As6'
_cell_volume   618.65579998
_cell_formula_units_Z   2
loop_
 _symmetry_equiv_pos_site_id
 _symmetry_equiv_pos_as_xyz
  1  'x, y, z'
loop_
 _atom_site_type_symbol
 _atom_site_label
 _atom_site_symmetry_multiplicity
 _atom_site_fract_x
 _atom_site_fract_y
 _atom_site_fract_z
 _atom_site_occupancy
  Li  Li0  1  0.12500000  0.00000000  0.25000000  1
  Li  Li1  1  0.00000000  0.00000000  0.00000000  1
  Li  Li2  1  0.37500000  0.00000000  0.25000000  1
  Li  Li3  1  0.25000000  0.25000000  0.25000000  1
  Ni  Ni4  1  0.00000000  0.25000000  0.12500000  1
  Ni  Ni5  1  0.78633195  0.34778377  0.77074220  1
  As  As6  1  0.43646534  0.21278258  0.45489272  1
  As  As7  1  0.62614916  0.70921901  0.21328004  1
  As  As8  1  0.35937950  0.84141601  0.70956507  1
  As  As9  1  0.47920545  0.15283724  0.73078688  1
  As  As10  1  0.43837081  0.06625463  0.17864817  1
  As  As11  1  0.02184645  0.86717874  0.07848551  1
