# generated using pymatgen
data_Li2Mn2Sb4P2N
_symmetry_space_group_name_H-M   'P 1'
_cell_length_a   5.44836379
_cell_length_b   5.87614888
_cell_length_c   6.96012226
_cell_angle_alpha   96.85926672
_cell_angle_beta   95.39081503
_cell_angle_gamma   97.05769845
_symmetry_Int_Tables_number   1
_chemical_formula_structural   Li2Mn2Sb4P2N
_chemical_formula_sum   'Li2 Mn2 Sb4 P2 N1'
_cell_volume   218.22158570
_cell_formula_units_Z   1
loop_
 _symmetry_equiv_pos_site_id
 _symmetry_equiv_pos_as_xyz
  1  'x, y, z'
loop_
 _atom_site_type_symbol
 _atom_site_label
 _atom_site_symmetry_multiplicity
 _atom_site_fract_x
 _atom_site_fract_y
 _atom_site_fract_z
 _atom_site_occupancy
  N  N0  1  0.12500000  0.00000000  0.25000000  1
  Mn  Mn1  1  0.00000000  0.00000000  0.00000000  1
  Mn  Mn2  1  0.37500000  0.00000000  0.25000000  1
  Sb  Sb3  1  0.25000000  0.25000000  0.25000000  1
  Sb  Sb4  1  0.00000000  0.25000000  0.12500000  1
  Sb  Sb5  1  0.42466336  0.47906042  0.23169510  1
  Sb  Sb6  1  0.32378828  0.10234685  0.41967002  1
  P  P7  1  0.55858655  0.02238962  0.21200923  1
  P  P8  1  0.00383350  0.12577679  0.71551727  1
  Li  Li9  1  0.82013548  0.51435903  0.03297506  1
  Li  Li10  1  0.66509999  0.75425614  0.68049974  1
