# generated using pymatgen
data_Li4Ti3Cu2(NiO2)2
_symmetry_space_group_name_H-M   'P 1'
_cell_length_a   6.94281535
_cell_length_b   7.02943017
_cell_length_c   8.39742710
_cell_angle_alpha   95.00220041
_cell_angle_beta   96.77521774
_cell_angle_gamma   96.43737561
_symmetry_Int_Tables_number   1
_chemical_formula_structural   Li4Ti3Cu2(NiO2)2
_chemical_formula_sum   'Li4 Ti3 Cu2 Ni2 O4'
_cell_volume   402.30080599
_cell_formula_units_Z   1
loop_
 _symmetry_equiv_pos_site_id
 _symmetry_equiv_pos_as_xyz
  1  'x, y, z'
loop_
 _atom_site_type_symbol
 _atom_site_label
 _atom_site_symmetry_multiplicity
 _atom_site_fract_x
 _atom_site_fract_y
 _atom_site_fract_z
 _atom_site_occupancy
  Li  Li0  1  0.12500000  0.00000000  0.25000000  1
  Li  Li1  1  0.00000000  0.00000000  0.00000000  1
  Li  Li2  1  0.37500000  0.00000000  0.25000000  1
  Li  Li3  1  0.25000000  0.25000000  0.25000000  1
  Cu  Cu4  1  0.00000000  0.25000000  0.12500000  1
  Cu  Cu5  1  0.98037122  0.14308922  0.54315476  1
  Ni  Ni6  1  0.84927513  0.13853361  0.56763293  1
  Ni  Ni7  1  0.64603391  0.15359342  0.77638331  1
  Ti  Ti8  1  0.65058965  0.34818468  0.43319151  1
  Ti  Ti9  1  0.82840891  0.72867937  0.54086782  1
  Ti  Ti10  1  0.66453004  0.85156785  0.32970602  1
  O  O11  1  0.72294349  0.32154846  0.21941753  1
  O  O12  1  0.76214814  0.77108228  0.88902616  1
  O  O13  1  0.50200373  0.88767917  0.88167242  1
  O  O14  1  0.13249679  0.19314184  0.26392294  1
