# generated using pymatgen
data_LiMn3Mo2P3
_symmetry_space_group_name_H-M   'P 1'
_cell_length_a   5.70502307
_cell_length_b   5.89988099
_cell_length_c   6.18206885
_cell_angle_alpha   92.86086830
_cell_angle_beta   89.81539622
_cell_angle_gamma   92.29030546
_symmetry_Int_Tables_number   1
_chemical_formula_structural   LiMn3Mo2P3
_chemical_formula_sum   'Li1 Mn3 Mo2 P3'
_cell_volume   207.65648198
_cell_formula_units_Z   1
loop_
 _symmetry_equiv_pos_site_id
 _symmetry_equiv_pos_as_xyz
  1  'x, y, z'
loop_
 _atom_site_type_symbol
 _atom_site_label
 _atom_site_symmetry_multiplicity
 _atom_site_fract_x
 _atom_site_fract_y
 _atom_site_fract_z
 _atom_site_occupancy
  Mn  Mn0  1  0.12500000  0.12500000  0.12500000  1
  Mn  Mn1  1  0.50000000  0.50000000  0.50000000  1
  Mn  Mn2  1  0.25000000  0.25000000  0.25000000  1
  P  P3  1  0.75000000  0.75000000  0.75000000  1
  P  P4  1  0.71723924  0.38551156  0.64300718  1
  P  P5  1  0.86614661  0.34288614  0.77495577  1
  Mo  Mo6  1  0.86586826  0.50919228  0.50860364  1
  Mo  Mo7  1  0.00208795  0.49329435  0.00348418  1
  Li  Li8  1  0.75543203  0.16679675  0.70411257  1
