# generated using pymatgen
data_Li4LuNi2P4N5
_symmetry_space_group_name_H-M   'P 1'
_cell_length_a   7.43249497
_cell_length_b   7.05219556
_cell_length_c   8.86811598
_cell_angle_alpha   93.49759716
_cell_angle_beta   91.23654746
_cell_angle_gamma   94.05678930
_symmetry_Int_Tables_number   1
_chemical_formula_structural   Li4LuNi2P4N5
_chemical_formula_sum   'Li4 Lu1 Ni2 P4 N5'
_cell_volume   462.64105756
_cell_formula_units_Z   1
loop_
 _symmetry_equiv_pos_site_id
 _symmetry_equiv_pos_as_xyz
  1  'x, y, z'
loop_
 _atom_site_type_symbol
 _atom_site_label
 _atom_site_symmetry_multiplicity
 _atom_site_fract_x
 _atom_site_fract_y
 _atom_site_fract_z
 _atom_site_occupancy
  P  P0  1  0.00000000  0.00000000  0.00000000  1
  P  P1  1  0.50000000  0.50000000  0.50000000  1
  P  P2  1  0.50000000  0.50000000  0.00000000  1
  P  P3  1  0.50000000  0.00000000  0.50000000  1
  Lu  Lu4  1  0.00000000  0.50000000  0.50000000  1
  Li  Li5  1  0.19712733  0.11228852  0.94373181  1
  Li  Li6  1  0.76498839  0.82036367  0.35650195  1
  Li  Li7  1  0.82673358  0.68765384  0.03959093  1
  Li  Li8  1  0.80910873  0.02562282  0.15790128  1
  Ni  Ni9  1  0.84946969  0.28467685  0.85362709  1
  Ni  Ni10  1  0.07535074  0.27302851  0.84667167  1
  N  N11  1  0.99206552  0.24417865  0.65587466  1
  N  N12  1  0.36442416  0.66763309  0.10698411  1
  N  N13  1  0.64317665  0.02864071  0.62687893  1
  N  N14  1  0.89432728  0.74362492  0.38500528  1
  N  N15  1  0.44487258  0.30753604  0.72988923  1
