# generated using pymatgen
data_LiSb4Mo2P3
_symmetry_space_group_name_H-M   'P 1'
_cell_length_a   4.88047115
_cell_length_b   4.88663258
_cell_length_c   6.76724547
_cell_angle_alpha   96.56880673
_cell_angle_beta   96.25054021
_cell_angle_gamma   96.93119359
_symmetry_Int_Tables_number   1
_chemical_formula_structural   LiSb4Mo2P3
_chemical_formula_sum   'Li1 Sb4 Mo2 P3'
_cell_volume   157.92488472
_cell_formula_units_Z   1
loop_
 _symmetry_equiv_pos_site_id
 _symmetry_equiv_pos_as_xyz
  1  'x, y, z'
loop_
 _atom_site_type_symbol
 _atom_site_label
 _atom_site_symmetry_multiplicity
 _atom_site_fract_x
 _atom_site_fract_y
 _atom_site_fract_z
 _atom_site_occupancy
  Sb  Sb0  1  0.00000000  0.00000000  0.00000000  1
  Sb  Sb1  1  0.50000000  0.50000000  0.50000000  1
  Sb  Sb2  1  0.25000000  0.25000000  0.25000000  1
  Sb  Sb3  1  0.75000000  0.25000000  0.00000000  1
  P  P4  1  0.25000000  0.75000000  0.50000000  1
  P  P5  1  0.16520565  0.56714402  0.91742636  1
  P  P6  1  0.16296731  0.44171279  0.03155657  1
  Mo  Mo7  1  0.32718418  0.55892565  0.23652924  1
  Mo  Mo8  1  0.75041694  0.63889928  0.96808681  1
  Li  Li9  1  0.98308245  0.74548569  0.26975823  1
