# generated using pymatgen
data_Li2Cu2ClO2F3
_symmetry_space_group_name_H-M   'P 1'
_cell_length_a   6.76439540
_cell_length_b   6.31075922
_cell_length_c   7.82936649
_cell_angle_alpha   94.79985278
_cell_angle_beta   96.50114850
_cell_angle_gamma   96.17697267
_symmetry_Int_Tables_number   1
_chemical_formula_structural   Li2Cu2ClO2F3
_chemical_formula_sum   'Li2 Cu2 Cl1 O2 F3'
_cell_volume   328.58836438
_cell_formula_units_Z   1
loop_
 _symmetry_equiv_pos_site_id
 _symmetry_equiv_pos_as_xyz
  1  'x, y, z'
loop_
 _atom_site_type_symbol
 _atom_site_label
 _atom_site_symmetry_multiplicity
 _atom_site_fract_x
 _atom_site_fract_y
 _atom_site_fract_z
 _atom_site_occupancy
  Li  Li0  1  0.12500000  0.00000000  0.25000000  1
  Li  Li1  1  0.00000000  0.00000000  0.00000000  1
  Cu  Cu2  1  0.37500000  0.00000000  0.25000000  1
  Cu  Cu3  1  0.25000000  0.25000000  0.25000000  1
  F  F4  1  0.00000000  0.25000000  0.12500000  1
  F  F5  1  0.00775008  0.17627367  0.16747039  1
  F  F6  1  0.27326435  0.58061576  0.06078862  1
  Cl  Cl7  1  0.05805448  0.22732719  0.47075314  1
  O  O8  1  0.78129487  0.36113998  0.33757904  1
  O  O9  1  0.81633155  0.08201998  0.63309625  1
