# generated using pymatgen
data_Li3TiP3O2
_symmetry_space_group_name_H-M   'P 1'
_cell_length_a   7.79097547
_cell_length_b   7.47177357
_cell_length_c   8.18700048
_cell_angle_alpha   92.24067458
_cell_angle_beta   91.08740824
_cell_angle_gamma   92.59779767
_symmetry_Int_Tables_number   1
_chemical_formula_structural   Li3TiP3O2
_chemical_formula_sum   'Li3 Ti1 P3 O2'
_cell_volume   475.62839457
_cell_formula_units_Z   1
loop_
 _symmetry_equiv_pos_site_id
 _symmetry_equiv_pos_as_xyz
  1  'x, y, z'
loop_
 _atom_site_type_symbol
 _atom_site_label
 _atom_site_symmetry_multiplicity
 _atom_site_fract_x
 _atom_site_fract_y
 _atom_site_fract_z
 _atom_site_occupancy
  P  P0  1  0.12500000  0.00000000  0.25000000  1
  P  P1  1  0.00000000  0.00000000  0.00000000  1
  P  P2  1  0.37500000  0.00000000  0.25000000  1
  Li  Li3  1  0.25000000  0.25000000  0.25000000  1
  Li  Li4  1  0.00000000  0.25000000  0.12500000  1
  Li  Li5  1  0.49224569  0.18282702  0.50199743  1
  Ti  Ti6  1  0.20657384  0.12187101  0.83736151  1
  O  O7  1  0.90617083  0.36547563  0.18565164  1
  O  O8  1  0.80357110  0.95580372  0.24836347  1
