# generated using pymatgen
data_LiMn2Sb4P2N
_symmetry_space_group_name_H-M   'P 1'
_cell_length_a   6.02674965
_cell_length_b   6.51842788
_cell_length_c   7.12136207
_cell_angle_alpha   94.23417420
_cell_angle_beta   93.98765826
_cell_angle_gamma   94.56236830
_symmetry_Int_Tables_number   1
_chemical_formula_structural   LiMn2Sb4P2N
_chemical_formula_sum   'Li1 Mn2 Sb4 P2 N1'
_cell_volume   277.31317821
_cell_formula_units_Z   1
loop_
 _symmetry_equiv_pos_site_id
 _symmetry_equiv_pos_as_xyz
  1  'x, y, z'
loop_
 _atom_site_type_symbol
 _atom_site_label
 _atom_site_symmetry_multiplicity
 _atom_site_fract_x
 _atom_site_fract_y
 _atom_site_fract_z
 _atom_site_occupancy
  N  N0  1  0.00000000  0.00000000  0.00000000  1
  Mn  Mn1  1  0.50000000  0.50000000  0.50000000  1
  Mn  Mn2  1  0.50000000  0.50000000  0.00000000  1
  Sb  Sb3  1  0.50000000  0.00000000  0.50000000  1
  Sb  Sb4  1  0.00000000  0.50000000  0.50000000  1
  Sb  Sb5  1  0.75029075  0.35418918  0.08433024  1
  Sb  Sb6  1  0.01601202  0.15653348  0.86964198  1
  P  P7  1  0.28714314  0.44029150  0.49894435  1
  P  P8  1  0.42885090  0.53586904  0.97497565  1
  Li  Li9  1  0.75741161  0.42788131  0.88089675  1
