# generated using pymatgen
data_LiCuAs3P3F
_symmetry_space_group_name_H-M   'P 1'
_cell_length_a   7.74880465
_cell_length_b   7.74208042
_cell_length_c   8.33094253
_cell_angle_alpha   90.38885656
_cell_angle_beta   92.02253738
_cell_angle_gamma   90.43871033
_symmetry_Int_Tables_number   1
_chemical_formula_structural   LiCuAs3P3F
_chemical_formula_sum   'Li2 Cu2 As6 P6 F2'
_cell_volume   499.45035820
_cell_formula_units_Z   2
loop_
 _symmetry_equiv_pos_site_id
 _symmetry_equiv_pos_as_xyz
  1  'x, y, z'
loop_
 _atom_site_type_symbol
 _atom_site_label
 _atom_site_symmetry_multiplicity
 _atom_site_fract_x
 _atom_site_fract_y
 _atom_site_fract_z
 _atom_site_occupancy
  P  P0  1  0.00000000  0.00000000  0.00000000  1
  P  P1  1  0.50000000  0.50000000  0.50000000  1
  P  P2  1  0.50000000  0.50000000  0.00000000  1
  P  P3  1  0.50000000  0.00000000  0.50000000  1
  P  P4  1  0.00000000  0.50000000  0.50000000  1
  P  P5  1  0.17067184  0.35563942  0.92515199  1
  Li  Li6  1  0.56984223  0.22666922  0.47647167  1
  Li  Li7  1  0.52103766  0.02870295  0.07469260  1
  Cu  Cu8  1  0.32067234  0.85945697  0.65670250  1
  Cu  Cu9  1  0.29152465  0.28759603  0.10198574  1
  F  F10  1  0.88529625  0.17595522  0.25715826  1
  F  F11  1  0.58363913  0.20264462  0.40095085  1
  As  As12  1  0.70644909  0.48210741  0.19989970  1
  As  As13  1  0.72495399  0.00053006  0.08572430  1
  As  As14  1  0.52958237  0.12959173  0.21531975  1
  As  As15  1  0.88090475  0.15361278  0.16470161  1
  As  As16  1  0.62369809  0.95711441  0.99750822  1
  As  As17  1  0.29498909  0.23706321  0.93237463  1
