# generated using pymatgen
data_LiMnSb2P
_symmetry_space_group_name_H-M   'P 1'
_cell_length_a   5.97762100
_cell_length_b   6.22119190
_cell_length_c   6.88900074
_cell_angle_alpha   97.31248183
_cell_angle_beta   94.98409495
_cell_angle_gamma   96.44962233
_symmetry_Int_Tables_number   1
_chemical_formula_structural   LiMnSb2P
_chemical_formula_sum   'Li2 Mn2 Sb4 P2'
_cell_volume   251.16184045
_cell_formula_units_Z   2
loop_
 _symmetry_equiv_pos_site_id
 _symmetry_equiv_pos_as_xyz
  1  'x, y, z'
loop_
 _atom_site_type_symbol
 _atom_site_label
 _atom_site_symmetry_multiplicity
 _atom_site_fract_x
 _atom_site_fract_y
 _atom_site_fract_z
 _atom_site_occupancy
  Mn  Mn0  1  0.12500000  0.12500000  0.12500000  1
  Mn  Mn1  1  0.50000000  0.50000000  0.50000000  1
  Sb  Sb2  1  0.25000000  0.25000000  0.25000000  1
  Sb  Sb3  1  0.75000000  0.75000000  0.75000000  1
  Sb  Sb4  1  0.76495626  0.23528991  0.69559271  1
  Sb  Sb5  1  0.67544464  0.72999716  0.33960951  1
  P  P6  1  0.32959314  0.14870168  0.76837682  1
  P  P7  1  0.46111012  0.60099678  0.67461166  1
  Li  Li8  1  0.01383978  0.80924103  0.69324644  1
  Li  Li9  1  0.55227446  0.17022491  0.28679908  1
