# generated using pymatgen
data_Li3Ni2As6N5O7
_symmetry_space_group_name_H-M   'P 1'
_cell_length_a   8.16358653
_cell_length_b   7.93878262
_cell_length_c   9.43629822
_cell_angle_alpha   92.33168224
_cell_angle_beta   92.90619711
_cell_angle_gamma   92.37575606
_symmetry_Int_Tables_number   1
_chemical_formula_structural   Li3Ni2As6N5O7
_chemical_formula_sum   'Li3 Ni2 As6 N5 O7'
_cell_volume   609.68372622
_cell_formula_units_Z   1
loop_
 _symmetry_equiv_pos_site_id
 _symmetry_equiv_pos_as_xyz
  1  'x, y, z'
loop_
 _atom_site_type_symbol
 _atom_site_label
 _atom_site_symmetry_multiplicity
 _atom_site_fract_x
 _atom_site_fract_y
 _atom_site_fract_z
 _atom_site_occupancy
  Li  Li0  1  0.00000000  0.00000000  0.00000000  1
  Li  Li1  1  0.50000000  0.50000000  0.50000000  1
  Li  Li2  1  0.50000000  0.50000000  0.00000000  1
  Ni  Ni3  1  0.50000000  0.00000000  0.50000000  1
  Ni  Ni4  1  0.00000000  0.50000000  0.50000000  1
  As  As5  1  0.34121506  0.33498926  0.94798655  1
  As  As6  1  0.49473100  0.53646074  0.26116838  1
  As  As7  1  0.61072325  0.64233813  0.50782694  1
  As  As8  1  0.53983302  0.73908607  0.05402334  1
  As  As9  1  0.00799093  0.76188165  0.71530191  1
  As  As10  1  0.06771987  0.52298534  0.30442514  1
  O  O11  1  0.81996839  0.25126091  0.57426251  1
  O  O12  1  0.05094211  0.13857458  0.62543445  1
  O  O13  1  0.64047145  0.83520128  0.02945348  1
  O  O14  1  0.04911213  0.63063445  0.58935035  1
  O  O15  1  0.10368208  0.92165561  0.25383102  1
  O  O16  1  0.45859335  0.59972822  0.57080319  1
  O  O17  1  0.07401876  0.20853616  0.02675821  1
  N  N18  1  0.13081047  0.40345176  0.24649514  1
  N  N19  1  0.74310860  0.23838630  0.66819640  1
  N  N20  1  0.20659260  0.80838476  0.99024610  1
  N  N21  1  0.53109362  0.32164705  0.29395216  1
  N  N22  1  0.12006455  0.41852213  0.22752634  1
