# generated using pymatgen
data_LiMnSb4Mo2P3
_symmetry_space_group_name_H-M   'P 1'
_cell_length_a   5.59984210
_cell_length_b   5.82972296
_cell_length_c   6.67324831
_cell_angle_alpha   95.09068153
_cell_angle_beta   93.87976309
_cell_angle_gamma   95.31984360
_symmetry_Int_Tables_number   1
_chemical_formula_structural   LiMnSb4Mo2P3
_chemical_formula_sum   'Li1 Mn1 Sb4 Mo2 P3'
_cell_volume   215.42426872
_cell_formula_units_Z   1
loop_
 _symmetry_equiv_pos_site_id
 _symmetry_equiv_pos_as_xyz
  1  'x, y, z'
loop_
 _atom_site_type_symbol
 _atom_site_label
 _atom_site_symmetry_multiplicity
 _atom_site_fract_x
 _atom_site_fract_y
 _atom_site_fract_z
 _atom_site_occupancy
  Mn  Mn0  1  0.00000000  0.00000000  0.00000000  1
  Sb  Sb1  1  0.50000000  0.50000000  0.50000000  1
  Sb  Sb2  1  0.25000000  0.25000000  0.25000000  1
  Sb  Sb3  1  0.75000000  0.25000000  0.00000000  1
  Sb  Sb4  1  0.25000000  0.75000000  0.50000000  1
  P  P5  1  0.90820092  0.03754758  0.22984350  1
  P  P6  1  0.08844828  0.55709783  0.42328815  1
  P  P7  1  0.97936511  0.32002146  0.26175658  1
  Mo  Mo8  1  0.78176973  0.25296312  0.61356485  1
  Mo  Mo9  1  0.90784306  0.23176470  0.63179752  1
  Li  Li10  1  0.35421616  0.62988972  0.83915125  1
