# generated using pymatgen
data_Li4LuNi2P4N5
_symmetry_space_group_name_H-M   'P 1'
_cell_length_a   7.43249497
_cell_length_b   7.05219556
_cell_length_c   8.86811598
_cell_angle_alpha   93.49759716
_cell_angle_beta   91.23654746
_cell_angle_gamma   94.05678930
_symmetry_Int_Tables_number   1
_chemical_formula_structural   Li4LuNi2P4N5
_chemical_formula_sum   'Li4 Lu1 Ni2 P4 N5'
_cell_volume   462.64105756
_cell_formula_units_Z   1
loop_
 _symmetry_equiv_pos_site_id
 _symmetry_equiv_pos_as_xyz
  1  'x, y, z'
loop_
 _atom_site_type_symbol
 _atom_site_label
 _atom_site_symmetry_multiplicity
 _atom_site_fract_x
 _atom_site_fract_y
 _atom_site_fract_z
 _atom_site_occupancy
  P  P0  1  0.00000000  0.00000000  0.00000000  1
  P  P1  1  0.50000000  0.50000000  0.50000000  1
  P  P2  1  0.50000000  0.50000000  0.00000000  1
  P  P3  1  0.50000000  0.00000000  0.50000000  1
  Lu  Lu4  1  0.00000000  0.50000000  0.50000000  1
  Li  Li5  1  0.18815907  0.92860131  0.29401789  1
  Li  Li6  1  0.03051917  0.60424025  0.80559293  1
  Li  Li7  1  0.91540737  0.09237711  0.81648517  1
  Li  Li8  1  0.10266776  0.47765514  0.51549516  1
  Ni  Ni9  1  0.89641734  0.82447104  0.03057361  1
  Ni  Ni10  1  0.88852039  0.14976320  0.59517860  1
  N  N11  1  0.88590179  0.40505083  0.26298765  1
  N  N12  1  0.58710868  0.92530508  0.31862899  1
  N  N13  1  0.21107469  0.26776953  0.69822533  1
  N  N14  1  0.13477188  0.89953732  0.04573907  1
  N  N15  1  0.08681952  0.91530056  0.15773930  1
