# generated using pymatgen
data_Li2MnSb4P3
_symmetry_space_group_name_H-M   'P 1'
_cell_length_a   5.58428241
_cell_length_b   6.00709182
_cell_length_c   6.90299574
_cell_angle_alpha   97.06051298
_cell_angle_beta   93.69396912
_cell_angle_gamma   97.38539376
_symmetry_Int_Tables_number   1
_chemical_formula_structural   Li2MnSb4P3
_chemical_formula_sum   'Li2 Mn1 Sb4 P3'
_cell_volume   227.14212773
_cell_formula_units_Z   1
loop_
 _symmetry_equiv_pos_site_id
 _symmetry_equiv_pos_as_xyz
  1  'x, y, z'
loop_
 _atom_site_type_symbol
 _atom_site_label
 _atom_site_symmetry_multiplicity
 _atom_site_fract_x
 _atom_site_fract_y
 _atom_site_fract_z
 _atom_site_occupancy
  Mn  Mn0  1  0.12500000  0.12500000  0.12500000  1
  Sb  Sb1  1  0.50000000  0.50000000  0.50000000  1
  Sb  Sb2  1  0.25000000  0.25000000  0.25000000  1
  Sb  Sb3  1  0.75000000  0.75000000  0.75000000  1
  Sb  Sb4  1  0.24423351  0.60262932  0.23739825  1
  P  P5  1  0.22532929  0.00481622  0.72554767  1
  P  P6  1  0.95339398  0.29263121  0.39834102  1
  P  P7  1  0.58820049  0.51603745  0.26027840  1
  Li  Li8  1  0.10310774  0.82066977  0.81235969  1
  Li  Li9  1  0.62387749  0.11186433  0.62852126  1
