# generated using pymatgen
data_Li3Ti2(NiS)2
_symmetry_space_group_name_H-M   'P 1'
_cell_length_a   7.42303545
_cell_length_b   7.16681477
_cell_length_c   8.66827261
_cell_angle_alpha   91.53737436
_cell_angle_beta   92.59362459
_cell_angle_gamma   91.44349382
_symmetry_Int_Tables_number   1
_chemical_formula_structural   Li3Ti2(NiS)2
_chemical_formula_sum   'Li3 Ti2 Ni2 S2'
_cell_volume   460.34870768
_cell_formula_units_Z   1
loop_
 _symmetry_equiv_pos_site_id
 _symmetry_equiv_pos_as_xyz
  1  'x, y, z'
loop_
 _atom_site_type_symbol
 _atom_site_label
 _atom_site_symmetry_multiplicity
 _atom_site_fract_x
 _atom_site_fract_y
 _atom_site_fract_z
 _atom_site_occupancy
  Li  Li0  1  0.12500000  0.12500000  0.12500000  1
  Li  Li1  1  0.50000000  0.50000000  0.50000000  1
  Li  Li2  1  0.25000000  0.25000000  0.25000000  1
  S  S3  1  0.75000000  0.75000000  0.75000000  1
  S  S4  1  0.69364063  0.56334233  0.47521988  1
  Ti  Ti5  1  0.19735332  0.93798740  0.83752828  1
  Ti  Ti6  1  0.21042172  0.86564880  0.89545223  1
  Ni  Ni7  1  0.85154356  0.09359654  0.02205660  1
  Ni  Ni8  1  0.23008682  0.20956580  0.66541935  1
