# generated using pymatgen
data_Li3TiO3
_symmetry_space_group_name_H-M   'P 1'
_cell_length_a   7.33624500
_cell_length_b   7.42835710
_cell_length_c   6.96889285
_cell_angle_alpha   94.80917292
_cell_angle_beta   96.51377214
_cell_angle_gamma   96.18896684
_symmetry_Int_Tables_number   1
_chemical_formula_structural   Li3TiO3
_chemical_formula_sum   'Li3 Ti1 O3'
_cell_volume   373.34931896
_cell_formula_units_Z   1
loop_
 _symmetry_equiv_pos_site_id
 _symmetry_equiv_pos_as_xyz
  1  'x, y, z'
loop_
 _atom_site_type_symbol
 _atom_site_label
 _atom_site_symmetry_multiplicity
 _atom_site_fract_x
 _atom_site_fract_y
 _atom_site_fract_z
 _atom_site_occupancy
  Li  Li0  1  0.12500000  0.12500000  0.12500000  1
  Li  Li1  1  0.50000000  0.50000000  0.50000000  1
  Li  Li2  1  0.25000000  0.25000000  0.25000000  1
  Ti  Ti3  1  0.75000000  0.75000000  0.75000000  1
  O  O4  1  0.14208928  0.22348597  0.35600129  1
  O  O5  1  0.01930395  0.59647870  0.74054738  1
  O  O6  1  0.54583749  0.57245163  0.94106626  1
