# generated using pymatgen
data_Li3TiNi2(I2O3)2
_symmetry_space_group_name_H-M   'P 1'
_cell_length_a   8.50735855
_cell_length_b   8.98368575
_cell_length_c   8.80948331
_cell_angle_alpha   90.00000000
_cell_angle_beta   90.00000000
_cell_angle_gamma   90.00000000
_symmetry_Int_Tables_number   1
_chemical_formula_structural   Li3TiNi2(I2O3)2
_chemical_formula_sum   'Li3 Ti1 Ni2 I4 O6'
_cell_volume   673.28622003
_cell_formula_units_Z   1
loop_
 _symmetry_equiv_pos_site_id
 _symmetry_equiv_pos_as_xyz
  1  'x, y, z'
loop_
 _atom_site_type_symbol
 _atom_site_label
 _atom_site_symmetry_multiplicity
 _atom_site_fract_x
 _atom_site_fract_y
 _atom_site_fract_z
 _atom_site_occupancy
  I  I0  1  0.12500000  0.00000000  0.25000000  1
  I  I1  1  0.00000000  0.00000000  0.00000000  1
  I  I2  1  0.37500000  0.00000000  0.25000000  1
  I  I3  1  0.25000000  0.25000000  0.25000000  1
  Li  Li4  1  0.00000000  0.25000000  0.12500000  1
  Li  Li5  1  0.35070945  0.54125522  0.12977969  1
  Li  Li6  1  0.11272881  0.17412496  0.27098702  1
  Ni  Ni7  1  0.40008744  0.04291893  0.27790808  1
  Ni  Ni8  1  0.76537442  0.28591939  0.75432865  1
  Ti  Ti9  1  0.86495432  0.69892494  0.14936525  1
  O  O10  1  0.60562966  0.72319700  0.27248374  1
  O  O11  1  0.90413929  0.19296652  0.60981777  1
  O  O12  1  0.38551759  0.58278044  0.40209935  1
  O  O13  1  0.27548798  0.52687084  0.03983486  1
  O  O14  1  0.50388732  0.82715733  0.38311815  1
  O  O15  1  0.06858604  0.27920817  0.11844821  1
