# generated using pymatgen
data_LiNiAs3F
_symmetry_space_group_name_H-M   'P 1'
_cell_length_a   8.27619392
_cell_length_b   8.01246151
_cell_length_c   8.76466559
_cell_angle_alpha   91.36071386
_cell_angle_beta   91.97314760
_cell_angle_gamma   91.39625089
_symmetry_Int_Tables_number   1
_chemical_formula_structural   LiNiAs3F
_chemical_formula_sum   'Li2 Ni2 As6 F2'
_cell_volume   580.51558941
_cell_formula_units_Z   2
loop_
 _symmetry_equiv_pos_site_id
 _symmetry_equiv_pos_as_xyz
  1  'x, y, z'
loop_
 _atom_site_type_symbol
 _atom_site_label
 _atom_site_symmetry_multiplicity
 _atom_site_fract_x
 _atom_site_fract_y
 _atom_site_fract_z
 _atom_site_occupancy
  Li  Li0  1  0.12500000  0.00000000  0.25000000  1
  Li  Li1  1  0.00000000  0.00000000  0.00000000  1
  F  F2  1  0.37500000  0.00000000  0.25000000  1
  F  F3  1  0.25000000  0.25000000  0.25000000  1
  Ni  Ni4  1  0.00000000  0.25000000  0.12500000  1
  Ni  Ni5  1  0.03592259  0.03034523  0.24771104  1
  As  As6  1  0.67537021  0.32391042  0.07683998  1
  As  As7  1  0.51683444  0.48742675  0.15698197  1
  As  As8  1  0.90020459  0.80407725  0.90053907  1
  As  As9  1  0.90956288  0.82272013  0.63029116  1
  As  As10  1  0.59626513  0.85283882  0.02813615  1
  As  As11  1  0.19540311  0.58465369  0.80197916  1
