# generated using pymatgen
data_Li2MnSb4P3
_symmetry_space_group_name_H-M   'P 1'
_cell_length_a   6.36799228
_cell_length_b   6.36373094
_cell_length_c   7.21172534
_cell_angle_alpha   95.82774603
_cell_angle_beta   91.92754018
_cell_angle_gamma   95.93972381
_symmetry_Int_Tables_number   1
_chemical_formula_structural   Li2MnSb4P3
_chemical_formula_sum   'Li2 Mn1 Sb4 P3'
_cell_volume   288.89008622
_cell_formula_units_Z   1
loop_
 _symmetry_equiv_pos_site_id
 _symmetry_equiv_pos_as_xyz
  1  'x, y, z'
loop_
 _atom_site_type_symbol
 _atom_site_label
 _atom_site_symmetry_multiplicity
 _atom_site_fract_x
 _atom_site_fract_y
 _atom_site_fract_z
 _atom_site_occupancy
  Mn  Mn0  1  0.12500000  0.12500000  0.12500000  1
  Sb  Sb1  1  0.50000000  0.50000000  0.50000000  1
  Sb  Sb2  1  0.25000000  0.25000000  0.25000000  1
  Sb  Sb3  1  0.75000000  0.75000000  0.75000000  1
  Sb  Sb4  1  0.32787504  0.80602371  0.53719965  1
  P  P5  1  0.54128217  0.36411246  0.23887417  1
  P  P6  1  0.30608681  0.44817154  0.43271494  1
  P  P7  1  0.57895880  0.96776596  0.40366498  1
  Li  Li8  1  0.97637852  0.07505350  0.07525018  1
  Li  Li9  1  0.27852588  0.32992169  0.09826957  1
