# generated using pymatgen
data_LiMn2Sb4Mo2P3
_symmetry_space_group_name_H-M   'P 1'
_cell_length_a   5.50130811
_cell_length_b   5.79768364
_cell_length_c   6.85426250
_cell_angle_alpha   94.42225149
_cell_angle_beta   94.63567544
_cell_angle_gamma   94.76629153
_symmetry_Int_Tables_number   1
_chemical_formula_structural   LiMn2Sb4Mo2P3
_chemical_formula_sum   'Li1 Mn2 Sb4 Mo2 P3'
_cell_volume   216.37238820
_cell_formula_units_Z   1
loop_
 _symmetry_equiv_pos_site_id
 _symmetry_equiv_pos_as_xyz
  1  'x, y, z'
loop_
 _atom_site_type_symbol
 _atom_site_label
 _atom_site_symmetry_multiplicity
 _atom_site_fract_x
 _atom_site_fract_y
 _atom_site_fract_z
 _atom_site_occupancy
  Mn  Mn0  1  0.12500000  0.00000000  0.25000000  1
  Mn  Mn1  1  0.00000000  0.00000000  0.00000000  1
  Sb  Sb2  1  0.37500000  0.00000000  0.25000000  1
  Sb  Sb3  1  0.25000000  0.25000000  0.25000000  1
  Sb  Sb4  1  0.00000000  0.25000000  0.12500000  1
  Sb  Sb5  1  0.38039187  0.42785728  0.67968998  1
  P  P6  1  0.01482272  0.77178457  0.38379114  1
  P  P7  1  0.71056363  0.63249528  0.49026956  1
  P  P8  1  0.83147085  0.81489609  0.48043445  1
  Mo  Mo9  1  0.07375860  0.09889605  0.15236675  1
  Mo  Mo10  1  0.97565335  0.17645471  0.46023393  1
  Li  Li11  1  0.23261668  0.10865258  0.50503498  1
