# generated using pymatgen
data_Li5Ti2O2
_symmetry_space_group_name_H-M   'P 1'
_cell_length_a   6.33179920
_cell_length_b   6.11837488
_cell_length_c   7.27636021
_cell_angle_alpha   98.67723801
_cell_angle_beta   101.27251685
_cell_angle_gamma   99.02599806
_symmetry_Int_Tables_number   1
_chemical_formula_structural   Li5Ti2O2
_chemical_formula_sum   'Li5 Ti2 O2'
_cell_volume   268.18884679
_cell_formula_units_Z   1
loop_
 _symmetry_equiv_pos_site_id
 _symmetry_equiv_pos_as_xyz
  1  'x, y, z'
loop_
 _atom_site_type_symbol
 _atom_site_label
 _atom_site_symmetry_multiplicity
 _atom_site_fract_x
 _atom_site_fract_y
 _atom_site_fract_z
 _atom_site_occupancy
  Li  Li0  1  0.00000000  0.00000000  0.00000000  1
  Li  Li1  1  0.50000000  0.50000000  0.50000000  1
  Li  Li2  1  0.50000000  0.50000000  0.00000000  1
  Li  Li3  1  0.50000000  0.00000000  0.50000000  1
  Li  Li4  1  0.00000000  0.50000000  0.50000000  1
  Ti  Ti5  1  0.61368181  0.56137732  0.78591395  1
  Ti  Ti6  1  0.84253880  0.10551069  0.26535222  1
  O  O7  1  0.19476744  0.46178966  0.67012300  1
  O  O8  1  0.43586132  0.83723256  0.21633954  1
