# generated using pymatgen
data_Li3Ti2Cu2I4N5
_symmetry_space_group_name_H-M   'P 1'
_cell_length_a   6.53652128
_cell_length_b   6.61847275
_cell_length_c   7.33725576
_cell_angle_alpha   97.04160102
_cell_angle_beta   98.62356792
_cell_angle_gamma   98.94590925
_symmetry_Int_Tables_number   1
_chemical_formula_structural   Li3Ti2Cu2I4N5
_chemical_formula_sum   'Li3 Ti2 Cu2 I4 N5'
_cell_volume   306.53767425
_cell_formula_units_Z   1
loop_
 _symmetry_equiv_pos_site_id
 _symmetry_equiv_pos_as_xyz
  1  'x, y, z'
loop_
 _atom_site_type_symbol
 _atom_site_label
 _atom_site_symmetry_multiplicity
 _atom_site_fract_x
 _atom_site_fract_y
 _atom_site_fract_z
 _atom_site_occupancy
  I  I0  1  0.00000000  0.00000000  0.00000000  1
  I  I1  1  0.50000000  0.50000000  0.50000000  1
  I  I2  1  0.25000000  0.25000000  0.25000000  1
  I  I3  1  0.75000000  0.25000000  0.00000000  1
  Li  Li4  1  0.25000000  0.75000000  0.50000000  1
  Li  Li5  1  0.01716046  0.08181546  0.86993329  1
  Li  Li6  1  0.55268932  0.24409918  0.06532898  1
  Cu  Cu7  1  0.64696826  0.13818338  0.76424753  1
  Cu  Cu8  1  0.37554987  0.44274052  0.53313896  1
  Ti  Ti9  1  0.14314113  0.22332799  0.25058025  1
  Ti  Ti10  1  0.66302809  0.47458009  0.17333268  1
  N  N11  1  0.33550367  0.40414756  0.24227492  1
  N  N12  1  0.59884501  0.99825821  0.54189864  1
  N  N13  1  0.89630689  0.11790550  0.43206108  1
  N  N14  1  0.72297613  0.92120419  0.81551941  1
  N  N15  1  0.71012348  0.30934929  0.80238949  1
