# generated using pymatgen
data_LiAs3Se
_symmetry_space_group_name_H-M   'P 1'
_cell_length_a   8.00637950
_cell_length_b   7.95755106
_cell_length_c   7.62980807
_cell_angle_alpha   90.30311253
_cell_angle_beta   91.44211737
_cell_angle_gamma   90.34653856
_symmetry_Int_Tables_number   1
_chemical_formula_structural   LiAs3Se
_chemical_formula_sum   'Li2 As6 Se2'
_cell_volume   485.93396817
_cell_formula_units_Z   2
loop_
 _symmetry_equiv_pos_site_id
 _symmetry_equiv_pos_as_xyz
  1  'x, y, z'
loop_
 _atom_site_type_symbol
 _atom_site_label
 _atom_site_symmetry_multiplicity
 _atom_site_fract_x
 _atom_site_fract_y
 _atom_site_fract_z
 _atom_site_occupancy
  Se  Se0  1  0.12500000  0.00000000  0.25000000  1
  Se  Se1  1  0.00000000  0.00000000  0.00000000  1
  As  As2  1  0.37500000  0.00000000  0.25000000  1
  As  As3  1  0.25000000  0.25000000  0.25000000  1
  As  As4  1  0.00000000  0.25000000  0.12500000  1
  As  As5  1  0.87886626  0.19283037  0.08881211  1
  As  As6  1  0.26237240  0.25943442  0.67089201  1
  As  As7  1  0.88719930  0.18068173  0.06950991  1
  Li  Li8  1  0.22644773  0.33956751  0.06276130  1
  Li  Li9  1  0.09100820  0.31989441  0.78882514  1
