# generated using pymatgen
data_Li2Mn2Sb4Mo2P3
_symmetry_space_group_name_H-M   'P 1'
_cell_length_a   5.61566438
_cell_length_b   6.02932678
_cell_length_c   6.81905807
_cell_angle_alpha   97.51938931
_cell_angle_beta   92.84833257
_cell_angle_gamma   97.71418415
_symmetry_Int_Tables_number   1
_chemical_formula_structural   Li2Mn2Sb4Mo2P3
_chemical_formula_sum   'Li2 Mn2 Sb4 Mo2 P3'
_cell_volume   226.29509864
_cell_formula_units_Z   1
loop_
 _symmetry_equiv_pos_site_id
 _symmetry_equiv_pos_as_xyz
  1  'x, y, z'
loop_
 _atom_site_type_symbol
 _atom_site_label
 _atom_site_symmetry_multiplicity
 _atom_site_fract_x
 _atom_site_fract_y
 _atom_site_fract_z
 _atom_site_occupancy
  Mn  Mn0  1  0.00000000  0.00000000  0.00000000  1
  Mn  Mn1  1  0.50000000  0.50000000  0.50000000  1
  Sb  Sb2  1  0.50000000  0.50000000  0.00000000  1
  Sb  Sb3  1  0.50000000  0.00000000  0.50000000  1
  Sb  Sb4  1  0.00000000  0.50000000  0.50000000  1
  Sb  Sb5  1  0.38788563  0.66418456  0.89497815  1
  P  P6  1  0.44738493  0.23543994  0.44226082  1
  P  P7  1  0.40994808  0.31349651  0.20901330  1
  P  P8  1  0.59374634  0.62742847  0.37958879  1
  Mo  Mo9  1  0.60567632  0.71129887  0.76053019  1
  Mo  Mo10  1  0.42686452  0.97235203  0.57994363  1
  Li  Li11  1  0.05528669  0.42588850  0.99572419  1
  Li  Li12  1  0.13308292  0.47853188  0.64991198  1
