# generated using pymatgen
data_Li2Mn2(SbP)3
_symmetry_space_group_name_H-M   'P 1'
_cell_length_a   5.95855639
_cell_length_b   6.29446475
_cell_length_c   7.01870823
_cell_angle_alpha   95.63383596
_cell_angle_beta   94.08297180
_cell_angle_gamma   96.06996631
_symmetry_Int_Tables_number   1
_chemical_formula_structural   Li2Mn2(SbP)3
_chemical_formula_sum   'Li2 Mn2 Sb3 P3'
_cell_volume   259.61607641
_cell_formula_units_Z   1
loop_
 _symmetry_equiv_pos_site_id
 _symmetry_equiv_pos_as_xyz
  1  'x, y, z'
loop_
 _atom_site_type_symbol
 _atom_site_label
 _atom_site_symmetry_multiplicity
 _atom_site_fract_x
 _atom_site_fract_y
 _atom_site_fract_z
 _atom_site_occupancy
  Mn  Mn0  1  0.12500000  0.00000000  0.25000000  1
  Mn  Mn1  1  0.00000000  0.00000000  0.00000000  1
  Sb  Sb2  1  0.37500000  0.00000000  0.25000000  1
  Sb  Sb3  1  0.25000000  0.25000000  0.25000000  1
  Sb  Sb4  1  0.00000000  0.25000000  0.12500000  1
  P  P5  1  0.26011164  0.36907112  0.68099167  1
  P  P6  1  0.92486515  0.60869886  0.94354704  1
  P  P7  1  0.67552740  0.50534464  0.05169537  1
  Li  Li8  1  0.54494409  0.19818007  0.15541391  1
  Li  Li9  1  0.02855974  0.04482837  0.97989420  1
