# generated using pymatgen
data_Li2Mn3Sb4P3
_symmetry_space_group_name_H-M   'P 1'
_cell_length_a   6.76689812
_cell_length_b   6.99009873
_cell_length_c   7.19232447
_cell_angle_alpha   94.62651625
_cell_angle_beta   90.23112578
_cell_angle_gamma   94.53449483
_symmetry_Int_Tables_number   1
_chemical_formula_structural   Li2Mn3Sb4P3
_chemical_formula_sum   'Li2 Mn3 Sb4 P3'
_cell_volume   338.01772847
_cell_formula_units_Z   1
loop_
 _symmetry_equiv_pos_site_id
 _symmetry_equiv_pos_as_xyz
  1  'x, y, z'
loop_
 _atom_site_type_symbol
 _atom_site_label
 _atom_site_symmetry_multiplicity
 _atom_site_fract_x
 _atom_site_fract_y
 _atom_site_fract_z
 _atom_site_occupancy
  Mn  Mn0  1  0.12500000  0.00000000  0.25000000  1
  Mn  Mn1  1  0.00000000  0.00000000  0.00000000  1
  Mn  Mn2  1  0.37500000  0.00000000  0.25000000  1
  Sb  Sb3  1  0.25000000  0.25000000  0.25000000  1
  Sb  Sb4  1  0.00000000  0.25000000  0.12500000  1
  Sb  Sb5  1  0.31982206  0.16795559  0.91371834  1
  Sb  Sb6  1  0.65350845  0.49708898  0.89235801  1
  P  P7  1  0.32673134  0.76258790  0.84069212  1
  P  P8  1  0.36028134  0.24800857  0.84458428  1
  P  P9  1  0.09196508  0.72965094  0.56759851  1
  Li  Li10  1  0.61344417  0.94135835  0.32313116  1
  Li  Li11  1  0.30841753  0.51175879  0.86093514  1
