# generated using pymatgen
data_Li3LuNi2P4N5
_symmetry_space_group_name_H-M   'P 1'
_cell_length_a   7.44175490
_cell_length_b   7.19412736
_cell_length_c   8.76753096
_cell_angle_alpha   92.80180906
_cell_angle_beta   91.48197937
_cell_angle_gamma   93.24790575
_symmetry_Int_Tables_number   1
_chemical_formula_structural   Li3LuNi2P4N5
_chemical_formula_sum   'Li3 Lu1 Ni2 P4 N5'
_cell_volume   467.87957214
_cell_formula_units_Z   1
loop_
 _symmetry_equiv_pos_site_id
 _symmetry_equiv_pos_as_xyz
  1  'x, y, z'
loop_
 _atom_site_type_symbol
 _atom_site_label
 _atom_site_symmetry_multiplicity
 _atom_site_fract_x
 _atom_site_fract_y
 _atom_site_fract_z
 _atom_site_occupancy
  P  P0  1  0.12500000  0.00000000  0.25000000  1
  P  P1  1  0.00000000  0.00000000  0.00000000  1
  P  P2  1  0.37500000  0.00000000  0.25000000  1
  P  P3  1  0.25000000  0.25000000  0.25000000  1
  Lu  Lu4  1  0.00000000  0.25000000  0.12500000  1
  Li  Li5  1  0.28624543  0.68382073  0.08962011  1
  Li  Li6  1  0.23571043  0.10796972  0.57360178  1
  Li  Li7  1  0.70542030  0.17739455  0.81004326  1
  Ni  Ni8  1  0.11733089  0.15846867  0.03654992  1
  Ni  Ni9  1  0.61677753  0.12495136  0.08077596  1
  N  N10  1  0.36689356  0.07944946  0.68737871  1
  N  N11  1  0.74496839  0.67973224  0.46917954  1
  N  N12  1  0.03900206  0.74792522  0.54260684  1
  N  N13  1  0.99136812  0.51044853  0.13793813  1
  N  N14  1  0.51657604  0.36825611  0.40366394  1
