# generated using pymatgen
data_Li2TiCu2(IO)4
_symmetry_space_group_name_H-M   'P 1'
_cell_length_a   8.36309638
_cell_length_b   8.35861335
_cell_length_c   7.65528587
_cell_angle_alpha   90.17685398
_cell_angle_beta   90.84141754
_cell_angle_gamma   90.20219133
_symmetry_Int_Tables_number   1
_chemical_formula_structural   Li2TiCu2(IO)4
_chemical_formula_sum   'Li2 Ti1 Cu2 I4 O4'
_cell_volume   535.07058253
_cell_formula_units_Z   1
loop_
 _symmetry_equiv_pos_site_id
 _symmetry_equiv_pos_as_xyz
  1  'x, y, z'
loop_
 _atom_site_type_symbol
 _atom_site_label
 _atom_site_symmetry_multiplicity
 _atom_site_fract_x
 _atom_site_fract_y
 _atom_site_fract_z
 _atom_site_occupancy
  O  O0  1  0.00000000  0.00000000  0.00000000  1
  O  O1  1  0.50000000  0.50000000  0.50000000  1
  O  O2  1  0.25000000  0.25000000  0.25000000  1
  O  O3  1  0.75000000  0.25000000  0.00000000  1
  Ti  Ti4  1  0.25000000  0.75000000  0.50000000  1
  I  I5  1  0.70543703  0.23212253  0.91768986  1
  I  I6  1  0.01582550  0.16744841  0.54634656  1
  I  I7  1  0.15026342  0.28641059  0.68097345  1
  I  I8  1  0.65895600  0.58897234  0.81900576  1
  Li  Li9  1  0.06969794  0.41161740  0.47475796  1
  Li  Li10  1  0.24080408  0.34966743  0.20642817  1
  Cu  Cu11  1  0.10786709  0.32225451  0.74405040  1
  Cu  Cu12  1  0.51807195  0.69543019  0.13671648  1
