# generated using pymatgen
data_Li2Mn2Sb4P3
_symmetry_space_group_name_H-M   'P 1'
_cell_length_a   6.99150837
_cell_length_b   7.12808246
_cell_length_c   7.44215679
_cell_angle_alpha   93.24985270
_cell_angle_beta   91.09434763
_cell_angle_gamma   93.31500619
_symmetry_Int_Tables_number   1
_chemical_formula_structural   Li2Mn2Sb4P3
_chemical_formula_sum   'Li2 Mn2 Sb4 P3'
_cell_volume   369.57844885
_cell_formula_units_Z   1
loop_
 _symmetry_equiv_pos_site_id
 _symmetry_equiv_pos_as_xyz
  1  'x, y, z'
loop_
 _atom_site_type_symbol
 _atom_site_label
 _atom_site_symmetry_multiplicity
 _atom_site_fract_x
 _atom_site_fract_y
 _atom_site_fract_z
 _atom_site_occupancy
  Mn  Mn0  1  0.00000000  0.00000000  0.00000000  1
  Mn  Mn1  1  0.33300000  0.66700000  0.25000000  1
  Sb  Sb2  1  0.66700000  0.33300000  0.50000000  1
  Sb  Sb3  1  0.00000000  0.00000000  0.75000000  1
  Sb  Sb4  1  0.28610965  0.20483126  0.71014992  1
  Sb  Sb5  1  0.10737601  0.94277993  0.77391887  1
  P  P6  1  0.56903764  0.77886501  0.46765147  1
  P  P7  1  0.94786641  0.60040923  0.63150565  1
  P  P8  1  0.77633960  0.57158742  0.13408107  1
  Li  Li9  1  0.33570794  0.59322280  0.88817675  1
  Li  Li10  1  0.59358687  0.30493254  0.34988252  1
