# generated using pymatgen
data_Li2TiCu2(I2O)2
_symmetry_space_group_name_H-M   'P 1'
_cell_length_a   6.39427133
_cell_length_b   6.56887479
_cell_length_c   6.92999379
_cell_angle_alpha   96.69983595
_cell_angle_beta   99.42912714
_cell_angle_gamma   98.60711306
_symmetry_Int_Tables_number   1
_chemical_formula_structural   Li2TiCu2(I2O)2
_chemical_formula_sum   'Li2 Ti1 Cu2 I4 O2'
_cell_volume   280.92484846
_cell_formula_units_Z   1
loop_
 _symmetry_equiv_pos_site_id
 _symmetry_equiv_pos_as_xyz
  1  'x, y, z'
loop_
 _atom_site_type_symbol
 _atom_site_label
 _atom_site_symmetry_multiplicity
 _atom_site_fract_x
 _atom_site_fract_y
 _atom_site_fract_z
 _atom_site_occupancy
  I  I0  1  0.00000000  0.00000000  0.00000000  1
  I  I1  1  0.50000000  0.50000000  0.50000000  1
  I  I2  1  0.25000000  0.25000000  0.25000000  1
  I  I3  1  0.75000000  0.25000000  0.00000000  1
  Li  Li4  1  0.25000000  0.75000000  0.50000000  1
  Li  Li5  1  0.55428573  0.68319634  0.18068385  1
  Cu  Cu6  1  0.87895577  0.90419350  0.59115597  1
  Cu  Cu7  1  0.39262792  0.73944527  0.98300156  1
  Ti  Ti8  1  0.40600402  0.87461991  0.54063376  1
  O  O9  1  0.25692108  0.36016553  0.57295354  1
  O  O10  1  0.10249893  0.80893598  0.86486177  1
