# generated using pymatgen
data_Li2MnSb4P3
_symmetry_space_group_name_H-M   'P 1'
_cell_length_a   6.71974834
_cell_length_b   7.30896619
_cell_length_c   7.39917142
_cell_angle_alpha   92.25502806
_cell_angle_beta   92.67128909
_cell_angle_gamma   92.56650035
_symmetry_Int_Tables_number   1
_chemical_formula_structural   Li2MnSb4P3
_chemical_formula_sum   'Li2 Mn1 Sb4 P3'
_cell_volume   362.33420389
_cell_formula_units_Z   1
loop_
 _symmetry_equiv_pos_site_id
 _symmetry_equiv_pos_as_xyz
  1  'x, y, z'
loop_
 _atom_site_type_symbol
 _atom_site_label
 _atom_site_symmetry_multiplicity
 _atom_site_fract_x
 _atom_site_fract_y
 _atom_site_fract_z
 _atom_site_occupancy
  Mn  Mn0  1  0.12500000  0.00000000  0.25000000  1
  Sb  Sb1  1  0.00000000  0.00000000  0.00000000  1
  Sb  Sb2  1  0.37500000  0.00000000  0.25000000  1
  Sb  Sb3  1  0.25000000  0.25000000  0.25000000  1
  Sb  Sb4  1  0.00000000  0.25000000  0.12500000  1
  P  P5  1  0.39423495  0.43269972  0.86403345  1
  P  P6  1  0.45866165  0.86138953  0.52928989  1
  P  P7  1  0.15670553  0.02857704  0.25018353  1
  Li  Li8  1  0.93687908  0.68678622  0.98066236  1
  Li  Li9  1  0.57030190  0.10989011  0.96848614  1
