# generated using pymatgen
data_Li2LuCu2(NiP2)2
_symmetry_space_group_name_H-M   'P 1'
_cell_length_a   7.46035899
_cell_length_b   7.47928219
_cell_length_c   8.56544584
_cell_angle_alpha   91.40390289
_cell_angle_beta   91.97507600
_cell_angle_gamma   91.62277979
_symmetry_Int_Tables_number   1
_chemical_formula_structural   Li2LuCu2(NiP2)2
_chemical_formula_sum   'Li2 Lu1 Cu2 Ni2 P4'
_cell_volume   477.30507730
_cell_formula_units_Z   1
loop_
 _symmetry_equiv_pos_site_id
 _symmetry_equiv_pos_as_xyz
  1  'x, y, z'
loop_
 _atom_site_type_symbol
 _atom_site_label
 _atom_site_symmetry_multiplicity
 _atom_site_fract_x
 _atom_site_fract_y
 _atom_site_fract_z
 _atom_site_occupancy
  P  P0  1  0.00000000  0.00000000  0.00000000  1
  P  P1  1  0.50000000  0.50000000  0.50000000  1
  P  P2  1  0.50000000  0.50000000  0.00000000  1
  P  P3  1  0.50000000  0.00000000  0.50000000  1
  Lu  Lu4  1  0.00000000  0.50000000  0.50000000  1
  Li  Li5  1  0.44818086  0.66955046  0.61008248  1
  Li  Li6  1  0.94522477  0.10291482  0.60477971  1
  Cu  Cu7  1  0.04132304  0.56841299  0.48479300  1
  Cu  Cu8  1  0.21468126  0.38338028  0.88808149  1
  Ni  Ni9  1  0.68353776  0.48484791  0.26606644  1
  Ni  Ni10  1  0.80812240  0.50421667  0.62137346  1
