# generated using pymatgen
data_Li3LuCu2(PN)5
_symmetry_space_group_name_H-M   'P 1'
_cell_length_a   7.35012949
_cell_length_b   7.15755788
_cell_length_c   8.37845375
_cell_angle_alpha   93.57132867
_cell_angle_beta   93.13025394
_cell_angle_gamma   93.77445763
_symmetry_Int_Tables_number   1
_chemical_formula_structural   Li3LuCu2(PN)5
_chemical_formula_sum   'Li3 Lu1 Cu2 P5 N5'
_cell_volume   438.20829178
_cell_formula_units_Z   1
loop_
 _symmetry_equiv_pos_site_id
 _symmetry_equiv_pos_as_xyz
  1  'x, y, z'
loop_
 _atom_site_type_symbol
 _atom_site_label
 _atom_site_symmetry_multiplicity
 _atom_site_fract_x
 _atom_site_fract_y
 _atom_site_fract_z
 _atom_site_occupancy
  P  P0  1  0.12500000  0.00000000  0.25000000  1
  P  P1  1  0.00000000  0.00000000  0.00000000  1
  P  P2  1  0.37500000  0.00000000  0.25000000  1
  P  P3  1  0.25000000  0.25000000  0.25000000  1
  P  P4  1  0.00000000  0.25000000  0.12500000  1
  Lu  Lu5  1  0.46784949  0.31136823  0.60130656  1
  Li  Li6  1  0.84892695  0.08170631  0.91118728  1
  Li  Li7  1  0.48721081  0.02387744  0.94333191  1
  Li  Li8  1  0.32744327  0.14313304  0.44262181  1
  Cu  Cu9  1  0.84837274  0.97726059  0.16451708  1
  Cu  Cu10  1  0.39371026  0.93003380  0.58977460  1
  N  N11  1  0.95497571  0.02884444  0.96108801  1
  N  N12  1  0.70618494  0.71249986  0.44215497  1
  N  N13  1  0.81736131  0.92061352  0.70716655  1
  N  N14  1  0.24003191  0.24134131  0.98910577  1
  N  N15  1  0.03090169  0.95607558  0.01299399  1
