# generated using pymatgen
data_LiSbMo2P3
_symmetry_space_group_name_H-M   'P 1'
_cell_length_a   4.22185859
_cell_length_b   4.10746163
_cell_length_c   5.10273124
_cell_angle_alpha   99.10259328
_cell_angle_beta   88.53961200
_cell_angle_gamma   98.03430696
_symmetry_Int_Tables_number   1
_chemical_formula_structural   LiSbMo2P3
_chemical_formula_sum   'Li1 Sb1 Mo2 P3'
_cell_volume   86.51461935
_cell_formula_units_Z   1
loop_
 _symmetry_equiv_pos_site_id
 _symmetry_equiv_pos_as_xyz
  1  'x, y, z'
loop_
 _atom_site_type_symbol
 _atom_site_label
 _atom_site_symmetry_multiplicity
 _atom_site_fract_x
 _atom_site_fract_y
 _atom_site_fract_z
 _atom_site_occupancy
  Sb  Sb0  1  0.00000000  0.00000000  0.00000000  1
  P  P1  1  0.50000000  0.50000000  0.50000000  1
  P  P2  1  0.50000000  0.50000000  0.00000000  1
  P  P3  1  0.50000000  0.00000000  0.50000000  1
  Mo  Mo4  1  0.00000000  0.50000000  0.50000000  1
  Mo  Mo5  1  0.21473931  0.72478668  0.61424525  1
  Li  Li6  1  0.29667054  0.78080173  0.21551042  1
