# generated using pymatgen
data_Li2Sb4P3
_symmetry_space_group_name_H-M   'P 1'
_cell_length_a   5.24206958
_cell_length_b   5.56887972
_cell_length_c   6.42777114
_cell_angle_alpha   100.48221517
_cell_angle_beta   91.27609964
_cell_angle_gamma   100.37851168
_symmetry_Int_Tables_number   1
_chemical_formula_structural   Li2Sb4P3
_chemical_formula_sum   'Li2 Sb4 P3'
_cell_volume   181.19802494
_cell_formula_units_Z   1
loop_
 _symmetry_equiv_pos_site_id
 _symmetry_equiv_pos_as_xyz
  1  'x, y, z'
loop_
 _atom_site_type_symbol
 _atom_site_label
 _atom_site_symmetry_multiplicity
 _atom_site_fract_x
 _atom_site_fract_y
 _atom_site_fract_z
 _atom_site_occupancy
  Sb  Sb0  1  0.12500000  0.12500000  0.12500000  1
  Sb  Sb1  1  0.50000000  0.50000000  0.50000000  1
  Sb  Sb2  1  0.25000000  0.25000000  0.25000000  1
  Sb  Sb3  1  0.75000000  0.75000000  0.75000000  1
  P  P4  1  0.15084333  0.90823170  0.76332987  1
  P  P5  1  0.96321804  0.93517339  0.83452332  1
  P  P6  1  0.83014302  0.07267024  0.42750927  1
  Li  Li7  1  0.23454775  0.24150349  0.56978895  1
  Li  Li8  1  0.78195948  0.63600544  0.94654291  1
