# generated using pymatgen
data_LiMnSb2P
_symmetry_space_group_name_H-M   'P 1'
_cell_length_a   6.15884207
_cell_length_b   6.55309537
_cell_length_c   7.16425061
_cell_angle_alpha   95.11472354
_cell_angle_beta   93.93738045
_cell_angle_gamma   95.58195045
_symmetry_Int_Tables_number   1
_chemical_formula_structural   LiMnSb2P
_chemical_formula_sum   'Li2 Mn2 Sb4 P2'
_cell_volume   285.75482846
_cell_formula_units_Z   2
loop_
 _symmetry_equiv_pos_site_id
 _symmetry_equiv_pos_as_xyz
  1  'x, y, z'
loop_
 _atom_site_type_symbol
 _atom_site_label
 _atom_site_symmetry_multiplicity
 _atom_site_fract_x
 _atom_site_fract_y
 _atom_site_fract_z
 _atom_site_occupancy
  Mn  Mn0  1  0.12500000  0.12500000  0.12500000  1
  Mn  Mn1  1  0.50000000  0.50000000  0.50000000  1
  Sb  Sb2  1  0.25000000  0.25000000  0.25000000  1
  Sb  Sb3  1  0.75000000  0.75000000  0.75000000  1
  Sb  Sb4  1  0.71799487  0.56514093  0.73886751  1
  Sb  Sb5  1  0.51962501  0.57374436  0.68246492  1
  P  P6  1  0.65831620  0.77355329  0.52847645  1
  P  P7  1  0.92015903  0.39321066  0.18373915  1
  Li  Li8  1  0.11173196  0.67831564  0.07754192  1
  Li  Li9  1  0.50437366  0.36225243  0.50905975  1
