# generated using pymatgen
data_Li4Cu2As6Se
_symmetry_space_group_name_H-M   'P 1'
_cell_length_a   5.88726472
_cell_length_b   5.80341773
_cell_length_c   7.52832654
_cell_angle_alpha   99.07840129
_cell_angle_beta   102.54399509
_cell_angle_gamma   98.56406349
_symmetry_Int_Tables_number   1
_chemical_formula_structural   Li4Cu2As6Se
_chemical_formula_sum   'Li4 Cu2 As6 Se1'
_cell_volume   243.41135549
_cell_formula_units_Z   1
loop_
 _symmetry_equiv_pos_site_id
 _symmetry_equiv_pos_as_xyz
  1  'x, y, z'
loop_
 _atom_site_type_symbol
 _atom_site_label
 _atom_site_symmetry_multiplicity
 _atom_site_fract_x
 _atom_site_fract_y
 _atom_site_fract_z
 _atom_site_occupancy
  Li  Li0  1  0.00000000  0.00000000  0.00000000  1
  Li  Li1  1  0.50000000  0.50000000  0.50000000  1
  Li  Li2  1  0.25000000  0.25000000  0.25000000  1
  Li  Li3  1  0.75000000  0.25000000  0.00000000  1
  Cu  Cu4  1  0.25000000  0.75000000  0.50000000  1
  Cu  Cu5  1  0.51248504  0.94026531  0.95522040  1
  Se  Se6  1  0.85059306  0.71892450  0.31994441  1
  As  As7  1  0.86152222  0.11435902  0.10466122  1
  As  As8  1  0.26393304  0.58001625  0.26917028  1
  As  As9  1  0.37171598  0.85188471  0.57484967  1
  As  As10  1  0.15004360  0.94336144  0.38387125  1
  As  As11  1  0.55503356  0.34025603  0.54471170  1
  As  As12  1  0.73223937  0.05442445  0.39885607  1
