# generated using pymatgen
data_Li4ZrCu2(P4O)2
_symmetry_space_group_name_H-M   'P 1'
_cell_length_a   7.48787188
_cell_length_b   7.77200147
_cell_length_c   8.34334527
_cell_angle_alpha   93.40247317
_cell_angle_beta   94.34417677
_cell_angle_gamma   93.20076056
_symmetry_Int_Tables_number   1
_chemical_formula_structural   Li4ZrCu2(P4O)2
_chemical_formula_sum   'Li4 Zr1 Cu2 P8 O2'
_cell_volume   482.41028711
_cell_formula_units_Z   1
loop_
 _symmetry_equiv_pos_site_id
 _symmetry_equiv_pos_as_xyz
  1  'x, y, z'
loop_
 _atom_site_type_symbol
 _atom_site_label
 _atom_site_symmetry_multiplicity
 _atom_site_fract_x
 _atom_site_fract_y
 _atom_site_fract_z
 _atom_site_occupancy
  P  P0  1  0.00000000  0.00000000  0.00000000  1
  P  P1  1  0.50000000  0.50000000  0.50000000  1
  P  P2  1  0.50000000  0.50000000  0.00000000  1
  P  P3  1  0.50000000  0.00000000  0.50000000  1
  P  P4  1  0.00000000  0.50000000  0.50000000  1
  P  P5  1  0.65494218  0.55550107  0.81800491  1
  P  P6  1  0.87299938  0.61196811  0.11018515  1
  P  P7  1  0.78634957  0.02385394  0.03526580  1
  Li  Li8  1  0.77458682  0.63703897  0.05298679  1
  Li  Li9  1  0.06245655  0.88521472  0.31495161  1
  Li  Li10  1  0.29158585  0.03254513  0.11203828  1
  Li  Li11  1  0.30554910  0.86763318  0.80655087  1
  Cu  Cu12  1  0.30085235  0.76176172  0.20580875  1
  Cu  Cu13  1  0.83782301  0.61200497  0.17503116  1
  O  O14  1  0.96893594  0.21592146  0.39611942  1
  O  O15  1  0.04818189  0.30866313  0.09269559  1
  Zr  Zr16  1  0.42352066  0.78782999  0.35469057  1
