# generated using pymatgen
data_Li2MnSb4P3
_symmetry_space_group_name_H-M   'P 1'
_cell_length_a   6.36254595
_cell_length_b   6.85731266
_cell_length_c   6.98521655
_cell_angle_alpha   95.33770423
_cell_angle_beta   90.85897023
_cell_angle_gamma   95.31402532
_symmetry_Int_Tables_number   1
_chemical_formula_structural   Li2MnSb4P3
_chemical_formula_sum   'Li2 Mn1 Sb4 P3'
_cell_volume   302.05336276
_cell_formula_units_Z   1
loop_
 _symmetry_equiv_pos_site_id
 _symmetry_equiv_pos_as_xyz
  1  'x, y, z'
loop_
 _atom_site_type_symbol
 _atom_site_label
 _atom_site_symmetry_multiplicity
 _atom_site_fract_x
 _atom_site_fract_y
 _atom_site_fract_z
 _atom_site_occupancy
  Mn  Mn0  1  0.12500000  0.12500000  0.12500000  1
  Sb  Sb1  1  0.50000000  0.50000000  0.50000000  1
  Sb  Sb2  1  0.25000000  0.25000000  0.25000000  1
  Sb  Sb3  1  0.75000000  0.75000000  0.75000000  1
  Sb  Sb4  1  0.33492338  0.66710663  0.52610943  1
  P  P5  1  0.31981480  0.71959446  0.32934672  1
  P  P6  1  0.80753126  0.23183143  0.69666478  1
  P  P7  1  0.37018718  0.49547902  0.82596393  1
  Li  Li8  1  0.91783664  0.27886093  0.70466811  1
  Li  Li9  1  0.31967195  0.79873402  0.49772328  1
