# generated using pymatgen
data_Li3Ti2P5(OF)2
_symmetry_space_group_name_H-M   'P 1'
_cell_length_a   6.27971974
_cell_length_b   6.14705745
_cell_length_c   7.04516245
_cell_angle_alpha   95.74808767
_cell_angle_beta   98.52428160
_cell_angle_gamma   96.81340900
_symmetry_Int_Tables_number   1
_chemical_formula_structural   Li3Ti2P5(OF)2
_chemical_formula_sum   'Li3 Ti2 P5 O2 F2'
_cell_volume   265.12568860
_cell_formula_units_Z   1
loop_
 _symmetry_equiv_pos_site_id
 _symmetry_equiv_pos_as_xyz
  1  'x, y, z'
loop_
 _atom_site_type_symbol
 _atom_site_label
 _atom_site_symmetry_multiplicity
 _atom_site_fract_x
 _atom_site_fract_y
 _atom_site_fract_z
 _atom_site_occupancy
  P  P0  1  0.00000000  0.00000000  0.00000000  1
  P  P1  1  0.50000000  0.50000000  0.50000000  1
  P  P2  1  0.25000000  0.25000000  0.25000000  1
  P  P3  1  0.75000000  0.25000000  0.00000000  1
  P  P4  1  0.25000000  0.75000000  0.50000000  1
  Li  Li5  1  0.16214561  0.82768915  0.82140485  1
  Li  Li6  1  0.79115872  0.51641578  0.02866049  1
  Li  Li7  1  0.70202989  0.79104755  0.03809587  1
  F  F8  1  0.37006988  0.08767769  0.16091597  1
  F  F9  1  0.60125047  0.14604922  0.15712172  1
  Ti  Ti10  1  0.02228120  0.29147729  0.55347087  1
  Ti  Ti11  1  0.25324224  0.98747797  0.65486754  1
  O  O12  1  0.62216257  0.41879896  0.20796016  1
  O  O13  1  0.42870714  0.32768766  0.84450551  1
