# generated using pymatgen
data_Li2P5F2
_symmetry_space_group_name_H-M   'P 1'
_cell_length_a   7.80942797
_cell_length_b   7.57340023
_cell_length_c   8.43143308
_cell_angle_alpha   91.62868233
_cell_angle_beta   91.30420222
_cell_angle_gamma   91.88632692
_symmetry_Int_Tables_number   1
_chemical_formula_structural   Li2P5F2
_chemical_formula_sum   'Li2 P5 F2'
_cell_volume   498.05630276
_cell_formula_units_Z   1
loop_
 _symmetry_equiv_pos_site_id
 _symmetry_equiv_pos_as_xyz
  1  'x, y, z'
loop_
 _atom_site_type_symbol
 _atom_site_label
 _atom_site_symmetry_multiplicity
 _atom_site_fract_x
 _atom_site_fract_y
 _atom_site_fract_z
 _atom_site_occupancy
  P  P0  1  0.00000000  0.00000000  0.00000000  1
  P  P1  1  0.33300000  0.66700000  0.25000000  1
  P  P2  1  0.66700000  0.33300000  0.50000000  1
  P  P3  1  0.00000000  0.00000000  0.75000000  1
  P  P4  1  0.60231752  0.07740028  0.62188475  1
  Li  Li5  1  0.82406507  0.43351831  0.09652562  1
  Li  Li6  1  0.61234719  0.35287941  0.01304352  1
  F  F7  1  0.40513774  0.68935364  0.54711297  1
  F  F8  1  0.78953349  0.65310586  0.36987277  1
