# generated using pymatgen
data_Li2TiP2SO2
_symmetry_space_group_name_H-M   'P 1'
_cell_length_a   6.33463938
_cell_length_b   5.67936009
_cell_length_c   7.98641055
_cell_angle_alpha   103.54009993
_cell_angle_beta   91.83771680
_cell_angle_gamma   103.80879125
_symmetry_Int_Tables_number   1
_chemical_formula_structural   Li2TiP2SO2
_chemical_formula_sum   'Li2 Ti1 P2 S1 O2'
_cell_volume   270.08569830
_cell_formula_units_Z   1
loop_
 _symmetry_equiv_pos_site_id
 _symmetry_equiv_pos_as_xyz
  1  'x, y, z'
loop_
 _atom_site_type_symbol
 _atom_site_label
 _atom_site_symmetry_multiplicity
 _atom_site_fract_x
 _atom_site_fract_y
 _atom_site_fract_z
 _atom_site_occupancy
  S  S0  1  0.00000000  0.00000000  0.00000000  1
  O  O1  1  0.50000000  0.50000000  0.50000000  1
  O  O2  1  0.25000000  0.25000000  0.25000000  1
  Ti  Ti3  1  0.75000000  0.25000000  0.00000000  1
  P  P4  1  0.25000000  0.75000000  0.50000000  1
  P  P5  1  0.76082630  0.45908364  0.11013314  1
  Li  Li6  1  0.67888810  0.00374817  0.22495966  1
  Li  Li7  1  0.46218869  0.62760063  0.31802713  1
