# generated using pymatgen
data_Li2Ti(AsO)3
_symmetry_space_group_name_H-M   'P 1'
_cell_length_a   6.28968709
_cell_length_b   5.37483432
_cell_length_c   7.71111435
_cell_angle_alpha   96.79969965
_cell_angle_beta   96.37324371
_cell_angle_gamma   100.78537392
_symmetry_Int_Tables_number   1
_chemical_formula_structural   Li2Ti(AsO)3
_chemical_formula_sum   'Li2 Ti1 As3 O3'
_cell_volume   251.89542726
_cell_formula_units_Z   1
loop_
 _symmetry_equiv_pos_site_id
 _symmetry_equiv_pos_as_xyz
  1  'x, y, z'
loop_
 _atom_site_type_symbol
 _atom_site_label
 _atom_site_symmetry_multiplicity
 _atom_site_fract_x
 _atom_site_fract_y
 _atom_site_fract_z
 _atom_site_occupancy
  Ti  Ti0  1  0.00000000  0.00000000  0.00000000  1
  As  As1  1  0.33300000  0.66700000  0.25000000  1
  As  As2  1  0.66700000  0.33300000  0.50000000  1
  As  As3  1  0.00000000  0.00000000  0.75000000  1
  O  O4  1  0.69463060  0.88831293  0.23534867  1
  O  O5  1  0.16994713  0.94932563  0.87380636  1
  O  O6  1  0.78326704  0.39306248  0.13819719  1
  Li  Li7  1  0.89565977  0.70634273  0.76663123  1
  Li  Li8  1  0.78750264  0.01276901  0.28699949  1
