# generated using pymatgen
data_Li3Te6P4SeS4
_symmetry_space_group_name_H-M   'P 1'
_cell_length_a   8.36486531
_cell_length_b   8.47446646
_cell_length_c   9.68913002
_cell_angle_alpha   90.00000000
_cell_angle_beta   90.00000000
_cell_angle_gamma   90.00000000
_symmetry_Int_Tables_number   1
_chemical_formula_structural   Li3Te6P4SeS4
_chemical_formula_sum   'Li3 Te6 P4 Se1 S4'
_cell_volume   686.84082510
_cell_formula_units_Z   1
loop_
 _symmetry_equiv_pos_site_id
 _symmetry_equiv_pos_as_xyz
  1  'x, y, z'
loop_
 _atom_site_type_symbol
 _atom_site_label
 _atom_site_symmetry_multiplicity
 _atom_site_fract_x
 _atom_site_fract_y
 _atom_site_fract_z
 _atom_site_occupancy
  S  S0  1  0.00000000  0.00000000  0.00000000  1
  S  S1  1  0.50000000  0.50000000  0.50000000  1
  S  S2  1  0.50000000  0.50000000  0.00000000  1
  S  S3  1  0.50000000  0.00000000  0.50000000  1
  Se  Se4  1  0.00000000  0.50000000  0.50000000  1
  P  P5  1  0.77094102  0.85004881  0.13811903  1
  P  P6  1  0.26644167  0.65647324  0.69874574  1
  P  P7  1  0.08686773  0.91679488  0.43054653  1
  P  P8  1  0.38460831  0.09752692  0.69036832  1
  Li  Li9  1  0.65284849  0.67272953  0.64253413  1
  Li  Li10  1  0.74911777  0.32824996  0.86551741  1
  Li  Li11  1  0.18348965  0.62363944  0.24676905  1
  Te  Te12  1  0.66085879  0.31381064  0.62143693  1
  Te  Te13  1  0.80324947  0.83451421  0.96182712  1
  Te  Te14  1  0.81936194  0.92764698  0.66058917  1
  Te  Te15  1  0.33058884  0.33468817  0.90898668  1
  Te  Te16  1  0.48892037  0.13872430  0.03260550  1
  Te  Te17  1  0.94894481  0.21184213  0.89713972  1
