# generated using pymatgen
data_Li2TiCu2P5F2
_symmetry_space_group_name_H-M   'P 1'
_cell_length_a   7.34611024
_cell_length_b   7.12683205
_cell_length_c   7.42546351
_cell_angle_alpha   91.09069378
_cell_angle_beta   92.36546854
_cell_angle_gamma   90.76172277
_symmetry_Int_Tables_number   1
_chemical_formula_structural   Li2TiCu2P5F2
_chemical_formula_sum   'Li2 Ti1 Cu2 P5 F2'
_cell_volume   388.31616857
_cell_formula_units_Z   1
loop_
 _symmetry_equiv_pos_site_id
 _symmetry_equiv_pos_as_xyz
  1  'x, y, z'
loop_
 _atom_site_type_symbol
 _atom_site_label
 _atom_site_symmetry_multiplicity
 _atom_site_fract_x
 _atom_site_fract_y
 _atom_site_fract_z
 _atom_site_occupancy
  P  P0  1  0.00000000  0.00000000  0.00000000  1
  P  P1  1  0.50000000  0.50000000  0.50000000  1
  P  P2  1  0.25000000  0.25000000  0.25000000  1
  P  P3  1  0.75000000  0.25000000  0.00000000  1
  P  P4  1  0.25000000  0.75000000  0.50000000  1
  Li  Li5  1  0.87871306  0.49670112  0.45721029  1
  Li  Li6  1  0.67266463  0.38633370  0.25242215  1
  Cu  Cu7  1  0.16245671  0.35882257  0.97800718  1
  Cu  Cu8  1  0.96498199  0.43202724  0.06469453  1
  F  F9  1  0.69137534  0.08465921  0.02941101  1
  F  F10  1  0.72593020  0.30315685  0.57482568  1
  Ti  Ti11  1  0.97381985  0.14568103  0.83249407  1
