# generated using pymatgen
data_Li2MnMo2P3
_symmetry_space_group_name_H-M   'P 1'
_cell_length_a   4.31155242
_cell_length_b   4.44936593
_cell_length_c   6.26266166
_cell_angle_alpha   103.26006155
_cell_angle_beta   94.01020644
_cell_angle_gamma   103.46254239
_symmetry_Int_Tables_number   1
_chemical_formula_structural   Li2MnMo2P3
_chemical_formula_sum   'Li2 Mn1 Mo2 P3'
_cell_volume   112.75517523
_cell_formula_units_Z   1
loop_
 _symmetry_equiv_pos_site_id
 _symmetry_equiv_pos_as_xyz
  1  'x, y, z'
loop_
 _atom_site_type_symbol
 _atom_site_label
 _atom_site_symmetry_multiplicity
 _atom_site_fract_x
 _atom_site_fract_y
 _atom_site_fract_z
 _atom_site_occupancy
  Mn  Mn0  1  0.00000000  0.00000000  0.00000000  1
  P  P1  1  0.33300000  0.66700000  0.25000000  1
  P  P2  1  0.66700000  0.33300000  0.50000000  1
  P  P3  1  0.00000000  0.00000000  0.75000000  1
  Mo  Mo4  1  0.88028359  0.71648553  0.57540157  1
  Mo  Mo5  1  0.82893107  0.82743524  0.56512958  1
  Li  Li6  1  0.52168026  0.53606758  0.58672339  1
  Li  Li7  1  0.52309864  0.85623362  0.12301461  1
