# generated using pymatgen
data_Li2MnMo2P3
_symmetry_space_group_name_H-M   'P 1'
_cell_length_a   3.29307260
_cell_length_b   3.43805470
_cell_length_c   6.43348098
_cell_angle_alpha   103.56027682
_cell_angle_beta   100.27901880
_cell_angle_gamma   104.62771528
_symmetry_Int_Tables_number   1
_chemical_formula_structural   Li2MnMo2P3
_chemical_formula_sum   'Li2 Mn1 Mo2 P3'
_cell_volume   66.28995103
_cell_formula_units_Z   1
loop_
 _symmetry_equiv_pos_site_id
 _symmetry_equiv_pos_as_xyz
  1  'x, y, z'
loop_
 _atom_site_type_symbol
 _atom_site_label
 _atom_site_symmetry_multiplicity
 _atom_site_fract_x
 _atom_site_fract_y
 _atom_site_fract_z
 _atom_site_occupancy
  Mn  Mn0  1  0.00000000  0.00000000  0.00000000  1
  P  P1  1  0.33300000  0.66700000  0.25000000  1
  P  P2  1  0.66700000  0.33300000  0.50000000  1
  P  P3  1  0.00000000  0.00000000  0.75000000  1
  Mo  Mo4  1  0.14441054  0.74560337  0.77159070  1
  Mo  Mo5  1  0.11024895  0.92559884  0.06504101  1
  Li  Li6  1  0.21210487  0.92868994  0.23527540  1
  Li  Li7  1  0.64927219  0.08530999  0.61271891  1
