# generated using pymatgen
data_Li3As6N5O7F3
_symmetry_space_group_name_H-M   'P 1'
_cell_length_a   7.97531080
_cell_length_b   7.77155276
_cell_length_c   9.15658656
_cell_angle_alpha   91.69551135
_cell_angle_beta   92.91809241
_cell_angle_gamma   91.73427144
_symmetry_Int_Tables_number   1
_chemical_formula_structural   Li3As6N5O7F3
_chemical_formula_sum   'Li3 As6 N5 O7 F3'
_cell_volume   566.25921598
_cell_formula_units_Z   1
loop_
 _symmetry_equiv_pos_site_id
 _symmetry_equiv_pos_as_xyz
  1  'x, y, z'
loop_
 _atom_site_type_symbol
 _atom_site_label
 _atom_site_symmetry_multiplicity
 _atom_site_fract_x
 _atom_site_fract_y
 _atom_site_fract_z
 _atom_site_occupancy
  Li  Li0  1  0.00000000  0.00000000  0.00000000  1
  Li  Li1  1  0.50000000  0.50000000  0.50000000  1
  Li  Li2  1  0.50000000  0.50000000  0.00000000  1
  F  F3  1  0.50000000  0.00000000  0.50000000  1
  F  F4  1  0.00000000  0.50000000  0.50000000  1
  F  F5  1  0.40594333  0.20563012  0.00542797  1
  As  As6  1  0.73929347  0.37759155  0.24705604  1
  As  As7  1  0.07779022  0.79202061  0.19060056  1
  As  As8  1  0.95493618  0.94774443  0.90504439  1
  As  As9  1  0.90866035  0.25082097  0.43435677  1
  As  As10  1  0.16549247  0.02022969  0.84757941  1
  As  As11  1  0.46233156  0.26817270  0.81683300  1
  O  O12  1  0.65598753  0.47947337  0.04457073  1
  O  O13  1  0.24056126  0.86037964  0.26128454  1
  O  O14  1  0.62482972  0.01622791  0.76528582  1
  O  O15  1  0.52199527  0.53497917  0.24428877  1
  O  O16  1  0.66962284  0.33989702  0.20784704  1
  O  O17  1  0.35457186  0.64513380  0.05025360  1
  O  O18  1  0.37676169  0.57509805  0.68875318  1
  N  N19  1  0.28465086  0.41257935  0.09587482  1
  N  N20  1  0.19601860  0.21984739  0.32749793  1
  N  N21  1  0.18845596  0.39497208  0.29724207  1
  N  N22  1  0.22623158  0.69743761  0.91349026  1
  N  N23  1  0.23115398  0.81224418  0.34933544  1
