# generated using pymatgen
data_Li3Se(I2Cl)2
_symmetry_space_group_name_H-M   'P 1'
_cell_length_a   5.97347017
_cell_length_b   5.68373396
_cell_length_c   6.94110142
_cell_angle_alpha   101.28140417
_cell_angle_beta   104.80511731
_cell_angle_gamma   100.63595050
_symmetry_Int_Tables_number   1
_chemical_formula_structural   Li3Se(I2Cl)2
_chemical_formula_sum   'Li3 Se1 I4 Cl2'
_cell_volume   216.49015724
_cell_formula_units_Z   1
loop_
 _symmetry_equiv_pos_site_id
 _symmetry_equiv_pos_as_xyz
  1  'x, y, z'
loop_
 _atom_site_type_symbol
 _atom_site_label
 _atom_site_symmetry_multiplicity
 _atom_site_fract_x
 _atom_site_fract_y
 _atom_site_fract_z
 _atom_site_occupancy
  I  I0  1  0.12500000  0.12500000  0.12500000  1
  I  I1  1  0.50000000  0.50000000  0.50000000  1
  I  I2  1  0.25000000  0.25000000  0.25000000  1
  I  I3  1  0.75000000  0.75000000  0.75000000  1
  Li  Li4  1  0.95250936  0.78435247  0.90795833  1
  Li  Li5  1  0.39779585  0.41973226  0.45089640  1
  Li  Li6  1  0.16580504  0.27261779  0.45570923  1
  Se  Se7  1  0.67341930  0.11910696  0.63573363  1
  Cl  Cl8  1  0.46024105  0.13272288  0.76962552  1
  Cl  Cl9  1  0.60965500  0.16310277  0.74409104  1
