# generated using pymatgen
data_Li3Zn2Te6(IO)4
_symmetry_space_group_name_H-M   'P 1'
_cell_length_a   8.59417627
_cell_length_b   9.08415372
_cell_length_c   7.23980888
_cell_angle_alpha   90.00000000
_cell_angle_beta   90.00000000
_cell_angle_gamma   90.00000000
_symmetry_Int_Tables_number   1
_chemical_formula_structural   Li3Zn2Te6(IO)4
_chemical_formula_sum   'Li3 Zn2 Te6 I4 O4'
_cell_volume   565.21780327
_cell_formula_units_Z   1
loop_
 _symmetry_equiv_pos_site_id
 _symmetry_equiv_pos_as_xyz
  1  'x, y, z'
loop_
 _atom_site_type_symbol
 _atom_site_label
 _atom_site_symmetry_multiplicity
 _atom_site_fract_x
 _atom_site_fract_y
 _atom_site_fract_z
 _atom_site_occupancy
  I  I0  1  0.00000000  0.00000000  0.00000000  1
  I  I1  1  0.50000000  0.50000000  0.50000000  1
  I  I2  1  0.25000000  0.25000000  0.25000000  1
  I  I3  1  0.75000000  0.25000000  0.00000000  1
  Li  Li4  1  0.25000000  0.75000000  0.50000000  1
  Li  Li5  1  0.82121955  0.93485012  0.83031435  1
  Li  Li6  1  0.18727502  0.84971451  0.23294282  1
  Zn  Zn7  1  0.70551339  0.80200238  0.17105745  1
  Zn  Zn8  1  0.46105267  0.52771437  0.20204097  1
  Te  Te9  1  0.91033640  0.38773088  0.19257720  1
  Te  Te10  1  0.55490724  0.94478864  0.40856975  1
  Te  Te11  1  0.29593673  0.62747466  0.23295517  1
  Te  Te12  1  0.51414601  0.83632613  0.29976275  1
  Te  Te13  1  0.46795445  0.00233107  0.58606467  1
  Te  Te14  1  0.93830781  0.00165800  0.22625026  1
  O  O15  1  0.61028948  0.52217263  0.35971908  1
  O  O16  1  0.35653149  0.49155819  0.77427397  1
  O  O17  1  0.91762872  0.31286088  0.97432209  1
  O  O18  1  0.16309027  0.94824890  0.88889852  1
