# generated using pymatgen
data_Li3TiP3(I2O)2
_symmetry_space_group_name_H-M   'P 1'
_cell_length_a   8.17561177
_cell_length_b   7.88360301
_cell_length_c   6.97599548
_cell_angle_alpha   90.19438568
_cell_angle_beta   90.92482804
_cell_angle_gamma   90.22223474
_symmetry_Int_Tables_number   1
_chemical_formula_structural   Li3TiP3(I2O)2
_chemical_formula_sum   'Li3 Ti1 P3 I4 O2'
_cell_volume   449.56113484
_cell_formula_units_Z   1
loop_
 _symmetry_equiv_pos_site_id
 _symmetry_equiv_pos_as_xyz
  1  'x, y, z'
loop_
 _atom_site_type_symbol
 _atom_site_label
 _atom_site_symmetry_multiplicity
 _atom_site_fract_x
 _atom_site_fract_y
 _atom_site_fract_z
 _atom_site_occupancy
  I  I0  1  0.12500000  0.00000000  0.25000000  1
  I  I1  1  0.00000000  0.00000000  0.00000000  1
  I  I2  1  0.37500000  0.00000000  0.25000000  1
  I  I3  1  0.25000000  0.25000000  0.25000000  1
  P  P4  1  0.00000000  0.25000000  0.12500000  1
  P  P5  1  0.32533001  0.23553111  0.44166770  1
  P  P6  1  0.20457028  0.02228719  0.33675276  1
  Li  Li7  1  0.38256840  0.35720140  0.91491667  1
  Li  Li8  1  0.25313730  0.54820401  0.07611362  1
  Li  Li9  1  0.93337907  0.89647160  0.87540768  1
  Ti  Ti10  1  0.23434732  0.04932118  0.55358565  1
  O  O11  1  0.75308146  0.24126264  0.25314995  1
  O  O12  1  0.46278844  0.32358022  0.71298725  1
