# generated using pymatgen
data_Li4LuP4N5O2
_symmetry_space_group_name_H-M   'P 1'
_cell_length_a   6.11499544
_cell_length_b   6.16200379
_cell_length_c   7.65282839
_cell_angle_alpha   98.15314129
_cell_angle_beta   99.42181706
_cell_angle_gamma   100.28659658
_symmetry_Int_Tables_number   1
_chemical_formula_structural   Li4LuP4N5O2
_chemical_formula_sum   'Li4 Lu1 P4 N5 O2'
_cell_volume   275.52052390
_cell_formula_units_Z   1
loop_
 _symmetry_equiv_pos_site_id
 _symmetry_equiv_pos_as_xyz
  1  'x, y, z'
loop_
 _atom_site_type_symbol
 _atom_site_label
 _atom_site_symmetry_multiplicity
 _atom_site_fract_x
 _atom_site_fract_y
 _atom_site_fract_z
 _atom_site_occupancy
  P  P0  1  0.00000000  0.00000000  0.00000000  1
  P  P1  1  0.50000000  0.50000000  0.50000000  1
  P  P2  1  0.50000000  0.50000000  0.00000000  1
  P  P3  1  0.50000000  0.00000000  0.50000000  1
  Lu  Lu4  1  0.00000000  0.50000000  0.50000000  1
  Li  Li5  1  0.71468205  0.26975449  0.74471560  1
  Li  Li6  1  0.64404710  0.92564244  0.70312223  1
  Li  Li7  1  0.70008012  0.79091028  0.28959700  1
  Li  Li8  1  0.71505649  0.25343392  0.43715117  1
  O  O9  1  0.98606131  0.34984126  0.15085062  1
  O  O10  1  0.55621599  0.44910579  0.70968410  1
  N  N11  1  0.76794935  0.85613701  0.18156795  1
  N  N12  1  0.16322353  0.80195530  0.59442887  1
  N  N13  1  0.13199445  0.33183985  0.13381259  1
  N  N14  1  0.25128957  0.17872641  0.81249953  1
  N  N15  1  0.79744233  0.72378346  0.87796178  1
