# generated using pymatgen
data_LiTiP2SF
_symmetry_space_group_name_H-M   'P 1'
_cell_length_a   7.46913187
_cell_length_b   7.09842077
_cell_length_c   7.51252286
_cell_angle_alpha   91.68901689
_cell_angle_beta   93.20746346
_cell_angle_gamma   91.60969960
_symmetry_Int_Tables_number   1
_chemical_formula_structural   LiTiP2SF
_chemical_formula_sum   'Li2 Ti2 P4 S2 F2'
_cell_volume   397.33348389
_cell_formula_units_Z   2
loop_
 _symmetry_equiv_pos_site_id
 _symmetry_equiv_pos_as_xyz
  1  'x, y, z'
loop_
 _atom_site_type_symbol
 _atom_site_label
 _atom_site_symmetry_multiplicity
 _atom_site_fract_x
 _atom_site_fract_y
 _atom_site_fract_z
 _atom_site_occupancy
  P  P0  1  0.00000000  0.00000000  0.00000000  1
  P  P1  1  0.50000000  0.50000000  0.50000000  1
  P  P2  1  0.25000000  0.25000000  0.25000000  1
  P  P3  1  0.75000000  0.25000000  0.00000000  1
  Li  Li4  1  0.25000000  0.75000000  0.50000000  1
  Li  Li5  1  0.51106080  0.14503721  0.36174167  1
  F  F6  1  0.22733492  0.30005658  0.39435236  1
  F  F7  1  0.79480837  0.08846847  0.62497000  1
  S  S8  1  0.67821744  0.03538493  0.29347110  1
  S  S9  1  0.90259628  0.41308283  0.57167900  1
  Ti  Ti10  1  0.60479767  0.11229286  0.79193148  1
  Ti  Ti11  1  0.20231266  0.03262206  0.18630917  1
