# generated using pymatgen
data_Li3Ti2Cu2(P3O)2
_symmetry_space_group_name_H-M   'P 1'
_cell_length_a   6.75536946
_cell_length_b   6.79499480
_cell_length_c   7.29776005
_cell_angle_alpha   95.96520351
_cell_angle_beta   98.38813696
_cell_angle_gamma   97.66364836
_symmetry_Int_Tables_number   1
_chemical_formula_structural   Li3Ti2Cu2(P3O)2
_chemical_formula_sum   'Li3 Ti2 Cu2 P6 O2'
_cell_volume   325.83250132
_cell_formula_units_Z   1
loop_
 _symmetry_equiv_pos_site_id
 _symmetry_equiv_pos_as_xyz
  1  'x, y, z'
loop_
 _atom_site_type_symbol
 _atom_site_label
 _atom_site_symmetry_multiplicity
 _atom_site_fract_x
 _atom_site_fract_y
 _atom_site_fract_z
 _atom_site_occupancy
  P  P0  1  0.12500000  0.00000000  0.25000000  1
  P  P1  1  0.00000000  0.00000000  0.00000000  1
  P  P2  1  0.37500000  0.00000000  0.25000000  1
  P  P3  1  0.25000000  0.25000000  0.25000000  1
  P  P4  1  0.00000000  0.25000000  0.12500000  1
  P  P5  1  0.67643791  0.81163996  0.12538411  1
  Li  Li6  1  0.17467953  0.36013271  0.67502572  1
  Li  Li7  1  0.47508097  0.38153957  0.23248562  1
  Li  Li8  1  0.00627759  0.52794026  0.87882420  1
  Cu  Cu9  1  0.78367250  0.68175584  0.96599197  1
  Cu  Cu10  1  0.20549050  0.85779096  0.52238426  1
  Ti  Ti11  1  0.14366042  0.63925515  0.92320519  1
  Ti  Ti12  1  0.94249877  0.05509554  0.82671085  1
  O  O13  1  0.05178890  0.93201211  0.42180420  1
  O  O14  1  0.29907045  0.65300635  0.89579541  1
