# generated using pymatgen
data_Li2MnSb4Mo2P3
_symmetry_space_group_name_H-M   'P 1'
_cell_length_a   4.43027103
_cell_length_b   4.49141002
_cell_length_c   6.25106405
_cell_angle_alpha   103.42512864
_cell_angle_beta   93.29022655
_cell_angle_gamma   103.52291089
_symmetry_Int_Tables_number   1
_chemical_formula_structural   Li2MnSb4Mo2P3
_chemical_formula_sum   'Li2 Mn1 Sb4 Mo2 P3'
_cell_volume   116.80846737
_cell_formula_units_Z   1
loop_
 _symmetry_equiv_pos_site_id
 _symmetry_equiv_pos_as_xyz
  1  'x, y, z'
loop_
 _atom_site_type_symbol
 _atom_site_label
 _atom_site_symmetry_multiplicity
 _atom_site_fract_x
 _atom_site_fract_y
 _atom_site_fract_z
 _atom_site_occupancy
  Mn  Mn0  1  0.00000000  0.00000000  0.00000000  1
  Sb  Sb1  1  0.50000000  0.50000000  0.50000000  1
  Sb  Sb2  1  0.25000000  0.25000000  0.25000000  1
  Sb  Sb3  1  0.75000000  0.25000000  0.00000000  1
  Sb  Sb4  1  0.25000000  0.75000000  0.50000000  1
  P  P5  1  0.22202883  0.86921730  0.98956501  1
  P  P6  1  0.45834697  0.87938257  0.61417434  1
  P  P7  1  0.33300084  0.63572021  0.06857310  1
  Mo  Mo8  1  0.08870880  0.15953370  0.58453939  1
  Mo  Mo9  1  0.75254143  0.17238997  0.97731186  1
  Li  Li10  1  0.59620104  0.27770177  0.66569666  1
  Li  Li11  1  0.60203313  0.06306529  0.20722754  1
