# generated using pymatgen
data_Li2Mn3Sb4P3
_symmetry_space_group_name_H-M   'P 1'
_cell_length_a   5.75526925
_cell_length_b   6.15081997
_cell_length_c   6.60605644
_cell_angle_alpha   98.58882564
_cell_angle_beta   90.42906993
_cell_angle_gamma   98.41799387
_symmetry_Int_Tables_number   1
_chemical_formula_structural   Li2Mn3Sb4P3
_chemical_formula_sum   'Li2 Mn3 Sb4 P3'
_cell_volume   228.63521557
_cell_formula_units_Z   1
loop_
 _symmetry_equiv_pos_site_id
 _symmetry_equiv_pos_as_xyz
  1  'x, y, z'
loop_
 _atom_site_type_symbol
 _atom_site_label
 _atom_site_symmetry_multiplicity
 _atom_site_fract_x
 _atom_site_fract_y
 _atom_site_fract_z
 _atom_site_occupancy
  Mn  Mn0  1  0.12500000  0.12500000  0.12500000  1
  Mn  Mn1  1  0.50000000  0.50000000  0.50000000  1
  Mn  Mn2  1  0.25000000  0.25000000  0.25000000  1
  Sb  Sb3  1  0.75000000  0.75000000  0.75000000  1
  Sb  Sb4  1  0.14579315  0.03672365  0.58024707  1
  Sb  Sb5  1  0.77326948  0.14963790  0.84979217  1
  Sb  Sb6  1  0.96210658  0.38768178  0.09753921  1
  P  P7  1  0.41514085  0.16337493  0.53576690  1
  P  P8  1  0.06511111  0.43843416  0.57667848  1
  P  P9  1  0.68302281  0.87082427  0.42297690  1
  Li  Li10  1  0.08535822  0.94079181  0.59101150  1
  Li  Li11  1  0.87689796  0.97970697  0.21497687  1
