# generated using pymatgen
data_Li2Mn2Sb3P2
_symmetry_space_group_name_H-M   'P 1'
_cell_length_a   5.36536672
_cell_length_b   5.77602301
_cell_length_c   6.91238039
_cell_angle_alpha   96.34484570
_cell_angle_beta   95.87491119
_cell_angle_gamma   96.51912063
_symmetry_Int_Tables_number   1
_chemical_formula_structural   Li2Mn2Sb3P2
_chemical_formula_sum   'Li2 Mn2 Sb3 P2'
_cell_volume   210.09220883
_cell_formula_units_Z   1
loop_
 _symmetry_equiv_pos_site_id
 _symmetry_equiv_pos_as_xyz
  1  'x, y, z'
loop_
 _atom_site_type_symbol
 _atom_site_label
 _atom_site_symmetry_multiplicity
 _atom_site_fract_x
 _atom_site_fract_y
 _atom_site_fract_z
 _atom_site_occupancy
  Mn  Mn0  1  0.00000000  0.00000000  0.00000000  1
  Mn  Mn1  1  0.33300000  0.66700000  0.25000000  1
  Sb  Sb2  1  0.66700000  0.33300000  0.50000000  1
  Sb  Sb3  1  0.00000000  0.00000000  0.75000000  1
  Sb  Sb4  1  0.47599486  0.48375730  0.10090611  1
  P  P5  1  0.95404290  0.09248217  0.77934247  1
  P  P6  1  0.56217223  0.16761194  0.32007129  1
  Li  Li7  1  0.59727761  0.85241808  0.09750451  1
  Li  Li8  1  0.71342699  0.10057368  0.86632334  1
