# generated using pymatgen
data_LiMn2Sb2Mo2P3
_symmetry_space_group_name_H-M   'P 1'
_cell_length_a   5.05788453
_cell_length_b   5.33063188
_cell_length_c   6.32204538
_cell_angle_alpha   95.35553598
_cell_angle_beta   93.25412583
_cell_angle_gamma   95.84364547
_symmetry_Int_Tables_number   1
_chemical_formula_structural   LiMn2Sb2Mo2P3
_chemical_formula_sum   'Li1 Mn2 Sb2 Mo2 P3'
_cell_volume   168.44894539
_cell_formula_units_Z   1
loop_
 _symmetry_equiv_pos_site_id
 _symmetry_equiv_pos_as_xyz
  1  'x, y, z'
loop_
 _atom_site_type_symbol
 _atom_site_label
 _atom_site_symmetry_multiplicity
 _atom_site_fract_x
 _atom_site_fract_y
 _atom_site_fract_z
 _atom_site_occupancy
  Mn  Mn0  1  0.00000000  0.00000000  0.00000000  1
  Mn  Mn1  1  0.50000000  0.50000000  0.50000000  1
  Sb  Sb2  1  0.50000000  0.50000000  0.00000000  1
  Sb  Sb3  1  0.50000000  0.00000000  0.50000000  1
  P  P4  1  0.00000000  0.50000000  0.50000000  1
  P  P5  1  0.34268953  0.15739543  0.82041491  1
  P  P6  1  0.26852638  0.02172633  0.38503723  1
  Mo  Mo7  1  0.98989741  0.96573647  0.25153386  1
  Mo  Mo8  1  0.21383302  0.65329087  0.27243808  1
  Li  Li9  1  0.19491606  0.00693540  0.44519405  1
