# generated using pymatgen
data_LiMnSb2P
_symmetry_space_group_name_H-M   'P 1'
_cell_length_a   6.57586520
_cell_length_b   7.06283133
_cell_length_c   7.15529519
_cell_angle_alpha   93.96535903
_cell_angle_beta   93.94482144
_cell_angle_gamma   92.68942818
_symmetry_Int_Tables_number   1
_chemical_formula_structural   LiMnSb2P
_chemical_formula_sum   'Li2 Mn2 Sb4 P2'
_cell_volume   330.29492098
_cell_formula_units_Z   2
loop_
 _symmetry_equiv_pos_site_id
 _symmetry_equiv_pos_as_xyz
  1  'x, y, z'
loop_
 _atom_site_type_symbol
 _atom_site_label
 _atom_site_symmetry_multiplicity
 _atom_site_fract_x
 _atom_site_fract_y
 _atom_site_fract_z
 _atom_site_occupancy
  Mn  Mn0  1  0.00000000  0.00000000  0.00000000  1
  Mn  Mn1  1  0.50000000  0.50000000  0.50000000  1
  Sb  Sb2  1  0.25000000  0.25000000  0.25000000  1
  Sb  Sb3  1  0.75000000  0.25000000  0.00000000  1
  Sb  Sb4  1  0.25000000  0.75000000  0.50000000  1
  Sb  Sb5  1  0.94241046  0.64988430  0.25499705  1
  P  P6  1  0.01193056  0.30406292  0.56660865  1
  P  P7  1  0.03522671  0.19809578  0.80651954  1
  Li  Li8  1  0.34338416  0.43482246  0.33356078  1
  Li  Li9  1  0.67438706  0.64982826  0.28874047  1
