# generated using pymatgen
data_Li3Cu2(As3S)2
_symmetry_space_group_name_H-M   'P 1'
_cell_length_a   5.03020876
_cell_length_b   4.81150627
_cell_length_c   7.47372754
_cell_angle_alpha   98.85566973
_cell_angle_beta   100.45802052
_cell_angle_gamma   98.01664987
_symmetry_Int_Tables_number   1
_chemical_formula_structural   Li3Cu2(As3S)2
_chemical_formula_sum   'Li3 Cu2 As6 S2'
_cell_volume   173.13227273
_cell_formula_units_Z   1
loop_
 _symmetry_equiv_pos_site_id
 _symmetry_equiv_pos_as_xyz
  1  'x, y, z'
loop_
 _atom_site_type_symbol
 _atom_site_label
 _atom_site_symmetry_multiplicity
 _atom_site_fract_x
 _atom_site_fract_y
 _atom_site_fract_z
 _atom_site_occupancy
  S  S0  1  0.12500000  0.00000000  0.25000000  1
  S  S1  1  0.00000000  0.00000000  0.00000000  1
  As  As2  1  0.37500000  0.00000000  0.25000000  1
  As  As3  1  0.25000000  0.25000000  0.25000000  1
  As  As4  1  0.00000000  0.25000000  0.12500000  1
  As  As5  1  0.98534497  0.33908648  0.14109581  1
  As  As6  1  0.30476203  0.16645294  0.09279748  1
  As  As7  1  0.74432393  0.52700057  0.67747173  1
  Li  Li8  1  0.68964910  0.14919738  0.96182210  1
  Li  Li9  1  0.24337905  0.91532291  0.12002370  1
  Li  Li10  1  0.02507845  0.02560246  0.54299392  1
  Cu  Cu11  1  0.65316969  0.45644721  0.92920768  1
  Cu  Cu12  1  0.94688564  0.50964064  0.32100252  1
