# generated using pymatgen
data_Li2Mn3Sb4P3
_symmetry_space_group_name_H-M   'P 1'
_cell_length_a   5.26665672
_cell_length_b   5.39833748
_cell_length_c   6.09013271
_cell_angle_alpha   100.24167036
_cell_angle_beta   92.71857275
_cell_angle_gamma   99.40468297
_symmetry_Int_Tables_number   1
_chemical_formula_structural   Li2Mn3Sb4P3
_chemical_formula_sum   'Li2 Mn3 Sb4 P3'
_cell_volume   167.57812527
_cell_formula_units_Z   1
loop_
 _symmetry_equiv_pos_site_id
 _symmetry_equiv_pos_as_xyz
  1  'x, y, z'
loop_
 _atom_site_type_symbol
 _atom_site_label
 _atom_site_symmetry_multiplicity
 _atom_site_fract_x
 _atom_site_fract_y
 _atom_site_fract_z
 _atom_site_occupancy
  Mn  Mn0  1  0.00000000  0.00000000  0.00000000  1
  Mn  Mn1  1  0.50000000  0.50000000  0.50000000  1
  Mn  Mn2  1  0.50000000  0.50000000  0.00000000  1
  Sb  Sb3  1  0.50000000  0.00000000  0.50000000  1
  Sb  Sb4  1  0.00000000  0.50000000  0.50000000  1
  Sb  Sb5  1  0.46503757  0.61705747  0.83357831  1
  Sb  Sb6  1  0.21567335  0.52490076  0.47534064  1
  P  P7  1  0.41488561  0.35590406  0.86836643  1
  P  P8  1  0.80584712  0.41529996  0.16915922  1
  P  P9  1  0.55169528  0.76647908  0.23239710  1
  Li  Li10  1  0.63711173  0.82252886  0.19924289  1
  Li  Li11  1  0.31734405  0.64409496  0.05139238  1
