# generated using pymatgen
data_LiMn2Sb4Mo2P3
_symmetry_space_group_name_H-M   'P 1'
_cell_length_a   5.66913718
_cell_length_b   6.00901505
_cell_length_c   6.69618246
_cell_angle_alpha   94.44011550
_cell_angle_beta   92.78404997
_cell_angle_gamma   94.49970434
_symmetry_Int_Tables_number   1
_chemical_formula_structural   LiMn2Sb4Mo2P3
_chemical_formula_sum   'Li1 Mn2 Sb4 Mo2 P3'
_cell_volume   226.38316209
_cell_formula_units_Z   1
loop_
 _symmetry_equiv_pos_site_id
 _symmetry_equiv_pos_as_xyz
  1  'x, y, z'
loop_
 _atom_site_type_symbol
 _atom_site_label
 _atom_site_symmetry_multiplicity
 _atom_site_fract_x
 _atom_site_fract_y
 _atom_site_fract_z
 _atom_site_occupancy
  Mn  Mn0  1  0.00000000  0.00000000  0.00000000  1
  Mn  Mn1  1  0.50000000  0.50000000  0.50000000  1
  Sb  Sb2  1  0.50000000  0.50000000  0.00000000  1
  Sb  Sb3  1  0.50000000  0.00000000  0.50000000  1
  Sb  Sb4  1  0.00000000  0.50000000  0.50000000  1
  Sb  Sb5  1  0.65158457  0.66652896  0.70877305  1
  P  P6  1  0.41279262  0.84360410  0.77008900  1
  P  P7  1  0.62434426  0.88903300  0.06872604  1
  P  P8  1  0.01360868  0.96271647  0.91682748  1
  Mo  Mo9  1  0.27578682  0.44383552  0.73716170  1
  Mo  Mo10  1  0.89946419  0.57288448  0.22728133  1
  Li  Li11  1  0.02430474  0.53984109  0.70980195  1
