# generated using pymatgen
data_Li3TiSeO2F3
_symmetry_space_group_name_H-M   'P 1'
_cell_length_a   6.14714229
_cell_length_b   5.91187875
_cell_length_c   6.97568142
_cell_angle_alpha   99.10271431
_cell_angle_beta   102.13427775
_cell_angle_gamma   98.56074640
_symmetry_Int_Tables_number   1
_chemical_formula_structural   Li3TiSeO2F3
_chemical_formula_sum   'Li3 Ti1 Se1 O2 F3'
_cell_volume   240.32512734
_cell_formula_units_Z   1
loop_
 _symmetry_equiv_pos_site_id
 _symmetry_equiv_pos_as_xyz
  1  'x, y, z'
loop_
 _atom_site_type_symbol
 _atom_site_label
 _atom_site_symmetry_multiplicity
 _atom_site_fract_x
 _atom_site_fract_y
 _atom_site_fract_z
 _atom_site_occupancy
  Li  Li0  1  0.00000000  0.00000000  0.00000000  1
  Li  Li1  1  0.50000000  0.50000000  0.50000000  1
  Li  Li2  1  0.25000000  0.25000000  0.25000000  1
  Se  Se3  1  0.75000000  0.25000000  0.00000000  1
  F  F4  1  0.25000000  0.75000000  0.50000000  1
  F  F5  1  0.56320736  0.29648613  0.63901867  1
  F  F6  1  0.65506770  0.14541290  0.42749041  1
  Ti  Ti7  1  0.13739650  0.32876050  0.96477618  1
  O  O8  1  0.15532490  0.47614101  0.72995462  1
  O  O9  1  0.77371182  0.75814758  0.16141861  1
