# generated using pymatgen
data_Li2MnSb4P3N5
_symmetry_space_group_name_H-M   'P 1'
_cell_length_a   6.78538218
_cell_length_b   7.27139314
_cell_length_c   7.80117192
_cell_angle_alpha   92.63800151
_cell_angle_beta   93.12495653
_cell_angle_gamma   93.00237143
_symmetry_Int_Tables_number   1
_chemical_formula_structural   Li2MnSb4P3N5
_chemical_formula_sum   'Li2 Mn1 Sb4 P3 N5'
_cell_volume   383.34212099
_cell_formula_units_Z   1
loop_
 _symmetry_equiv_pos_site_id
 _symmetry_equiv_pos_as_xyz
  1  'x, y, z'
loop_
 _atom_site_type_symbol
 _atom_site_label
 _atom_site_symmetry_multiplicity
 _atom_site_fract_x
 _atom_site_fract_y
 _atom_site_fract_z
 _atom_site_occupancy
  N  N0  1  0.12500000  0.00000000  0.25000000  1
  N  N1  1  0.00000000  0.00000000  0.00000000  1
  N  N2  1  0.37500000  0.00000000  0.25000000  1
  N  N3  1  0.25000000  0.25000000  0.25000000  1
  N  N4  1  0.00000000  0.25000000  0.12500000  1
  Mn  Mn5  1  0.68653114  0.85582761  0.64526847  1
  Sb  Sb6  1  0.22920859  0.06150374  0.44767909  1
  Sb  Sb7  1  0.69521645  0.15274080  0.10981982  1
  Sb  Sb8  1  0.69132437  0.69647605  0.83498023  1
  Sb  Sb9  1  0.92931991  0.48413457  0.99576399  1
  P  P10  1  0.40213519  0.63138872  0.00497046  1
  P  P11  1  0.28863829  0.83867481  0.68829241  1
  P  P12  1  0.76672209  0.51812042  0.43988234  1
  Li  Li13  1  0.24808921  0.67703645  0.74240734  1
  Li  Li14  1  0.62413040  0.96951065  0.11860198  1
