# generated using pymatgen
data_Li2Ti(IO)4
_symmetry_space_group_name_H-M   'P 1'
_cell_length_a   8.65156579
_cell_length_b   8.43891664
_cell_length_c   7.56579303
_cell_angle_alpha   90.08526834
_cell_angle_beta   90.40568088
_cell_angle_gamma   90.09748449
_symmetry_Int_Tables_number   1
_chemical_formula_structural   Li2Ti(IO)4
_chemical_formula_sum   'Li2 Ti1 I4 O4'
_cell_volume   552.36208975
_cell_formula_units_Z   1
loop_
 _symmetry_equiv_pos_site_id
 _symmetry_equiv_pos_as_xyz
  1  'x, y, z'
loop_
 _atom_site_type_symbol
 _atom_site_label
 _atom_site_symmetry_multiplicity
 _atom_site_fract_x
 _atom_site_fract_y
 _atom_site_fract_z
 _atom_site_occupancy
  I  I0  1  0.12500000  0.12500000  0.12500000  1
  I  I1  1  0.50000000  0.50000000  0.50000000  1
  I  I2  1  0.25000000  0.25000000  0.25000000  1
  I  I3  1  0.75000000  0.75000000  0.75000000  1
  Li  Li4  1  0.79944268  0.92402337  0.60530222  1
  Li  Li5  1  0.14342337  0.85675283  0.34380074  1
  Ti  Ti6  1  0.90944663  0.76369518  0.09376311  1
  O  O7  1  0.67391765  0.15687283  0.84717960  1
  O  O8  1  0.15598998  0.84627553  0.59821957  1
  O  O9  1  0.78867563  0.30755710  0.90077991  1
  O  O10  1  0.79617313  0.97685128  0.07178335  1
