# generated using pymatgen
data_LiMn2Sb4P3
_symmetry_space_group_name_H-M   'P 1'
_cell_length_a   6.24157363
_cell_length_b   6.71569899
_cell_length_c   7.06774055
_cell_angle_alpha   93.31949327
_cell_angle_beta   92.62644129
_cell_angle_gamma   93.50107664
_symmetry_Int_Tables_number   1
_chemical_formula_structural   LiMn2Sb4P3
_chemical_formula_sum   'Li1 Mn2 Sb4 P3'
_cell_volume   294.84369996
_cell_formula_units_Z   1
loop_
 _symmetry_equiv_pos_site_id
 _symmetry_equiv_pos_as_xyz
  1  'x, y, z'
loop_
 _atom_site_type_symbol
 _atom_site_label
 _atom_site_symmetry_multiplicity
 _atom_site_fract_x
 _atom_site_fract_y
 _atom_site_fract_z
 _atom_site_occupancy
  Mn  Mn0  1  0.12500000  0.12500000  0.12500000  1
  Mn  Mn1  1  0.50000000  0.50000000  0.50000000  1
  Sb  Sb2  1  0.25000000  0.25000000  0.25000000  1
  Sb  Sb3  1  0.75000000  0.75000000  0.75000000  1
  Sb  Sb4  1  0.46092729  0.54174519  0.47275729  1
  Sb  Sb5  1  0.71772376  0.48108584  0.98563458  1
  P  P6  1  0.70880288  0.70376387  0.47997147  1
  P  P7  1  0.85285998  0.94074805  0.58114457  1
  P  P8  1  0.70188077  0.58624946  0.47910104  1
  Li  Li9  1  0.14445396  0.40011818  0.39891341  1
