# generated using pymatgen
data_LiMn3Mo2P3
_symmetry_space_group_name_H-M   'P 1'
_cell_length_a   6.17224504
_cell_length_b   6.29844532
_cell_length_c   6.43324319
_cell_angle_alpha   93.87844884
_cell_angle_beta   90.09445109
_cell_angle_gamma   93.54372802
_symmetry_Int_Tables_number   1
_chemical_formula_structural   LiMn3Mo2P3
_chemical_formula_sum   'Li1 Mn3 Mo2 P3'
_cell_volume   249.04170534
_cell_formula_units_Z   1
loop_
 _symmetry_equiv_pos_site_id
 _symmetry_equiv_pos_as_xyz
  1  'x, y, z'
loop_
 _atom_site_type_symbol
 _atom_site_label
 _atom_site_symmetry_multiplicity
 _atom_site_fract_x
 _atom_site_fract_y
 _atom_site_fract_z
 _atom_site_occupancy
  Mn  Mn0  1  0.00000000  0.00000000  0.00000000  1
  Mn  Mn1  1  0.50000000  0.50000000  0.50000000  1
  Mn  Mn2  1  0.25000000  0.25000000  0.25000000  1
  P  P3  1  0.75000000  0.25000000  0.00000000  1
  P  P4  1  0.25000000  0.75000000  0.50000000  1
  P  P5  1  0.65029010  0.41472619  0.19210639  1
  Mo  Mo6  1  0.88586196  0.60636011  0.77941455  1
  Mo  Mo7  1  0.21540754  0.42066064  0.20113000  1
  Li  Li8  1  0.94843583  0.93628390  0.18226613  1
