# generated using pymatgen
data_Li2MnSb4P3
_symmetry_space_group_name_H-M   'P 1'
_cell_length_a   4.97724163
_cell_length_b   5.30412140
_cell_length_c   6.58825528
_cell_angle_alpha   99.92939891
_cell_angle_beta   93.82658245
_cell_angle_gamma   100.19572646
_symmetry_Int_Tables_number   1
_chemical_formula_structural   Li2MnSb4P3
_chemical_formula_sum   'Li2 Mn1 Sb4 P3'
_cell_volume   167.76784914
_cell_formula_units_Z   1
loop_
 _symmetry_equiv_pos_site_id
 _symmetry_equiv_pos_as_xyz
  1  'x, y, z'
loop_
 _atom_site_type_symbol
 _atom_site_label
 _atom_site_symmetry_multiplicity
 _atom_site_fract_x
 _atom_site_fract_y
 _atom_site_fract_z
 _atom_site_occupancy
  Mn  Mn0  1  0.00000000  0.00000000  0.00000000  1
  Sb  Sb1  1  0.33300000  0.66700000  0.25000000  1
  Sb  Sb2  1  0.66700000  0.33300000  0.50000000  1
  Sb  Sb3  1  0.00000000  0.00000000  0.75000000  1
  Sb  Sb4  1  0.47266148  0.27322481  0.64417632  1
  P  P5  1  0.51411832  0.22802072  0.58877403  1
  P  P6  1  0.42885152  0.81029666  0.28881302  1
  P  P7  1  0.02030182  0.52597576  0.35604660  1
  Li  Li8  1  0.72337477  0.22336219  0.45911616  1
  Li  Li9  1  0.08725239  0.32946695  0.93293915  1
