# generated using pymatgen
data_Li3Cu2O5F3
_symmetry_space_group_name_H-M   'P 1'
_cell_length_a   6.43112047
_cell_length_b   6.52663679
_cell_length_c   7.70881730
_cell_angle_alpha   95.65324637
_cell_angle_beta   98.97310069
_cell_angle_gamma   97.22398445
_symmetry_Int_Tables_number   1
_chemical_formula_structural   Li3Cu2O5F3
_chemical_formula_sum   'Li3 Cu2 O5 F3'
_cell_volume   314.75784172
_cell_formula_units_Z   1
loop_
 _symmetry_equiv_pos_site_id
 _symmetry_equiv_pos_as_xyz
  1  'x, y, z'
loop_
 _atom_site_type_symbol
 _atom_site_label
 _atom_site_symmetry_multiplicity
 _atom_site_fract_x
 _atom_site_fract_y
 _atom_site_fract_z
 _atom_site_occupancy
  Li  Li0  1  0.00000000  0.00000000  0.00000000  1
  Li  Li1  1  0.33300000  0.66700000  0.25000000  1
  Li  Li2  1  0.66700000  0.33300000  0.50000000  1
  Cu  Cu3  1  0.00000000  0.00000000  0.75000000  1
  Cu  Cu4  1  0.44945881  0.52769889  0.26679742  1
  F  F5  1  0.57233665  0.45278670  0.46630084  1
  F  F6  1  0.30298027  0.73770723  0.48502914  1
  F  F7  1  0.59685670  0.52936259  0.31893205  1
  O  O8  1  0.94679437  0.16643698  0.40496974  1
  O  O9  1  0.83199613  0.43718887  0.53104566  1
  O  O10  1  0.92497058  0.04529589  0.76223391  1
  O  O11  1  0.16893928  0.65131124  0.42881721  1
  O  O12  1  0.99651732  0.67685110  0.74367577  1
