# generated using pymatgen
data_Li3TiNi2I4O5
_symmetry_space_group_name_H-M   'P 1'
_cell_length_a   8.69238098
_cell_length_b   8.56534446
_cell_length_c   8.00705774
_cell_angle_alpha   90.00000000
_cell_angle_beta   90.00000000
_cell_angle_gamma   90.00000000
_symmetry_Int_Tables_number   1
_chemical_formula_structural   Li3TiNi2I4O5
_chemical_formula_sum   'Li3 Ti1 Ni2 I4 O5'
_cell_volume   596.15137028
_cell_formula_units_Z   1
loop_
 _symmetry_equiv_pos_site_id
 _symmetry_equiv_pos_as_xyz
  1  'x, y, z'
loop_
 _atom_site_type_symbol
 _atom_site_label
 _atom_site_symmetry_multiplicity
 _atom_site_fract_x
 _atom_site_fract_y
 _atom_site_fract_z
 _atom_site_occupancy
  I  I0  1  0.00000000  0.00000000  0.00000000  1
  I  I1  1  0.50000000  0.50000000  0.50000000  1
  I  I2  1  0.50000000  0.50000000  0.00000000  1
  I  I3  1  0.50000000  0.00000000  0.50000000  1
  Li  Li4  1  0.00000000  0.50000000  0.50000000  1
  Li  Li5  1  0.80526333  0.19878382  0.17120713  1
  Li  Li6  1  0.20041569  0.65491098  0.58859864  1
  Ni  Ni7  1  0.98607722  0.24857325  0.43268191  1
  Ni  Ni8  1  0.72844070  0.45792600  0.66494017  1
  Ti  Ti9  1  0.78118473  0.85695241  0.89114278  1
  O  O10  1  0.28331717  0.65066203  0.34835141  1
  O  O11  1  0.27278481  0.50230362  0.24482893  1
  O  O12  1  0.96375305  0.26906246  0.94520372  1
  O  O13  1  0.73945992  0.66172116  0.42865082  1
  O  O14  1  0.07998770  0.81276996  0.87084574  1
