# generated using pymatgen
data_Li3As6(I2O3)2
_symmetry_space_group_name_H-M   'P 1'
_cell_length_a   8.54567132
_cell_length_b   8.41244902
_cell_length_c   8.64332429
_cell_angle_alpha   90.00000000
_cell_angle_beta   90.00000000
_cell_angle_gamma   90.00000000
_symmetry_Int_Tables_number   1
_chemical_formula_structural   Li3As6(I2O3)2
_chemical_formula_sum   'Li3 As6 I4 O6'
_cell_volume   621.36879320
_cell_formula_units_Z   1
loop_
 _symmetry_equiv_pos_site_id
 _symmetry_equiv_pos_as_xyz
  1  'x, y, z'
loop_
 _atom_site_type_symbol
 _atom_site_label
 _atom_site_symmetry_multiplicity
 _atom_site_fract_x
 _atom_site_fract_y
 _atom_site_fract_z
 _atom_site_occupancy
  I  I0  1  0.00000000  0.00000000  0.00000000  1
  I  I1  1  0.50000000  0.50000000  0.50000000  1
  I  I2  1  0.25000000  0.25000000  0.25000000  1
  I  I3  1  0.75000000  0.25000000  0.00000000  1
  Li  Li4  1  0.25000000  0.75000000  0.50000000  1
  Li  Li5  1  0.99878951  0.32456624  0.02090874  1
  Li  Li6  1  0.52956290  0.14473085  0.64402079  1
  As  As7  1  0.08633221  0.35695462  0.41859524  1
  As  As8  1  0.82528733  0.72544123  0.23574436  1
  As  As9  1  0.61136780  0.43151013  0.10168915  1
  As  As10  1  0.65750096  0.52091976  0.67823394  1
  As  As11  1  0.11846282  0.80849961  0.10473450  1
  As  As12  1  0.39562211  0.01050509  0.35691271  1
  O  O13  1  0.21299349  0.20756967  0.04376084  1
  O  O14  1  0.44920335  0.07532523  0.41231942  1
  O  O15  1  0.97633260  0.89116067  0.79614847  1
  O  O16  1  0.19742526  0.12504381  0.58259092  1
  O  O17  1  0.95184639  0.78181181  0.69384231  1
  O  O18  1  0.69574425  0.77709508  0.23201658  1
