# generated using pymatgen
data_Li3Ti2S2F3
_symmetry_space_group_name_H-M   'P 1'
_cell_length_a   3.20802319
_cell_length_b   2.67282096
_cell_length_c   6.50973300
_cell_angle_alpha   99.18026656
_cell_angle_beta   105.48755186
_cell_angle_gamma   98.61966897
_symmetry_Int_Tables_number   1
_chemical_formula_structural   Li3Ti2S2F3
_chemical_formula_sum   'Li3 Ti2 S2 F3'
_cell_volume   52.00353100
_cell_formula_units_Z   1
loop_
 _symmetry_equiv_pos_site_id
 _symmetry_equiv_pos_as_xyz
  1  'x, y, z'
loop_
 _atom_site_type_symbol
 _atom_site_label
 _atom_site_symmetry_multiplicity
 _atom_site_fract_x
 _atom_site_fract_y
 _atom_site_fract_z
 _atom_site_occupancy
  F  F0  1  0.12500000  0.00000000  0.25000000  1
  F  F1  1  0.00000000  0.00000000  0.00000000  1
  F  F2  1  0.37500000  0.00000000  0.25000000  1
  S  S3  1  0.25000000  0.25000000  0.25000000  1
  S  S4  1  0.00000000  0.25000000  0.12500000  1
  Ti  Ti5  1  0.13465885  0.39819710  0.31404268  1
  Ti  Ti6  1  0.13188161  0.13789507  0.40586339  1
  Li  Li7  1  0.34552783  0.60879177  0.42549676  1
  Li  Li8  1  0.06948027  0.13195099  0.98148116  1
  Li  Li9  1  0.18846112  0.77514068  0.55498798  1
