# generated using pymatgen
data_LiTi3Mo2OF3
_symmetry_space_group_name_H-M   'P 1'
_cell_length_a   3.99969000
_cell_length_b   3.75756431
_cell_length_c   5.03989454
_cell_angle_alpha   91.16420181
_cell_angle_beta   91.25778012
_cell_angle_gamma   90.93824617
_symmetry_Int_Tables_number   1
_chemical_formula_structural   LiTi3Mo2OF3
_chemical_formula_sum   'Li1 Ti3 Mo2 O1 F3'
_cell_volume   75.70043719
_cell_formula_units_Z   1
loop_
 _symmetry_equiv_pos_site_id
 _symmetry_equiv_pos_as_xyz
  1  'x, y, z'
loop_
 _atom_site_type_symbol
 _atom_site_label
 _atom_site_symmetry_multiplicity
 _atom_site_fract_x
 _atom_site_fract_y
 _atom_site_fract_z
 _atom_site_occupancy
  F  F0  1  0.00000000  0.00000000  0.00000000  1
  F  F1  1  0.50000000  0.50000000  0.50000000  1
  F  F2  1  0.50000000  0.50000000  0.00000000  1
  O  O3  1  0.50000000  0.00000000  0.50000000  1
  Ti  Ti4  1  0.00000000  0.50000000  0.50000000  1
  Ti  Ti5  1  0.26726539  0.57074570  0.17155367  1
  Ti  Ti6  1  0.86751617  0.08662514  0.51789605  1
  Mo  Mo7  1  0.41981148  0.76319904  0.89513675  1
  Mo  Mo8  1  0.47311140  0.05667744  0.26798755  1
  Li  Li9  1  0.13244324  0.69883874  0.20509811  1
