# generated using pymatgen
data_LiScBr2O3F2
_symmetry_space_group_name_H-M   'P 1'
_cell_length_a   8.04275294
_cell_length_b   8.62318540
_cell_length_c   8.41661062
_cell_angle_alpha   90.07497359
_cell_angle_beta   90.35670156
_cell_angle_gamma   90.08571483
_symmetry_Int_Tables_number   1
_chemical_formula_structural   LiScBr2O3F2
_chemical_formula_sum   'Li1 Sc1 Br2 O3 F2'
_cell_volume   583.71440186
_cell_formula_units_Z   1
loop_
 _symmetry_equiv_pos_site_id
 _symmetry_equiv_pos_as_xyz
  1  'x, y, z'
loop_
 _atom_site_type_symbol
 _atom_site_label
 _atom_site_symmetry_multiplicity
 _atom_site_fract_x
 _atom_site_fract_y
 _atom_site_fract_z
 _atom_site_occupancy
  Sc  Sc0  1  0.12500000  0.00000000  0.25000000  1
  Li  Li1  1  0.00000000  0.00000000  0.00000000  1
  Br  Br2  1  0.37500000  0.00000000  0.25000000  1
  Br  Br3  1  0.25000000  0.25000000  0.25000000  1
  F  F4  1  0.00000000  0.25000000  0.12500000  1
  F  F5  1  0.60625829  0.08056027  0.23396902  1
  O  O6  1  0.25176391  0.14904075  0.49514509  1
  O  O7  1  0.92656248  0.12845355  0.84087308  1
  O  O8  1  0.60834117  0.00597975  0.95218123  1
