# generated using pymatgen
data_Li3Cu2Ni2As6N5
_symmetry_space_group_name_H-M   'P 1'
_cell_length_a   7.45486127
_cell_length_b   7.39501560
_cell_length_c   8.62516435
_cell_angle_alpha   91.81700052
_cell_angle_beta   91.82936018
_cell_angle_gamma   92.10302352
_symmetry_Int_Tables_number   1
_chemical_formula_structural   Li3Cu2Ni2As6N5
_chemical_formula_sum   'Li3 Cu2 Ni2 As6 N5'
_cell_volume   474.67526427
_cell_formula_units_Z   1
loop_
 _symmetry_equiv_pos_site_id
 _symmetry_equiv_pos_as_xyz
  1  'x, y, z'
loop_
 _atom_site_type_symbol
 _atom_site_label
 _atom_site_symmetry_multiplicity
 _atom_site_fract_x
 _atom_site_fract_y
 _atom_site_fract_z
 _atom_site_occupancy
  Li  Li0  1  0.00000000  0.00000000  0.00000000  1
  Li  Li1  1  0.50000000  0.50000000  0.50000000  1
  Li  Li2  1  0.25000000  0.25000000  0.25000000  1
  Cu  Cu3  1  0.75000000  0.25000000  0.00000000  1
  Cu  Cu4  1  0.25000000  0.75000000  0.50000000  1
  Ni  Ni5  1  0.05312426  0.63186469  0.82012676  1
  Ni  Ni6  1  0.09727757  0.26946998  0.79633527  1
  As  As7  1  0.21510507  0.26834942  0.48425805  1
  As  As8  1  0.37836131  0.03037018  0.09190968  1
  As  As9  1  0.60041571  0.39141335  0.56488610  1
  As  As10  1  0.40117456  0.19308105  0.24652916  1
  As  As11  1  0.02819808  0.26342308  0.00407915  1
  As  As12  1  0.44381859  0.23333508  0.13643716  1
  N  N13  1  0.35579887  0.82028701  0.70823133  1
  N  N14  1  0.99950455  0.08839235  0.77414259  1
  N  N15  1  0.06488305  0.35106520  0.36214518  1
  N  N16  1  0.38341687  0.41207904  0.62455923  1
  N  N17  1  0.30167447  0.53936801  0.01951083  1
