# generated using pymatgen
data_LiMnSb4P3
_symmetry_space_group_name_H-M   'P 1'
_cell_length_a   4.66914794
_cell_length_b   4.97058032
_cell_length_c   6.82674161
_cell_angle_alpha   96.96203055
_cell_angle_beta   97.87670664
_cell_angle_gamma   97.75972233
_symmetry_Int_Tables_number   1
_chemical_formula_structural   LiMnSb4P3
_chemical_formula_sum   'Li1 Mn1 Sb4 P3'
_cell_volume   153.92204784
_cell_formula_units_Z   1
loop_
 _symmetry_equiv_pos_site_id
 _symmetry_equiv_pos_as_xyz
  1  'x, y, z'
loop_
 _atom_site_type_symbol
 _atom_site_label
 _atom_site_symmetry_multiplicity
 _atom_site_fract_x
 _atom_site_fract_y
 _atom_site_fract_z
 _atom_site_occupancy
  Mn  Mn0  1  0.12500000  0.12500000  0.12500000  1
  Sb  Sb1  1  0.50000000  0.50000000  0.50000000  1
  Sb  Sb2  1  0.25000000  0.25000000  0.25000000  1
  Sb  Sb3  1  0.75000000  0.75000000  0.75000000  1
  Sb  Sb4  1  0.00317771  0.70254776  0.74504199  1
  P  P5  1  0.51261875  0.85247824  0.67063944  1
  P  P6  1  0.87565858  0.82791334  0.89501496  1
  P  P7  1  0.01416485  0.69268763  0.23178861  1
  Li  Li8  1  0.01639571  0.60128444  0.63806242  1
