# generated using pymatgen
data_LiMn3Sb4Mo2P3
_symmetry_space_group_name_H-M   'P 1'
_cell_length_a   5.20232510
_cell_length_b   5.46287736
_cell_length_c   6.24605241
_cell_angle_alpha   99.36136084
_cell_angle_beta   90.67439797
_cell_angle_gamma   99.07628366
_symmetry_Int_Tables_number   1
_chemical_formula_structural   LiMn3Sb4Mo2P3
_chemical_formula_sum   'Li1 Mn3 Sb4 Mo2 P3'
_cell_volume   172.82599071
_cell_formula_units_Z   1
loop_
 _symmetry_equiv_pos_site_id
 _symmetry_equiv_pos_as_xyz
  1  'x, y, z'
loop_
 _atom_site_type_symbol
 _atom_site_label
 _atom_site_symmetry_multiplicity
 _atom_site_fract_x
 _atom_site_fract_y
 _atom_site_fract_z
 _atom_site_occupancy
  Mn  Mn0  1  0.12500000  0.00000000  0.25000000  1
  Mn  Mn1  1  0.00000000  0.00000000  0.00000000  1
  Mn  Mn2  1  0.37500000  0.00000000  0.25000000  1
  Sb  Sb3  1  0.25000000  0.25000000  0.25000000  1
  Sb  Sb4  1  0.00000000  0.25000000  0.12500000  1
  Sb  Sb5  1  0.20742609  0.88002586  0.81534675  1
  Sb  Sb6  1  0.41211700  0.03189893  0.70841612  1
  P  P7  1  0.69518839  0.76089279  0.03261403  1
  P  P8  1  0.47961347  0.45144179  0.17917144  1
  P  P9  1  0.87901582  0.39831298  0.08338736  1
  Mo  Mo10  1  0.98987729  0.16782156  0.43691626  1
  Mo  Mo11  1  0.07688730  0.00424397  0.99346813  1
  Li  Li12  1  0.07461195  0.33261092  0.88175844  1
