# generated using pymatgen
data_Li2TiI4N5
_symmetry_space_group_name_H-M   'P 1'
_cell_length_a   7.44230590
_cell_length_b   7.19243907
_cell_length_c   7.48819619
_cell_angle_alpha   92.79936003
_cell_angle_beta   92.88235936
_cell_angle_gamma   92.72232845
_symmetry_Int_Tables_number   1
_chemical_formula_structural   Li2TiI4N5
_chemical_formula_sum   'Li2 Ti1 I4 N5'
_cell_volume   399.34422534
_cell_formula_units_Z   1
loop_
 _symmetry_equiv_pos_site_id
 _symmetry_equiv_pos_as_xyz
  1  'x, y, z'
loop_
 _atom_site_type_symbol
 _atom_site_label
 _atom_site_symmetry_multiplicity
 _atom_site_fract_x
 _atom_site_fract_y
 _atom_site_fract_z
 _atom_site_occupancy
  I  I0  1  0.12500000  0.12500000  0.12500000  1
  I  I1  1  0.50000000  0.50000000  0.50000000  1
  I  I2  1  0.25000000  0.25000000  0.25000000  1
  I  I3  1  0.75000000  0.75000000  0.75000000  1
  Li  Li4  1  0.96103414  0.19071025  0.41275993  1
  Li  Li5  1  0.60269145  0.11714178  0.01497637  1
  Ti  Ti6  1  0.40516677  0.08687826  0.20298012  1
  N  N7  1  0.06577173  0.34309761  0.44552965  1
  N  N8  1  0.02042901  0.03470380  0.40398977  1
  N  N9  1  0.85802321  0.76896707  0.52242916  1
  N  N10  1  0.71672609  0.18664822  0.52637884  1
  N  N11  1  0.73688418  0.58237195  0.10520782  1
