# generated using pymatgen
data_Li2LuCu2(NiAs3)2
_symmetry_space_group_name_H-M   'P 1'
_cell_length_a   7.45555634
_cell_length_b   7.40566930
_cell_length_c   8.61761423
_cell_angle_alpha   91.76477320
_cell_angle_beta   91.84778281
_cell_angle_gamma   92.04230703
_symmetry_Int_Tables_number   1
_chemical_formula_structural   Li2LuCu2(NiAs3)2
_chemical_formula_sum   'Li2 Lu1 Cu2 Ni2 As6'
_cell_volume   475.01502992
_cell_formula_units_Z   1
loop_
 _symmetry_equiv_pos_site_id
 _symmetry_equiv_pos_as_xyz
  1  'x, y, z'
loop_
 _atom_site_type_symbol
 _atom_site_label
 _atom_site_symmetry_multiplicity
 _atom_site_fract_x
 _atom_site_fract_y
 _atom_site_fract_z
 _atom_site_occupancy
  Ni  Ni0  1  0.12500000  0.00000000  0.25000000  1
  Ni  Ni1  1  0.00000000  0.00000000  0.00000000  1
  Lu  Lu2  1  0.37500000  0.00000000  0.25000000  1
  As  As3  1  0.25000000  0.25000000  0.25000000  1
  As  As4  1  0.00000000  0.25000000  0.12500000  1
  As  As5  1  0.56539984  0.30902176  0.17648029  1
  As  As6  1  0.27939176  0.70279874  0.81440979  1
  As  As7  1  0.66954972  0.04649307  0.32333575  1
  As  As8  1  0.40066369  0.31780177  0.12246246  1
  Li  Li9  1  0.12665107  0.21234855  0.42919519  1
  Li  Li10  1  0.24724354  0.56714660  0.51467297  1
  Cu  Cu11  1  0.72283890  0.92878365  0.19706129  1
  Cu  Cu12  1  0.96245401  0.59382277  0.86346580  1
