# generated using pymatgen
data_LiMn2Sb4P3
_symmetry_space_group_name_H-M   'P 1'
_cell_length_a   6.82173343
_cell_length_b   7.37830527
_cell_length_c   7.26614527
_cell_angle_alpha   91.51539449
_cell_angle_beta   91.54008454
_cell_angle_gamma   91.61185164
_symmetry_Int_Tables_number   1
_chemical_formula_structural   LiMn2Sb4P3
_chemical_formula_sum   'Li1 Mn2 Sb4 P3'
_cell_volume   365.31346360
_cell_formula_units_Z   1
loop_
 _symmetry_equiv_pos_site_id
 _symmetry_equiv_pos_as_xyz
  1  'x, y, z'
loop_
 _atom_site_type_symbol
 _atom_site_label
 _atom_site_symmetry_multiplicity
 _atom_site_fract_x
 _atom_site_fract_y
 _atom_site_fract_z
 _atom_site_occupancy
  Mn  Mn0  1  0.00000000  0.00000000  0.00000000  1
  Mn  Mn1  1  0.50000000  0.50000000  0.50000000  1
  Sb  Sb2  1  0.25000000  0.25000000  0.25000000  1
  Sb  Sb3  1  0.75000000  0.25000000  0.00000000  1
  Sb  Sb4  1  0.25000000  0.75000000  0.50000000  1
  Sb  Sb5  1  0.09340685  0.25845117  0.98853154  1
  P  P6  1  0.16329974  0.44948149  0.00402721  1
  P  P7  1  0.05468739  0.35225049  0.59199860  1
  P  P8  1  0.88171861  0.21050946  0.58643579  1
  Li  Li9  1  0.54564813  0.06927703  0.02434488  1
