# generated using pymatgen
data_Li2MnSb4P3
_symmetry_space_group_name_H-M   'P 1'
_cell_length_a   6.07085463
_cell_length_b   6.43701166
_cell_length_c   7.16061082
_cell_angle_alpha   95.19854125
_cell_angle_beta   93.43778586
_cell_angle_gamma   95.53773368
_symmetry_Int_Tables_number   1
_chemical_formula_structural   Li2MnSb4P3
_chemical_formula_sum   'Li2 Mn1 Sb4 P3'
_cell_volume   276.70476807
_cell_formula_units_Z   1
loop_
 _symmetry_equiv_pos_site_id
 _symmetry_equiv_pos_as_xyz
  1  'x, y, z'
loop_
 _atom_site_type_symbol
 _atom_site_label
 _atom_site_symmetry_multiplicity
 _atom_site_fract_x
 _atom_site_fract_y
 _atom_site_fract_z
 _atom_site_occupancy
  Mn  Mn0  1  0.00000000  0.00000000  0.00000000  1
  Sb  Sb1  1  0.50000000  0.50000000  0.50000000  1
  Sb  Sb2  1  0.25000000  0.25000000  0.25000000  1
  Sb  Sb3  1  0.75000000  0.25000000  0.00000000  1
  Sb  Sb4  1  0.25000000  0.75000000  0.50000000  1
  P  P5  1  0.00553004  0.13361223  0.16721789  1
  P  P6  1  0.35155724  0.96725569  0.87274465  1
  P  P7  1  0.82275015  0.43690567  0.40531703  1
  Li  Li8  1  0.67407319  0.43417758  0.59862426  1
  Li  Li9  1  0.27724049  0.76109348  0.72321775  1
