# generated using pymatgen
data_Li2MnSb4P3
_symmetry_space_group_name_H-M   'P 1'
_cell_length_a   6.75571757
_cell_length_b   6.74324354
_cell_length_c   7.33489266
_cell_angle_alpha   94.90699636
_cell_angle_beta   92.44251253
_cell_angle_gamma   95.20470639
_symmetry_Int_Tables_number   1
_chemical_formula_structural   Li2MnSb4P3
_chemical_formula_sum   'Li2 Mn1 Sb4 P3'
_cell_volume   331.11940465
_cell_formula_units_Z   1
loop_
 _symmetry_equiv_pos_site_id
 _symmetry_equiv_pos_as_xyz
  1  'x, y, z'
loop_
 _atom_site_type_symbol
 _atom_site_label
 _atom_site_symmetry_multiplicity
 _atom_site_fract_x
 _atom_site_fract_y
 _atom_site_fract_z
 _atom_site_occupancy
  Mn  Mn0  1  0.00000000  0.00000000  0.00000000  1
  Sb  Sb1  1  0.50000000  0.50000000  0.50000000  1
  Sb  Sb2  1  0.25000000  0.25000000  0.25000000  1
  Sb  Sb3  1  0.75000000  0.25000000  0.00000000  1
  Sb  Sb4  1  0.25000000  0.75000000  0.50000000  1
  P  P5  1  0.67482039  0.54447212  0.50434500  1
  P  P6  1  0.15333768  0.12639386  0.88295489  1
  P  P7  1  0.84820529  0.63300121  0.62577030  1
  Li  Li8  1  0.98271033  0.61367935  0.54525255  1
  Li  Li9  1  0.83906948  0.83291148  0.19171804  1
