# generated using pymatgen
data_Li2Lu(NiAs3)2
_symmetry_space_group_name_H-M   'P 1'
_cell_length_a   7.45519579
_cell_length_b   7.40014306
_cell_length_c   8.62153060
_cell_angle_alpha   91.79186434
_cell_angle_beta   91.83822670
_cell_angle_gamma   92.07380163
_symmetry_Int_Tables_number   1
_chemical_formula_structural   Li2Lu(NiAs3)2
_chemical_formula_sum   'Li2 Lu1 Ni2 As6'
_cell_volume   474.83905020
_cell_formula_units_Z   1
loop_
 _symmetry_equiv_pos_site_id
 _symmetry_equiv_pos_as_xyz
  1  'x, y, z'
loop_
 _atom_site_type_symbol
 _atom_site_label
 _atom_site_symmetry_multiplicity
 _atom_site_fract_x
 _atom_site_fract_y
 _atom_site_fract_z
 _atom_site_occupancy
  Lu  Lu0  1  0.00000000  0.00000000  0.00000000  1
  Li  Li1  1  0.50000000  0.50000000  0.50000000  1
  Li  Li2  1  0.50000000  0.50000000  0.00000000  1
  Ni  Ni3  1  0.50000000  0.00000000  0.50000000  1
  Ni  Ni4  1  0.00000000  0.50000000  0.50000000  1
  As  As5  1  0.04653812  0.25762105  0.38700680  1
  As  As6  1  0.36165095  0.55406991  0.92683982  1
  As  As7  1  0.05959622  0.20283319  0.68447143  1
  As  As8  1  0.27891415  0.07798592  0.50574981  1
  As  As9  1  0.77870591  0.92207519  0.34296214  1
  As  As10  1  0.70726389  0.64367574  0.76304930  1
