# generated using pymatgen
data_Li3LuTi3(CuAs3)2
_symmetry_space_group_name_H-M   'P 1'
_cell_length_a   6.68869759
_cell_length_b   6.69030456
_cell_length_c   8.06887952
_cell_angle_alpha   95.43842350
_cell_angle_beta   96.17167230
_cell_angle_gamma   96.78058330
_symmetry_Int_Tables_number   1
_chemical_formula_structural   Li3LuTi3(CuAs3)2
_chemical_formula_sum   'Li3 Lu1 Ti3 Cu2 As6'
_cell_volume   354.35572145
_cell_formula_units_Z   1
loop_
 _symmetry_equiv_pos_site_id
 _symmetry_equiv_pos_as_xyz
  1  'x, y, z'
loop_
 _atom_site_type_symbol
 _atom_site_label
 _atom_site_symmetry_multiplicity
 _atom_site_fract_x
 _atom_site_fract_y
 _atom_site_fract_z
 _atom_site_occupancy
  Lu  Lu0  1  0.00000000  0.00000000  0.00000000  1
  Li  Li1  1  0.50000000  0.50000000  0.50000000  1
  Li  Li2  1  0.50000000  0.50000000  0.00000000  1
  Li  Li3  1  0.50000000  0.00000000  0.50000000  1
  Cu  Cu4  1  0.00000000  0.50000000  0.50000000  1
  Cu  Cu5  1  0.85717496  0.13784915  0.99944963  1
  Ti  Ti6  1  0.64993506  0.13422512  0.18929414  1
  Ti  Ti7  1  0.98981347  0.74249885  0.69308906  1
  Ti  Ti8  1  0.32031315  0.99908024  0.69475158  1
  As  As9  1  0.25743072  0.60614159  0.74015223  1
  As  As10  1  0.49817757  0.68053207  0.51577300  1
  As  As11  1  0.39978031  0.01407914  0.33490284  1
  As  As12  1  0.04888474  0.98132614  0.65852912  1
  As  As13  1  0.32482669  0.93532947  0.81628059  1
  As  As14  1  0.99476450  0.62789381  0.39158319  1
