# generated using pymatgen
data_Li2P5N5F2
_symmetry_space_group_name_H-M   'P 1'
_cell_length_a   7.83861801
_cell_length_b   7.48689561
_cell_length_c   8.48590022
_cell_angle_alpha   92.12245089
_cell_angle_beta   91.06993889
_cell_angle_gamma   92.46058074
_symmetry_Int_Tables_number   1
_chemical_formula_structural   Li2P5N5F2
_chemical_formula_sum   'Li2 P5 N5 F2'
_cell_volume   497.10837970
_cell_formula_units_Z   1
loop_
 _symmetry_equiv_pos_site_id
 _symmetry_equiv_pos_as_xyz
  1  'x, y, z'
loop_
 _atom_site_type_symbol
 _atom_site_label
 _atom_site_symmetry_multiplicity
 _atom_site_fract_x
 _atom_site_fract_y
 _atom_site_fract_z
 _atom_site_occupancy
  P  P0  1  0.12500000  0.00000000  0.25000000  1
  P  P1  1  0.00000000  0.00000000  0.00000000  1
  P  P2  1  0.37500000  0.00000000  0.25000000  1
  P  P3  1  0.25000000  0.25000000  0.25000000  1
  P  P4  1  0.00000000  0.25000000  0.12500000  1
  Li  Li5  1  0.77096183  0.20140169  0.64726765  1
  Li  Li6  1  0.30581812  0.09963888  0.34476554  1
  F  F7  1  0.58557036  0.47822236  0.48147431  1
  F  F8  1  0.34589770  0.59104446  0.14396661  1
  N  N9  1  0.41105995  0.54859708  0.36412476  1
  N  N10  1  0.60232591  0.04256850  0.10007315  1
  N  N11  1  0.25550699  0.50192178  0.94324256  1
  N  N12  1  0.69301388  0.52776234  0.70849869  1
  N  N13  1  0.38881797  0.97026035  0.45635090  1
