# generated using pymatgen
data_Li2Sb4Mo2P3
_symmetry_space_group_name_H-M   'P 1'
_cell_length_a   5.49427736
_cell_length_b   5.65087299
_cell_length_c   6.98811235
_cell_angle_alpha   97.80342382
_cell_angle_beta   95.38767283
_cell_angle_gamma   98.40858018
_symmetry_Int_Tables_number   1
_chemical_formula_structural   Li2Sb4Mo2P3
_chemical_formula_sum   'Li2 Sb4 Mo2 P3'
_cell_volume   211.20638035
_cell_formula_units_Z   1
loop_
 _symmetry_equiv_pos_site_id
 _symmetry_equiv_pos_as_xyz
  1  'x, y, z'
loop_
 _atom_site_type_symbol
 _atom_site_label
 _atom_site_symmetry_multiplicity
 _atom_site_fract_x
 _atom_site_fract_y
 _atom_site_fract_z
 _atom_site_occupancy
  Sb  Sb0  1  0.00000000  0.00000000  0.00000000  1
  Sb  Sb1  1  0.33300000  0.66700000  0.25000000  1
  Sb  Sb2  1  0.66700000  0.33300000  0.50000000  1
  Sb  Sb3  1  0.00000000  0.00000000  0.75000000  1
  P  P4  1  0.70272149  0.16370017  0.69994448  1
  P  P5  1  0.66299403  0.89164696  0.61206559  1
  P  P6  1  0.81493915  0.09667424  0.33954131  1
  Mo  Mo7  1  0.10391417  0.04922087  0.44819197  1
  Mo  Mo8  1  0.44035453  0.59035472  0.46712302  1
  Li  Li9  1  0.27042037  0.28666469  0.20745260  1
  Li  Li10  1  0.09090466  0.88830392  0.45209885  1
