# generated using pymatgen
data_LiSe3Br2O3
_symmetry_space_group_name_H-M   'P 1'
_cell_length_a   7.61114290
_cell_length_b   8.30321394
_cell_length_c   8.59168110
_cell_angle_alpha   90.25480231
_cell_angle_beta   91.21227200
_cell_angle_gamma   90.29130708
_symmetry_Int_Tables_number   1
_chemical_formula_structural   LiSe3Br2O3
_chemical_formula_sum   'Li1 Se3 Br2 O3'
_cell_volume   542.83384237
_cell_formula_units_Z   1
loop_
 _symmetry_equiv_pos_site_id
 _symmetry_equiv_pos_as_xyz
  1  'x, y, z'
loop_
 _atom_site_type_symbol
 _atom_site_label
 _atom_site_symmetry_multiplicity
 _atom_site_fract_x
 _atom_site_fract_y
 _atom_site_fract_z
 _atom_site_occupancy
  Li  Li0  1  0.12500000  0.00000000  0.25000000  1
  Br  Br1  1  0.00000000  0.00000000  0.00000000  1
  Br  Br2  1  0.37500000  0.00000000  0.25000000  1
  Se  Se3  1  0.25000000  0.25000000  0.25000000  1
  Se  Se4  1  0.00000000  0.25000000  0.12500000  1
  Se  Se5  1  0.99895428  0.15851974  0.67846347  1
  O  O6  1  0.38115375  0.06493860  0.88802182  1
  O  O7  1  0.51696883  0.68332564  0.49873316  1
  O  O8  1  0.21430646  0.93341246  0.31517063  1
