# generated using pymatgen
data_Li2MnSb4P3
_symmetry_space_group_name_H-M   'P 1'
_cell_length_a   4.58864795
_cell_length_b   4.85492920
_cell_length_c   6.37759916
_cell_angle_alpha   101.81843481
_cell_angle_beta   93.82582990
_cell_angle_gamma   102.03394230
_symmetry_Int_Tables_number   1
_chemical_formula_structural   Li2MnSb4P3
_chemical_formula_sum   'Li2 Mn1 Sb4 P3'
_cell_volume   135.11798996
_cell_formula_units_Z   1
loop_
 _symmetry_equiv_pos_site_id
 _symmetry_equiv_pos_as_xyz
  1  'x, y, z'
loop_
 _atom_site_type_symbol
 _atom_site_label
 _atom_site_symmetry_multiplicity
 _atom_site_fract_x
 _atom_site_fract_y
 _atom_site_fract_z
 _atom_site_occupancy
  Mn  Mn0  1  0.12500000  0.00000000  0.25000000  1
  Sb  Sb1  1  0.00000000  0.00000000  0.00000000  1
  Sb  Sb2  1  0.37500000  0.00000000  0.25000000  1
  Sb  Sb3  1  0.25000000  0.25000000  0.25000000  1
  Sb  Sb4  1  0.00000000  0.25000000  0.12500000  1
  P  P5  1  0.58846214  0.95985683  0.18767220  1
  P  P6  1  0.49260195  0.08780539  0.03623416  1
  P  P7  1  0.46378252  0.59450048  0.09047490  1
  Li  Li8  1  0.82076997  0.47601702  0.88265537  1
  Li  Li9  1  0.73080668  0.31714723  0.19654319  1
