# generated using pymatgen
data_Li2Mn3Sb4P3
_symmetry_space_group_name_H-M   'P 1'
_cell_length_a   7.80649845
_cell_length_b   8.08094177
_cell_length_c   7.75090098
_cell_angle_alpha   90.00000000
_cell_angle_beta   90.00000000
_cell_angle_gamma   90.00000000
_symmetry_Int_Tables_number   1
_chemical_formula_structural   Li2Mn3Sb4P3
_chemical_formula_sum   'Li2 Mn3 Sb4 P3'
_cell_volume   488.95674759
_cell_formula_units_Z   1
loop_
 _symmetry_equiv_pos_site_id
 _symmetry_equiv_pos_as_xyz
  1  'x, y, z'
loop_
 _atom_site_type_symbol
 _atom_site_label
 _atom_site_symmetry_multiplicity
 _atom_site_fract_x
 _atom_site_fract_y
 _atom_site_fract_z
 _atom_site_occupancy
  Mn  Mn0  1  0.00000000  0.00000000  0.00000000  1
  Mn  Mn1  1  0.33300000  0.66700000  0.25000000  1
  Mn  Mn2  1  0.66700000  0.33300000  0.50000000  1
  Sb  Sb3  1  0.00000000  0.00000000  0.75000000  1
  Sb  Sb4  1  0.86201715  0.62888927  0.73601452  1
  Sb  Sb5  1  0.20489395  0.43380772  0.05864171  1
  Sb  Sb6  1  0.53927593  0.41939489  0.35055175  1
  P  P7  1  0.63834465  0.31091767  0.50231840  1
  P  P8  1  0.31103715  0.31675609  0.37537756  1
  P  P9  1  0.62913118  0.46381853  0.49425542  1
  Li  Li10  1  0.68656800  0.42422249  0.02235440  1
  Li  Li11  1  0.13147178  0.39191046  0.29575971  1
