# generated using pymatgen
data_LiMn2(Sb2P)2
_symmetry_space_group_name_H-M   'P 1'
_cell_length_a   5.33127623
_cell_length_b   5.72029668
_cell_length_c   6.51069371
_cell_angle_alpha   98.64272766
_cell_angle_beta   93.37825466
_cell_angle_gamma   98.22804422
_symmetry_Int_Tables_number   1
_chemical_formula_structural   LiMn2(Sb2P)2
_chemical_formula_sum   'Li1 Mn2 Sb4 P2'
_cell_volume   193.62043752
_cell_formula_units_Z   1
loop_
 _symmetry_equiv_pos_site_id
 _symmetry_equiv_pos_as_xyz
  1  'x, y, z'
loop_
 _atom_site_type_symbol
 _atom_site_label
 _atom_site_symmetry_multiplicity
 _atom_site_fract_x
 _atom_site_fract_y
 _atom_site_fract_z
 _atom_site_occupancy
  Mn  Mn0  1  0.12500000  0.12500000  0.12500000  1
  Mn  Mn1  1  0.50000000  0.50000000  0.50000000  1
  Sb  Sb2  1  0.25000000  0.25000000  0.25000000  1
  Sb  Sb3  1  0.75000000  0.75000000  0.75000000  1
  Sb  Sb4  1  0.85627707  0.60448864  0.44200114  1
  Sb  Sb5  1  0.38003406  0.80895973  0.12775950  1
  P  P6  1  0.80249447  0.66136630  0.92194337  1
  P  P7  1  0.92536168  0.78916186  0.01220065  1
  Li  Li8  1  0.21554910  0.28017925  0.29787500  1
