# generated using pymatgen
data_Li2P3N
_symmetry_space_group_name_H-M   'P 1'
_cell_length_a   4.56318092
_cell_length_b   4.78660004
_cell_length_c   5.42305329
_cell_angle_alpha   100.47169521
_cell_angle_beta   93.30877371
_cell_angle_gamma   98.30727604
_symmetry_Int_Tables_number   1
_chemical_formula_structural   Li2P3N
_chemical_formula_sum   'Li2 P3 N1'
_cell_volume   114.82597421
_cell_formula_units_Z   1
loop_
 _symmetry_equiv_pos_site_id
 _symmetry_equiv_pos_as_xyz
  1  'x, y, z'
loop_
 _atom_site_type_symbol
 _atom_site_label
 _atom_site_symmetry_multiplicity
 _atom_site_fract_x
 _atom_site_fract_y
 _atom_site_fract_z
 _atom_site_occupancy
  P  P0  1  0.12500000  0.12500000  0.12500000  1
  P  P1  1  0.50000000  0.50000000  0.50000000  1
  P  P2  1  0.25000000  0.25000000  0.25000000  1
  Li  Li3  1  0.75000000  0.75000000  0.75000000  1
  Li  Li4  1  0.94007841  0.22351460  0.08802015  1
  N  N5  1  0.73422759  0.73073063  0.07286576  1
