# generated using pymatgen
data_Li2Sb2Mo2P3N5
_symmetry_space_group_name_H-M   'P 1'
_cell_length_a   5.80140403
_cell_length_b   6.19664025
_cell_length_c   6.72292022
_cell_angle_alpha   97.85041922
_cell_angle_beta   89.99673704
_cell_angle_gamma   97.51107344
_symmetry_Int_Tables_number   1
_chemical_formula_structural   Li2Sb2Mo2P3N5
_chemical_formula_sum   'Li2 Sb2 Mo2 P3 N5'
_cell_volume   237.32536344
_cell_formula_units_Z   1
loop_
 _symmetry_equiv_pos_site_id
 _symmetry_equiv_pos_as_xyz
  1  'x, y, z'
loop_
 _atom_site_type_symbol
 _atom_site_label
 _atom_site_symmetry_multiplicity
 _atom_site_fract_x
 _atom_site_fract_y
 _atom_site_fract_z
 _atom_site_occupancy
  N  N0  1  0.12500000  0.00000000  0.25000000  1
  N  N1  1  0.00000000  0.00000000  0.00000000  1
  N  N2  1  0.37500000  0.00000000  0.25000000  1
  N  N3  1  0.25000000  0.25000000  0.25000000  1
  N  N4  1  0.00000000  0.25000000  0.12500000  1
  Sb  Sb5  1  0.28932153  0.44695831  0.46216590  1
  Sb  Sb6  1  0.42814042  0.87983926  0.17775211  1
  P  P7  1  0.51452167  0.95141683  0.34284413  1
  P  P8  1  0.49104336  0.05844239  0.13231648  1
  P  P9  1  0.34641657  0.93794674  0.13953327  1
  Mo  Mo10  1  0.42896296  0.09381859  0.25583724  1
  Mo  Mo11  1  0.70774461  0.59436651  0.30911588  1
  Li  Li12  1  0.75688463  0.93801434  0.06048160  1
  Li  Li13  1  0.82061477  0.59416032  0.89940645  1
