# generated using pymatgen
data_Li2Ti(I2O)2
_symmetry_space_group_name_H-M   'P 1'
_cell_length_a   8.59425037
_cell_length_b   8.47803003
_cell_length_c   7.24480309
_cell_angle_alpha   90.07964807
_cell_angle_beta   90.37894133
_cell_angle_gamma   90.09105901
_symmetry_Int_Tables_number   1
_chemical_formula_structural   Li2Ti(I2O)2
_chemical_formula_sum   'Li2 Ti1 I4 O2'
_cell_volume   527.86037885
_cell_formula_units_Z   1
loop_
 _symmetry_equiv_pos_site_id
 _symmetry_equiv_pos_as_xyz
  1  'x, y, z'
loop_
 _atom_site_type_symbol
 _atom_site_label
 _atom_site_symmetry_multiplicity
 _atom_site_fract_x
 _atom_site_fract_y
 _atom_site_fract_z
 _atom_site_occupancy
  I  I0  1  0.12500000  0.00000000  0.25000000  1
  I  I1  1  0.00000000  0.00000000  0.00000000  1
  I  I2  1  0.37500000  0.00000000  0.25000000  1
  I  I3  1  0.25000000  0.25000000  0.25000000  1
  Li  Li4  1  0.00000000  0.25000000  0.12500000  1
  Li  Li5  1  0.80224953  0.82123605  0.29393654  1
  Ti  Ti6  1  0.78201595  0.09312657  0.59177955  1
  O  O7  1  0.25247251  0.76603484  0.06290854  1
  O  O8  1  0.34473169  0.80464088  0.29074820  1
