# generated using pymatgen
data_Li2Mn2Ni3P3W
_symmetry_space_group_name_H-M   'P 1'
_cell_length_a   6.57063885
_cell_length_b   6.65206113
_cell_length_c   7.25734552
_cell_angle_alpha   93.13768438
_cell_angle_beta   91.69479532
_cell_angle_gamma   92.92541643
_symmetry_Int_Tables_number   1
_chemical_formula_structural   Li2Mn2Ni3P3W
_chemical_formula_sum   'Li2 Mn2 Ni3 P3 W1'
_cell_volume   316.15119866
_cell_formula_units_Z   1
loop_
 _symmetry_equiv_pos_site_id
 _symmetry_equiv_pos_as_xyz
  1  'x, y, z'
loop_
 _atom_site_type_symbol
 _atom_site_label
 _atom_site_symmetry_multiplicity
 _atom_site_fract_x
 _atom_site_fract_y
 _atom_site_fract_z
 _atom_site_occupancy
  Ni  Ni0  1  0.00000000  0.00000000  0.00000000  1
  Ni  Ni1  1  0.50000000  0.50000000  0.50000000  1
  Ni  Ni2  1  0.25000000  0.25000000  0.25000000  1
  Mn  Mn3  1  0.75000000  0.25000000  0.00000000  1
  Mn  Mn4  1  0.25000000  0.75000000  0.50000000  1
  W  W5  1  0.68439681  0.39935632  0.51779305  1
  P  P6  1  0.80532240  0.34123910  0.20761446  1
  P  P7  1  0.88008725  0.21501652  0.97306421  1
  P  P8  1  0.58525009  0.79240315  0.09966851  1
  Li  Li9  1  0.07023962  0.21430744  0.38691308  1
  Li  Li10  1  0.76512193  0.32053635  0.08899070  1
