# generated using pymatgen
data_Li3Ti(IO)4
_symmetry_space_group_name_H-M   'P 1'
_cell_length_a   8.68617928
_cell_length_b   8.55888127
_cell_length_c   8.03395397
_cell_angle_alpha   90.00000000
_cell_angle_beta   90.00000000
_cell_angle_gamma   90.00000000
_symmetry_Int_Tables_number   1
_chemical_formula_structural   Li3Ti(IO)4
_chemical_formula_sum   'Li3 Ti1 I4 O4'
_cell_volume   597.27609074
_cell_formula_units_Z   1
loop_
 _symmetry_equiv_pos_site_id
 _symmetry_equiv_pos_as_xyz
  1  'x, y, z'
loop_
 _atom_site_type_symbol
 _atom_site_label
 _atom_site_symmetry_multiplicity
 _atom_site_fract_x
 _atom_site_fract_y
 _atom_site_fract_z
 _atom_site_occupancy
  I  I0  1  0.00000000  0.00000000  0.00000000  1
  I  I1  1  0.50000000  0.50000000  0.50000000  1
  I  I2  1  0.25000000  0.25000000  0.25000000  1
  I  I3  1  0.75000000  0.25000000  0.00000000  1
  Li  Li4  1  0.25000000  0.75000000  0.50000000  1
  Li  Li5  1  0.60651753  0.05722402  0.83029460  1
  Li  Li6  1  0.38711058  0.24372894  0.08406461  1
  Ti  Ti7  1  0.19919869  0.13622130  0.82374353  1
  O  O8  1  0.21251630  0.82656912  0.70106329  1
  O  O9  1  0.38764985  0.70206095  0.59717463  1
  O  O10  1  0.43453719  0.82939965  0.41038995  1
  O  O11  1  0.65974100  0.29492143  0.81492761  1
