# generated using pymatgen
data_Li2Mn2Sb2Mo2P3
_symmetry_space_group_name_H-M   'P 1'
_cell_length_a   6.39087355
_cell_length_b   6.61302585
_cell_length_c   6.99291000
_cell_angle_alpha   95.04339500
_cell_angle_beta   90.90210239
_cell_angle_gamma   94.96376265
_symmetry_Int_Tables_number   1
_chemical_formula_structural   Li2Mn2Sb2Mo2P3
_chemical_formula_sum   'Li2 Mn2 Sb2 Mo2 P3'
_cell_volume   293.21192011
_cell_formula_units_Z   1
loop_
 _symmetry_equiv_pos_site_id
 _symmetry_equiv_pos_as_xyz
  1  'x, y, z'
loop_
 _atom_site_type_symbol
 _atom_site_label
 _atom_site_symmetry_multiplicity
 _atom_site_fract_x
 _atom_site_fract_y
 _atom_site_fract_z
 _atom_site_occupancy
  Mn  Mn0  1  0.00000000  0.00000000  0.00000000  1
  Mn  Mn1  1  0.50000000  0.50000000  0.50000000  1
  Sb  Sb2  1  0.50000000  0.50000000  0.00000000  1
  Sb  Sb3  1  0.50000000  0.00000000  0.50000000  1
  P  P4  1  0.00000000  0.50000000  0.50000000  1
  P  P5  1  0.58188081  0.28339924  0.94087345  1
  P  P6  1  0.00105245  0.47303849  0.98615701  1
  Mo  Mo7  1  0.80769292  0.73837353  0.32684409  1
  Mo  Mo8  1  0.89918356  0.07855767  0.69159110  1
  Li  Li9  1  0.18954334  0.61080641  0.25397159  1
  Li  Li10  1  0.55690854  0.96032454  0.14835673  1
