# generated using pymatgen
data_Li2Ti2Cu2P5O
_symmetry_space_group_name_H-M   'P 1'
_cell_length_a   7.07317397
_cell_length_b   7.06299567
_cell_length_c   7.30417844
_cell_angle_alpha   93.71164503
_cell_angle_beta   95.71981783
_cell_angle_gamma   94.74731627
_symmetry_Int_Tables_number   1
_chemical_formula_structural   Li2Ti2Cu2P5O
_chemical_formula_sum   'Li2 Ti2 Cu2 P5 O1'
_cell_volume   360.85688544
_cell_formula_units_Z   1
loop_
 _symmetry_equiv_pos_site_id
 _symmetry_equiv_pos_as_xyz
  1  'x, y, z'
loop_
 _atom_site_type_symbol
 _atom_site_label
 _atom_site_symmetry_multiplicity
 _atom_site_fract_x
 _atom_site_fract_y
 _atom_site_fract_z
 _atom_site_occupancy
  P  P0  1  0.00000000  0.00000000  0.00000000  1
  P  P1  1  0.50000000  0.50000000  0.50000000  1
  P  P2  1  0.25000000  0.25000000  0.25000000  1
  P  P3  1  0.75000000  0.25000000  0.00000000  1
  P  P4  1  0.25000000  0.75000000  0.50000000  1
  Li  Li5  1  0.12154070  0.29853344  0.20371720  1
  Li  Li6  1  0.64177202  0.30184022  0.00408750  1
  Cu  Cu7  1  0.26302016  0.02417908  0.41858466  1
  Cu  Cu8  1  0.84123264  0.17425145  0.19384511  1
  Ti  Ti9  1  0.96492073  0.96268687  0.16303787  1
  Ti  Ti10  1  0.92930256  0.98136201  0.74445392  1
  O  O11  1  0.50541560  0.52739637  0.62033645  1
