# generated using pymatgen
data_Li3(TiP3)2
_symmetry_space_group_name_H-M   'P 1'
_cell_length_a   7.16917654
_cell_length_b   7.12124351
_cell_length_c   7.45919491
_cell_angle_alpha   94.52041066
_cell_angle_beta   96.50311002
_cell_angle_gamma   95.80129836
_symmetry_Int_Tables_number   1
_chemical_formula_structural   Li3(TiP3)2
_chemical_formula_sum   'Li3 Ti2 P6'
_cell_volume   374.85684017
_cell_formula_units_Z   1
loop_
 _symmetry_equiv_pos_site_id
 _symmetry_equiv_pos_as_xyz
  1  'x, y, z'
loop_
 _atom_site_type_symbol
 _atom_site_label
 _atom_site_symmetry_multiplicity
 _atom_site_fract_x
 _atom_site_fract_y
 _atom_site_fract_z
 _atom_site_occupancy
  P  P0  1  0.00000000  0.00000000  0.00000000  1
  P  P1  1  0.33300000  0.66700000  0.25000000  1
  P  P2  1  0.66700000  0.33300000  0.50000000  1
  P  P3  1  0.00000000  0.00000000  0.75000000  1
  P  P4  1  0.30832467  0.37914335  0.25978563  1
  P  P5  1  0.87038304  0.35461070  0.78941959  1
  Li  Li6  1  0.50701225  0.65820533  0.28455341  1
  Li  Li7  1  0.23470532  0.65525940  0.34286549  1
  Li  Li8  1  0.46640643  0.59179183  0.89719207  1
  Ti  Ti9  1  0.71171482  0.79790306  0.45979534  1
  Ti  Ti10  1  0.40839920  0.30068022  0.25888793  1
