# generated using pymatgen
data_Li2Mn2Sb3Mo2P3
_symmetry_space_group_name_H-M   'P 1'
_cell_length_a   4.55048618
_cell_length_b   4.78558810
_cell_length_c   6.21802979
_cell_angle_alpha   102.15509639
_cell_angle_beta   92.99112187
_cell_angle_gamma   102.20357681
_symmetry_Int_Tables_number   1
_chemical_formula_structural   Li2Mn2Sb3Mo2P3
_chemical_formula_sum   'Li2 Mn2 Sb3 Mo2 P3'
_cell_volume   128.71737501
_cell_formula_units_Z   1
loop_
 _symmetry_equiv_pos_site_id
 _symmetry_equiv_pos_as_xyz
  1  'x, y, z'
loop_
 _atom_site_type_symbol
 _atom_site_label
 _atom_site_symmetry_multiplicity
 _atom_site_fract_x
 _atom_site_fract_y
 _atom_site_fract_z
 _atom_site_occupancy
  Mn  Mn0  1  0.00000000  0.00000000  0.00000000  1
  Mn  Mn1  1  0.50000000  0.50000000  0.50000000  1
  Sb  Sb2  1  0.25000000  0.25000000  0.25000000  1
  Sb  Sb3  1  0.75000000  0.25000000  0.00000000  1
  Sb  Sb4  1  0.25000000  0.75000000  0.50000000  1
  P  P5  1  0.40700018  0.23752438  0.14619225  1
  P  P6  1  0.99155502  0.71818138  0.47443987  1
  P  P7  1  0.94828760  0.23013059  0.70692448  1
  Mo  Mo8  1  0.01751144  0.17919846  0.91331987  1
  Mo  Mo9  1  0.29494503  0.63337801  0.57084769  1
  Li  Li10  1  0.13972267  0.93063447  0.99775683  1
  Li  Li11  1  0.17844005  0.63309635  0.41329332  1
