# generated using pymatgen
data_LiSb4Mo2P3
_symmetry_space_group_name_H-M   'P 1'
_cell_length_a   4.71134473
_cell_length_b   4.89766361
_cell_length_c   6.09642265
_cell_angle_alpha   100.34654281
_cell_angle_beta   91.88594556
_cell_angle_gamma   100.16466294
_symmetry_Int_Tables_number   1
_chemical_formula_structural   LiSb4Mo2P3
_chemical_formula_sum   'Li1 Sb4 Mo2 P3'
_cell_volume   135.90946635
_cell_formula_units_Z   1
loop_
 _symmetry_equiv_pos_site_id
 _symmetry_equiv_pos_as_xyz
  1  'x, y, z'
loop_
 _atom_site_type_symbol
 _atom_site_label
 _atom_site_symmetry_multiplicity
 _atom_site_fract_x
 _atom_site_fract_y
 _atom_site_fract_z
 _atom_site_occupancy
  Sb  Sb0  1  0.00000000  0.00000000  0.00000000  1
  Sb  Sb1  1  0.50000000  0.50000000  0.50000000  1
  Sb  Sb2  1  0.25000000  0.25000000  0.25000000  1
  Sb  Sb3  1  0.75000000  0.25000000  0.00000000  1
  P  P4  1  0.25000000  0.75000000  0.50000000  1
  P  P5  1  0.35557859  0.73594728  0.41793895  1
  P  P6  1  0.50426079  0.51088884  0.59157934  1
  Mo  Mo7  1  0.01450262  0.64513579  0.38959661  1
  Mo  Mo8  1  0.17960341  0.22587480  0.77066294  1
  Li  Li9  1  0.98658658  0.51392194  0.99492789  1
