# generated using pymatgen
data_LiCuAs3I2
_symmetry_space_group_name_H-M   'P 1'
_cell_length_a   8.23892404
_cell_length_b   8.26218046
_cell_length_c   7.76364537
_cell_angle_alpha   90.21959711
_cell_angle_beta   91.04477638
_cell_angle_gamma   90.25105814
_symmetry_Int_Tables_number   1
_chemical_formula_structural   LiCuAs3I2
_chemical_formula_sum   'Li2 Cu2 As6 I4'
_cell_volume   528.38583102
_cell_formula_units_Z   2
loop_
 _symmetry_equiv_pos_site_id
 _symmetry_equiv_pos_as_xyz
  1  'x, y, z'
loop_
 _atom_site_type_symbol
 _atom_site_label
 _atom_site_symmetry_multiplicity
 _atom_site_fract_x
 _atom_site_fract_y
 _atom_site_fract_z
 _atom_site_occupancy
  I  I0  1  0.12500000  0.00000000  0.25000000  1
  I  I1  1  0.00000000  0.00000000  0.00000000  1
  I  I2  1  0.37500000  0.00000000  0.25000000  1
  I  I3  1  0.25000000  0.25000000  0.25000000  1
  As  As4  1  0.00000000  0.25000000  0.12500000  1
  As  As5  1  0.20309231  0.56806584  0.04825280  1
  As  As6  1  0.09568956  0.51120771  0.90446064  1
  As  As7  1  0.05024254  0.67629192  0.94064909  1
  As  As8  1  0.38721156  0.24789275  0.02133974  1
  As  As9  1  0.55265081  0.58071729  0.35312260  1
  Li  Li10  1  0.70656972  0.03602701  0.87782761  1
  Li  Li11  1  0.24583470  0.28011774  0.21040959  1
  Cu  Cu12  1  0.03426367  0.01168701  0.66068214  1
  Cu  Cu13  1  0.27566376  0.67490895  0.85146333  1
