# generated using pymatgen
data_Li2Ti(PO)3
_symmetry_space_group_name_H-M   'P 1'
_cell_length_a   8.62177308
_cell_length_b   8.45141077
_cell_length_c   7.13606629
_cell_angle_alpha   90.09083340
_cell_angle_beta   90.43215772
_cell_angle_gamma   90.10384683
_symmetry_Int_Tables_number   1
_chemical_formula_structural   Li2Ti(PO)3
_chemical_formula_sum   'Li2 Ti1 P3 O3'
_cell_volume   519.96133819
_cell_formula_units_Z   1
loop_
 _symmetry_equiv_pos_site_id
 _symmetry_equiv_pos_as_xyz
  1  'x, y, z'
loop_
 _atom_site_type_symbol
 _atom_site_label
 _atom_site_symmetry_multiplicity
 _atom_site_fract_x
 _atom_site_fract_y
 _atom_site_fract_z
 _atom_site_occupancy
  P  P0  1  0.12500000  0.00000000  0.25000000  1
  P  P1  1  0.00000000  0.00000000  0.00000000  1
  P  P2  1  0.37500000  0.00000000  0.25000000  1
  Li  Li3  1  0.25000000  0.25000000  0.25000000  1
  Li  Li4  1  0.00000000  0.25000000  0.12500000  1
  Ti  Ti5  1  0.06454704  0.24756662  0.23847609  1
  O  O6  1  0.61455113  0.64689534  0.97179988  1
  O  O7  1  0.62883878  0.06760414  0.42425606  1
  O  O8  1  0.47702472  0.58720776  0.94056276  1
