# generated using pymatgen
data_Li3Mn(O2F)2
_symmetry_space_group_name_H-M   'P 1'
_cell_length_a   3.46229430
_cell_length_b   3.61943931
_cell_length_c   5.29542959
_cell_angle_alpha   96.08303140
_cell_angle_beta   98.58875380
_cell_angle_gamma   96.51417781
_symmetry_Int_Tables_number   1
_chemical_formula_structural   Li3Mn(O2F)2
_chemical_formula_sum   'Li3 Mn1 O4 F2'
_cell_volume   64.67995108
_cell_formula_units_Z   1
loop_
 _symmetry_equiv_pos_site_id
 _symmetry_equiv_pos_as_xyz
  1  'x, y, z'
loop_
 _atom_site_type_symbol
 _atom_site_label
 _atom_site_symmetry_multiplicity
 _atom_site_fract_x
 _atom_site_fract_y
 _atom_site_fract_z
 _atom_site_occupancy
  Mn  Mn0  1  0.12500000  0.12500000  0.12500000  1
  F  F1  1  0.50000000  0.50000000  0.50000000  1
  F  F2  1  0.25000000  0.25000000  0.25000000  1
  O  O3  1  0.75000000  0.75000000  0.75000000  1
  O  O4  1  0.31377752  0.58767390  0.44531566  1
  O  O5  1  0.03461311  0.24871414  0.12191841  1
  O  O6  1  0.12189151  0.32156073  0.86738354  1
  Li  Li7  1  0.41863954  0.92100900  0.30500728  1
  Li  Li8  1  0.24948732  0.67096390  0.38644209  1
  Li  Li9  1  0.76634423  0.70529886  0.58641563  1
