# generated using pymatgen
data_Li2MnMo2P3
_symmetry_space_group_name_H-M   'P 1'
_cell_length_a   3.48083343
_cell_length_b   3.66864148
_cell_length_c   6.50433010
_cell_angle_alpha   102.80883988
_cell_angle_beta   99.94523722
_cell_angle_gamma   103.84996865
_symmetry_Int_Tables_number   1
_chemical_formula_structural   Li2MnMo2P3
_chemical_formula_sum   'Li2 Mn1 Mo2 P3'
_cell_volume   76.36934515
_cell_formula_units_Z   1
loop_
 _symmetry_equiv_pos_site_id
 _symmetry_equiv_pos_as_xyz
  1  'x, y, z'
loop_
 _atom_site_type_symbol
 _atom_site_label
 _atom_site_symmetry_multiplicity
 _atom_site_fract_x
 _atom_site_fract_y
 _atom_site_fract_z
 _atom_site_occupancy
  Mn  Mn0  1  0.00000000  0.00000000  0.00000000  1
  P  P1  1  0.33300000  0.66700000  0.25000000  1
  P  P2  1  0.66700000  0.33300000  0.50000000  1
  P  P3  1  0.00000000  0.00000000  0.75000000  1
  Mo  Mo4  1  0.39077010  0.25636005  0.27262829  1
  Mo  Mo5  1  0.58502688  0.11596657  0.31071513  1
  Li  Li6  1  0.10203545  0.87926056  0.41333869  1
  Li  Li7  1  0.14903468  0.34565535  0.58725318  1
