# generated using pymatgen
data_LiMn3Sb4Mo2P3
_symmetry_space_group_name_H-M   'P 1'
_cell_length_a   6.62891115
_cell_length_b   6.61241110
_cell_length_c   6.93772842
_cell_angle_alpha   92.63205407
_cell_angle_beta   89.90303959
_cell_angle_gamma   92.31383834
_symmetry_Int_Tables_number   1
_chemical_formula_structural   LiMn3Sb4Mo2P3
_chemical_formula_sum   'Li1 Mn3 Sb4 Mo2 P3'
_cell_volume   303.53354266
_cell_formula_units_Z   1
loop_
 _symmetry_equiv_pos_site_id
 _symmetry_equiv_pos_as_xyz
  1  'x, y, z'
loop_
 _atom_site_type_symbol
 _atom_site_label
 _atom_site_symmetry_multiplicity
 _atom_site_fract_x
 _atom_site_fract_y
 _atom_site_fract_z
 _atom_site_occupancy
  Mn  Mn0  1  0.00000000  0.00000000  0.00000000  1
  Mn  Mn1  1  0.50000000  0.50000000  0.50000000  1
  Mn  Mn2  1  0.50000000  0.50000000  0.00000000  1
  Sb  Sb3  1  0.50000000  0.00000000  0.50000000  1
  Sb  Sb4  1  0.00000000  0.50000000  0.50000000  1
  Sb  Sb5  1  0.20865543  0.27444842  0.38266959  1
  Sb  Sb6  1  0.37866769  0.59338653  0.51153919  1
  P  P7  1  0.96591598  0.48410267  0.17213575  1
  P  P8  1  0.61768574  0.99299571  0.48948436  1
  P  P9  1  0.41882478  0.14470697  0.93889705  1
  Mo  Mo10  1  0.83445313  0.60445814  0.56396739  1
  Mo  Mo11  1  0.02209891  0.19881539  0.26526420  1
  Li  Li12  1  0.25929227  0.70664088  0.27345214  1
