# generated using pymatgen
data_Li4LuNi2P4N5
_symmetry_space_group_name_H-M   'P 1'
_cell_length_a   7.43249497
_cell_length_b   7.05219556
_cell_length_c   8.86811598
_cell_angle_alpha   93.49759716
_cell_angle_beta   91.23654746
_cell_angle_gamma   94.05678930
_symmetry_Int_Tables_number   1
_chemical_formula_structural   Li4LuNi2P4N5
_chemical_formula_sum   'Li4 Lu1 Ni2 P4 N5'
_cell_volume   462.64105756
_cell_formula_units_Z   1
loop_
 _symmetry_equiv_pos_site_id
 _symmetry_equiv_pos_as_xyz
  1  'x, y, z'
loop_
 _atom_site_type_symbol
 _atom_site_label
 _atom_site_symmetry_multiplicity
 _atom_site_fract_x
 _atom_site_fract_y
 _atom_site_fract_z
 _atom_site_occupancy
  P  P0  1  0.12500000  0.00000000  0.25000000  1
  P  P1  1  0.00000000  0.00000000  0.00000000  1
  P  P2  1  0.37500000  0.00000000  0.25000000  1
  P  P3  1  0.25000000  0.25000000  0.25000000  1
  Lu  Lu4  1  0.00000000  0.25000000  0.12500000  1
  Li  Li5  1  0.40270413  0.40152199  0.16469275  1
  Li  Li6  1  0.43541529  0.37361588  0.31437900  1
  Li  Li7  1  0.67062805  0.33428745  0.01164378  1
  Li  Li8  1  0.15505904  0.31553850  0.48039535  1
  Ni  Ni9  1  0.49475352  0.05193482  0.97017552  1
  Ni  Ni10  1  0.49317501  0.52494157  0.70691032  1
  N  N11  1  0.78383465  0.68584584  0.40738256  1
  N  N12  1  0.45559016  0.73114876  0.10698669  1
  N  N13  1  0.71823161  0.57707152  0.41354849  1
  N  N14  1  0.65696567  0.35946482  0.67512359  1
  N  N15  1  0.96549557  0.94013344  0.46173007  1
