# generated using pymatgen
data_Li2Zr3Ti2I5Cl2
_symmetry_space_group_name_H-M   'P 1'
_cell_length_a   8.00528253
_cell_length_b   7.96829820
_cell_length_c   8.95425650
_cell_angle_alpha   93.79127088
_cell_angle_beta   97.22212443
_cell_angle_gamma   93.63429222
_symmetry_Int_Tables_number   1
_chemical_formula_structural   Li2Zr3Ti2I5Cl2
_chemical_formula_sum   'Li2 Zr3 Ti2 I5 Cl2'
_cell_volume   563.92158467
_cell_formula_units_Z   1
loop_
 _symmetry_equiv_pos_site_id
 _symmetry_equiv_pos_as_xyz
  1  'x, y, z'
loop_
 _atom_site_type_symbol
 _atom_site_label
 _atom_site_symmetry_multiplicity
 _atom_site_fract_x
 _atom_site_fract_y
 _atom_site_fract_z
 _atom_site_occupancy
  I  I0  1  0.12500000  0.00000000  0.25000000  1
  I  I1  1  0.00000000  0.00000000  0.00000000  1
  I  I2  1  0.37500000  0.00000000  0.25000000  1
  I  I3  1  0.25000000  0.25000000  0.25000000  1
  I  I4  1  0.00000000  0.25000000  0.12500000  1
  Li  Li5  1  0.30002339  0.00000097  0.90659996  1
  Li  Li6  1  0.28502776  0.93475894  0.00347136  1
  Cl  Cl7  1  0.23025119  0.33988213  0.23697652  1
  Cl  Cl8  1  0.01003919  0.38031761  0.40360605  1
  Ti  Ti9  1  0.96920482  0.31821233  0.58639456  1
  Ti  Ti10  1  0.84213537  0.29263579  0.91415109  1
  Zr  Zr11  1  0.91033854  0.75169570  0.78654404  1
  Zr  Zr12  1  0.68087976  0.10034673  0.20991107  1
  Zr  Zr13  1  0.98895479  0.90017288  0.38402197  1
