# generated using pymatgen
data_LiTiCuP3F
_symmetry_space_group_name_H-M   'P 1'
_cell_length_a   8.02417550
_cell_length_b   7.97718857
_cell_length_c   7.83532865
_cell_angle_alpha   90.20905740
_cell_angle_beta   90.99463164
_cell_angle_gamma   90.23900844
_symmetry_Int_Tables_number   1
_chemical_formula_structural   LiTiCuP3F
_chemical_formula_sum   'Li2 Ti2 Cu2 P6 F2'
_cell_volume   501.45881075
_cell_formula_units_Z   2
loop_
 _symmetry_equiv_pos_site_id
 _symmetry_equiv_pos_as_xyz
  1  'x, y, z'
loop_
 _atom_site_type_symbol
 _atom_site_label
 _atom_site_symmetry_multiplicity
 _atom_site_fract_x
 _atom_site_fract_y
 _atom_site_fract_z
 _atom_site_occupancy
  P  P0  1  0.12500000  0.00000000  0.25000000  1
  P  P1  1  0.00000000  0.00000000  0.00000000  1
  P  P2  1  0.37500000  0.00000000  0.25000000  1
  P  P3  1  0.25000000  0.25000000  0.25000000  1
  P  P4  1  0.00000000  0.25000000  0.12500000  1
  P  P5  1  0.14490862  0.27903250  0.58314166  1
  Li  Li6  1  0.60703481  0.74293417  0.75628110  1
  Li  Li7  1  0.54573713  0.83434245  0.64883816  1
  Cu  Cu8  1  0.26370623  0.54853556  0.65273340  1
  Cu  Cu9  1  0.46361395  0.15905895  0.03792728  1
  F  F10  1  0.53459699  0.26264552  0.06351473  1
  F  F11  1  0.85089421  0.74873546  0.02023563  1
  Ti  Ti12  1  0.57085796  0.60434373  0.98935927  1
  Ti  Ti13  1  0.23121273  0.89535382  0.03873557  1
