# generated using pymatgen
data_Li4Cu2As6Se
_symmetry_space_group_name_H-M   'P 1'
_cell_length_a   6.25793100
_cell_length_b   6.23019517
_cell_length_c   7.80881338
_cell_angle_alpha   97.85034944
_cell_angle_beta   101.14632880
_cell_angle_gamma   97.45030822
_symmetry_Int_Tables_number   1
_chemical_formula_structural   Li4Cu2As6Se
_chemical_formula_sum   'Li4 Cu2 As6 Se1'
_cell_volume   292.06878572
_cell_formula_units_Z   1
loop_
 _symmetry_equiv_pos_site_id
 _symmetry_equiv_pos_as_xyz
  1  'x, y, z'
loop_
 _atom_site_type_symbol
 _atom_site_label
 _atom_site_symmetry_multiplicity
 _atom_site_fract_x
 _atom_site_fract_y
 _atom_site_fract_z
 _atom_site_occupancy
  Se  Se0  1  0.00000000  0.00000000  0.00000000  1
  As  As1  1  0.50000000  0.50000000  0.50000000  1
  As  As2  1  0.50000000  0.50000000  0.00000000  1
  As  As3  1  0.50000000  0.00000000  0.50000000  1
  As  As4  1  0.00000000  0.50000000  0.50000000  1
  As  As5  1  0.47387955  0.48637377  0.97584604  1
  As  As6  1  0.70934549  0.32380075  0.33442429  1
  Li  Li7  1  0.06555055  0.00914997  0.98419421  1
  Li  Li8  1  0.21176947  0.95224748  0.83845550  1
  Li  Li9  1  0.65222253  0.20531644  0.16106747  1
  Li  Li10  1  0.17412178  0.54032159  0.22100778  1
  Cu  Cu11  1  0.39630973  0.82750148  0.77310709  1
  Cu  Cu12  1  0.21345351  0.59852913  0.59198053  1
