# generated using pymatgen
data_Li2Ti2Se2N5
_symmetry_space_group_name_H-M   'P 1'
_cell_length_a   7.81634873
_cell_length_b   7.44321896
_cell_length_c   8.08273973
_cell_angle_alpha   93.01997655
_cell_angle_beta   94.31956062
_cell_angle_gamma   93.09673476
_symmetry_Int_Tables_number   1
_chemical_formula_structural   Li2Ti2Se2N5
_chemical_formula_sum   'Li2 Ti2 Se2 N5'
_cell_volume   467.46240392
_cell_formula_units_Z   1
loop_
 _symmetry_equiv_pos_site_id
 _symmetry_equiv_pos_as_xyz
  1  'x, y, z'
loop_
 _atom_site_type_symbol
 _atom_site_label
 _atom_site_symmetry_multiplicity
 _atom_site_fract_x
 _atom_site_fract_y
 _atom_site_fract_z
 _atom_site_occupancy
  Li  Li0  1  0.00000000  0.00000000  0.00000000  1
  Li  Li1  1  0.33300000  0.66700000  0.25000000  1
  Se  Se2  1  0.66700000  0.33300000  0.50000000  1
  Se  Se3  1  0.00000000  0.00000000  0.75000000  1
  Ti  Ti4  1  0.61644568  0.23243851  0.28244132  1
  Ti  Ti5  1  0.79160050  0.17027719  0.95461845  1
  N  N6  1  0.03652007  0.95972273  0.21128757  1
  N  N7  1  0.37369149  0.47126784  0.19221873  1
  N  N8  1  0.09807960  0.04893587  0.56297408  1
  N  N9  1  0.85031136  0.37394299  0.25865752  1
  N  N10  1  0.78533247  0.56726561  0.28941894  1
