# generated using pymatgen
data_Li3TiAs6P4N5
_symmetry_space_group_name_H-M   'P 1'
_cell_length_a   7.73399768
_cell_length_b   7.45929029
_cell_length_c   8.48627450
_cell_angle_alpha   92.50482521
_cell_angle_beta   91.07726137
_cell_angle_gamma   92.90457095
_symmetry_Int_Tables_number   1
_chemical_formula_structural   Li3TiAs6P4N5
_chemical_formula_sum   'Li3 Ti1 As6 P4 N5'
_cell_volume   488.36983604
_cell_formula_units_Z   1
loop_
 _symmetry_equiv_pos_site_id
 _symmetry_equiv_pos_as_xyz
  1  'x, y, z'
loop_
 _atom_site_type_symbol
 _atom_site_label
 _atom_site_symmetry_multiplicity
 _atom_site_fract_x
 _atom_site_fract_y
 _atom_site_fract_z
 _atom_site_occupancy
  P  P0  1  0.00000000  0.00000000  0.00000000  1
  P  P1  1  0.50000000  0.50000000  0.50000000  1
  P  P2  1  0.25000000  0.25000000  0.25000000  1
  P  P3  1  0.75000000  0.25000000  0.00000000  1
  Li  Li4  1  0.25000000  0.75000000  0.50000000  1
  Li  Li5  1  0.03038685  0.97772911  0.99574159  1
  Li  Li6  1  0.59396534  0.89233431  0.33346669  1
  Ti  Ti7  1  0.99350440  0.13315066  0.69548329  1
  As  As8  1  0.13820557  0.93100426  0.57204683  1
  As  As9  1  0.98015549  0.78678221  0.78906846  1
  As  As10  1  0.62075151  0.13680056  0.11401009  1
  As  As11  1  0.12449713  0.98876625  0.05824133  1
  As  As12  1  0.86165294  0.66900422  0.61919546  1
  As  As13  1  0.00898502  0.40903004  0.06993373  1
  N  N14  1  0.43692498  0.91152680  0.84522437  1
  N  N15  1  0.71859585  0.04331216  0.98627058  1
  N  N16  1  0.96689546  0.44047327  0.57888450  1
  N  N17  1  0.75646712  0.64774518  0.57294403  1
  N  N18  1  0.54936978  0.33444636  0.55745410  1
