# generated using pymatgen
data_LiMn2Sb4P3
_symmetry_space_group_name_H-M   'P 1'
_cell_length_a   5.45111873
_cell_length_b   5.76006745
_cell_length_c   6.48445640
_cell_angle_alpha   97.13537177
_cell_angle_beta   91.66094334
_cell_angle_gamma   97.02580798
_symmetry_Int_Tables_number   1
_chemical_formula_structural   LiMn2Sb4P3
_chemical_formula_sum   'Li1 Mn2 Sb4 P3'
_cell_volume   200.30855131
_cell_formula_units_Z   1
loop_
 _symmetry_equiv_pos_site_id
 _symmetry_equiv_pos_as_xyz
  1  'x, y, z'
loop_
 _atom_site_type_symbol
 _atom_site_label
 _atom_site_symmetry_multiplicity
 _atom_site_fract_x
 _atom_site_fract_y
 _atom_site_fract_z
 _atom_site_occupancy
  Mn  Mn0  1  0.12500000  0.12500000  0.12500000  1
  Mn  Mn1  1  0.50000000  0.50000000  0.50000000  1
  Sb  Sb2  1  0.25000000  0.25000000  0.25000000  1
  Sb  Sb3  1  0.75000000  0.75000000  0.75000000  1
  Sb  Sb4  1  0.09435626  0.72564560  0.42158584  1
  Sb  Sb5  1  0.63518550  0.69597098  0.17308524  1
  P  P6  1  0.77887465  0.53483743  0.05485007  1
  P  P7  1  0.00278256  0.03704775  0.06259713  1
  P  P8  1  0.38924601  0.41670753  0.85521004  1
  Li  Li9  1  0.09449986  0.04594625  0.46619589  1
