# generated using pymatgen
data_Li2P3O2
_symmetry_space_group_name_H-M   'P 1'
_cell_length_a   7.84953492
_cell_length_b   7.87219130
_cell_length_c   7.86563620
_cell_angle_alpha   90.35608321
_cell_angle_beta   91.69413578
_cell_angle_gamma   90.40709819
_symmetry_Int_Tables_number   1
_chemical_formula_structural   Li2P3O2
_chemical_formula_sum   'Li2 P3 O2'
_cell_volume   485.80682358
_cell_formula_units_Z   1
loop_
 _symmetry_equiv_pos_site_id
 _symmetry_equiv_pos_as_xyz
  1  'x, y, z'
loop_
 _atom_site_type_symbol
 _atom_site_label
 _atom_site_symmetry_multiplicity
 _atom_site_fract_x
 _atom_site_fract_y
 _atom_site_fract_z
 _atom_site_occupancy
  P  P0  1  0.00000000  0.00000000  0.00000000  1
  P  P1  1  0.50000000  0.50000000  0.50000000  1
  P  P2  1  0.50000000  0.50000000  0.00000000  1
  O  O3  1  0.50000000  0.00000000  0.50000000  1
  O  O4  1  0.00000000  0.50000000  0.50000000  1
  Li  Li5  1  0.03516423  0.09246816  0.03056890  1
  Li  Li6  1  0.81264847  0.42650070  0.24262147  1
