# generated using pymatgen
data_Li2Sb4Mo2P3
_symmetry_space_group_name_H-M   'P 1'
_cell_length_a   5.34278654
_cell_length_b   5.70306559
_cell_length_c   6.60468348
_cell_angle_alpha   99.25068495
_cell_angle_beta   92.29781412
_cell_angle_gamma   99.32233222
_symmetry_Int_Tables_number   1
_chemical_formula_structural   Li2Sb4Mo2P3
_chemical_formula_sum   'Li2 Sb4 Mo2 P3'
_cell_volume   195.55336526
_cell_formula_units_Z   1
loop_
 _symmetry_equiv_pos_site_id
 _symmetry_equiv_pos_as_xyz
  1  'x, y, z'
loop_
 _atom_site_type_symbol
 _atom_site_label
 _atom_site_symmetry_multiplicity
 _atom_site_fract_x
 _atom_site_fract_y
 _atom_site_fract_z
 _atom_site_occupancy
  Sb  Sb0  1  0.00000000  0.00000000  0.00000000  1
  Sb  Sb1  1  0.50000000  0.50000000  0.50000000  1
  Sb  Sb2  1  0.50000000  0.50000000  0.00000000  1
  Sb  Sb3  1  0.50000000  0.00000000  0.50000000  1
  P  P4  1  0.00000000  0.50000000  0.50000000  1
  P  P5  1  0.78796712  0.14903225  0.37923516  1
  P  P6  1  0.06499665  0.35306130  0.39790309  1
  Mo  Mo7  1  0.33259727  0.86820847  0.33088799  1
  Mo  Mo8  1  0.66652967  0.09044479  0.04134699  1
  Li  Li9  1  0.01475867  0.07349922  0.72965302  1
  Li  Li10  1  0.52321178  0.57879143  0.79977569  1
