# generated using pymatgen
data_Li2Mn(PO)3
_symmetry_space_group_name_H-M   'P 1'
_cell_length_a   4.57598622
_cell_length_b   4.44650772
_cell_length_c   7.16488060
_cell_angle_alpha   97.93747383
_cell_angle_beta   99.40267116
_cell_angle_gamma   99.03382525
_symmetry_Int_Tables_number   1
_chemical_formula_structural   Li2Mn(PO)3
_chemical_formula_sum   'Li2 Mn1 P3 O3'
_cell_volume   140.02194339
_cell_formula_units_Z   1
loop_
 _symmetry_equiv_pos_site_id
 _symmetry_equiv_pos_as_xyz
  1  'x, y, z'
loop_
 _atom_site_type_symbol
 _atom_site_label
 _atom_site_symmetry_multiplicity
 _atom_site_fract_x
 _atom_site_fract_y
 _atom_site_fract_z
 _atom_site_occupancy
  Mn  Mn0  1  0.00000000  0.00000000  0.00000000  1
  P  P1  1  0.50000000  0.50000000  0.50000000  1
  P  P2  1  0.25000000  0.25000000  0.25000000  1
  P  P3  1  0.75000000  0.25000000  0.00000000  1
  O  O4  1  0.25000000  0.75000000  0.50000000  1
  O  O5  1  0.96542288  0.91919450  0.38178525  1
  O  O6  1  0.82794186  0.31308471  0.32376968  1
  Li  Li7  1  0.69766848  0.98620519  0.81679722  1
  Li  Li8  1  0.11417614  0.33598731  0.26097208  1
