# generated using pymatgen
data_Li2Mn3Sb4Mo2P3
_symmetry_space_group_name_H-M   'P 1'
_cell_length_a   5.10919602
_cell_length_b   5.46033557
_cell_length_c   6.68087598
_cell_angle_alpha   99.15911885
_cell_angle_beta   94.00035633
_cell_angle_gamma   99.47032661
_symmetry_Int_Tables_number   1
_chemical_formula_structural   Li2Mn3Sb4Mo2P3
_chemical_formula_sum   'Li2 Mn3 Sb4 Mo2 P3'
_cell_volume   180.61513321
_cell_formula_units_Z   1
loop_
 _symmetry_equiv_pos_site_id
 _symmetry_equiv_pos_as_xyz
  1  'x, y, z'
loop_
 _atom_site_type_symbol
 _atom_site_label
 _atom_site_symmetry_multiplicity
 _atom_site_fract_x
 _atom_site_fract_y
 _atom_site_fract_z
 _atom_site_occupancy
  Mn  Mn0  1  0.12500000  0.00000000  0.25000000  1
  Mn  Mn1  1  0.00000000  0.00000000  0.00000000  1
  Mn  Mn2  1  0.37500000  0.00000000  0.25000000  1
  Sb  Sb3  1  0.25000000  0.25000000  0.25000000  1
  Sb  Sb4  1  0.00000000  0.25000000  0.12500000  1
  Sb  Sb5  1  0.82875473  0.11281679  0.65558008  1
  Sb  Sb6  1  0.88954065  0.60277236  0.84360734  1
  P  P7  1  0.67370268  0.65661413  0.86682996  1
  P  P8  1  0.28370488  0.98780466  0.01709492  1
  P  P9  1  0.59189359  0.62106295  0.86532140  1
  Mo  Mo10  1  0.65167972  0.75167719  0.73335773  1
  Mo  Mo11  1  0.50806514  0.04769178  0.81183881  1
  Li  Li12  1  0.30211438  0.38416228  0.19692013  1
  Li  Li13  1  0.18853644  0.12920247  0.96790088  1
