# generated using pymatgen
data_LiTi2Sb5(PSe)2
_symmetry_space_group_name_H-M   'P 1'
_cell_length_a   8.21433233
_cell_length_b   8.24351610
_cell_length_c   7.14734337
_cell_angle_alpha   90.00000000
_cell_angle_beta   90.00000000
_cell_angle_gamma   90.00000000
_symmetry_Int_Tables_number   1
_chemical_formula_structural   LiTi2Sb5(PSe)2
_chemical_formula_sum   'Li1 Ti2 Sb5 P2 Se2'
_cell_volume   483.98221928
_cell_formula_units_Z   1
loop_
 _symmetry_equiv_pos_site_id
 _symmetry_equiv_pos_as_xyz
  1  'x, y, z'
loop_
 _atom_site_type_symbol
 _atom_site_label
 _atom_site_symmetry_multiplicity
 _atom_site_fract_x
 _atom_site_fract_y
 _atom_site_fract_z
 _atom_site_occupancy
  P  P0  1  0.00000000  0.00000000  0.00000000  1
  P  P1  1  0.50000000  0.50000000  0.50000000  1
  Li  Li2  1  0.25000000  0.25000000  0.25000000  1
  Sb  Sb3  1  0.75000000  0.25000000  0.00000000  1
  Sb  Sb4  1  0.25000000  0.75000000  0.50000000  1
  Sb  Sb5  1  0.72429590  0.85295547  0.87313908  1
  Sb  Sb6  1  0.04663563  0.37968198  0.30276871  1
  Sb  Sb7  1  0.63402841  0.30026325  0.69122542  1
  Se  Se8  1  0.23031610  0.18451951  0.09472431  1
  Se  Se9  1  0.88660977  0.49943082  0.97405633  1
  Ti  Ti10  1  0.12137536  0.18921536  0.94024386  1
  Ti  Ti11  1  0.34704473  0.69607838  0.18497196  1
