# generated using pymatgen
data_Li2TiP3(SeO)2
_symmetry_space_group_name_H-M   'P 1'
_cell_length_a   7.54510883
_cell_length_b   7.27483644
_cell_length_c   7.03286341
_cell_angle_alpha   92.36875904
_cell_angle_beta   93.11192974
_cell_angle_gamma   92.16526619
_symmetry_Int_Tables_number   1
_chemical_formula_structural   Li2TiP3(SeO)2
_chemical_formula_sum   'Li2 Ti1 P3 Se2 O2'
_cell_volume   384.82119992
_cell_formula_units_Z   1
loop_
 _symmetry_equiv_pos_site_id
 _symmetry_equiv_pos_as_xyz
  1  'x, y, z'
loop_
 _atom_site_type_symbol
 _atom_site_label
 _atom_site_symmetry_multiplicity
 _atom_site_fract_x
 _atom_site_fract_y
 _atom_site_fract_z
 _atom_site_occupancy
  P  P0  1  0.00000000  0.00000000  0.00000000  1
  P  P1  1  0.50000000  0.50000000  0.50000000  1
  P  P2  1  0.50000000  0.50000000  0.00000000  1
  Li  Li3  1  0.50000000  0.00000000  0.50000000  1
  Li  Li4  1  0.00000000  0.50000000  0.50000000  1
  Se  Se5  1  0.17362278  0.76887163  0.64026288  1
  Se  Se6  1  0.92081874  0.62258269  0.04108347  1
  Ti  Ti7  1  0.97681957  0.13701361  0.26991062  1
  O  O8  1  0.50412990  0.46891006  0.16847168  1
  O  O9  1  0.10265752  0.18842485  0.48331382  1
