# generated using pymatgen
data_Li2Mn2Sb3P2N
_symmetry_space_group_name_H-M   'P 1'
_cell_length_a   5.22290896
_cell_length_b   5.61959550
_cell_length_c   6.83495515
_cell_angle_alpha   97.41095473
_cell_angle_beta   96.17048131
_cell_angle_gamma   97.32184804
_symmetry_Int_Tables_number   1
_chemical_formula_structural   Li2Mn2Sb3P2N
_chemical_formula_sum   'Li2 Mn2 Sb3 P2 N1'
_cell_volume   195.73990683
_cell_formula_units_Z   1
loop_
 _symmetry_equiv_pos_site_id
 _symmetry_equiv_pos_as_xyz
  1  'x, y, z'
loop_
 _atom_site_type_symbol
 _atom_site_label
 _atom_site_symmetry_multiplicity
 _atom_site_fract_x
 _atom_site_fract_y
 _atom_site_fract_z
 _atom_site_occupancy
  N  N0  1  0.00000000  0.00000000  0.00000000  1
  Mn  Mn1  1  0.50000000  0.50000000  0.50000000  1
  Mn  Mn2  1  0.25000000  0.25000000  0.25000000  1
  Sb  Sb3  1  0.75000000  0.25000000  0.00000000  1
  Sb  Sb4  1  0.25000000  0.75000000  0.50000000  1
  Sb  Sb5  1  0.12654612  0.29238852  0.35288199  1
  P  P6  1  0.09973007  0.41510809  0.95336677  1
  P  P7  1  0.85556419  0.00528962  0.96842378  1
  Li  Li8  1  0.69042942  0.94849342  0.61169529  1
  Li  Li9  1  0.79679905  0.45408057  0.18262534  1
