# generated using pymatgen
data_Li2Ti3Cu2(P4O)2
_symmetry_space_group_name_H-M   'P 1'
_cell_length_a   5.38019629
_cell_length_b   5.30096690
_cell_length_c   7.25101390
_cell_angle_alpha   91.68386846
_cell_angle_beta   98.01133473
_cell_angle_gamma   91.92511128
_symmetry_Int_Tables_number   1
_chemical_formula_structural   Li2Ti3Cu2(P4O)2
_chemical_formula_sum   'Li2 Ti3 Cu2 P8 O2'
_cell_volume   204.54553848
_cell_formula_units_Z   1
loop_
 _symmetry_equiv_pos_site_id
 _symmetry_equiv_pos_as_xyz
  1  'x, y, z'
loop_
 _atom_site_type_symbol
 _atom_site_label
 _atom_site_symmetry_multiplicity
 _atom_site_fract_x
 _atom_site_fract_y
 _atom_site_fract_z
 _atom_site_occupancy
  Ti  Ti0  1  0.00000000  0.00000000  0.00000000  1
  Ti  Ti1  1  0.50000000  0.50000000  0.50000000  1
  Ti  Ti2  1  0.25000000  0.25000000  0.25000000  1
  O  O3  1  0.75000000  0.25000000  0.00000000  1
  O  O4  1  0.25000000  0.75000000  0.50000000  1
  P  P5  1  0.61127125  0.82476298  0.23048831  1
  P  P6  1  0.35023161  0.43165637  0.60289519  1
  P  P7  1  0.27241529  0.73977836  0.31187979  1
  P  P8  1  0.17200724  0.91123479  0.55838720  1
  P  P9  1  0.48723131  0.51484305  0.52425644  1
  P  P10  1  0.52279853  0.84711206  0.12743869  1
  P  P11  1  0.36632521  0.70944314  0.18838657  1
  P  P12  1  0.33190486  0.26887055  0.48776060  1
  Li  Li13  1  0.49870322  0.45395049  0.69043208  1
  Li  Li14  1  0.81433185  0.93248305  0.80960600  1
  Cu  Cu15  1  0.82836526  0.79839860  0.47652870  1
  Cu  Cu16  1  0.72324971  0.92793193  0.38496063  1
