# generated using pymatgen
data_Li2Mn3Sb4P3
_symmetry_space_group_name_H-M   'P 1'
_cell_length_a   8.00035882
_cell_length_b   7.92915600
_cell_length_c   7.92334940
_cell_angle_alpha   90.00000000
_cell_angle_beta   90.00000000
_cell_angle_gamma   90.00000000
_symmetry_Int_Tables_number   1
_chemical_formula_structural   Li2Mn3Sb4P3
_chemical_formula_sum   'Li2 Mn3 Sb4 P3'
_cell_volume   502.62633047
_cell_formula_units_Z   1
loop_
 _symmetry_equiv_pos_site_id
 _symmetry_equiv_pos_as_xyz
  1  'x, y, z'
loop_
 _atom_site_type_symbol
 _atom_site_label
 _atom_site_symmetry_multiplicity
 _atom_site_fract_x
 _atom_site_fract_y
 _atom_site_fract_z
 _atom_site_occupancy
  Mn  Mn0  1  0.00000000  0.00000000  0.00000000  1
  Mn  Mn1  1  0.33300000  0.66700000  0.25000000  1
  Mn  Mn2  1  0.66700000  0.33300000  0.50000000  1
  Sb  Sb3  1  0.00000000  0.00000000  0.75000000  1
  Sb  Sb4  1  0.69866933  0.82062323  0.78023197  1
  Sb  Sb5  1  0.17543315  0.63203731  0.80905336  1
  Sb  Sb6  1  0.52684786  0.92094136  0.74074040  1
  P  P7  1  0.58323203  0.46094285  0.65032100  1
  P  P8  1  0.37806288  0.47273001  0.76897066  1
  P  P9  1  0.90188604  0.68353472  0.58565202  1
  Li  Li10  1  0.32966948  0.96158727  0.05703831  1
  Li  Li11  1  0.37902601  0.25766284  0.38154083  1
