# generated using pymatgen
data_Li2TiO5
_symmetry_space_group_name_H-M   'P 1'
_cell_length_a   3.90447465
_cell_length_b   3.66641030
_cell_length_c   5.08319226
_cell_angle_alpha   93.26743468
_cell_angle_beta   94.06750687
_cell_angle_gamma   88.22568845
_symmetry_Int_Tables_number   1
_chemical_formula_structural   Li2TiO5
_chemical_formula_sum   'Li2 Ti1 O5'
_cell_volume   72.44019464
_cell_formula_units_Z   1
loop_
 _symmetry_equiv_pos_site_id
 _symmetry_equiv_pos_as_xyz
  1  'x, y, z'
loop_
 _atom_site_type_symbol
 _atom_site_label
 _atom_site_symmetry_multiplicity
 _atom_site_fract_x
 _atom_site_fract_y
 _atom_site_fract_z
 _atom_site_occupancy
  Ti  Ti0  1  0.00000000  0.00000000  0.00000000  1
  O  O1  1  0.33300000  0.66700000  0.25000000  1
  O  O2  1  0.66700000  0.33300000  0.50000000  1
  O  O3  1  0.00000000  0.00000000  0.75000000  1
  O  O4  1  0.28984910  0.11859816  0.37433565  1
  O  O5  1  0.22282309  0.74323002  0.27417374  1
  Li  Li6  1  0.25176647  0.75034949  0.18714009  1
  Li  Li7  1  0.66829790  0.30742132  0.14297513  1
