# generated using pymatgen
data_Li4Ni2As6P4N5
_symmetry_space_group_name_H-M   'P 1'
_cell_length_a   7.93374149
_cell_length_b   7.68840453
_cell_length_c   9.31212828
_cell_angle_alpha   91.50838182
_cell_angle_beta   90.53327631
_cell_angle_gamma   91.74954031
_symmetry_Int_Tables_number   1
_chemical_formula_structural   Li4Ni2As6P4N5
_chemical_formula_sum   'Li4 Ni2 As6 P4 N5'
_cell_volume   567.52888447
_cell_formula_units_Z   1
loop_
 _symmetry_equiv_pos_site_id
 _symmetry_equiv_pos_as_xyz
  1  'x, y, z'
loop_
 _atom_site_type_symbol
 _atom_site_label
 _atom_site_symmetry_multiplicity
 _atom_site_fract_x
 _atom_site_fract_y
 _atom_site_fract_z
 _atom_site_occupancy
  P  P0  1  0.00000000  0.00000000  0.00000000  1
  P  P1  1  0.50000000  0.50000000  0.50000000  1
  P  P2  1  0.25000000  0.25000000  0.25000000  1
  P  P3  1  0.75000000  0.25000000  0.00000000  1
  Li  Li4  1  0.25000000  0.75000000  0.50000000  1
  Li  Li5  1  0.54510850  0.63861918  0.44064349  1
  Li  Li6  1  0.46214353  0.11406425  0.52901968  1
  Li  Li7  1  0.72834409  0.68301392  0.90375120  1
  Ni  Ni8  1  0.58304520  0.12611222  0.27724982  1
  Ni  Ni9  1  0.20641705  0.17348973  0.09171185  1
  As  As10  1  0.57914951  0.91471743  0.12586592  1
  As  As11  1  0.01425706  0.41121111  0.21755188  1
  As  As12  1  0.92049990  0.84254917  0.27211480  1
  As  As13  1  0.94012276  0.57235964  0.06494963  1
  As  As14  1  0.20918194  0.65147857  0.71460993  1
  As  As15  1  0.25854801  0.28855039  0.26892636  1
  N  N16  1  0.29326780  0.19486606  0.84545909  1
  N  N17  1  0.85478392  0.36735971  0.91522452  1
  N  N18  1  0.38307459  0.55317032  0.26089294  1
  N  N19  1  0.01896994  0.72176929  0.42146067  1
  N  N20  1  0.82302682  0.54674651  0.79217765  1
