# generated using pymatgen
data_LiMn3Sb4Mo2P3
_symmetry_space_group_name_H-M   'P 1'
_cell_length_a   7.07728060
_cell_length_b   7.58706445
_cell_length_c   7.05323419
_cell_angle_alpha   90.03901578
_cell_angle_beta   89.35602023
_cell_angle_gamma   89.73899483
_symmetry_Int_Tables_number   1
_chemical_formula_structural   LiMn3Sb4Mo2P3
_chemical_formula_sum   'Li1 Mn3 Sb4 Mo2 P3'
_cell_volume   378.70098688
_cell_formula_units_Z   1
loop_
 _symmetry_equiv_pos_site_id
 _symmetry_equiv_pos_as_xyz
  1  'x, y, z'
loop_
 _atom_site_type_symbol
 _atom_site_label
 _atom_site_symmetry_multiplicity
 _atom_site_fract_x
 _atom_site_fract_y
 _atom_site_fract_z
 _atom_site_occupancy
  Mn  Mn0  1  0.00000000  0.00000000  0.00000000  1
  Mn  Mn1  1  0.50000000  0.50000000  0.50000000  1
  Mn  Mn2  1  0.25000000  0.25000000  0.25000000  1
  Sb  Sb3  1  0.75000000  0.25000000  0.00000000  1
  Sb  Sb4  1  0.25000000  0.75000000  0.50000000  1
  Sb  Sb5  1  0.43860827  0.48447836  0.81622746  1
  Sb  Sb6  1  0.80262458  0.25711101  0.54317059  1
  P  P7  1  0.44826606  0.02480205  0.75316745  1
  P  P8  1  0.29796152  0.94846135  0.78824470  1
  P  P9  1  0.44415293  0.59654332  0.15893773  1
  Mo  Mo10  1  0.49943913  0.67219226  0.78406231  1
  Mo  Mo11  1  0.87918470  0.36478945  0.00276082  1
  Li  Li12  1  0.61047737  0.04476983  0.38452755  1
