# generated using pymatgen
data_Li2Mn2Sb4P3
_symmetry_space_group_name_H-M   'P 1'
_cell_length_a   6.83643392
_cell_length_b   6.88461008
_cell_length_c   7.14329111
_cell_angle_alpha   93.01122399
_cell_angle_beta   91.79335492
_cell_angle_gamma   92.35367669
_symmetry_Int_Tables_number   1
_chemical_formula_structural   Li2Mn2Sb4P3
_chemical_formula_sum   'Li2 Mn2 Sb4 P3'
_cell_volume   335.27138960
_cell_formula_units_Z   1
loop_
 _symmetry_equiv_pos_site_id
 _symmetry_equiv_pos_as_xyz
  1  'x, y, z'
loop_
 _atom_site_type_symbol
 _atom_site_label
 _atom_site_symmetry_multiplicity
 _atom_site_fract_x
 _atom_site_fract_y
 _atom_site_fract_z
 _atom_site_occupancy
  Mn  Mn0  1  0.00000000  0.00000000  0.00000000  1
  Mn  Mn1  1  0.50000000  0.50000000  0.50000000  1
  Sb  Sb2  1  0.50000000  0.50000000  0.00000000  1
  Sb  Sb3  1  0.50000000  0.00000000  0.50000000  1
  Sb  Sb4  1  0.00000000  0.50000000  0.50000000  1
  Sb  Sb5  1  0.74327958  0.96257638  0.91779949  1
  P  P6  1  0.15122472  0.98667209  0.49937853  1
  P  P7  1  0.92374333  0.65777376  0.09578012  1
  P  P8  1  0.26802311  0.48533515  0.38861708  1
  Li  Li9  1  0.91597499  0.65220048  0.87583321  1
  Li  Li10  1  0.01505867  0.59118659  0.58527999  1
