# generated using pymatgen
data_LiI2O
_symmetry_space_group_name_H-M   'P 1'
_cell_length_a   7.64992080
_cell_length_b   7.36165418
_cell_length_c   8.33818947
_cell_angle_alpha   92.38176585
_cell_angle_beta   91.18390447
_cell_angle_gamma   92.76127063
_symmetry_Int_Tables_number   1
_chemical_formula_structural   LiI2O
_chemical_formula_sum   'Li2 I4 O2'
_cell_volume   468.50281805
_cell_formula_units_Z   2
loop_
 _symmetry_equiv_pos_site_id
 _symmetry_equiv_pos_as_xyz
  1  'x, y, z'
loop_
 _atom_site_type_symbol
 _atom_site_label
 _atom_site_symmetry_multiplicity
 _atom_site_fract_x
 _atom_site_fract_y
 _atom_site_fract_z
 _atom_site_occupancy
  I  I0  1  0.00000000  0.00000000  0.00000000  1
  I  I1  1  0.33300000  0.66700000  0.25000000  1
  I  I2  1  0.66700000  0.33300000  0.50000000  1
  I  I3  1  0.00000000  0.00000000  0.75000000  1
  Li  Li4  1  0.13143343  0.77779868  0.87662625  1
  Li  Li5  1  0.60673030  0.15190179  0.88538251  1
  O  O6  1  0.91218244  0.51418325  0.37042499  1
  O  O7  1  0.61073757  0.63669182  0.37958801  1
