# generated using pymatgen
data_LiMn2Sb4P3
_symmetry_space_group_name_H-M   'P 1'
_cell_length_a   5.57669790
_cell_length_b   5.96590737
_cell_length_c   6.90459616
_cell_angle_alpha   95.03016619
_cell_angle_beta   94.39862594
_cell_angle_gamma   95.39411263
_symmetry_Int_Tables_number   1
_chemical_formula_structural   LiMn2Sb4P3
_chemical_formula_sum   'Li1 Mn2 Sb4 P3'
_cell_volume   226.98121220
_cell_formula_units_Z   1
loop_
 _symmetry_equiv_pos_site_id
 _symmetry_equiv_pos_as_xyz
  1  'x, y, z'
loop_
 _atom_site_type_symbol
 _atom_site_label
 _atom_site_symmetry_multiplicity
 _atom_site_fract_x
 _atom_site_fract_y
 _atom_site_fract_z
 _atom_site_occupancy
  Mn  Mn0  1  0.12500000  0.12500000  0.12500000  1
  Mn  Mn1  1  0.50000000  0.50000000  0.50000000  1
  Sb  Sb2  1  0.25000000  0.25000000  0.25000000  1
  Sb  Sb3  1  0.75000000  0.75000000  0.75000000  1
  Sb  Sb4  1  0.35670981  0.10872743  0.72810847  1
  Sb  Sb5  1  0.65958349  0.94227762  0.29817042  1
  P  P6  1  0.41636166  0.94863966  0.04195446  1
  P  P7  1  0.32882947  0.88452658  0.80725604  1
  P  P8  1  0.21452975  0.68567229  0.55078467  1
  Li  Li9  1  0.30425805  0.22806112  0.12427008  1
