# generated using pymatgen
data_Li3Ti3Te6N5O4
_symmetry_space_group_name_H-M   'P 1'
_cell_length_a   6.93836699
_cell_length_b   7.85015064
_cell_length_c   7.86693267
_cell_angle_alpha   90.54399457
_cell_angle_beta   88.73923139
_cell_angle_gamma   91.01763139
_symmetry_Int_Tables_number   1
_chemical_formula_structural   Li3Ti3Te6N5O4
_chemical_formula_sum   'Li3 Ti3 Te6 N5 O4'
_cell_volume   428.30093739
_cell_formula_units_Z   1
loop_
 _symmetry_equiv_pos_site_id
 _symmetry_equiv_pos_as_xyz
  1  'x, y, z'
loop_
 _atom_site_type_symbol
 _atom_site_label
 _atom_site_symmetry_multiplicity
 _atom_site_fract_x
 _atom_site_fract_y
 _atom_site_fract_z
 _atom_site_occupancy
  O  O0  1  0.00000000  0.00000000  0.00000000  1
  O  O1  1  0.50000000  0.50000000  0.50000000  1
  O  O2  1  0.25000000  0.25000000  0.25000000  1
  O  O3  1  0.75000000  0.25000000  0.00000000  1
  N  N4  1  0.25000000  0.75000000  0.50000000  1
  N  N5  1  0.14087742  0.33988322  0.79137606  1
  N  N6  1  0.24581834  0.55367193  0.71225010  1
  N  N7  1  0.29711623  0.63494078  0.97348319  1
  N  N8  1  0.39899748  0.05150315  0.00210330  1
  Ti  Ti9  1  0.23429013  0.31617638  0.32749859  1
  Ti  Ti10  1  0.38354878  0.28864661  0.31586939  1
  Ti  Ti11  1  0.51934046  0.91780768  0.27526035  1
  Li  Li12  1  0.02313180  0.08112115  0.67742804  1
  Li  Li13  1  0.74420233  0.05428091  0.57243519  1
  Li  Li14  1  0.55004737  0.46259341  0.52149554  1
  Te  Te15  1  0.25190825  0.49494350  0.62635290  1
  Te  Te16  1  0.90504730  0.20124051  0.70307067  1
  Te  Te17  1  0.84296563  0.10880835  0.38935516  1
  Te  Te18  1  0.51770799  0.38595111  0.90502120  1
  Te  Te19  1  0.09889359  0.31250111  0.46195285  1
  Te  Te20  1  0.17163179  0.50307859  0.63708035  1
