# generated using pymatgen
data_Li2Mn3Sb4P3
_symmetry_space_group_name_H-M   'P 1'
_cell_length_a   6.97893362
_cell_length_b   7.56750767
_cell_length_c   7.23801738
_cell_angle_alpha   92.82084368
_cell_angle_beta   90.14092022
_cell_angle_gamma   92.76473709
_symmetry_Int_Tables_number   1
_chemical_formula_structural   Li2Mn3Sb4P3
_chemical_formula_sum   'Li2 Mn3 Sb4 P3'
_cell_volume   381.35030745
_cell_formula_units_Z   1
loop_
 _symmetry_equiv_pos_site_id
 _symmetry_equiv_pos_as_xyz
  1  'x, y, z'
loop_
 _atom_site_type_symbol
 _atom_site_label
 _atom_site_symmetry_multiplicity
 _atom_site_fract_x
 _atom_site_fract_y
 _atom_site_fract_z
 _atom_site_occupancy
  Mn  Mn0  1  0.00000000  0.00000000  0.00000000  1
  Mn  Mn1  1  0.50000000  0.50000000  0.50000000  1
  Mn  Mn2  1  0.50000000  0.50000000  0.00000000  1
  Sb  Sb3  1  0.50000000  0.00000000  0.50000000  1
  Sb  Sb4  1  0.00000000  0.50000000  0.50000000  1
  Sb  Sb5  1  0.57194999  0.20337110  0.22449810  1
  Sb  Sb6  1  0.67479950  0.50100811  0.35881465  1
  P  P7  1  0.45839159  0.93538951  0.05168035  1
  P  P8  1  0.90696519  0.21057325  0.44412252  1
  P  P9  1  0.11079345  0.09342313  0.26569987  1
  Li  Li10  1  0.19547719  0.08538861  0.45353068  1
  Li  Li11  1  0.15222839  0.81590297  0.69331027  1
