# generated using pymatgen
data_Li2Mo2P3N5
_symmetry_space_group_name_H-M   'P 1'
_cell_length_a   6.57470103
_cell_length_b   7.16478210
_cell_length_c   7.61946126
_cell_angle_alpha   94.88952122
_cell_angle_beta   91.42895939
_cell_angle_gamma   94.95725351
_symmetry_Int_Tables_number   1
_chemical_formula_structural   Li2Mo2P3N5
_chemical_formula_sum   'Li2 Mo2 P3 N5'
_cell_volume   356.09207270
_cell_formula_units_Z   1
loop_
 _symmetry_equiv_pos_site_id
 _symmetry_equiv_pos_as_xyz
  1  'x, y, z'
loop_
 _atom_site_type_symbol
 _atom_site_label
 _atom_site_symmetry_multiplicity
 _atom_site_fract_x
 _atom_site_fract_y
 _atom_site_fract_z
 _atom_site_occupancy
  N  N0  1  0.12500000  0.00000000  0.25000000  1
  N  N1  1  0.00000000  0.00000000  0.00000000  1
  N  N2  1  0.37500000  0.00000000  0.25000000  1
  N  N3  1  0.25000000  0.25000000  0.25000000  1
  N  N4  1  0.00000000  0.25000000  0.12500000  1
  P  P5  1  0.28958319  0.18809112  0.45155698  1
  P  P6  1  0.73421527  0.18592842  0.03709946  1
  P  P7  1  0.08740362  0.35078063  0.47405852  1
  Mo  Mo8  1  0.40629033  0.10680166  0.79131561  1
  Mo  Mo9  1  0.21790868  0.68445828  0.07408371  1
  Li  Li10  1  0.32806451  0.39444480  0.68537933  1
  Li  Li11  1  0.66662852  0.06777686  0.63736181  1
