# generated using pymatgen
data_Li3Ti(IO)4
_symmetry_space_group_name_H-M   'P 1'
_cell_length_a   7.60900614
_cell_length_b   7.34706465
_cell_length_c   6.99353323
_cell_angle_alpha   91.81293164
_cell_angle_beta   93.05850299
_cell_angle_gamma   91.70222406
_symmetry_Int_Tables_number   1
_chemical_formula_structural   Li3Ti(IO)4
_chemical_formula_sum   'Li3 Ti1 I4 O4'
_cell_volume   390.02010964
_cell_formula_units_Z   1
loop_
 _symmetry_equiv_pos_site_id
 _symmetry_equiv_pos_as_xyz
  1  'x, y, z'
loop_
 _atom_site_type_symbol
 _atom_site_label
 _atom_site_symmetry_multiplicity
 _atom_site_fract_x
 _atom_site_fract_y
 _atom_site_fract_z
 _atom_site_occupancy
  I  I0  1  0.12500000  0.12500000  0.12500000  1
  I  I1  1  0.50000000  0.50000000  0.50000000  1
  I  I2  1  0.25000000  0.25000000  0.25000000  1
  I  I3  1  0.75000000  0.75000000  0.75000000  1
  Li  Li4  1  0.79819936  0.39020707  0.26428161  1
  Li  Li5  1  0.58961746  0.41363355  0.19599325  1
  Li  Li6  1  0.83011809  0.01049107  0.82151170  1
  Ti  Ti7  1  0.84015797  0.49076052  0.65015287  1
  O  O8  1  0.03285484  0.30971288  0.93861702  1
  O  O9  1  0.01708780  0.89833125  0.19175587  1
  O  O10  1  0.69537957  0.17265726  0.39655481  1
  O  O11  1  0.79033048  0.57580526  0.35592350  1
