# generated using pymatgen
data_Li2TiI4(O2F)2
_symmetry_space_group_name_H-M   'P 1'
_cell_length_a   8.66789698
_cell_length_b   8.46201726
_cell_length_c   7.53978157
_cell_angle_alpha   90.07908771
_cell_angle_beta   90.37627531
_cell_angle_gamma   90.09041837
_symmetry_Int_Tables_number   1
_chemical_formula_structural   Li2TiI4(O2F)2
_chemical_formula_sum   'Li2 Ti1 I4 O4 F2'
_cell_volume   553.01394957
_cell_formula_units_Z   1
loop_
 _symmetry_equiv_pos_site_id
 _symmetry_equiv_pos_as_xyz
  1  'x, y, z'
loop_
 _atom_site_type_symbol
 _atom_site_label
 _atom_site_symmetry_multiplicity
 _atom_site_fract_x
 _atom_site_fract_y
 _atom_site_fract_z
 _atom_site_occupancy
  I  I0  1  0.12500000  0.00000000  0.25000000  1
  I  I1  1  0.00000000  0.00000000  0.00000000  1
  I  I2  1  0.37500000  0.00000000  0.25000000  1
  I  I3  1  0.25000000  0.25000000  0.25000000  1
  Li  Li4  1  0.00000000  0.25000000  0.12500000  1
  Li  Li5  1  0.09714543  0.12063538  0.13241941  1
  F  F6  1  0.40059090  0.55691323  0.35101788  1
  F  F7  1  0.95544711  0.95836523  0.83291082  1
  Ti  Ti8  1  0.81526567  0.04552258  0.99365834  1
  O  O9  1  0.65604340  0.10407523  0.64597385  1
  O  O10  1  0.33101007  0.43656280  0.28019802  1
  O  O11  1  0.99809777  0.89075885  0.18572392  1
  O  O12  1  0.08474581  0.02423390  0.29212612  1
