# generated using pymatgen
data_Li3TiCu2(P2O)2
_symmetry_space_group_name_H-M   'P 1'
_cell_length_a   5.10111376
_cell_length_b   5.42616422
_cell_length_c   6.43217553
_cell_angle_alpha   100.66007868
_cell_angle_beta   104.43620082
_cell_angle_gamma   103.42409042
_symmetry_Int_Tables_number   1
_chemical_formula_structural   Li3TiCu2(P2O)2
_chemical_formula_sum   'Li3 Ti1 Cu2 P4 O2'
_cell_volume   162.03736479
_cell_formula_units_Z   1
loop_
 _symmetry_equiv_pos_site_id
 _symmetry_equiv_pos_as_xyz
  1  'x, y, z'
loop_
 _atom_site_type_symbol
 _atom_site_label
 _atom_site_symmetry_multiplicity
 _atom_site_fract_x
 _atom_site_fract_y
 _atom_site_fract_z
 _atom_site_occupancy
  P  P0  1  0.12500000  0.00000000  0.25000000  1
  P  P1  1  0.00000000  0.00000000  0.00000000  1
  P  P2  1  0.37500000  0.00000000  0.25000000  1
  P  P3  1  0.25000000  0.25000000  0.25000000  1
  Li  Li4  1  0.00000000  0.25000000  0.12500000  1
  Li  Li5  1  0.39757241  0.72010458  0.15761545  1
  Li  Li6  1  0.36948883  0.21209112  0.82064329  1
  Cu  Cu7  1  0.93187041  0.04802987  0.90799719  1
  Cu  Cu8  1  0.45981243  0.39861638  0.65544369  1
  Ti  Ti9  1  0.00981211  0.76545026  0.91121101  1
  O  O10  1  0.73377889  0.27527079  0.38404215  1
  O  O11  1  0.14172090  0.85314027  0.96411967  1
