# generated using pymatgen
data_LiCuNiP2
_symmetry_space_group_name_H-M   'P 1'
_cell_length_a   7.45112571
_cell_length_b   7.33775874
_cell_length_c   8.66574147
_cell_angle_alpha   92.09768917
_cell_angle_beta   91.73035022
_cell_angle_gamma   92.42933613
_symmetry_Int_Tables_number   1
_chemical_formula_structural   LiCuNiP2
_chemical_formula_sum   'Li2 Cu2 Ni2 P4'
_cell_volume   472.81338558
_cell_formula_units_Z   2
loop_
 _symmetry_equiv_pos_site_id
 _symmetry_equiv_pos_as_xyz
  1  'x, y, z'
loop_
 _atom_site_type_symbol
 _atom_site_label
 _atom_site_symmetry_multiplicity
 _atom_site_fract_x
 _atom_site_fract_y
 _atom_site_fract_z
 _atom_site_occupancy
  Ni  Ni0  1  0.12500000  0.12500000  0.12500000  1
  Ni  Ni1  1  0.50000000  0.50000000  0.50000000  1
  P  P2  1  0.25000000  0.25000000  0.25000000  1
  P  P3  1  0.75000000  0.75000000  0.75000000  1
  P  P4  1  0.26769658  0.52319101  0.22040486  1
  P  P5  1  0.26979003  0.40112682  0.10879943  1
  Li  Li6  1  0.81371928  0.73587381  0.16966106  1
  Li  Li7  1  0.86186672  0.21160729  0.94937300  1
  Cu  Cu8  1  0.02188678  0.32257497  0.57959431  1
  Cu  Cu9  1  0.50281247  0.61282341  0.35927460  1
