# generated using pymatgen
data_Li2Mn3Sb4P3
_symmetry_space_group_name_H-M   'P 1'
_cell_length_a   6.49408749
_cell_length_b   7.00618091
_cell_length_c   6.98761880
_cell_angle_alpha   95.10626099
_cell_angle_beta   90.25509227
_cell_angle_gamma   95.00469744
_symmetry_Int_Tables_number   1
_chemical_formula_structural   Li2Mn3Sb4P3
_chemical_formula_sum   'Li2 Mn3 Sb4 P3'
_cell_volume   315.43500236
_cell_formula_units_Z   1
loop_
 _symmetry_equiv_pos_site_id
 _symmetry_equiv_pos_as_xyz
  1  'x, y, z'
loop_
 _atom_site_type_symbol
 _atom_site_label
 _atom_site_symmetry_multiplicity
 _atom_site_fract_x
 _atom_site_fract_y
 _atom_site_fract_z
 _atom_site_occupancy
  Mn  Mn0  1  0.12500000  0.00000000  0.25000000  1
  Mn  Mn1  1  0.00000000  0.00000000  0.00000000  1
  Mn  Mn2  1  0.37500000  0.00000000  0.25000000  1
  Sb  Sb3  1  0.25000000  0.25000000  0.25000000  1
  Sb  Sb4  1  0.00000000  0.25000000  0.12500000  1
  Sb  Sb5  1  0.37835670  0.69780852  0.17886102  1
  Sb  Sb6  1  0.91400141  0.46359988  0.59936700  1
  P  P7  1  0.83079540  0.69510706  0.29932045  1
  P  P8  1  0.89280093  0.11021725  0.90551127  1
  P  P9  1  0.24323016  0.75540408  0.46191767  1
  Li  Li10  1  0.76102977  0.91807517  0.44167486  1
  Li  Li11  1  0.87220768  0.02412530  0.62180759  1
