# generated using pymatgen
data_Li2Ti(I2O)2
_symmetry_space_group_name_H-M   'P 1'
_cell_length_a   8.47565796
_cell_length_b   8.36071217
_cell_length_c   7.26069206
_cell_angle_alpha   90.11306965
_cell_angle_beta   90.53795106
_cell_angle_gamma   90.12926880
_symmetry_Int_Tables_number   1
_chemical_formula_structural   Li2Ti(I2O)2
_chemical_formula_sum   'Li2 Ti1 I4 O2'
_cell_volume   514.48604647
_cell_formula_units_Z   1
loop_
 _symmetry_equiv_pos_site_id
 _symmetry_equiv_pos_as_xyz
  1  'x, y, z'
loop_
 _atom_site_type_symbol
 _atom_site_label
 _atom_site_symmetry_multiplicity
 _atom_site_fract_x
 _atom_site_fract_y
 _atom_site_fract_z
 _atom_site_occupancy
  I  I0  1  0.00000000  0.00000000  0.00000000  1
  I  I1  1  0.33300000  0.66700000  0.25000000  1
  I  I2  1  0.66700000  0.33300000  0.50000000  1
  I  I3  1  0.00000000  0.00000000  0.75000000  1
  Li  Li4  1  0.57544549  0.43571192  0.41964051  1
  Li  Li5  1  0.28863648  0.68389380  0.34501497  1
  Ti  Ti6  1  0.27994337  0.31133953  0.18559335  1
  O  O7  1  0.75635753  0.22571017  0.56423592  1
  O  O8  1  0.77510198  0.51033644  0.85174059  1
