# generated using pymatgen
data_Li2Mn2Sb4P3
_symmetry_space_group_name_H-M   'P 1'
_cell_length_a   6.92619310
_cell_length_b   7.53797938
_cell_length_c   7.43477548
_cell_angle_alpha   91.71220229
_cell_angle_beta   92.02826182
_cell_angle_gamma   91.94869761
_symmetry_Int_Tables_number   1
_chemical_formula_structural   Li2Mn2Sb4P3
_chemical_formula_sum   'Li2 Mn2 Sb4 P3'
_cell_volume   387.51060049
_cell_formula_units_Z   1
loop_
 _symmetry_equiv_pos_site_id
 _symmetry_equiv_pos_as_xyz
  1  'x, y, z'
loop_
 _atom_site_type_symbol
 _atom_site_label
 _atom_site_symmetry_multiplicity
 _atom_site_fract_x
 _atom_site_fract_y
 _atom_site_fract_z
 _atom_site_occupancy
  Mn  Mn0  1  0.00000000  0.00000000  0.00000000  1
  Mn  Mn1  1  0.50000000  0.50000000  0.50000000  1
  Sb  Sb2  1  0.50000000  0.50000000  0.00000000  1
  Sb  Sb3  1  0.50000000  0.00000000  0.50000000  1
  Sb  Sb4  1  0.00000000  0.50000000  0.50000000  1
  Sb  Sb5  1  0.58361660  0.59258917  0.38611294  1
  P  P6  1  0.60666528  0.87729488  0.16077495  1
  P  P7  1  0.59726450  0.91870438  0.84793346  1
  P  P8  1  0.93379256  0.35210992  0.26276943  1
  Li  Li9  1  0.06405305  0.10012372  0.69441602  1
  Li  Li10  1  0.84065828  0.73243789  0.34523738  1
