# generated using pymatgen
data_Li2TiP3Se2O
_symmetry_space_group_name_H-M   'P 1'
_cell_length_a   8.11962069
_cell_length_b   7.82877211
_cell_length_c   6.97429504
_cell_angle_alpha   90.23554029
_cell_angle_beta   91.12062914
_cell_angle_gamma   90.26928544
_symmetry_Int_Tables_number   1
_chemical_formula_structural   Li2TiP3Se2O
_chemical_formula_sum   'Li2 Ti1 P3 Se2 O1'
_cell_volume   443.23903570
_cell_formula_units_Z   1
loop_
 _symmetry_equiv_pos_site_id
 _symmetry_equiv_pos_as_xyz
  1  'x, y, z'
loop_
 _atom_site_type_symbol
 _atom_site_label
 _atom_site_symmetry_multiplicity
 _atom_site_fract_x
 _atom_site_fract_y
 _atom_site_fract_z
 _atom_site_occupancy
  P  P0  1  0.12500000  0.00000000  0.25000000  1
  P  P1  1  0.00000000  0.00000000  0.00000000  1
  P  P2  1  0.37500000  0.00000000  0.25000000  1
  Li  Li3  1  0.25000000  0.25000000  0.25000000  1
  Li  Li4  1  0.00000000  0.25000000  0.12500000  1
  Se  Se5  1  0.60770741  0.28446936  0.30869387  1
  Se  Se6  1  0.48274738  0.84275919  0.87073136  1
  Ti  Ti7  1  0.19679478  0.29503248  0.47582043  1
  O  O8  1  0.83082718  0.32575516  0.64571646  1
