# generated using pymatgen
data_Li3TiI4N5O2
_symmetry_space_group_name_H-M   'P 1'
_cell_length_a   7.25735232
_cell_length_b   6.95752762
_cell_length_c   7.58349165
_cell_angle_alpha   93.66025692
_cell_angle_beta   93.39622161
_cell_angle_gamma   93.56530259
_symmetry_Int_Tables_number   1
_chemical_formula_structural   Li3TiI4N5O2
_chemical_formula_sum   'Li3 Ti1 I4 N5 O2'
_cell_volume   380.62548915
_cell_formula_units_Z   1
loop_
 _symmetry_equiv_pos_site_id
 _symmetry_equiv_pos_as_xyz
  1  'x, y, z'
loop_
 _atom_site_type_symbol
 _atom_site_label
 _atom_site_symmetry_multiplicity
 _atom_site_fract_x
 _atom_site_fract_y
 _atom_site_fract_z
 _atom_site_occupancy
  I  I0  1  0.12500000  0.00000000  0.25000000  1
  I  I1  1  0.00000000  0.00000000  0.00000000  1
  I  I2  1  0.37500000  0.00000000  0.25000000  1
  I  I3  1  0.25000000  0.25000000  0.25000000  1
  Li  Li4  1  0.00000000  0.25000000  0.12500000  1
  Li  Li5  1  0.50237440  0.72177237  0.80482028  1
  Li  Li6  1  0.85573567  0.88688703  0.92501143  1
  Ti  Ti7  1  0.26968484  0.30408181  0.58322629  1
  O  O8  1  0.43545123  0.19060720  0.46239533  1
  O  O9  1  0.92857864  0.23512760  0.77183723  1
  N  N10  1  0.86958400  0.30700425  0.96962709  1
  N  N11  1  0.55716505  0.26801571  0.43477399  1
  N  N12  1  0.29180994  0.63768658  0.88978207  1
  N  N13  1  0.82733702  0.16460376  0.68389612  1
  N  N14  1  0.41902441  0.59618001  0.81632926  1
