# generated using pymatgen
data_Li2MnSb4P3
_symmetry_space_group_name_H-M   'P 1'
_cell_length_a   4.75051350
_cell_length_b   5.06628731
_cell_length_c   7.28208827
_cell_angle_alpha   97.74489821
_cell_angle_beta   99.17454755
_cell_angle_gamma   98.81465042
_symmetry_Int_Tables_number   1
_chemical_formula_structural   Li2MnSb4P3
_chemical_formula_sum   'Li2 Mn1 Sb4 P3'
_cell_volume   168.68396774
_cell_formula_units_Z   1
loop_
 _symmetry_equiv_pos_site_id
 _symmetry_equiv_pos_as_xyz
  1  'x, y, z'
loop_
 _atom_site_type_symbol
 _atom_site_label
 _atom_site_symmetry_multiplicity
 _atom_site_fract_x
 _atom_site_fract_y
 _atom_site_fract_z
 _atom_site_occupancy
  Mn  Mn0  1  0.12500000  0.12500000  0.12500000  1
  Sb  Sb1  1  0.50000000  0.50000000  0.50000000  1
  Sb  Sb2  1  0.25000000  0.25000000  0.25000000  1
  Sb  Sb3  1  0.75000000  0.75000000  0.75000000  1
  Sb  Sb4  1  0.38583920  0.73565791  0.73088695  1
  P  P5  1  0.38739294  0.45462422  0.78404167  1
  P  P6  1  0.06332137  0.78233832  0.94488563  1
  P  P7  1  0.02727705  0.18650577  0.00295782  1
  Li  Li8  1  0.35390901  0.66903789  0.67287140  1
  Li  Li9  1  0.99836250  0.86978435  0.06604207  1
