# generated using pymatgen
data_Li2Mn2Sb4Mo2P3
_symmetry_space_group_name_H-M   'P 1'
_cell_length_a   5.01833224
_cell_length_b   5.31314522
_cell_length_c   6.52237296
_cell_angle_alpha   100.30187626
_cell_angle_beta   93.19825375
_cell_angle_gamma   100.47070051
_symmetry_Int_Tables_number   1
_chemical_formula_structural   Li2Mn2Sb4Mo2P3
_chemical_formula_sum   'Li2 Mn2 Sb4 Mo2 P3'
_cell_volume   167.55205804
_cell_formula_units_Z   1
loop_
 _symmetry_equiv_pos_site_id
 _symmetry_equiv_pos_as_xyz
  1  'x, y, z'
loop_
 _atom_site_type_symbol
 _atom_site_label
 _atom_site_symmetry_multiplicity
 _atom_site_fract_x
 _atom_site_fract_y
 _atom_site_fract_z
 _atom_site_occupancy
  Mn  Mn0  1  0.12500000  0.00000000  0.25000000  1
  Mn  Mn1  1  0.00000000  0.00000000  0.00000000  1
  Sb  Sb2  1  0.37500000  0.00000000  0.25000000  1
  Sb  Sb3  1  0.25000000  0.25000000  0.25000000  1
  Sb  Sb4  1  0.00000000  0.25000000  0.12500000  1
  Sb  Sb5  1  0.19668809  0.82872838  0.54519633  1
  P  P6  1  0.90665885  0.64200938  0.21484182  1
  P  P7  1  0.92601392  0.97461607  0.91606806  1
  P  P8  1  0.05345843  0.38781056  0.94498854  1
  Mo  Mo9  1  0.22619489  0.40532320  0.80910927  1
  Mo  Mo10  1  0.06237419  0.13437218  0.52014882  1
  Li  Li11  1  0.43546135  0.67666962  0.34383530  1
  Li  Li12  1  0.82457279  0.94333929  0.07117763  1
