# generated using pymatgen
data_LiMn3Sb4Mo2P3
_symmetry_space_group_name_H-M   'P 1'
_cell_length_a   5.53606769
_cell_length_b   5.36677751
_cell_length_c   5.98129300
_cell_angle_alpha   94.75020644
_cell_angle_beta   88.67533969
_cell_angle_gamma   93.93209999
_symmetry_Int_Tables_number   1
_chemical_formula_structural   LiMn3Sb4Mo2P3
_chemical_formula_sum   'Li1 Mn3 Sb4 Mo2 P3'
_cell_volume   176.65479695
_cell_formula_units_Z   1
loop_
 _symmetry_equiv_pos_site_id
 _symmetry_equiv_pos_as_xyz
  1  'x, y, z'
loop_
 _atom_site_type_symbol
 _atom_site_label
 _atom_site_symmetry_multiplicity
 _atom_site_fract_x
 _atom_site_fract_y
 _atom_site_fract_z
 _atom_site_occupancy
  Mn  Mn0  1  0.00000000  0.00000000  0.00000000  1
  Mn  Mn1  1  0.50000000  0.50000000  0.50000000  1
  Mn  Mn2  1  0.50000000  0.50000000  0.00000000  1
  Sb  Sb3  1  0.50000000  0.00000000  0.50000000  1
  Sb  Sb4  1  0.00000000  0.50000000  0.50000000  1
  Sb  Sb5  1  0.56423461  0.27278345  0.11868007  1
  Sb  Sb6  1  0.61593130  0.03782472  0.11484912  1
  P  P7  1  0.31745113  0.11500265  0.48785722  1
  P  P8  1  0.11100719  0.53026695  0.26037391  1
  P  P9  1  0.21532590  0.62121599  0.81105452  1
  Mo  Mo10  1  0.66137327  0.80252487  0.90139774  1
  Mo  Mo11  1  0.36663698  0.53091623  0.88015002  1
  Li  Li12  1  0.60881838  0.42942809  0.58136994  1
