# generated using pymatgen
data_LiMn2Sb4P3
_symmetry_space_group_name_H-M   'P 1'
_cell_length_a   5.26541878
_cell_length_b   5.58495834
_cell_length_c   6.54007201
_cell_angle_alpha   98.11107274
_cell_angle_beta   92.63511040
_cell_angle_gamma   98.16804128
_symmetry_Int_Tables_number   1
_chemical_formula_structural   LiMn2Sb4P3
_chemical_formula_sum   'Li1 Mn2 Sb4 P3'
_cell_volume   188.04119444
_cell_formula_units_Z   1
loop_
 _symmetry_equiv_pos_site_id
 _symmetry_equiv_pos_as_xyz
  1  'x, y, z'
loop_
 _atom_site_type_symbol
 _atom_site_label
 _atom_site_symmetry_multiplicity
 _atom_site_fract_x
 _atom_site_fract_y
 _atom_site_fract_z
 _atom_site_occupancy
  Mn  Mn0  1  0.00000000  0.00000000  0.00000000  1
  Mn  Mn1  1  0.50000000  0.50000000  0.50000000  1
  Sb  Sb2  1  0.25000000  0.25000000  0.25000000  1
  Sb  Sb3  1  0.75000000  0.25000000  0.00000000  1
  Sb  Sb4  1  0.25000000  0.75000000  0.50000000  1
  Sb  Sb5  1  0.18729781  0.93111479  0.35627675  1
  P  P6  1  0.63753135  0.81701134  0.48368027  1
  P  P7  1  0.06670044  0.62170894  0.63623576  1
  P  P8  1  0.27694198  0.47090021  0.14802276  1
  Li  Li9  1  0.45950142  0.65951298  0.20941887  1
