# generated using pymatgen
data_Li2Mn2Sb4P3
_symmetry_space_group_name_H-M   'P 1'
_cell_length_a   5.52454275
_cell_length_b   5.98310135
_cell_length_c   7.19304282
_cell_angle_alpha   95.39770110
_cell_angle_beta   96.39407570
_cell_angle_gamma   96.14325030
_symmetry_Int_Tables_number   1
_chemical_formula_structural   Li2Mn2Sb4P3
_chemical_formula_sum   'Li2 Mn2 Sb4 P3'
_cell_volume   233.56687165
_cell_formula_units_Z   1
loop_
 _symmetry_equiv_pos_site_id
 _symmetry_equiv_pos_as_xyz
  1  'x, y, z'
loop_
 _atom_site_type_symbol
 _atom_site_label
 _atom_site_symmetry_multiplicity
 _atom_site_fract_x
 _atom_site_fract_y
 _atom_site_fract_z
 _atom_site_occupancy
  Mn  Mn0  1  0.00000000  0.00000000  0.00000000  1
  Mn  Mn1  1  0.50000000  0.50000000  0.50000000  1
  Sb  Sb2  1  0.50000000  0.50000000  0.00000000  1
  Sb  Sb3  1  0.50000000  0.00000000  0.50000000  1
  Sb  Sb4  1  0.00000000  0.50000000  0.50000000  1
  Sb  Sb5  1  0.86689364  0.39019864  0.80704387  1
  P  P6  1  0.61850303  0.35090055  0.54076281  1
  P  P7  1  0.60844279  0.09431948  0.10529228  1
  P  P8  1  0.92699148  0.91368453  0.05302737  1
  Li  Li9  1  0.96666630  0.79132983  0.89453267  1
  Li  Li10  1  0.54773616  0.82389034  0.91134403  1
