# generated using pymatgen
data_Li2Mn2Sb4P3
_symmetry_space_group_name_H-M   'P 1'
_cell_length_a   6.73735856
_cell_length_b   7.32850154
_cell_length_c   7.40220853
_cell_angle_alpha   92.20872376
_cell_angle_beta   92.61643737
_cell_angle_gamma   92.51380034
_symmetry_Int_Tables_number   1
_chemical_formula_structural   Li2Mn2Sb4P3
_chemical_formula_sum   'Li2 Mn2 Sb4 P3'
_cell_volume   364.44869668
_cell_formula_units_Z   1
loop_
 _symmetry_equiv_pos_site_id
 _symmetry_equiv_pos_as_xyz
  1  'x, y, z'
loop_
 _atom_site_type_symbol
 _atom_site_label
 _atom_site_symmetry_multiplicity
 _atom_site_fract_x
 _atom_site_fract_y
 _atom_site_fract_z
 _atom_site_occupancy
  Mn  Mn0  1  0.00000000  0.00000000  0.00000000  1
  Mn  Mn1  1  0.50000000  0.50000000  0.50000000  1
  Sb  Sb2  1  0.50000000  0.50000000  0.00000000  1
  Sb  Sb3  1  0.50000000  0.00000000  0.50000000  1
  Sb  Sb4  1  0.00000000  0.50000000  0.50000000  1
  Sb  Sb5  1  0.69913211  0.26751135  0.54007032  1
  P  P6  1  0.24784397  0.71533559  0.96842868  1
  P  P7  1  0.76582938  0.63778045  0.10447799  1
  P  P8  1  0.14019930  0.73994466  0.13973634  1
  Li  Li9  1  0.59639544  0.98591425  0.16997399  1
  Li  Li10  1  0.36779130  0.11163447  0.58561775  1
