# generated using pymatgen
data_Li2Mn2Sb4P3
_symmetry_space_group_name_H-M   'P 1'
_cell_length_a   4.86270363
_cell_length_b   5.13990686
_cell_length_c   6.27521733
_cell_angle_alpha   102.00161376
_cell_angle_beta   91.71110097
_cell_angle_gamma   101.91769859
_symmetry_Int_Tables_number   1
_chemical_formula_structural   Li2Mn2Sb4P3
_chemical_formula_sum   'Li2 Mn2 Sb4 P3'
_cell_volume   149.67181744
_cell_formula_units_Z   1
loop_
 _symmetry_equiv_pos_site_id
 _symmetry_equiv_pos_as_xyz
  1  'x, y, z'
loop_
 _atom_site_type_symbol
 _atom_site_label
 _atom_site_symmetry_multiplicity
 _atom_site_fract_x
 _atom_site_fract_y
 _atom_site_fract_z
 _atom_site_occupancy
  Mn  Mn0  1  0.00000000  0.00000000  0.00000000  1
  Mn  Mn1  1  0.50000000  0.50000000  0.50000000  1
  Sb  Sb2  1  0.25000000  0.25000000  0.25000000  1
  Sb  Sb3  1  0.75000000  0.25000000  0.00000000  1
  Sb  Sb4  1  0.25000000  0.75000000  0.50000000  1
  Sb  Sb5  1  0.93621699  0.06451285  0.64293389  1
  P  P6  1  0.59940620  0.35036163  0.02285714  1
  P  P7  1  0.97836616  0.61159837  0.27388089  1
  P  P8  1  0.02101226  0.16048346  0.47327785  1
  Li  Li9  1  0.04256383  0.89107816  0.73734448  1
  Li  Li10  1  0.80116814  0.36293375  0.47150445  1
