# generated using pymatgen
data_LiMn2Sb2Mo2P3
_symmetry_space_group_name_H-M   'P 1'
_cell_length_a   6.04986010
_cell_length_b   6.48937661
_cell_length_c   6.83518365
_cell_angle_alpha   93.29642168
_cell_angle_beta   92.15196973
_cell_angle_gamma   93.60899421
_symmetry_Int_Tables_number   1
_chemical_formula_structural   LiMn2Sb2Mo2P3
_chemical_formula_sum   'Li1 Mn2 Sb2 Mo2 P3'
_cell_volume   267.14444212
_cell_formula_units_Z   1
loop_
 _symmetry_equiv_pos_site_id
 _symmetry_equiv_pos_as_xyz
  1  'x, y, z'
loop_
 _atom_site_type_symbol
 _atom_site_label
 _atom_site_symmetry_multiplicity
 _atom_site_fract_x
 _atom_site_fract_y
 _atom_site_fract_z
 _atom_site_occupancy
  Mn  Mn0  1  0.12500000  0.00000000  0.25000000  1
  Mn  Mn1  1  0.00000000  0.00000000  0.00000000  1
  Sb  Sb2  1  0.37500000  0.00000000  0.25000000  1
  Sb  Sb3  1  0.25000000  0.25000000  0.25000000  1
  P  P4  1  0.00000000  0.25000000  0.12500000  1
  P  P5  1  0.59563797  0.57734173  0.38351615  1
  P  P6  1  0.52323529  0.40553027  0.82359018  1
  Mo  Mo7  1  0.55532874  0.61179711  0.95833062  1
  Mo  Mo8  1  0.92308228  0.58010983  0.47087680  1
  Li  Li9  1  0.56483634  0.89897963  0.38707243  1
