# generated using pymatgen
data_Li5Ti3P2Se
_symmetry_space_group_name_H-M   'P 1'
_cell_length_a   6.53413598
_cell_length_b   6.50273210
_cell_length_c   6.53192135
_cell_angle_alpha   96.54454848
_cell_angle_beta   98.86424720
_cell_angle_gamma   98.42223689
_symmetry_Int_Tables_number   1
_chemical_formula_structural   Li5Ti3P2Se
_chemical_formula_sum   'Li5 Ti3 P2 Se1'
_cell_volume   268.60719941
_cell_formula_units_Z   1
loop_
 _symmetry_equiv_pos_site_id
 _symmetry_equiv_pos_as_xyz
  1  'x, y, z'
loop_
 _atom_site_type_symbol
 _atom_site_label
 _atom_site_symmetry_multiplicity
 _atom_site_fract_x
 _atom_site_fract_y
 _atom_site_fract_z
 _atom_site_occupancy
  P  P0  1  0.12500000  0.00000000  0.25000000  1
  P  P1  1  0.00000000  0.00000000  0.00000000  1
  Li  Li2  1  0.37500000  0.00000000  0.25000000  1
  Li  Li3  1  0.25000000  0.25000000  0.25000000  1
  Li  Li4  1  0.00000000  0.25000000  0.12500000  1
  Li  Li5  1  0.83348751  0.29469021  0.56975840  1
  Li  Li6  1  0.22930385  0.59218954  0.43673333  1
  Se  Se7  1  0.45702340  0.38943092  0.15026083  1
  Ti  Ti8  1  0.18824124  0.06288187  0.85281066  1
  Ti  Ti9  1  0.25586525  0.47171955  0.48638521  1
  Ti  Ti10  1  0.31861318  0.17464894  0.55486655  1
