# generated using pymatgen
data_LiMn2Sb4P3
_symmetry_space_group_name_H-M   'P 1'
_cell_length_a   5.50769381
_cell_length_b   5.88880513
_cell_length_c   6.89049724
_cell_angle_alpha   95.20990270
_cell_angle_beta   94.60001055
_cell_angle_gamma   95.59622988
_symmetry_Int_Tables_number   1
_chemical_formula_structural   LiMn2Sb4P3
_chemical_formula_sum   'Li1 Mn2 Sb4 P3'
_cell_volume   220.60458310
_cell_formula_units_Z   1
loop_
 _symmetry_equiv_pos_site_id
 _symmetry_equiv_pos_as_xyz
  1  'x, y, z'
loop_
 _atom_site_type_symbol
 _atom_site_label
 _atom_site_symmetry_multiplicity
 _atom_site_fract_x
 _atom_site_fract_y
 _atom_site_fract_z
 _atom_site_occupancy
  Mn  Mn0  1  0.12500000  0.00000000  0.25000000  1
  Mn  Mn1  1  0.00000000  0.00000000  0.00000000  1
  Sb  Sb2  1  0.37500000  0.00000000  0.25000000  1
  Sb  Sb3  1  0.25000000  0.25000000  0.25000000  1
  Sb  Sb4  1  0.00000000  0.25000000  0.12500000  1
  Sb  Sb5  1  0.16667062  0.83111429  0.01536892  1
  P  P6  1  0.55309438  0.25672260  0.26549597  1
  P  P7  1  0.27620759  0.19585633  0.08748145  1
  P  P8  1  0.38584864  0.04956170  0.92740822  1
  Li  Li9  1  0.58025995  0.00464351  0.42268749  1
