# generated using pymatgen
data_Li2TiAs6(IO)4
_symmetry_space_group_name_H-M   'P 1'
_cell_length_a   8.19447990
_cell_length_b   8.22766490
_cell_length_c   7.80242974
_cell_angle_alpha   90.23489587
_cell_angle_beta   91.11756319
_cell_angle_gamma   90.26854870
_symmetry_Int_Tables_number   1
_chemical_formula_structural   Li2TiAs6(IO)4
_chemical_formula_sum   'Li2 Ti1 As6 I4 O4'
_cell_volume   525.94054373
_cell_formula_units_Z   1
loop_
 _symmetry_equiv_pos_site_id
 _symmetry_equiv_pos_as_xyz
  1  'x, y, z'
loop_
 _atom_site_type_symbol
 _atom_site_label
 _atom_site_symmetry_multiplicity
 _atom_site_fract_x
 _atom_site_fract_y
 _atom_site_fract_z
 _atom_site_occupancy
  O  O0  1  0.12500000  0.00000000  0.25000000  1
  O  O1  1  0.00000000  0.00000000  0.00000000  1
  O  O2  1  0.37500000  0.00000000  0.25000000  1
  O  O3  1  0.25000000  0.25000000  0.25000000  1
  Ti  Ti4  1  0.00000000  0.25000000  0.12500000  1
  I  I5  1  0.07578921  0.72247213  0.60924313  1
  I  I6  1  0.06380898  0.43180448  0.85956565  1
  I  I7  1  0.60027916  0.32315553  0.91809403  1
  I  I8  1  0.09272343  0.32322396  0.44296550  1
  As  As9  1  0.28151259  0.02175980  0.08688591  1
  As  As10  1  0.10302754  0.05298055  0.68416914  1
  As  As11  1  0.69270427  0.56490803  0.28207981  1
  As  As12  1  0.04028733  0.45902967  0.18000127  1
  As  As13  1  0.65291667  0.33637727  0.49551147  1
  As  As14  1  0.30016503  0.76822098  0.25026472  1
  Li  Li15  1  0.47062573  0.04465366  0.88000399  1
  Li  Li16  1  0.87836521  0.57748022  0.58738645  1
