# generated using pymatgen
data_Li4TiO4F3
_symmetry_space_group_name_H-M   'P 1'
_cell_length_a   6.78091746
_cell_length_b   6.55409378
_cell_length_c   6.95341158
_cell_angle_alpha   98.04965638
_cell_angle_beta   100.39528306
_cell_angle_gamma   97.55053471
_symmetry_Int_Tables_number   1
_chemical_formula_structural   Li4TiO4F3
_chemical_formula_sum   'Li4 Ti1 O4 F3'
_cell_volume   297.04200925
_cell_formula_units_Z   1
loop_
 _symmetry_equiv_pos_site_id
 _symmetry_equiv_pos_as_xyz
  1  'x, y, z'
loop_
 _atom_site_type_symbol
 _atom_site_label
 _atom_site_symmetry_multiplicity
 _atom_site_fract_x
 _atom_site_fract_y
 _atom_site_fract_z
 _atom_site_occupancy
  Li  Li0  1  0.00000000  0.00000000  0.00000000  1
  Li  Li1  1  0.50000000  0.50000000  0.50000000  1
  Li  Li2  1  0.25000000  0.25000000  0.25000000  1
  Li  Li3  1  0.75000000  0.25000000  0.00000000  1
  F  F4  1  0.25000000  0.75000000  0.50000000  1
  F  F5  1  0.88259846  0.51427774  0.60063308  1
  F  F6  1  0.98925938  0.91620807  0.68552755  1
  Ti  Ti7  1  0.57858697  0.76781649  0.49324156  1
  O  O8  1  0.57179978  0.57936977  0.80848657  1
  O  O9  1  0.99222671  0.33732301  0.07775706  1
  O  O10  1  0.69635845  0.32392437  0.21717139  1
  O  O11  1  0.88096203  0.57160420  0.92174645  1
