# generated using pymatgen
data_Li2MnSb4P3
_symmetry_space_group_name_H-M   'P 1'
_cell_length_a   7.67882859
_cell_length_b   7.62514368
_cell_length_c   7.84793889
_cell_angle_alpha   90.77224809
_cell_angle_beta   90.91479921
_cell_angle_gamma   90.87891367
_symmetry_Int_Tables_number   1
_chemical_formula_structural   Li2MnSb4P3
_chemical_formula_sum   'Li2 Mn1 Sb4 P3'
_cell_volume   459.35795693
_cell_formula_units_Z   1
loop_
 _symmetry_equiv_pos_site_id
 _symmetry_equiv_pos_as_xyz
  1  'x, y, z'
loop_
 _atom_site_type_symbol
 _atom_site_label
 _atom_site_symmetry_multiplicity
 _atom_site_fract_x
 _atom_site_fract_y
 _atom_site_fract_z
 _atom_site_occupancy
  Mn  Mn0  1  0.12500000  0.12500000  0.12500000  1
  Sb  Sb1  1  0.50000000  0.50000000  0.50000000  1
  Sb  Sb2  1  0.25000000  0.25000000  0.25000000  1
  Sb  Sb3  1  0.75000000  0.75000000  0.75000000  1
  Sb  Sb4  1  0.75677791  0.26813441  0.99623900  1
  P  P5  1  0.01298616  0.40376113  0.37631652  1
  P  P6  1  0.79055294  0.58750947  0.92854510  1
  P  P7  1  0.00025787  0.79734597  0.96007377  1
  Li  Li8  1  0.11178749  0.40647337  0.26190738  1
  Li  Li9  1  0.68365868  0.78779781  0.05370130  1
