# generated using pymatgen
data_Li4Ni2As4NO4
_symmetry_space_group_name_H-M   'P 1'
_cell_length_a   8.23949506
_cell_length_b   7.58536035
_cell_length_c   9.67184763
_cell_angle_alpha   90.00000000
_cell_angle_beta   90.00000000
_cell_angle_gamma   90.00000000
_symmetry_Int_Tables_number   1
_chemical_formula_structural   Li4Ni2As4NO4
_chemical_formula_sum   'Li4 Ni2 As4 N1 O4'
_cell_volume   604.48601929
_cell_formula_units_Z   1
loop_
 _symmetry_equiv_pos_site_id
 _symmetry_equiv_pos_as_xyz
  1  'x, y, z'
loop_
 _atom_site_type_symbol
 _atom_site_label
 _atom_site_symmetry_multiplicity
 _atom_site_fract_x
 _atom_site_fract_y
 _atom_site_fract_z
 _atom_site_occupancy
  Li  Li0  1  0.00000000  0.00000000  0.00000000  1
  Li  Li1  1  0.50000000  0.50000000  0.50000000  1
  Li  Li2  1  0.25000000  0.25000000  0.25000000  1
  Li  Li3  1  0.75000000  0.25000000  0.00000000  1
  Ni  Ni4  1  0.25000000  0.75000000  0.50000000  1
  Ni  Ni5  1  0.79703771  0.91206731  0.40342898  1
  As  As6  1  0.97190929  0.45339118  0.95946724  1
  As  As7  1  0.78029748  0.57119876  0.88865634  1
  As  As8  1  0.63619808  0.67861043  0.36433099  1
  As  As9  1  0.72307023  0.89671164  0.57223050  1
  O  O10  1  0.82820850  0.17255550  0.75228491  1
  O  O11  1  0.98051798  0.30465775  0.68224114  1
  O  O12  1  0.89117637  0.82221623  0.22756631  1
  O  O13  1  0.75239400  0.30953299  0.51591597  1
  N  N14  1  0.25932575  0.02888227  0.65821582  1
