# generated using pymatgen
data_Li3Ti2(NiAs3)2
_symmetry_space_group_name_H-M   'P 1'
_cell_length_a   6.36418772
_cell_length_b   6.22542964
_cell_length_c   7.70757198
_cell_angle_alpha   94.73610281
_cell_angle_beta   95.77015914
_cell_angle_gamma   94.62020089
_symmetry_Int_Tables_number   1
_chemical_formula_structural   Li3Ti2(NiAs3)2
_chemical_formula_sum   'Li3 Ti2 Ni2 As6'
_cell_volume   301.56969628
_cell_formula_units_Z   1
loop_
 _symmetry_equiv_pos_site_id
 _symmetry_equiv_pos_as_xyz
  1  'x, y, z'
loop_
 _atom_site_type_symbol
 _atom_site_label
 _atom_site_symmetry_multiplicity
 _atom_site_fract_x
 _atom_site_fract_y
 _atom_site_fract_z
 _atom_site_occupancy
  Li  Li0  1  0.12500000  0.00000000  0.25000000  1
  Li  Li1  1  0.00000000  0.00000000  0.00000000  1
  Li  Li2  1  0.37500000  0.00000000  0.25000000  1
  Ni  Ni3  1  0.25000000  0.25000000  0.25000000  1
  Ni  Ni4  1  0.00000000  0.25000000  0.12500000  1
  Ti  Ti5  1  0.47883429  0.65097208  0.76932819  1
  Ti  Ti6  1  0.21544484  0.71255318  0.22495360  1
  As  As7  1  0.14116857  0.25903904  0.12510190  1
  As  As8  1  0.79082890  0.00628515  0.21902664  1
  As  As9  1  0.33283764  0.46867713  0.52589198  1
  As  As10  1  0.47351964  0.79492664  0.83019991  1
  As  As11  1  0.47690699  0.41319009  0.46726426  1
  As  As12  1  0.13571078  0.51011061  0.44308174  1
