# generated using pymatgen
data_Li2MnSb4P3
_symmetry_space_group_name_H-M   'P 1'
_cell_length_a   4.44367846
_cell_length_b   4.65765549
_cell_length_c   6.87591841
_cell_angle_alpha   99.54971343
_cell_angle_beta   99.30571640
_cell_angle_gamma   100.64244890
_symmetry_Int_Tables_number   1
_chemical_formula_structural   Li2MnSb4P3
_chemical_formula_sum   'Li2 Mn1 Sb4 P3'
_cell_volume   135.18214992
_cell_formula_units_Z   1
loop_
 _symmetry_equiv_pos_site_id
 _symmetry_equiv_pos_as_xyz
  1  'x, y, z'
loop_
 _atom_site_type_symbol
 _atom_site_label
 _atom_site_symmetry_multiplicity
 _atom_site_fract_x
 _atom_site_fract_y
 _atom_site_fract_z
 _atom_site_occupancy
  Mn  Mn0  1  0.12500000  0.00000000  0.25000000  1
  Sb  Sb1  1  0.00000000  0.00000000  0.00000000  1
  Sb  Sb2  1  0.37500000  0.00000000  0.25000000  1
  Sb  Sb3  1  0.25000000  0.25000000  0.25000000  1
  Sb  Sb4  1  0.00000000  0.25000000  0.12500000  1
  P  P5  1  0.77633292  0.62514669  0.25152690  1
  P  P6  1  0.18714506  0.59254474  0.67548846  1
  P  P7  1  0.48722648  0.45843837  0.18656533  1
  Li  Li8  1  0.22530901  0.23461271  0.10580588  1
  Li  Li9  1  0.77449582  0.84390545  0.29839711  1
