# generated using pymatgen
data_LiMn3Sb4Mo2P3
_symmetry_space_group_name_H-M   'P 1'
_cell_length_a   6.47899233
_cell_length_b   6.67956370
_cell_length_c   6.86047947
_cell_angle_alpha   95.56609297
_cell_angle_beta   91.35408523
_cell_angle_gamma   95.64622363
_symmetry_Int_Tables_number   1
_chemical_formula_structural   LiMn3Sb4Mo2P3
_chemical_formula_sum   'Li1 Mn3 Sb4 Mo2 P3'
_cell_volume   293.90134231
_cell_formula_units_Z   1
loop_
 _symmetry_equiv_pos_site_id
 _symmetry_equiv_pos_as_xyz
  1  'x, y, z'
loop_
 _atom_site_type_symbol
 _atom_site_label
 _atom_site_symmetry_multiplicity
 _atom_site_fract_x
 _atom_site_fract_y
 _atom_site_fract_z
 _atom_site_occupancy
  Mn  Mn0  1  0.00000000  0.00000000  0.00000000  1
  Mn  Mn1  1  0.50000000  0.50000000  0.50000000  1
  Mn  Mn2  1  0.50000000  0.50000000  0.00000000  1
  Sb  Sb3  1  0.50000000  0.00000000  0.50000000  1
  Sb  Sb4  1  0.00000000  0.50000000  0.50000000  1
  Sb  Sb5  1  0.94646539  0.90892064  0.22766008  1
  Sb  Sb6  1  0.14349125  0.18149898  0.81331725  1
  P  P7  1  0.41186531  0.19243419  0.06894009  1
  P  P8  1  0.02321812  0.67030228  0.69713376  1
  P  P9  1  0.80615902  0.14790340  0.38435621  1
  Mo  Mo10  1  0.91734376  0.81748980  0.87243459  1
  Mo  Mo11  1  0.80715893  0.02968960  0.98373149  1
  Li  Li12  1  0.87087433  0.37746456  0.72865062  1
