# generated using pymatgen
data_Li3LuCu2(NiAs3)2
_symmetry_space_group_name_H-M   'P 1'
_cell_length_a   7.44634934
_cell_length_b   7.26454875
_cell_length_c   8.71762434
_cell_angle_alpha   92.45658434
_cell_angle_beta   91.60375374
_cell_angle_gamma   92.84656719
_symmetry_Int_Tables_number   1
_chemical_formula_structural   Li3LuCu2(NiAs3)2
_chemical_formula_sum   'Li3 Lu1 Cu2 Ni2 As6'
_cell_volume   470.34529646
_cell_formula_units_Z   1
loop_
 _symmetry_equiv_pos_site_id
 _symmetry_equiv_pos_as_xyz
  1  'x, y, z'
loop_
 _atom_site_type_symbol
 _atom_site_label
 _atom_site_symmetry_multiplicity
 _atom_site_fract_x
 _atom_site_fract_y
 _atom_site_fract_z
 _atom_site_occupancy
  Lu  Lu0  1  0.00000000  0.00000000  0.00000000  1
  Li  Li1  1  0.50000000  0.50000000  0.50000000  1
  Li  Li2  1  0.50000000  0.50000000  0.00000000  1
  Li  Li3  1  0.50000000  0.00000000  0.50000000  1
  Cu  Cu4  1  0.00000000  0.50000000  0.50000000  1
  Cu  Cu5  1  0.68562218  0.69520006  0.08091197  1
  Ni  Ni6  1  0.70047536  0.73424220  0.20071174  1
  Ni  Ni7  1  0.70660998  0.13898959  0.83496701  1
  As  As8  1  0.41143121  0.49963275  0.50327735  1
  As  As9  1  0.38494941  0.47554360  0.33909709  1
  As  As10  1  0.97846512  0.64433003  0.29530931  1
  As  As11  1  0.74269309  0.31284718  0.79059232  1
  As  As12  1  0.31666382  0.60934382  0.99060168  1
  As  As13  1  0.51776011  0.13020410  0.66419841  1
