# generated using pymatgen
data_Li2MnSb4P3
_symmetry_space_group_name_H-M   'P 1'
_cell_length_a   5.05417953
_cell_length_b   5.46131826
_cell_length_c   7.11192262
_cell_angle_alpha   96.63447397
_cell_angle_beta   97.85914743
_cell_angle_gamma   97.55085053
_symmetry_Int_Tables_number   1
_chemical_formula_structural   Li2MnSb4P3
_chemical_formula_sum   'Li2 Mn1 Sb4 P3'
_cell_volume   190.98685865
_cell_formula_units_Z   1
loop_
 _symmetry_equiv_pos_site_id
 _symmetry_equiv_pos_as_xyz
  1  'x, y, z'
loop_
 _atom_site_type_symbol
 _atom_site_label
 _atom_site_symmetry_multiplicity
 _atom_site_fract_x
 _atom_site_fract_y
 _atom_site_fract_z
 _atom_site_occupancy
  Mn  Mn0  1  0.00000000  0.00000000  0.00000000  1
  Sb  Sb1  1  0.33300000  0.66700000  0.25000000  1
  Sb  Sb2  1  0.66700000  0.33300000  0.50000000  1
  Sb  Sb3  1  0.00000000  0.00000000  0.75000000  1
  Sb  Sb4  1  0.61516742  0.18992525  0.46772852  1
  P  P5  1  0.30232424  0.53784456  0.78016293  1
  P  P6  1  0.14789232  0.52172187  0.88552473  1
  P  P7  1  0.49063462  0.84898002  0.82938191  1
  Li  Li8  1  0.93906449  0.64397493  0.80758408  1
  Li  Li9  1  0.88095032  0.80906759  0.92079575  1
