# generated using pymatgen
data_Li2MnSb4P3
_symmetry_space_group_name_H-M   'P 1'
_cell_length_a   4.86998641
_cell_length_b   5.22832911
_cell_length_c   6.87655887
_cell_angle_alpha   98.35243523
_cell_angle_beta   96.72868748
_cell_angle_gamma   99.06525745
_symmetry_Int_Tables_number   1
_chemical_formula_structural   Li2MnSb4P3
_chemical_formula_sum   'Li2 Mn1 Sb4 P3'
_cell_volume   169.30257290
_cell_formula_units_Z   1
loop_
 _symmetry_equiv_pos_site_id
 _symmetry_equiv_pos_as_xyz
  1  'x, y, z'
loop_
 _atom_site_type_symbol
 _atom_site_label
 _atom_site_symmetry_multiplicity
 _atom_site_fract_x
 _atom_site_fract_y
 _atom_site_fract_z
 _atom_site_occupancy
  Mn  Mn0  1  0.00000000  0.00000000  0.00000000  1
  Sb  Sb1  1  0.50000000  0.50000000  0.50000000  1
  Sb  Sb2  1  0.50000000  0.50000000  0.00000000  1
  Sb  Sb3  1  0.50000000  0.00000000  0.50000000  1
  Sb  Sb4  1  0.00000000  0.50000000  0.50000000  1
  P  P5  1  0.53000115  0.68811247  0.49540248  1
  P  P6  1  0.51906297  0.59862057  0.16632037  1
  P  P7  1  0.66409573  0.32345458  0.84028770  1
  Li  Li8  1  0.99999385  0.46112222  0.71390489  1
  Li  Li9  1  0.40228297  0.74770297  0.26792201  1
