# generated using pymatgen
data_Li3TiVBiO
_symmetry_space_group_name_H-M   'P 1'
_cell_length_a   3.67808145
_cell_length_b   3.77094098
_cell_length_c   4.58744895
_cell_angle_alpha   104.79887417
_cell_angle_beta   96.30606852
_cell_angle_gamma   92.24530942
_symmetry_Int_Tables_number   1
_chemical_formula_structural   Li3TiVBiO
_chemical_formula_sum   'Li3 Ti1 V1 Bi1 O1'
_cell_volume   60.99446532
_cell_formula_units_Z   1
loop_
 _symmetry_equiv_pos_site_id
 _symmetry_equiv_pos_as_xyz
  1  'x, y, z'
loop_
 _atom_site_type_symbol
 _atom_site_label
 _atom_site_symmetry_multiplicity
 _atom_site_fract_x
 _atom_site_fract_y
 _atom_site_fract_z
 _atom_site_occupancy
  Li  Li0  1  0.00000000  0.00000000  0.00000000  1
  Li  Li1  1  0.50000000  0.50000000  0.50000000  1
  Li  Li2  1  0.50000000  0.50000000  0.00000000  1
  Ti  Ti3  1  0.50000000  0.00000000  0.50000000  1
  V  V4  1  0.00000000  0.50000000  0.50000000  1
  Bi  Bi5  1  0.33378721  0.60861257  0.69031345  1
  O  O6  1  0.31596123  0.19638666  0.41167211  1
