# generated using pymatgen
data_Li3Ti2Cu2(P3O)2
_symmetry_space_group_name_H-M   'P 1'
_cell_length_a   7.05755446
_cell_length_b   7.03323980
_cell_length_c   7.41564878
_cell_angle_alpha   94.91013521
_cell_angle_beta   97.01158519
_cell_angle_gamma   96.30365655
_symmetry_Int_Tables_number   1
_chemical_formula_structural   Li3Ti2Cu2(P3O)2
_chemical_formula_sum   'Li3 Ti2 Cu2 P6 O2'
_cell_volume   361.29942198
_cell_formula_units_Z   1
loop_
 _symmetry_equiv_pos_site_id
 _symmetry_equiv_pos_as_xyz
  1  'x, y, z'
loop_
 _atom_site_type_symbol
 _atom_site_label
 _atom_site_symmetry_multiplicity
 _atom_site_fract_x
 _atom_site_fract_y
 _atom_site_fract_z
 _atom_site_occupancy
  P  P0  1  0.12500000  0.00000000  0.25000000  1
  P  P1  1  0.00000000  0.00000000  0.00000000  1
  P  P2  1  0.37500000  0.00000000  0.25000000  1
  P  P3  1  0.25000000  0.25000000  0.25000000  1
  P  P4  1  0.00000000  0.25000000  0.12500000  1
  P  P5  1  0.29547362  0.28291910  0.96898292  1
  Li  Li6  1  0.45950396  0.29804576  0.87327301  1
  Li  Li7  1  0.52844019  0.48837271  0.20031994  1
  Li  Li8  1  0.65308017  0.43487108  0.00245875  1
  Cu  Cu9  1  0.90496054  0.91879673  0.02538064  1
  Cu  Cu10  1  0.13654852  0.96781536  0.83855730  1
  Ti  Ti11  1  0.67884786  0.87903105  0.58578149  1
  Ti  Ti12  1  0.88170371  0.73426088  0.26579941  1
  O  O13  1  0.66777892  0.12507611  0.32047445  1
  O  O14  1  0.94538280  0.24025960  0.63026827  1
