# generated using pymatgen
data_Li2Mn3Sb4P3
_symmetry_space_group_name_H-M   'P 1'
_cell_length_a   5.54777545
_cell_length_b   5.91059567
_cell_length_c   6.49889636
_cell_angle_alpha   99.56688833
_cell_angle_beta   90.47793078
_cell_angle_gamma   99.37660289
_symmetry_Int_Tables_number   1
_chemical_formula_structural   Li2Mn3Sb4P3
_chemical_formula_sum   'Li2 Mn3 Sb4 P3'
_cell_volume   207.19414617
_cell_formula_units_Z   1
loop_
 _symmetry_equiv_pos_site_id
 _symmetry_equiv_pos_as_xyz
  1  'x, y, z'
loop_
 _atom_site_type_symbol
 _atom_site_label
 _atom_site_symmetry_multiplicity
 _atom_site_fract_x
 _atom_site_fract_y
 _atom_site_fract_z
 _atom_site_occupancy
  Mn  Mn0  1  0.00000000  0.00000000  0.00000000  1
  Mn  Mn1  1  0.33300000  0.66700000  0.25000000  1
  Mn  Mn2  1  0.66700000  0.33300000  0.50000000  1
  Sb  Sb3  1  0.00000000  0.00000000  0.75000000  1
  Sb  Sb4  1  0.87118920  0.34519616  0.43456955  1
  Sb  Sb5  1  0.21932917  0.40060932  0.46382010  1
  Sb  Sb6  1  0.45086140  0.12009167  0.97872430  1
  P  P7  1  0.62891198  0.44897485  0.53250120  1
  P  P8  1  0.26313022  0.55136338  0.48060961  1
  P  P9  1  0.31582747  0.84558997  0.98206361  1
  Li  Li10  1  0.73227652  0.85917646  0.36103720  1
  Li  Li11  1  0.55226776  0.04559308  0.29984466  1
