# generated using pymatgen
data_LiTiOF
_symmetry_space_group_name_H-M   'P 1'
_cell_length_a   6.70649886
_cell_length_b   6.75646485
_cell_length_c   7.27869460
_cell_angle_alpha   96.13583348
_cell_angle_beta   98.61075855
_cell_angle_gamma   97.88359181
_symmetry_Int_Tables_number   1
_chemical_formula_structural   LiTiOF
_chemical_formula_sum   'Li2 Ti2 O2 F2'
_cell_volume   320.26875460
_cell_formula_units_Z   2
loop_
 _symmetry_equiv_pos_site_id
 _symmetry_equiv_pos_as_xyz
  1  'x, y, z'
loop_
 _atom_site_type_symbol
 _atom_site_label
 _atom_site_symmetry_multiplicity
 _atom_site_fract_x
 _atom_site_fract_y
 _atom_site_fract_z
 _atom_site_occupancy
  Li  Li0  1  0.12500000  0.12500000  0.12500000  1
  Li  Li1  1  0.50000000  0.50000000  0.50000000  1
  F  F2  1  0.25000000  0.25000000  0.25000000  1
  F  F3  1  0.75000000  0.75000000  0.75000000  1
  Ti  Ti4  1  0.64760609  0.90741618  0.11987933  1
  Ti  Ti5  1  0.32641996  0.78094354  0.19907130  1
  O  O6  1  0.24553369  0.33992804  0.02732235  1
  O  O7  1  0.25624704  0.03969886  0.50269518  1
