# generated using pymatgen
data_LiCuP3F
_symmetry_space_group_name_H-M   'P 1'
_cell_length_a   7.85209694
_cell_length_b   7.84261599
_cell_length_c   8.23571599
_cell_angle_alpha   90.35914638
_cell_angle_beta   91.70870942
_cell_angle_gamma   90.41060022
_symmetry_Int_Tables_number   1
_chemical_formula_structural   LiCuP3F
_chemical_formula_sum   'Li2 Cu2 P6 F2'
_cell_volume   506.91427742
_cell_formula_units_Z   2
loop_
 _symmetry_equiv_pos_site_id
 _symmetry_equiv_pos_as_xyz
  1  'x, y, z'
loop_
 _atom_site_type_symbol
 _atom_site_label
 _atom_site_symmetry_multiplicity
 _atom_site_fract_x
 _atom_site_fract_y
 _atom_site_fract_z
 _atom_site_occupancy
  F  F0  1  0.00000000  0.00000000  0.00000000  1
  F  F1  1  0.50000000  0.50000000  0.50000000  1
  P  P2  1  0.25000000  0.25000000  0.25000000  1
  P  P3  1  0.75000000  0.25000000  0.00000000  1
  P  P4  1  0.25000000  0.75000000  0.50000000  1
  P  P5  1  0.64692624  0.51720890  0.89629497  1
  P  P6  1  0.00398553  0.09323734  0.35548839  1
  P  P7  1  0.96956952  0.24841941  0.15463993  1
  Li  Li8  1  0.43391691  0.18718231  0.35630166  1
  Li  Li9  1  0.10040979  0.68949996  0.38646844  1
  Cu  Cu10  1  0.72922561  0.21153894  0.91114905  1
  Cu  Cu11  1  0.95218726  0.59999099  0.97962511  1
