# generated using pymatgen
data_LiTiCuAs3O
_symmetry_space_group_name_H-M   'P 1'
_cell_length_a   7.07995651
_cell_length_b   7.21506347
_cell_length_c   7.88209553
_cell_angle_alpha   93.23754963
_cell_angle_beta   95.39897153
_cell_angle_gamma   94.12363793
_symmetry_Int_Tables_number   1
_chemical_formula_structural   LiTiCuAs3O
_chemical_formula_sum   'Li2 Ti2 Cu2 As6 O2'
_cell_volume   399.00021121
_cell_formula_units_Z   2
loop_
 _symmetry_equiv_pos_site_id
 _symmetry_equiv_pos_as_xyz
  1  'x, y, z'
loop_
 _atom_site_type_symbol
 _atom_site_label
 _atom_site_symmetry_multiplicity
 _atom_site_fract_x
 _atom_site_fract_y
 _atom_site_fract_z
 _atom_site_occupancy
  O  O0  1  0.00000000  0.00000000  0.00000000  1
  O  O1  1  0.50000000  0.50000000  0.50000000  1
  Ti  Ti2  1  0.50000000  0.50000000  0.00000000  1
  Ti  Ti3  1  0.50000000  0.00000000  0.50000000  1
  As  As4  1  0.00000000  0.50000000  0.50000000  1
  As  As5  1  0.64617129  0.04885269  0.01570524  1
  As  As6  1  0.41278294  0.01910007  0.34012918  1
  As  As7  1  0.11077537  0.92531955  0.09298070  1
  As  As8  1  0.00330768  0.94894617  0.75646558  1
  As  As9  1  0.41024758  0.75593032  0.46550161  1
  Li  Li10  1  0.14105932  0.45224786  0.67032610  1
  Li  Li11  1  0.27703613  0.39069838  0.53972045  1
  Cu  Cu12  1  0.62807615  0.75770154  0.78454800  1
  Cu  Cu13  1  0.34389716  0.98526354  0.16316604  1
