# generated using pymatgen
data_Li2TiP3(SeO)2
_symmetry_space_group_name_H-M   'P 1'
_cell_length_a   6.87776067
_cell_length_b   6.56639638
_cell_length_c   7.00415107
_cell_angle_alpha   94.12161897
_cell_angle_beta   94.92693959
_cell_angle_gamma   93.73508392
_symmetry_Int_Tables_number   1
_chemical_formula_structural   Li2TiP3(SeO)2
_chemical_formula_sum   'Li2 Ti1 P3 Se2 O2'
_cell_volume   313.52778662
_cell_formula_units_Z   1
loop_
 _symmetry_equiv_pos_site_id
 _symmetry_equiv_pos_as_xyz
  1  'x, y, z'
loop_
 _atom_site_type_symbol
 _atom_site_label
 _atom_site_symmetry_multiplicity
 _atom_site_fract_x
 _atom_site_fract_y
 _atom_site_fract_z
 _atom_site_occupancy
  P  P0  1  0.12500000  0.00000000  0.25000000  1
  P  P1  1  0.00000000  0.00000000  0.00000000  1
  P  P2  1  0.37500000  0.00000000  0.25000000  1
  Li  Li3  1  0.25000000  0.25000000  0.25000000  1
  Li  Li4  1  0.00000000  0.25000000  0.12500000  1
  Se  Se5  1  0.16722000  0.92961811  0.77139525  1
  Se  Se6  1  0.64332415  0.34960115  0.72064663  1
  Ti  Ti7  1  0.75562584  0.08373848  0.11135353  1
  O  O8  1  0.38692729  0.81412962  0.89322925  1
  O  O9  1  0.32820274  0.28415988  0.64763973  1
