# generated using pymatgen
data_Li3As6P4N5
_symmetry_space_group_name_H-M   'P 1'
_cell_length_a   7.44040874
_cell_length_b   7.17349412
_cell_length_c   8.78215344
_cell_angle_alpha   92.90295879
_cell_angle_beta   91.44629987
_cell_angle_gamma   93.36549665
_symmetry_Int_Tables_number   1
_chemical_formula_structural   Li3As6P4N5
_chemical_formula_sum   'Li3 As6 P4 N5'
_cell_volume   467.14024782
_cell_formula_units_Z   1
loop_
 _symmetry_equiv_pos_site_id
 _symmetry_equiv_pos_as_xyz
  1  'x, y, z'
loop_
 _atom_site_type_symbol
 _atom_site_label
 _atom_site_symmetry_multiplicity
 _atom_site_fract_x
 _atom_site_fract_y
 _atom_site_fract_z
 _atom_site_occupancy
  P  P0  1  0.00000000  0.00000000  0.00000000  1
  P  P1  1  0.33300000  0.66700000  0.25000000  1
  P  P2  1  0.66700000  0.33300000  0.50000000  1
  P  P3  1  0.00000000  0.00000000  0.75000000  1
  Li  Li4  1  0.63752053  0.97483567  0.71574815  1
  Li  Li5  1  0.09682875  0.73267130  0.80285014  1
  Li  Li6  1  0.37646061  0.33180844  0.04326325  1
  As  As7  1  0.31704937  0.69586729  0.94756880  1
  As  As8  1  0.21764390  0.55029150  0.50481506  1
  As  As9  1  0.66086200  0.88714077  0.81497903  1
  As  As10  1  0.37191321  0.68203344  0.96792902  1
  As  As11  1  0.75579939  0.76078271  0.14207415  1
  As  As12  1  0.17706585  0.33558360  0.56004120  1
  N  N13  1  0.68529107  0.90144081  0.01751884  1
  N  N14  1  0.21369173  0.28016398  0.79782365  1
  N  N15  1  0.34197818  0.85061855  0.07201834  1
  N  N16  1  0.87504245  0.19039335  0.73365775  1
  N  N17  1  0.38001075  0.79607621  0.71599909  1
