# generated using pymatgen
data_LiAl2Sb2Br5O2
_symmetry_space_group_name_H-M   'P 1'
_cell_length_a   8.22050716
_cell_length_b   7.64519809
_cell_length_c   7.37531309
_cell_angle_alpha   90.00000000
_cell_angle_beta   90.00000000
_cell_angle_gamma   90.00000000
_symmetry_Int_Tables_number   1
_chemical_formula_structural   LiAl2Sb2Br5O2
_chemical_formula_sum   'Li1 Al2 Sb2 Br5 O2'
_cell_volume   463.51929314
_cell_formula_units_Z   1
loop_
 _symmetry_equiv_pos_site_id
 _symmetry_equiv_pos_as_xyz
  1  'x, y, z'
loop_
 _atom_site_type_symbol
 _atom_site_label
 _atom_site_symmetry_multiplicity
 _atom_site_fract_x
 _atom_site_fract_y
 _atom_site_fract_z
 _atom_site_occupancy
  Li  Li0  1  0.00000000  0.00000000  0.00000000  1
  Sb  Sb1  1  0.50000000  0.50000000  0.50000000  1
  Sb  Sb2  1  0.25000000  0.25000000  0.25000000  1
  Br  Br3  1  0.75000000  0.25000000  0.00000000  1
  Br  Br4  1  0.25000000  0.75000000  0.50000000  1
  Br  Br5  1  0.33764800  0.18348226  0.74992239  1
  Br  Br6  1  0.72735568  0.21133211  0.79126589  1
  Br  Br7  1  0.82010288  0.33180230  0.82363406  1
  Al  Al8  1  0.22104984  0.24356076  0.04885104  1
  Al  Al9  1  0.95099398  0.24852464  0.06758593  1
  O  O10  1  0.10848469  0.36174337  0.95670124  1
  O  O11  1  0.96708563  0.19499197  0.84262352  1
