# generated using pymatgen
data_Li4Ti3(NiO2)2
_symmetry_space_group_name_H-M   'P 1'
_cell_length_a   6.96071652
_cell_length_b   7.04433332
_cell_length_c   8.41376634
_cell_angle_alpha   94.93688711
_cell_angle_beta   96.68675431
_cell_angle_gamma   96.35332336
_symmetry_Int_Tables_number   1
_chemical_formula_structural   Li4Ti3(NiO2)2
_chemical_formula_sum   'Li4 Ti3 Ni2 O4'
_cell_volume   405.18340914
_cell_formula_units_Z   1
loop_
 _symmetry_equiv_pos_site_id
 _symmetry_equiv_pos_as_xyz
  1  'x, y, z'
loop_
 _atom_site_type_symbol
 _atom_site_label
 _atom_site_symmetry_multiplicity
 _atom_site_fract_x
 _atom_site_fract_y
 _atom_site_fract_z
 _atom_site_occupancy
  Li  Li0  1  0.12500000  0.12500000  0.12500000  1
  Li  Li1  1  0.50000000  0.50000000  0.50000000  1
  Li  Li2  1  0.25000000  0.25000000  0.25000000  1
  Li  Li3  1  0.75000000  0.75000000  0.75000000  1
  Ni  Ni4  1  0.46663579  0.17076069  0.83163322  1
  Ni  Ni5  1  0.01005245  0.47172413  0.26126652  1
  Ti  Ti6  1  0.81048677  0.93367519  0.19603487  1
  Ti  Ti7  1  0.74293986  0.20989346  0.93742847  1
  Ti  Ti8  1  0.09691788  0.83566942  0.97572973  1
  O  O9  1  0.31226115  0.53664958  0.85300861  1
  O  O10  1  0.46348594  0.25123777  0.00193878  1
  O  O11  1  0.28619336  0.57245441  0.81375528  1
  O  O12  1  0.19220458  0.65580481  0.35705658  1
