# generated using pymatgen
data_Li2MnSb4P3
_symmetry_space_group_name_H-M   'P 1'
_cell_length_a   5.18978411
_cell_length_b   5.54098899
_cell_length_c   6.63265475
_cell_angle_alpha   99.32361841
_cell_angle_beta   93.22938028
_cell_angle_gamma   99.52304091
_symmetry_Int_Tables_number   1
_chemical_formula_structural   Li2MnSb4P3
_chemical_formula_sum   'Li2 Mn1 Sb4 P3'
_cell_volume   184.94014282
_cell_formula_units_Z   1
loop_
 _symmetry_equiv_pos_site_id
 _symmetry_equiv_pos_as_xyz
  1  'x, y, z'
loop_
 _atom_site_type_symbol
 _atom_site_label
 _atom_site_symmetry_multiplicity
 _atom_site_fract_x
 _atom_site_fract_y
 _atom_site_fract_z
 _atom_site_occupancy
  Mn  Mn0  1  0.00000000  0.00000000  0.00000000  1
  Sb  Sb1  1  0.33300000  0.66700000  0.25000000  1
  Sb  Sb2  1  0.66700000  0.33300000  0.50000000  1
  Sb  Sb3  1  0.00000000  0.00000000  0.75000000  1
  Sb  Sb4  1  0.56520212  0.62997608  0.29125006  1
  P  P5  1  0.89602844  0.33867946  0.57045326  1
  P  P6  1  0.97050177  0.09132233  0.49901764  1
  P  P7  1  0.50667342  0.63693322  0.27259593  1
  Li  Li8  1  0.15262637  0.17173442  0.44390227  1
  Li  Li9  1  0.15467155  0.25590434  0.27831671  1
