# generated using pymatgen
data_Li2TiAs6I4O3
_symmetry_space_group_name_H-M   'P 1'
_cell_length_a   8.34560368
_cell_length_b   8.22034170
_cell_length_c   8.20860429
_cell_angle_alpha   90.08732946
_cell_angle_beta   90.41548704
_cell_angle_gamma   90.09984089
_symmetry_Int_Tables_number   1
_chemical_formula_structural   Li2TiAs6I4O3
_chemical_formula_sum   'Li2 Ti1 As6 I4 O3'
_cell_volume   563.12441366
_cell_formula_units_Z   1
loop_
 _symmetry_equiv_pos_site_id
 _symmetry_equiv_pos_as_xyz
  1  'x, y, z'
loop_
 _atom_site_type_symbol
 _atom_site_label
 _atom_site_symmetry_multiplicity
 _atom_site_fract_x
 _atom_site_fract_y
 _atom_site_fract_z
 _atom_site_occupancy
  I  I0  1  0.12500000  0.00000000  0.25000000  1
  I  I1  1  0.00000000  0.00000000  0.00000000  1
  I  I2  1  0.37500000  0.00000000  0.25000000  1
  I  I3  1  0.25000000  0.25000000  0.25000000  1
  Li  Li4  1  0.00000000  0.25000000  0.12500000  1
  Li  Li5  1  0.40845519  0.18867020  0.28850275  1
  Ti  Ti6  1  0.52448671  0.67434925  0.37945574  1
  As  As7  1  0.43968169  0.54799275  0.51391720  1
  As  As8  1  0.13501492  0.64836297  0.63947704  1
  As  As9  1  0.00890781  0.98802864  0.16709686  1
  As  As10  1  0.77370579  0.95830305  0.05673457  1
  As  As11  1  0.34266609  0.87287958  0.50430509  1
  As  As12  1  0.17347242  0.82319715  0.61448903  1
  O  O13  1  0.04135208  0.61402935  0.28924912  1
  O  O14  1  0.72437448  0.79975903  0.87736798  1
  O  O15  1  0.08046667  0.61515027  0.62788201  1
