# generated using pymatgen
data_Li3TiNi2(IO)4
_symmetry_space_group_name_H-M   'P 1'
_cell_length_a   8.63135671
_cell_length_b   8.50174720
_cell_length_c   8.27171449
_cell_angle_alpha   90.00000000
_cell_angle_beta   90.00000000
_cell_angle_gamma   90.00000000
_symmetry_Int_Tables_number   1
_chemical_formula_structural   Li3TiNi2(IO)4
_chemical_formula_sum   'Li3 Ti1 Ni2 I4 O4'
_cell_volume   606.99174942
_cell_formula_units_Z   1
loop_
 _symmetry_equiv_pos_site_id
 _symmetry_equiv_pos_as_xyz
  1  'x, y, z'
loop_
 _atom_site_type_symbol
 _atom_site_label
 _atom_site_symmetry_multiplicity
 _atom_site_fract_x
 _atom_site_fract_y
 _atom_site_fract_z
 _atom_site_occupancy
  I  I0  1  0.00000000  0.00000000  0.00000000  1
  I  I1  1  0.50000000  0.50000000  0.50000000  1
  I  I2  1  0.25000000  0.25000000  0.25000000  1
  I  I3  1  0.75000000  0.25000000  0.00000000  1
  Li  Li4  1  0.25000000  0.75000000  0.50000000  1
  Li  Li5  1  0.29232824  0.18586687  0.03330732  1
  Li  Li6  1  0.94254148  0.42370026  0.07637062  1
  Ni  Ni7  1  0.71430337  0.76675655  0.85060590  1
  Ni  Ni8  1  0.68756761  0.38591277  0.52023207  1
  Ti  Ti9  1  0.30605810  0.55403439  0.20193418  1
  O  O10  1  0.65175691  0.45551179  0.30004174  1
  O  O11  1  0.73780372  0.13410380  0.21901785  1
  O  O12  1  0.78179918  0.86335761  0.67143872  1
  O  O13  1  0.93020671  0.36556034  0.39058214  1
