# generated using pymatgen
data_LiMn(Sb2P)2
_symmetry_space_group_name_H-M   'P 1'
_cell_length_a   5.43648267
_cell_length_b   5.76545633
_cell_length_c   6.71399485
_cell_angle_alpha   97.35313985
_cell_angle_beta   93.72736841
_cell_angle_gamma   97.62995222
_symmetry_Int_Tables_number   1
_chemical_formula_structural   LiMn(Sb2P)2
_chemical_formula_sum   'Li1 Mn1 Sb4 P2'
_cell_volume   206.14257947
_cell_formula_units_Z   1
loop_
 _symmetry_equiv_pos_site_id
 _symmetry_equiv_pos_as_xyz
  1  'x, y, z'
loop_
 _atom_site_type_symbol
 _atom_site_label
 _atom_site_symmetry_multiplicity
 _atom_site_fract_x
 _atom_site_fract_y
 _atom_site_fract_z
 _atom_site_occupancy
  Mn  Mn0  1  0.00000000  0.00000000  0.00000000  1
  Sb  Sb1  1  0.33300000  0.66700000  0.25000000  1
  Sb  Sb2  1  0.66700000  0.33300000  0.50000000  1
  Sb  Sb3  1  0.00000000  0.00000000  0.75000000  1
  Sb  Sb4  1  0.68100171  0.63416252  0.77159364  1
  P  P5  1  0.17905595  0.65714927  0.46482608  1
  P  P6  1  0.22191179  0.37749848  0.17750258  1
  Li  Li7  1  0.65596048  0.26538524  0.23603884  1
