# generated using pymatgen
data_Li4Ti2Ni2N5
_symmetry_space_group_name_H-M   'P 1'
_cell_length_a   5.39993920
_cell_length_b   4.95027143
_cell_length_c   7.85216502
_cell_angle_alpha   99.07488328
_cell_angle_beta   98.60433024
_cell_angle_gamma   98.63425520
_symmetry_Int_Tables_number   1
_chemical_formula_structural   Li4Ti2Ni2N5
_chemical_formula_sum   'Li4 Ti2 Ni2 N5'
_cell_volume   201.66733218
_cell_formula_units_Z   1
loop_
 _symmetry_equiv_pos_site_id
 _symmetry_equiv_pos_as_xyz
  1  'x, y, z'
loop_
 _atom_site_type_symbol
 _atom_site_label
 _atom_site_symmetry_multiplicity
 _atom_site_fract_x
 _atom_site_fract_y
 _atom_site_fract_z
 _atom_site_occupancy
  Ni  Ni0  1  0.12500000  0.12500000  0.12500000  1
  Ni  Ni1  1  0.50000000  0.50000000  0.50000000  1
  Ti  Ti2  1  0.25000000  0.25000000  0.25000000  1
  Ti  Ti3  1  0.75000000  0.75000000  0.75000000  1
  Li  Li4  1  0.06815013  0.87518629  0.77699642  1
  Li  Li5  1  0.71973634  0.45409192  0.70385912  1
  Li  Li6  1  0.84628393  0.66805495  0.61467494  1
  Li  Li7  1  0.62663030  0.39886075  0.43751722  1
  N  N8  1  0.77538552  0.18990193  0.98224664  1
  N  N9  1  0.14780523  0.53927224  0.72797314  1
  N  N10  1  0.11757740  0.82236092  0.73563216  1
  N  N11  1  0.71672653  0.26568938  0.35256932  1
  N  N12  1  0.87085074  0.80381025  0.04197453  1
