# generated using pymatgen
data_Li6ZrAs6Se
_symmetry_space_group_name_H-M   'P 1'
_cell_length_a   4.46893967
_cell_length_b   4.04291350
_cell_length_c   7.00390275
_cell_angle_alpha   109.36846138
_cell_angle_beta   114.72907670
_cell_angle_gamma   108.22021926
_symmetry_Int_Tables_number   1
_chemical_formula_structural   Li6ZrAs6Se
_chemical_formula_sum   'Li6 Zr1 As6 Se1'
_cell_volume   92.16798936
_cell_formula_units_Z   1
loop_
 _symmetry_equiv_pos_site_id
 _symmetry_equiv_pos_as_xyz
  1  'x, y, z'
loop_
 _atom_site_type_symbol
 _atom_site_label
 _atom_site_symmetry_multiplicity
 _atom_site_fract_x
 _atom_site_fract_y
 _atom_site_fract_z
 _atom_site_occupancy
  Se  Se0  1  0.00000000  0.00000000  0.00000000  1
  As  As1  1  0.50000000  0.50000000  0.50000000  1
  As  As2  1  0.50000000  0.50000000  0.00000000  1
  As  As3  1  0.50000000  0.00000000  0.50000000  1
  As  As4  1  0.00000000  0.50000000  0.50000000  1
  As  As5  1  0.30841079  0.83018725  0.06676992  1
  As  As6  1  0.76366048  0.61420570  0.67776511  1
  Li  Li7  1  0.42924976  0.29243886  0.94497023  1
  Li  Li8  1  0.44427705  0.51913158  0.19346744  1
  Li  Li9  1  0.06055595  0.61797615  0.09870771  1
  Li  Li10  1  0.52219620  0.52483367  0.20556556  1
  Li  Li11  1  0.97609835  0.56711583  0.87933592  1
  Li  Li12  1  0.27968045  0.57555403  0.17785240  1
  Zr  Zr13  1  0.04095567  0.26360645  0.72460681  1
