# generated using pymatgen
data_Li2TiSe5(I2O)2
_symmetry_space_group_name_H-M   'P 1'
_cell_length_a   8.41506459
_cell_length_b   8.76490707
_cell_length_c   7.35921594
_cell_angle_alpha   90.00000000
_cell_angle_beta   90.00000000
_cell_angle_gamma   90.00000000
_symmetry_Int_Tables_number   1
_chemical_formula_structural   Li2TiSe5(I2O)2
_chemical_formula_sum   'Li2 Ti1 Se5 I4 O2'
_cell_volume   542.79559676
_cell_formula_units_Z   1
loop_
 _symmetry_equiv_pos_site_id
 _symmetry_equiv_pos_as_xyz
  1  'x, y, z'
loop_
 _atom_site_type_symbol
 _atom_site_label
 _atom_site_symmetry_multiplicity
 _atom_site_fract_x
 _atom_site_fract_y
 _atom_site_fract_z
 _atom_site_occupancy
  I  I0  1  0.12500000  0.00000000  0.25000000  1
  I  I1  1  0.00000000  0.00000000  0.00000000  1
  I  I2  1  0.37500000  0.00000000  0.25000000  1
  I  I3  1  0.25000000  0.25000000  0.25000000  1
  Li  Li4  1  0.00000000  0.25000000  0.12500000  1
  Li  Li5  1  0.31539079  0.12091421  0.06569139  1
  Se  Se6  1  0.59219489  0.35299555  0.92511877  1
  Se  Se7  1  0.98172319  0.06341477  0.07813137  1
  Se  Se8  1  0.21579827  0.42480203  0.98178005  1
  Se  Se9  1  0.26810380  0.68799963  0.03281879  1
  Se  Se10  1  0.40724915  0.76068732  0.43679325  1
  Ti  Ti11  1  0.87706589  0.40009459  0.45264924  1
  O  O12  1  0.50986072  0.67169886  0.22008423  1
  O  O13  1  0.06418711  0.52947818  0.44489407  1
