# generated using pymatgen
data_Li2TiP5O2
_symmetry_space_group_name_H-M   'P 1'
_cell_length_a   8.39362306
_cell_length_b   8.13658510
_cell_length_c   7.43050193
_cell_angle_alpha   90.17635297
_cell_angle_beta   90.83903389
_cell_angle_gamma   90.20161854
_symmetry_Int_Tables_number   1
_chemical_formula_structural   Li2TiP5O2
_chemical_formula_sum   'Li2 Ti1 P5 O2'
_cell_volume   507.40927406
_cell_formula_units_Z   1
loop_
 _symmetry_equiv_pos_site_id
 _symmetry_equiv_pos_as_xyz
  1  'x, y, z'
loop_
 _atom_site_type_symbol
 _atom_site_label
 _atom_site_symmetry_multiplicity
 _atom_site_fract_x
 _atom_site_fract_y
 _atom_site_fract_z
 _atom_site_occupancy
  P  P0  1  0.12500000  0.00000000  0.25000000  1
  P  P1  1  0.00000000  0.00000000  0.00000000  1
  P  P2  1  0.37500000  0.00000000  0.25000000  1
  P  P3  1  0.25000000  0.25000000  0.25000000  1
  P  P4  1  0.00000000  0.25000000  0.12500000  1
  Li  Li5  1  0.23530647  0.76317776  0.50677243  1
  Li  Li6  1  0.69098890  0.00008516  0.06325682  1
  Ti  Ti7  1  0.09859245  0.04927037  0.82729974  1
  O  O8  1  0.88755393  0.34788383  0.85514359  1
  O  O9  1  0.30904603  0.52180672  0.19348638  1
