# generated using pymatgen
data_Li4LuNi2P4N5
_symmetry_space_group_name_H-M   'P 1'
_cell_length_a   7.43249497
_cell_length_b   7.05219556
_cell_length_c   8.86811598
_cell_angle_alpha   93.49759716
_cell_angle_beta   91.23654746
_cell_angle_gamma   94.05678930
_symmetry_Int_Tables_number   1
_chemical_formula_structural   Li4LuNi2P4N5
_chemical_formula_sum   'Li4 Lu1 Ni2 P4 N5'
_cell_volume   462.64105756
_cell_formula_units_Z   1
loop_
 _symmetry_equiv_pos_site_id
 _symmetry_equiv_pos_as_xyz
  1  'x, y, z'
loop_
 _atom_site_type_symbol
 _atom_site_label
 _atom_site_symmetry_multiplicity
 _atom_site_fract_x
 _atom_site_fract_y
 _atom_site_fract_z
 _atom_site_occupancy
  P  P0  1  0.00000000  0.00000000  0.00000000  1
  P  P1  1  0.50000000  0.50000000  0.50000000  1
  P  P2  1  0.50000000  0.50000000  0.00000000  1
  P  P3  1  0.50000000  0.00000000  0.50000000  1
  Lu  Lu4  1  0.00000000  0.50000000  0.50000000  1
  Li  Li5  1  0.01817140  0.97501141  0.41865673  1
  Li  Li6  1  0.42857729  0.86099025  0.23745951  1
  Li  Li7  1  0.34139670  0.20246298  0.71432700  1
  Li  Li8  1  0.19860413  0.32666063  0.16671259  1
  Ni  Ni9  1  0.15664472  0.21649372  0.08304920  1
  Ni  Ni10  1  0.27744033  0.25696469  0.76764500  1
  N  N11  1  0.64583463  0.99736081  0.05169061  1
  N  N12  1  0.15494874  0.55125440  0.85901955  1
  N  N13  1  0.50089524  0.67514137  0.52875786  1
  N  N14  1  0.82775069  0.17938836  0.00580076  1
  N  N15  1  0.07999006  0.02128130  0.74318137  1
