# generated using pymatgen
data_Li2Sb4Mo2P3
_symmetry_space_group_name_H-M   'P 1'
_cell_length_a   5.05521617
_cell_length_b   5.09184536
_cell_length_c   6.22779228
_cell_angle_alpha   103.17020311
_cell_angle_beta   91.91029203
_cell_angle_gamma   103.20380983
_symmetry_Int_Tables_number   1
_chemical_formula_structural   Li2Sb4Mo2P3
_chemical_formula_sum   'Li2 Sb4 Mo2 P3'
_cell_volume   151.34527800
_cell_formula_units_Z   1
loop_
 _symmetry_equiv_pos_site_id
 _symmetry_equiv_pos_as_xyz
  1  'x, y, z'
loop_
 _atom_site_type_symbol
 _atom_site_label
 _atom_site_symmetry_multiplicity
 _atom_site_fract_x
 _atom_site_fract_y
 _atom_site_fract_z
 _atom_site_occupancy
  Sb  Sb0  1  0.00000000  0.00000000  0.00000000  1
  Sb  Sb1  1  0.50000000  0.50000000  0.50000000  1
  Sb  Sb2  1  0.25000000  0.25000000  0.25000000  1
  Sb  Sb3  1  0.75000000  0.25000000  0.00000000  1
  P  P4  1  0.25000000  0.75000000  0.50000000  1
  P  P5  1  0.83472326  0.60255281  0.65133936  1
  P  P6  1  0.88133273  0.13612532  0.40301822  1
  Mo  Mo7  1  0.06517236  0.74898953  0.47040602  1
  Mo  Mo8  1  0.87621077  0.32999595  0.50790859  1
  Li  Li9  1  0.32330502  0.91009168  0.98283297  1
  Li  Li10  1  0.97480215  0.34877384  0.75965743  1
