# generated using pymatgen
data_LiMnAl2P3O
_symmetry_space_group_name_H-M   'P 1'
_cell_length_a   5.71270010
_cell_length_b   6.63493714
_cell_length_c   6.78391140
_cell_angle_alpha   95.99311456
_cell_angle_beta   97.09939794
_cell_angle_gamma   96.82090433
_symmetry_Int_Tables_number   1
_chemical_formula_structural   LiMnAl2P3O
_chemical_formula_sum   'Li1 Mn1 Al2 P3 O1'
_cell_volume   251.49869367
_cell_formula_units_Z   1
loop_
 _symmetry_equiv_pos_site_id
 _symmetry_equiv_pos_as_xyz
  1  'x, y, z'
loop_
 _atom_site_type_symbol
 _atom_site_label
 _atom_site_symmetry_multiplicity
 _atom_site_fract_x
 _atom_site_fract_y
 _atom_site_fract_z
 _atom_site_occupancy
  Mn  Mn0  1  0.12500000  0.00000000  0.25000000  1
  Al  Al1  1  0.00000000  0.00000000  0.00000000  1
  Al  Al2  1  0.37500000  0.00000000  0.25000000  1
  P  P3  1  0.25000000  0.25000000  0.25000000  1
  P  P4  1  0.00000000  0.25000000  0.12500000  1
  P  P5  1  0.26052986  0.67621255  0.29437230  1
  O  O6  1  0.36936281  0.21492002  0.08084294  1
  Li  Li7  1  0.36200984  0.33918786  0.88725417  1
