# generated using pymatgen
data_Li2Mn2Sb4Mo2P3
_symmetry_space_group_name_H-M   'P 1'
_cell_length_a   5.03057075
_cell_length_b   5.22070676
_cell_length_c   6.60807044
_cell_angle_alpha   100.41563334
_cell_angle_beta   94.60176306
_cell_angle_gamma   100.84777477
_symmetry_Int_Tables_number   1
_chemical_formula_structural   Li2Mn2Sb4Mo2P3
_chemical_formula_sum   'Li2 Mn2 Sb4 Mo2 P3'
_cell_volume   166.46203233
_cell_formula_units_Z   1
loop_
 _symmetry_equiv_pos_site_id
 _symmetry_equiv_pos_as_xyz
  1  'x, y, z'
loop_
 _atom_site_type_symbol
 _atom_site_label
 _atom_site_symmetry_multiplicity
 _atom_site_fract_x
 _atom_site_fract_y
 _atom_site_fract_z
 _atom_site_occupancy
  Mn  Mn0  1  0.00000000  0.00000000  0.00000000  1
  Mn  Mn1  1  0.50000000  0.50000000  0.50000000  1
  Sb  Sb2  1  0.25000000  0.25000000  0.25000000  1
  Sb  Sb3  1  0.75000000  0.25000000  0.00000000  1
  Sb  Sb4  1  0.25000000  0.75000000  0.50000000  1
  Sb  Sb5  1  0.12252044  0.26480802  0.31214661  1
  P  P6  1  0.45552374  0.60696663  0.08540350  1
  P  P7  1  0.93168084  0.84905403  0.75528956  1
  P  P8  1  0.35002327  0.32045134  0.65018679  1
  Mo  Mo9  1  0.94164486  0.63972506  0.61036171  1
  Mo  Mo10  1  0.00156035  0.75048289  0.92105128  1
  Li  Li11  1  0.14220260  0.03746068  0.78270686  1
  Li  Li12  1  0.37165259  0.42884368  0.74060276  1
