# generated using pymatgen
data_Li3TiO5
_symmetry_space_group_name_H-M   'P 1'
_cell_length_a   5.79947316
_cell_length_b   5.69496376
_cell_length_c   6.44578293
_cell_angle_alpha   92.10377184
_cell_angle_beta   89.25213842
_cell_angle_gamma   87.24141220
_symmetry_Int_Tables_number   1
_chemical_formula_structural   Li3TiO5
_chemical_formula_sum   'Li3 Ti1 O5'
_cell_volume   212.47651545
_cell_formula_units_Z   1
loop_
 _symmetry_equiv_pos_site_id
 _symmetry_equiv_pos_as_xyz
  1  'x, y, z'
loop_
 _atom_site_type_symbol
 _atom_site_label
 _atom_site_symmetry_multiplicity
 _atom_site_fract_x
 _atom_site_fract_y
 _atom_site_fract_z
 _atom_site_occupancy
  O  O0  1  0.00000000  0.00000000  0.00000000  1
  O  O1  1  0.50000000  0.50000000  0.50000000  1
  O  O2  1  0.25000000  0.25000000  0.25000000  1
  O  O3  1  0.75000000  0.25000000  0.00000000  1
  O  O4  1  0.25000000  0.75000000  0.50000000  1
  Ti  Ti5  1  0.11214762  0.20249795  0.69343222  1
  Li  Li6  1  0.42044884  0.74974867  0.79865311  1
  Li  Li7  1  0.41909135  0.65373658  0.54836538  1
  Li  Li8  1  0.80069368  0.66899823  0.98750855  1
