# generated using pymatgen
data_Li2MnSb4P3
_symmetry_space_group_name_H-M   'P 1'
_cell_length_a   4.90444308
_cell_length_b   5.22046638
_cell_length_c   6.55511208
_cell_angle_alpha   100.24556386
_cell_angle_beta   93.88100311
_cell_angle_gamma   100.51098209
_symmetry_Int_Tables_number   1
_chemical_formula_structural   Li2MnSb4P3
_chemical_formula_sum   'Li2 Mn1 Sb4 P3'
_cell_volume   161.51418839
_cell_formula_units_Z   1
loop_
 _symmetry_equiv_pos_site_id
 _symmetry_equiv_pos_as_xyz
  1  'x, y, z'
loop_
 _atom_site_type_symbol
 _atom_site_label
 _atom_site_symmetry_multiplicity
 _atom_site_fract_x
 _atom_site_fract_y
 _atom_site_fract_z
 _atom_site_occupancy
  Mn  Mn0  1  0.00000000  0.00000000  0.00000000  1
  Sb  Sb1  1  0.50000000  0.50000000  0.50000000  1
  Sb  Sb2  1  0.50000000  0.50000000  0.00000000  1
  Sb  Sb3  1  0.50000000  0.00000000  0.50000000  1
  Sb  Sb4  1  0.00000000  0.50000000  0.50000000  1
  P  P5  1  0.05061588  0.88355902  0.60456827  1
  P  P6  1  0.99120343  0.99916769  0.98974066  1
  P  P7  1  0.03778412  0.27793736  0.38312650  1
  Li  Li8  1  0.72871479  0.00077557  0.81213343  1
  Li  Li9  1  0.41083480  0.51674683  0.39316930  1
