# generated using pymatgen
data_Li2Mn2Sb4P3
_symmetry_space_group_name_H-M   'P 1'
_cell_length_a   5.79616530
_cell_length_b   6.23926170
_cell_length_c   6.91910746
_cell_angle_alpha   96.62717968
_cell_angle_beta   92.86299553
_cell_angle_gamma   96.84796984
_symmetry_Int_Tables_number   1
_chemical_formula_structural   Li2Mn2Sb4P3
_chemical_formula_sum   'Li2 Mn2 Sb4 P3'
_cell_volume   246.26065055
_cell_formula_units_Z   1
loop_
 _symmetry_equiv_pos_site_id
 _symmetry_equiv_pos_as_xyz
  1  'x, y, z'
loop_
 _atom_site_type_symbol
 _atom_site_label
 _atom_site_symmetry_multiplicity
 _atom_site_fract_x
 _atom_site_fract_y
 _atom_site_fract_z
 _atom_site_occupancy
  Mn  Mn0  1  0.00000000  0.00000000  0.00000000  1
  Mn  Mn1  1  0.33300000  0.66700000  0.25000000  1
  Sb  Sb2  1  0.66700000  0.33300000  0.50000000  1
  Sb  Sb3  1  0.00000000  0.00000000  0.75000000  1
  Sb  Sb4  1  0.25880018  0.96738994  0.63871057  1
  Sb  Sb5  1  0.67860692  0.56606745  0.61076934  1
  P  P6  1  0.81465958  0.93916301  0.53548146  1
  P  P7  1  0.35577490  0.81533090  0.59214452  1
  P  P8  1  0.25931438  0.84540480  0.63410634  1
  Li  Li9  1  0.87707023  0.00543742  0.94641780  1
  Li  Li10  1  0.50175639  0.87981977  0.07493048  1
