# generated using pymatgen
data_Li3Ni2I4O5
_symmetry_space_group_name_H-M   'P 1'
_cell_length_a   8.61512956
_cell_length_b   8.48483586
_cell_length_c   8.34209018
_cell_angle_alpha   90.00000000
_cell_angle_beta   90.00000000
_cell_angle_gamma   90.00000000
_symmetry_Int_Tables_number   1
_chemical_formula_structural   Li3Ni2I4O5
_chemical_formula_sum   'Li3 Ni2 I4 O5'
_cell_volume   609.78977569
_cell_formula_units_Z   1
loop_
 _symmetry_equiv_pos_site_id
 _symmetry_equiv_pos_as_xyz
  1  'x, y, z'
loop_
 _atom_site_type_symbol
 _atom_site_label
 _atom_site_symmetry_multiplicity
 _atom_site_fract_x
 _atom_site_fract_y
 _atom_site_fract_z
 _atom_site_occupancy
  I  I0  1  0.12500000  0.12500000  0.12500000  1
  I  I1  1  0.50000000  0.50000000  0.50000000  1
  I  I2  1  0.25000000  0.25000000  0.25000000  1
  I  I3  1  0.75000000  0.75000000  0.75000000  1
  Li  Li4  1  0.34648158  0.93149296  0.91846920  1
  Li  Li5  1  0.46576666  0.05494061  0.75696800  1
  Li  Li6  1  0.81965298  0.78648068  0.66880728  1
  Ni  Ni7  1  0.38188979  0.15326056  0.82915562  1
  Ni  Ni8  1  0.11458691  0.66965097  0.85872602  1
  O  O9  1  0.00544837  0.79616237  0.66403366  1
  O  O10  1  0.82370316  0.54939507  0.14909137  1
  O  O11  1  0.32268469  0.39120345  0.72855004  1
  O  O12  1  0.81250757  0.18307555  0.35487271  1
  O  O13  1  0.17421891  0.26129762  0.20248731  1
