# generated using pymatgen
data_LiMnSb4Mo2P3
_symmetry_space_group_name_H-M   'P 1'
_cell_length_a   6.81222651
_cell_length_b   6.87802025
_cell_length_c   7.12970332
_cell_angle_alpha   91.20091589
_cell_angle_beta   90.67887708
_cell_angle_gamma   91.03769769
_symmetry_Int_Tables_number   1
_chemical_formula_structural   LiMnSb4Mo2P3
_chemical_formula_sum   'Li1 Mn1 Sb4 Mo2 P3'
_cell_volume   333.90648777
_cell_formula_units_Z   1
loop_
 _symmetry_equiv_pos_site_id
 _symmetry_equiv_pos_as_xyz
  1  'x, y, z'
loop_
 _atom_site_type_symbol
 _atom_site_label
 _atom_site_symmetry_multiplicity
 _atom_site_fract_x
 _atom_site_fract_y
 _atom_site_fract_z
 _atom_site_occupancy
  Mn  Mn0  1  0.00000000  0.00000000  0.00000000  1
  Sb  Sb1  1  0.50000000  0.50000000  0.50000000  1
  Sb  Sb2  1  0.25000000  0.25000000  0.25000000  1
  Sb  Sb3  1  0.75000000  0.25000000  0.00000000  1
  Sb  Sb4  1  0.25000000  0.75000000  0.50000000  1
  P  P5  1  0.32634011  0.05704769  0.66801164  1
  P  P6  1  0.54515184  0.47050994  0.31679417  1
  P  P7  1  0.11639352  0.70293221  0.15533477  1
  Mo  Mo8  1  0.52492851  0.52102131  0.85523659  1
  Mo  Mo9  1  0.82224985  0.77188479  0.27018366  1
  Li  Li10  1  0.33561442  0.37243894  0.64805062  1
