# generated using pymatgen
data_Li2MnMo2P3
_symmetry_space_group_name_H-M   'P 1'
_cell_length_a   3.94296927
_cell_length_b   4.14949310
_cell_length_c   5.92032837
_cell_angle_alpha   100.99936683
_cell_angle_beta   97.67814225
_cell_angle_gamma   100.26513050
_symmetry_Int_Tables_number   1
_chemical_formula_structural   Li2MnMo2P3
_chemical_formula_sum   'Li2 Mn1 Mo2 P3'
_cell_volume   92.14361026
_cell_formula_units_Z   1
loop_
 _symmetry_equiv_pos_site_id
 _symmetry_equiv_pos_as_xyz
  1  'x, y, z'
loop_
 _atom_site_type_symbol
 _atom_site_label
 _atom_site_symmetry_multiplicity
 _atom_site_fract_x
 _atom_site_fract_y
 _atom_site_fract_z
 _atom_site_occupancy
  Mn  Mn0  1  0.12500000  0.12500000  0.12500000  1
  P  P1  1  0.50000000  0.50000000  0.50000000  1
  P  P2  1  0.25000000  0.25000000  0.25000000  1
  P  P3  1  0.75000000  0.75000000  0.75000000  1
  Mo  Mo4  1  0.08772736  0.06569335  0.58588611  1
  Mo  Mo5  1  0.51295478  0.50524072  0.67255123  1
  Li  Li6  1  0.75620345  0.60481694  0.82458587  1
  Li  Li7  1  0.41875694  0.18887084  0.75051949  1
