# generated using pymatgen
data_LiSb4Mo2P2N
_symmetry_space_group_name_H-M   'P 1'
_cell_length_a   5.16224330
_cell_length_b   5.32560154
_cell_length_c   6.01853435
_cell_angle_alpha   96.57280444
_cell_angle_beta   90.75586394
_cell_angle_gamma   95.86177884
_symmetry_Int_Tables_number   1
_chemical_formula_structural   LiSb4Mo2P2N
_chemical_formula_sum   'Li1 Sb4 Mo2 P2 N1'
_cell_volume   163.46298185
_cell_formula_units_Z   1
loop_
 _symmetry_equiv_pos_site_id
 _symmetry_equiv_pos_as_xyz
  1  'x, y, z'
loop_
 _atom_site_type_symbol
 _atom_site_label
 _atom_site_symmetry_multiplicity
 _atom_site_fract_x
 _atom_site_fract_y
 _atom_site_fract_z
 _atom_site_occupancy
  Sb  Sb0  1  0.00000000  0.00000000  0.00000000  1
  Sb  Sb1  1  0.50000000  0.50000000  0.50000000  1
  Sb  Sb2  1  0.25000000  0.25000000  0.25000000  1
  Sb  Sb3  1  0.75000000  0.25000000  0.00000000  1
  P  P4  1  0.25000000  0.75000000  0.50000000  1
  P  P5  1  0.53661555  0.63171725  0.87587436  1
  Mo  Mo6  1  0.21753547  0.15864949  0.27128548  1
  Mo  Mo7  1  0.45501092  0.56293315  0.43684264  1
  Li  Li8  1  0.34096170  0.96530348  0.94891033  1
  N  N9  1  0.25142407  0.20984429  0.23644726  1
