# generated using pymatgen
data_Li2Mn2Sb4Mo2P3
_symmetry_space_group_name_H-M   'P 1'
_cell_length_a   5.89017878
_cell_length_b   6.33375802
_cell_length_c   6.86574138
_cell_angle_alpha   96.80158179
_cell_angle_beta   91.98775784
_cell_angle_gamma   96.89580097
_symmetry_Int_Tables_number   1
_chemical_formula_structural   Li2Mn2Sb4Mo2P3
_chemical_formula_sum   'Li2 Mn2 Sb4 Mo2 P3'
_cell_volume   252.18657697
_cell_formula_units_Z   1
loop_
 _symmetry_equiv_pos_site_id
 _symmetry_equiv_pos_as_xyz
  1  'x, y, z'
loop_
 _atom_site_type_symbol
 _atom_site_label
 _atom_site_symmetry_multiplicity
 _atom_site_fract_x
 _atom_site_fract_y
 _atom_site_fract_z
 _atom_site_occupancy
  Mn  Mn0  1  0.12500000  0.00000000  0.25000000  1
  Mn  Mn1  1  0.00000000  0.00000000  0.00000000  1
  Sb  Sb2  1  0.37500000  0.00000000  0.25000000  1
  Sb  Sb3  1  0.25000000  0.25000000  0.25000000  1
  Sb  Sb4  1  0.00000000  0.25000000  0.12500000  1
  Sb  Sb5  1  0.31583901  0.47422834  0.89553663  1
  P  P6  1  0.86188962  0.82395973  0.81831915  1
  P  P7  1  0.44714715  0.72799257  0.71075497  1
  P  P8  1  0.70660496  0.48472427  0.42154279  1
  Mo  Mo9  1  0.46813658  0.16577329  0.19663880  1
  Mo  Mo10  1  0.13157281  0.05859829  0.21592890  1
  Li  Li11  1  0.17067123  0.25446705  0.98947465  1
  Li  Li12  1  0.13595324  0.50880727  0.43555197  1
