# generated using pymatgen
data_Li3Ti(As3O)2
_symmetry_space_group_name_H-M   'P 1'
_cell_length_a   6.51630620
_cell_length_b   6.25777023
_cell_length_c   7.69101144
_cell_angle_alpha   98.72112876
_cell_angle_beta   101.39858523
_cell_angle_gamma   98.21944915
_symmetry_Int_Tables_number   1
_chemical_formula_structural   Li3Ti(As3O)2
_chemical_formula_sum   'Li3 Ti1 As6 O2'
_cell_volume   299.00128047
_cell_formula_units_Z   1
loop_
 _symmetry_equiv_pos_site_id
 _symmetry_equiv_pos_as_xyz
  1  'x, y, z'
loop_
 _atom_site_type_symbol
 _atom_site_label
 _atom_site_symmetry_multiplicity
 _atom_site_fract_x
 _atom_site_fract_y
 _atom_site_fract_z
 _atom_site_occupancy
  O  O0  1  0.12500000  0.12500000  0.12500000  1
  O  O1  1  0.50000000  0.50000000  0.50000000  1
  Ti  Ti2  1  0.25000000  0.25000000  0.25000000  1
  As  As3  1  0.75000000  0.75000000  0.75000000  1
  As  As4  1  0.54713297  0.56573667  0.20833067  1
  As  As5  1  0.03055813  0.74508499  0.09909495  1
  As  As6  1  0.76524551  0.43551647  0.95247554  1
  As  As7  1  0.08662960  0.11281208  0.99423694  1
  As  As8  1  0.61489640  0.39098832  0.27155688  1
  Li  Li9  1  0.35452947  0.12758705  0.83567849  1
  Li  Li10  1  0.88567105  0.26519094  0.77742375  1
  Li  Li11  1  0.74625711  0.58057690  0.17165172  1
