# generated using pymatgen
data_Li2Ni3Mo2P3
_symmetry_space_group_name_H-M   'P 1'
_cell_length_a   4.08961748
_cell_length_b   4.04804809
_cell_length_c   6.52137855
_cell_angle_alpha   101.64475772
_cell_angle_beta   97.11687768
_cell_angle_gamma   102.11838902
_symmetry_Int_Tables_number   1
_chemical_formula_structural   Li2Ni3Mo2P3
_chemical_formula_sum   'Li2 Ni3 Mo2 P3'
_cell_volume   101.81254887
_cell_formula_units_Z   1
loop_
 _symmetry_equiv_pos_site_id
 _symmetry_equiv_pos_as_xyz
  1  'x, y, z'
loop_
 _atom_site_type_symbol
 _atom_site_label
 _atom_site_symmetry_multiplicity
 _atom_site_fract_x
 _atom_site_fract_y
 _atom_site_fract_z
 _atom_site_occupancy
  P  P0  1  0.00000000  0.00000000  0.00000000  1
  P  P1  1  0.50000000  0.50000000  0.50000000  1
  P  P2  1  0.50000000  0.50000000  0.00000000  1
  Mo  Mo3  1  0.50000000  0.00000000  0.50000000  1
  Mo  Mo4  1  0.00000000  0.50000000  0.50000000  1
  Li  Li5  1  0.18336776  0.16150589  0.53608022  1
  Li  Li6  1  0.25077619  0.61603979  0.58564314  1
  Ni  Ni7  1  0.26297341  0.86282368  0.49117565  1
  Ni  Ni8  1  0.39395950  0.43253083  0.25697321  1
  Ni  Ni9  1  0.06110015  0.94028804  0.48541252  1
