# generated using pymatgen
data_Li3Ni2As6P5Cl2
_symmetry_space_group_name_H-M   'P 1'
_cell_length_a   6.09147665
_cell_length_b   5.76812759
_cell_length_c   7.80674598
_cell_angle_alpha   100.37427201
_cell_angle_beta   102.67731121
_cell_angle_gamma   99.95206089
_symmetry_Int_Tables_number   1
_chemical_formula_structural   Li3Ni2As6P5Cl2
_chemical_formula_sum   'Li3 Ni2 As6 P5 Cl2'
_cell_volume   256.71433980
_cell_formula_units_Z   1
loop_
 _symmetry_equiv_pos_site_id
 _symmetry_equiv_pos_as_xyz
  1  'x, y, z'
loop_
 _atom_site_type_symbol
 _atom_site_label
 _atom_site_symmetry_multiplicity
 _atom_site_fract_x
 _atom_site_fract_y
 _atom_site_fract_z
 _atom_site_occupancy
  Cl  Cl0  1  0.00000000  0.00000000  0.00000000  1
  Cl  Cl1  1  0.50000000  0.50000000  0.50000000  1
  Ni  Ni2  1  0.50000000  0.50000000  0.00000000  1
  Ni  Ni3  1  0.50000000  0.00000000  0.50000000  1
  P  P4  1  0.00000000  0.50000000  0.50000000  1
  P  P5  1  0.72438261  0.02037125  0.21353175  1
  P  P6  1  0.08850942  0.69411106  0.04202412  1
  P  P7  1  0.65107670  0.80303230  0.92535202  1
  P  P8  1  0.38517234  0.45176895  0.73446351  1
  As  As9  1  0.74028128  0.05638412  0.69783230  1
  As  As10  1  0.15160856  0.19193116  0.14257125  1
  As  As11  1  0.65814620  0.28039726  0.85860562  1
  As  As12  1  0.78260098  0.15440446  0.72927455  1
  As  As13  1  0.03858293  0.38303731  0.39531739  1
  As  As14  1  0.43161415  0.66598977  0.65332101  1
  Li  Li15  1  0.04577173  0.75728100  0.41407992  1
  Li  Li16  1  0.33330586  0.32027278  0.50949545  1
  Li  Li17  1  0.97985802  0.44647043  0.80858272  1
