# generated using pymatgen
data_Li2Mn2Sb4P3
_symmetry_space_group_name_H-M   'P 1'
_cell_length_a   5.59570421
_cell_length_b   5.98752645
_cell_length_c   6.67596738
_cell_angle_alpha   98.41803465
_cell_angle_beta   91.74159996
_cell_angle_gamma   98.43457582
_symmetry_Int_Tables_number   1
_chemical_formula_structural   Li2Mn2Sb4P3
_chemical_formula_sum   'Li2 Mn2 Sb4 P3'
_cell_volume   218.56380213
_cell_formula_units_Z   1
loop_
 _symmetry_equiv_pos_site_id
 _symmetry_equiv_pos_as_xyz
  1  'x, y, z'
loop_
 _atom_site_type_symbol
 _atom_site_label
 _atom_site_symmetry_multiplicity
 _atom_site_fract_x
 _atom_site_fract_y
 _atom_site_fract_z
 _atom_site_occupancy
  Mn  Mn0  1  0.00000000  0.00000000  0.00000000  1
  Mn  Mn1  1  0.33300000  0.66700000  0.25000000  1
  Sb  Sb2  1  0.66700000  0.33300000  0.50000000  1
  Sb  Sb3  1  0.00000000  0.00000000  0.75000000  1
  Sb  Sb4  1  0.29163992  0.47702212  0.99996397  1
  Sb  Sb5  1  0.04275271  0.93831223  0.22748593  1
  P  P6  1  0.50463953  0.48937235  0.45369208  1
  P  P7  1  0.75820302  0.65818374  0.09577582  1
  P  P8  1  0.74001349  0.81056202  0.72492551  1
  Li  Li9  1  0.79899239  0.79392307  0.90796247  1
  Li  Li10  1  0.57959823  0.15838866  0.15175137  1
