# generated using pymatgen
data_Li4Ti2P3I4O3
_symmetry_space_group_name_H-M   'P 1'
_cell_length_a   8.22223830
_cell_length_b   8.77802485
_cell_length_c   7.42699286
_cell_angle_alpha   90.00000000
_cell_angle_beta   90.00000000
_cell_angle_gamma   90.00000000
_symmetry_Int_Tables_number   1
_chemical_formula_structural   Li4Ti2P3I4O3
_chemical_formula_sum   'Li4 Ti2 P3 I4 O3'
_cell_volume   536.04329933
_cell_formula_units_Z   1
loop_
 _symmetry_equiv_pos_site_id
 _symmetry_equiv_pos_as_xyz
  1  'x, y, z'
loop_
 _atom_site_type_symbol
 _atom_site_label
 _atom_site_symmetry_multiplicity
 _atom_site_fract_x
 _atom_site_fract_y
 _atom_site_fract_z
 _atom_site_occupancy
  I  I0  1  0.00000000  0.00000000  0.00000000  1
  I  I1  1  0.50000000  0.50000000  0.50000000  1
  I  I2  1  0.25000000  0.25000000  0.25000000  1
  I  I3  1  0.75000000  0.25000000  0.00000000  1
  P  P4  1  0.25000000  0.75000000  0.50000000  1
  P  P5  1  0.58567497  0.98236330  0.63565667  1
  P  P6  1  0.30643797  0.90303060  0.86775807  1
  Li  Li7  1  0.23361591  0.61544941  0.07274736  1
  Li  Li8  1  0.72143622  0.13554887  0.24546519  1
  Li  Li9  1  0.14670096  0.47705072  0.39491192  1
  Li  Li10  1  0.66808057  0.43325503  0.85493144  1
  Ti  Ti11  1  0.55368473  0.19833687  0.52646040  1
  Ti  Ti12  1  0.83984143  0.48253692  0.17097462  1
  O  O13  1  0.08535495  0.57400656  0.99383159  1
  O  O14  1  0.86899134  0.93642748  0.40184846  1
  O  O15  1  0.71388777  0.78594690  0.09636380  1
