# generated using pymatgen
data_Li3TiP3(I2O)2
_symmetry_space_group_name_H-M   'P 1'
_cell_length_a   7.84316143
_cell_length_b   7.63355110
_cell_length_c   7.11727975
_cell_angle_alpha   92.27821635
_cell_angle_beta   92.61404504
_cell_angle_gamma   92.05728596
_symmetry_Int_Tables_number   1
_chemical_formula_structural   Li3TiP3(I2O)2
_chemical_formula_sum   'Li3 Ti1 P3 I4 O2'
_cell_volume   425.03634459
_cell_formula_units_Z   1
loop_
 _symmetry_equiv_pos_site_id
 _symmetry_equiv_pos_as_xyz
  1  'x, y, z'
loop_
 _atom_site_type_symbol
 _atom_site_label
 _atom_site_symmetry_multiplicity
 _atom_site_fract_x
 _atom_site_fract_y
 _atom_site_fract_z
 _atom_site_occupancy
  I  I0  1  0.00000000  0.00000000  0.00000000  1
  I  I1  1  0.50000000  0.50000000  0.50000000  1
  I  I2  1  0.50000000  0.50000000  0.00000000  1
  I  I3  1  0.50000000  0.00000000  0.50000000  1
  P  P4  1  0.00000000  0.50000000  0.50000000  1
  P  P5  1  0.18303075  0.49866773  0.39314156  1
  P  P6  1  0.02071480  0.35899018  0.54314532  1
  Li  Li7  1  0.09463203  0.63708026  0.69632304  1
  Li  Li8  1  0.79936164  0.07620337  0.65111584  1
  Li  Li9  1  0.03584618  0.15539823  0.19501214  1
  Ti  Ti10  1  0.73148964  0.45086876  0.97038912  1
  O  O11  1  0.59692649  0.13547185  0.41765432  1
  O  O12  1  0.41194977  0.70569956  0.11035656  1
