# generated using pymatgen
data_LiMnSb4P3
_symmetry_space_group_name_H-M   'P 1'
_cell_length_a   5.84641600
_cell_length_b   6.13818280
_cell_length_c   6.72415226
_cell_angle_alpha   95.18083170
_cell_angle_beta   93.20997245
_cell_angle_gamma   95.38358570
_symmetry_Int_Tables_number   1
_chemical_formula_structural   LiMnSb4P3
_chemical_formula_sum   'Li1 Mn1 Sb4 P3'
_cell_volume   238.75326295
_cell_formula_units_Z   1
loop_
 _symmetry_equiv_pos_site_id
 _symmetry_equiv_pos_as_xyz
  1  'x, y, z'
loop_
 _atom_site_type_symbol
 _atom_site_label
 _atom_site_symmetry_multiplicity
 _atom_site_fract_x
 _atom_site_fract_y
 _atom_site_fract_z
 _atom_site_occupancy
  Mn  Mn0  1  0.00000000  0.00000000  0.00000000  1
  Sb  Sb1  1  0.33300000  0.66700000  0.25000000  1
  Sb  Sb2  1  0.66700000  0.33300000  0.50000000  1
  Sb  Sb3  1  0.00000000  0.00000000  0.75000000  1
  Sb  Sb4  1  0.51147054  0.35271341  0.25646694  1
  P  P5  1  0.36622009  0.44700833  0.97879881  1
  P  P6  1  0.04036100  0.79473410  0.39225287  1
  P  P7  1  0.46375888  0.74700590  0.80953831  1
  Li  Li8  1  0.93856945  0.56246182  0.49226525  1
