# generated using pymatgen
data_Li3LuTi2P3N5
_symmetry_space_group_name_H-M   'P 1'
_cell_length_a   7.45716407
_cell_length_b   7.31489969
_cell_length_c   8.44826421
_cell_angle_alpha   92.95892640
_cell_angle_beta   91.61632273
_cell_angle_gamma   93.50436559
_symmetry_Int_Tables_number   1
_chemical_formula_structural   Li3LuTi2P3N5
_chemical_formula_sum   'Li3 Lu1 Ti2 P3 N5'
_cell_volume   459.13699446
_cell_formula_units_Z   1
loop_
 _symmetry_equiv_pos_site_id
 _symmetry_equiv_pos_as_xyz
  1  'x, y, z'
loop_
 _atom_site_type_symbol
 _atom_site_label
 _atom_site_symmetry_multiplicity
 _atom_site_fract_x
 _atom_site_fract_y
 _atom_site_fract_z
 _atom_site_occupancy
  P  P0  1  0.00000000  0.00000000  0.00000000  1
  P  P1  1  0.50000000  0.50000000  0.50000000  1
  P  P2  1  0.50000000  0.50000000  0.00000000  1
  Lu  Lu3  1  0.50000000  0.00000000  0.50000000  1
  Li  Li4  1  0.00000000  0.50000000  0.50000000  1
  Li  Li5  1  0.58805460  0.41170484  0.72413645  1
  Li  Li6  1  0.83752044  0.84188103  0.46507268  1
  Ti  Ti7  1  0.85034687  0.26605278  0.05250864  1
  Ti  Ti8  1  0.76647787  0.20729480  0.34632188  1
  N  N9  1  0.60636984  0.36819631  0.87203429  1
  N  N10  1  0.98060932  0.13911759  0.27343569  1
  N  N11  1  0.19448798  0.08266195  0.56836022  1
  N  N12  1  0.46817885  0.43287600  0.30477520  1
  N  N13  1  0.58036395  0.05445317  0.33773859  1
