# generated using pymatgen
data_Li4LuNi2N5O7
_symmetry_space_group_name_H-M   'P 1'
_cell_length_a   7.86506879
_cell_length_b   7.60124145
_cell_length_c   9.25129689
_cell_angle_alpha   91.78091200
_cell_angle_beta   90.62962717
_cell_angle_gamma   92.06564232
_symmetry_Int_Tables_number   1
_chemical_formula_structural   Li4LuNi2N5O7
_chemical_formula_sum   'Li4 Lu1 Ni2 N5 O7'
_cell_volume   552.41520881
_cell_formula_units_Z   1
loop_
 _symmetry_equiv_pos_site_id
 _symmetry_equiv_pos_as_xyz
  1  'x, y, z'
loop_
 _atom_site_type_symbol
 _atom_site_label
 _atom_site_symmetry_multiplicity
 _atom_site_fract_x
 _atom_site_fract_y
 _atom_site_fract_z
 _atom_site_occupancy
  Lu  Lu0  1  0.00000000  0.00000000  0.00000000  1
  Li  Li1  1  0.50000000  0.50000000  0.50000000  1
  Li  Li2  1  0.25000000  0.25000000  0.25000000  1
  Li  Li3  1  0.75000000  0.25000000  0.00000000  1
  Li  Li4  1  0.25000000  0.75000000  0.50000000  1
  Ni  Ni5  1  0.98605860  0.86352743  0.37420551  1
  Ni  Ni6  1  0.47438794  0.75585950  0.44693077  1
  O  O7  1  0.43791337  0.43682837  0.51156236  1
  O  O8  1  0.88731870  0.03038606  0.85107127  1
  O  O9  1  0.10805374  0.86042479  0.84546011  1
  O  O10  1  0.66834163  0.47299528  0.33158279  1
  O  O11  1  0.24699231  0.01505397  0.96420870  1
  O  O12  1  0.33704475  0.84633868  0.10080025  1
  O  O13  1  0.77361172  0.65359025  0.49723314  1
  N  N14  1  0.51068321  0.17894084  0.39666587  1
  N  N15  1  0.46300082  0.84559083  0.83413664  1
  N  N16  1  0.75095071  0.09226871  0.33510588  1
  N  N17  1  0.80435375  0.04506047  0.48401697  1
  N  N18  1  0.16416663  0.59296200  0.51043230  1
