# generated using pymatgen
data_Li2LuCu2P6F2
_symmetry_space_group_name_H-M   'P 1'
_cell_length_a   8.03320624
_cell_length_b   7.77286585
_cell_length_c   8.24870415
_cell_angle_alpha   91.07257062
_cell_angle_beta   91.13677500
_cell_angle_gamma   91.24119459
_symmetry_Int_Tables_number   1
_chemical_formula_structural   Li2LuCu2P6F2
_chemical_formula_sum   'Li2 Lu1 Cu2 P6 F2'
_cell_volume   514.74094612
_cell_formula_units_Z   1
loop_
 _symmetry_equiv_pos_site_id
 _symmetry_equiv_pos_as_xyz
  1  'x, y, z'
loop_
 _atom_site_type_symbol
 _atom_site_label
 _atom_site_symmetry_multiplicity
 _atom_site_fract_x
 _atom_site_fract_y
 _atom_site_fract_z
 _atom_site_occupancy
  P  P0  1  0.00000000  0.00000000  0.00000000  1
  P  P1  1  0.50000000  0.50000000  0.50000000  1
  P  P2  1  0.50000000  0.50000000  0.00000000  1
  P  P3  1  0.50000000  0.00000000  0.50000000  1
  P  P4  1  0.00000000  0.50000000  0.50000000  1
  P  P5  1  0.27636918  0.85457395  0.04321678  1
  Lu  Lu6  1  0.77979110  0.49577836  0.50101849  1
  Li  Li7  1  0.64916762  0.71205585  0.86985956  1
  Li  Li8  1  0.83245914  0.62762080  0.97772728  1
  Cu  Cu9  1  0.97258763  0.30702520  0.27323906  1
  Cu  Cu10  1  0.62836737  0.27915986  0.13487027  1
  F  F11  1  0.29242429  0.60250554  0.76894595  1
  F  F12  1  0.26483682  0.13371323  0.64849635  1
