# generated using pymatgen
data_Li3I4Cl2O4F3
_symmetry_space_group_name_H-M   'P 1'
_cell_length_a   5.41109618
_cell_length_b   5.16307342
_cell_length_c   7.08674835
_cell_angle_alpha   100.60743958
_cell_angle_beta   103.92814588
_cell_angle_gamma   99.90696991
_symmetry_Int_Tables_number   1
_chemical_formula_structural   Li3I4Cl2O4F3
_chemical_formula_sum   'Li3 I4 Cl2 O4 F3'
_cell_volume   183.96222855
_cell_formula_units_Z   1
loop_
 _symmetry_equiv_pos_site_id
 _symmetry_equiv_pos_as_xyz
  1  'x, y, z'
loop_
 _atom_site_type_symbol
 _atom_site_label
 _atom_site_symmetry_multiplicity
 _atom_site_fract_x
 _atom_site_fract_y
 _atom_site_fract_z
 _atom_site_occupancy
  F  F0  1  0.00000000  0.00000000  0.00000000  1
  F  F1  1  0.50000000  0.50000000  0.50000000  1
  F  F2  1  0.25000000  0.25000000  0.25000000  1
  Cl  Cl3  1  0.75000000  0.25000000  0.00000000  1
  Cl  Cl4  1  0.25000000  0.75000000  0.50000000  1
  I  I5  1  0.82937006  0.08817168  0.01476538  1
  I  I6  1  0.59705603  0.29413363  0.20582924  1
  I  I7  1  0.37752769  0.36132280  0.81110549  1
  I  I8  1  0.79012374  0.98337651  0.05242214  1
  O  O9  1  0.59789367  0.52455724  0.30653711  1
  O  O10  1  0.08136006  0.45470705  0.58791363  1
  O  O11  1  0.79173064  0.40687779  0.67493976  1
  O  O12  1  0.27674745  0.39035539  0.50719306  1
  Li  Li13  1  0.65860354  0.70847899  0.36386952  1
  Li  Li14  1  0.80595612  0.37264374  0.46609790  1
  Li  Li15  1  0.63475793  0.28810241  0.19263972  1
