# generated using pymatgen
data_LiTi3Nb2ClF3
_symmetry_space_group_name_H-M   'P 1'
_cell_length_a   5.42194328
_cell_length_b   4.65207991
_cell_length_c   7.36560347
_cell_angle_alpha   91.60516781
_cell_angle_beta   97.63690095
_cell_angle_gamma   91.83513542
_symmetry_Int_Tables_number   1
_chemical_formula_structural   LiTi3Nb2ClF3
_chemical_formula_sum   'Li1 Ti3 Nb2 Cl1 F3'
_cell_volume   183.94493855
_cell_formula_units_Z   1
loop_
 _symmetry_equiv_pos_site_id
 _symmetry_equiv_pos_as_xyz
  1  'x, y, z'
loop_
 _atom_site_type_symbol
 _atom_site_label
 _atom_site_symmetry_multiplicity
 _atom_site_fract_x
 _atom_site_fract_y
 _atom_site_fract_z
 _atom_site_occupancy
  F  F0  1  0.00000000  0.00000000  0.00000000  1
  F  F1  1  0.50000000  0.50000000  0.50000000  1
  F  F2  1  0.25000000  0.25000000  0.25000000  1
  Cl  Cl3  1  0.75000000  0.25000000  0.00000000  1
  Ti  Ti4  1  0.25000000  0.75000000  0.50000000  1
  Ti  Ti5  1  0.27063570  0.21157369  0.69245204  1
  Ti  Ti6  1  0.18606943  0.56214554  0.03623711  1
  Li  Li7  1  0.63560376  0.07733364  0.44931949  1
  Nb  Nb8  1  0.87003936  0.63072801  0.05359187  1
  Nb  Nb9  1  0.66809155  0.72664814  0.52490808  1
