# generated using pymatgen
data_Li4Ti2As6P3O4
_symmetry_space_group_name_H-M   'P 1'
_cell_length_a   8.22047334
_cell_length_b   7.95331944
_cell_length_c   8.46096853
_cell_angle_alpha   90.00000000
_cell_angle_beta   90.00000000
_cell_angle_gamma   90.00000000
_symmetry_Int_Tables_number   1
_chemical_formula_structural   Li4Ti2As6P3O4
_chemical_formula_sum   'Li4 Ti2 As6 P3 O4'
_cell_volume   553.17854867
_cell_formula_units_Z   1
loop_
 _symmetry_equiv_pos_site_id
 _symmetry_equiv_pos_as_xyz
  1  'x, y, z'
loop_
 _atom_site_type_symbol
 _atom_site_label
 _atom_site_symmetry_multiplicity
 _atom_site_fract_x
 _atom_site_fract_y
 _atom_site_fract_z
 _atom_site_occupancy
  P  P0  1  0.00000000  0.00000000  0.00000000  1
  P  P1  1  0.50000000  0.50000000  0.50000000  1
  P  P2  1  0.50000000  0.50000000  0.00000000  1
  Li  Li3  1  0.50000000  0.00000000  0.50000000  1
  Li  Li4  1  0.00000000  0.50000000  0.50000000  1
  Li  Li5  1  0.91832619  0.50323365  0.48540447  1
  Li  Li6  1  0.95523794  0.31484231  0.10506165  1
  Ti  Ti7  1  0.05689834  0.27976906  0.00643701  1
  Ti  Ti8  1  0.58182795  0.94687636  0.40820210  1
  As  As9  1  0.24057199  0.65282832  0.57141654  1
  As  As10  1  0.75891221  0.33539886  0.84618220  1
  As  As11  1  0.54573169  0.42597283  0.53400077  1
  As  As12  1  0.38513679  0.14287716  0.48892605  1
  As  As13  1  0.60316457  0.39338317  0.25377852  1
  As  As14  1  0.48630764  0.18384577  0.83505799  1
  O  O15  1  0.33490317  0.69359135  0.65786164  1
  O  O16  1  0.13234249  0.55604420  0.65616222  1
  O  O17  1  0.37735949  0.69176687  0.27481326  1
  O  O18  1  0.05723396  0.55381638  0.49419626  1
