# generated using pymatgen
data_Li3Ni2As6P4N5
_symmetry_space_group_name_H-M   'P 1'
_cell_length_a   8.01388252
_cell_length_b   7.76203629
_cell_length_c   9.32916891
_cell_angle_alpha   92.36906440
_cell_angle_beta   92.25156590
_cell_angle_gamma   92.52456442
_symmetry_Int_Tables_number   1
_chemical_formula_structural   Li3Ni2As6P4N5
_chemical_formula_sum   'Li3 Ni2 As6 P4 N5'
_cell_volume   578.76188554
_cell_formula_units_Z   1
loop_
 _symmetry_equiv_pos_site_id
 _symmetry_equiv_pos_as_xyz
  1  'x, y, z'
loop_
 _atom_site_type_symbol
 _atom_site_label
 _atom_site_symmetry_multiplicity
 _atom_site_fract_x
 _atom_site_fract_y
 _atom_site_fract_z
 _atom_site_occupancy
  P  P0  1  0.00000000  0.00000000  0.00000000  1
  P  P1  1  0.50000000  0.50000000  0.50000000  1
  P  P2  1  0.50000000  0.50000000  0.00000000  1
  P  P3  1  0.50000000  0.00000000  0.50000000  1
  Li  Li4  1  0.00000000  0.50000000  0.50000000  1
  Li  Li5  1  0.14594048  0.26507090  0.30639961  1
  Li  Li6  1  0.25222878  0.32349573  0.14200217  1
  Ni  Ni7  1  0.15314344  0.62675111  0.85869322  1
  Ni  Ni8  1  0.04447286  0.72767961  0.48776317  1
  As  As9  1  0.21358597  0.59246072  0.01197058  1
  As  As10  1  0.45026004  0.62906007  0.62475583  1
  As  As11  1  0.60685302  0.98995291  0.88917412  1
  As  As12  1  0.07788647  0.51733831  0.12728300  1
  As  As13  1  0.90153390  0.23895662  0.76931105  1
  As  As14  1  0.22782838  0.09120191  0.36936871  1
  N  N15  1  0.01225115  0.06778326  0.24754217  1
  N  N16  1  0.66837266  0.56389688  0.71708605  1
  N  N17  1  0.03406015  0.79968229  0.24146778  1
  N  N18  1  0.61665028  0.67183212  0.50651926  1
  N  N19  1  0.82692375  0.95315323  0.16309029  1
