# generated using pymatgen
data_Li2TiP3O2
_symmetry_space_group_name_H-M   'P 1'
_cell_length_a   7.05150838
_cell_length_b   6.70397499
_cell_length_c   6.87119431
_cell_angle_alpha   92.33059269
_cell_angle_beta   94.21641612
_cell_angle_gamma   92.20721183
_symmetry_Int_Tables_number   1
_chemical_formula_structural   Li2TiP3O2
_chemical_formula_sum   'Li2 Ti1 P3 O2'
_cell_volume   323.39492143
_cell_formula_units_Z   1
loop_
 _symmetry_equiv_pos_site_id
 _symmetry_equiv_pos_as_xyz
  1  'x, y, z'
loop_
 _atom_site_type_symbol
 _atom_site_label
 _atom_site_symmetry_multiplicity
 _atom_site_fract_x
 _atom_site_fract_y
 _atom_site_fract_z
 _atom_site_occupancy
  P  P0  1  0.00000000  0.00000000  0.00000000  1
  P  P1  1  0.33300000  0.66700000  0.25000000  1
  P  P2  1  0.66700000  0.33300000  0.50000000  1
  Li  Li3  1  0.00000000  0.00000000  0.75000000  1
  Li  Li4  1  0.27430211  0.30895182  0.46573840  1
  Ti  Ti5  1  0.59681444  0.23653752  0.01264874  1
  O  O6  1  0.85954317  0.79313459  0.90534587  1
  O  O7  1  0.11910306  0.84621423  0.85969590  1
