# generated using pymatgen
data_Li2TiP5(OF)2
_symmetry_space_group_name_H-M   'P 1'
_cell_length_a   6.77169473
_cell_length_b   6.49351226
_cell_length_c   6.23252593
_cell_angle_alpha   90.64859143
_cell_angle_beta   91.07511007
_cell_angle_gamma   89.39308168
_symmetry_Int_Tables_number   1
_chemical_formula_structural   Li2TiP5(OF)2
_chemical_formula_sum   'Li2 Ti1 P5 O2 F2'
_cell_volume   273.97657606
_cell_formula_units_Z   1
loop_
 _symmetry_equiv_pos_site_id
 _symmetry_equiv_pos_as_xyz
  1  'x, y, z'
loop_
 _atom_site_type_symbol
 _atom_site_label
 _atom_site_symmetry_multiplicity
 _atom_site_fract_x
 _atom_site_fract_y
 _atom_site_fract_z
 _atom_site_occupancy
  P  P0  1  0.00000000  0.00000000  0.00000000  1
  P  P1  1  0.50000000  0.50000000  0.50000000  1
  P  P2  1  0.25000000  0.25000000  0.25000000  1
  P  P3  1  0.75000000  0.25000000  0.00000000  1
  P  P4  1  0.25000000  0.75000000  0.50000000  1
  Li  Li5  1  0.02992994  0.22752730  0.06267910  1
  Li  Li6  1  0.94345584  0.20833264  0.60815711  1
  F  F7  1  0.59985111  0.33615703  0.58497825  1
  F  F8  1  0.31024137  0.92466895  0.96023950  1
  Ti  Ti9  1  0.78028311  0.06688830  0.48570290  1
  O  O10  1  0.62758386  0.76643558  0.06266881  1
  O  O11  1  0.53151559  0.58926396  0.52676792  1
