# generated using pymatgen
data_Li2Mn2Sb4P3
_symmetry_space_group_name_H-M   'P 1'
_cell_length_a   5.26902850
_cell_length_b   5.64779418
_cell_length_c   6.40213873
_cell_angle_alpha   96.60460691
_cell_angle_beta   95.02560310
_cell_angle_gamma   95.82338749
_symmetry_Int_Tables_number   1
_chemical_formula_structural   Li2Mn2Sb4P3
_chemical_formula_sum   'Li2 Mn2 Sb4 P3'
_cell_volume   187.32397671
_cell_formula_units_Z   1
loop_
 _symmetry_equiv_pos_site_id
 _symmetry_equiv_pos_as_xyz
  1  'x, y, z'
loop_
 _atom_site_type_symbol
 _atom_site_label
 _atom_site_symmetry_multiplicity
 _atom_site_fract_x
 _atom_site_fract_y
 _atom_site_fract_z
 _atom_site_occupancy
  Mn  Mn0  1  0.00000000  0.00000000  0.00000000  1
  Mn  Mn1  1  0.50000000  0.50000000  0.50000000  1
  Sb  Sb2  1  0.25000000  0.25000000  0.25000000  1
  Sb  Sb3  1  0.75000000  0.25000000  0.00000000  1
  Sb  Sb4  1  0.25000000  0.75000000  0.50000000  1
  Sb  Sb5  1  0.52598275  0.62882244  0.25225963  1
  P  P6  1  0.04368569  0.33247501  0.69439237  1
  P  P7  1  0.40952461  0.59423914  0.41479695  1
  P  P8  1  0.95415517  0.19366134  0.46487307  1
  Li  Li9  1  0.98846551  0.82856670  0.86305239  1
  Li  Li10  1  0.81615616  0.24441334  0.86621472  1
