# generated using pymatgen
data_Li2MnSb4P3
_symmetry_space_group_name_H-M   'P 1'
_cell_length_a   5.62220811
_cell_length_b   5.88671271
_cell_length_c   7.06602514
_cell_angle_alpha   96.65809233
_cell_angle_beta   94.61845583
_cell_angle_gamma   97.12252434
_symmetry_Int_Tables_number   1
_chemical_formula_structural   Li2MnSb4P3
_chemical_formula_sum   'Li2 Mn1 Sb4 P3'
_cell_volume   229.41891832
_cell_formula_units_Z   1
loop_
 _symmetry_equiv_pos_site_id
 _symmetry_equiv_pos_as_xyz
  1  'x, y, z'
loop_
 _atom_site_type_symbol
 _atom_site_label
 _atom_site_symmetry_multiplicity
 _atom_site_fract_x
 _atom_site_fract_y
 _atom_site_fract_z
 _atom_site_occupancy
  Mn  Mn0  1  0.00000000  0.00000000  0.00000000  1
  Sb  Sb1  1  0.33300000  0.66700000  0.25000000  1
  Sb  Sb2  1  0.66700000  0.33300000  0.50000000  1
  Sb  Sb3  1  0.00000000  0.00000000  0.75000000  1
  Sb  Sb4  1  0.41864367  0.99491663  0.85117702  1
  P  P5  1  0.63325470  0.42160365  0.08747190  1
  P  P6  1  0.44844341  0.62984082  0.49377763  1
  P  P7  1  0.03854104  0.00504765  0.96258247  1
  Li  Li8  1  0.72376635  0.96354794  0.79886977  1
  Li  Li9  1  0.03924082  0.04665708  0.74659520  1
