# generated using pymatgen
data_Li3TiI4(OF)3
_symmetry_space_group_name_H-M   'P 1'
_cell_length_a   5.68295030
_cell_length_b   5.52295601
_cell_length_c   6.90329511
_cell_angle_alpha   97.88771245
_cell_angle_beta   100.72419922
_cell_angle_gamma   97.33281368
_symmetry_Int_Tables_number   1
_chemical_formula_structural   Li3TiI4(OF)3
_chemical_formula_sum   'Li3 Ti1 I4 O3 F3'
_cell_volume   208.24517817
_cell_formula_units_Z   1
loop_
 _symmetry_equiv_pos_site_id
 _symmetry_equiv_pos_as_xyz
  1  'x, y, z'
loop_
 _atom_site_type_symbol
 _atom_site_label
 _atom_site_symmetry_multiplicity
 _atom_site_fract_x
 _atom_site_fract_y
 _atom_site_fract_z
 _atom_site_occupancy
  I  I0  1  0.00000000  0.00000000  0.00000000  1
  I  I1  1  0.50000000  0.50000000  0.50000000  1
  I  I2  1  0.50000000  0.50000000  0.00000000  1
  I  I3  1  0.50000000  0.00000000  0.50000000  1
  Li  Li4  1  0.00000000  0.50000000  0.50000000  1
  Li  Li5  1  0.29973510  0.97627135  0.61914686  1
  Li  Li6  1  0.88161647  0.47390949  0.23366509  1
  F  F7  1  0.60204722  0.52828176  0.12594601  1
  F  F8  1  0.84263132  0.41156467  0.77681783  1
  F  F9  1  0.82363748  0.78755407  0.15862614  1
  Ti  Ti10  1  0.89676833  0.35685156  0.94014977  1
  O  O11  1  0.44853671  0.71506874  0.25402291  1
  O  O12  1  0.30043865  0.05118532  0.57839889  1
  O  O13  1  0.64282916  0.95963201  0.58949813  1
