# generated using pymatgen
data_LiTiCuP3F
_symmetry_space_group_name_H-M   'P 1'
_cell_length_a   8.06457062
_cell_length_b   7.94091105
_cell_length_c   8.12560851
_cell_angle_alpha   90.28958776
_cell_angle_beta   91.37777063
_cell_angle_gamma   90.33107614
_symmetry_Int_Tables_number   1
_chemical_formula_structural   LiTiCuP3F
_chemical_formula_sum   'Li2 Ti2 Cu2 P6 F2'
_cell_volume   520.19813262
_cell_formula_units_Z   2
loop_
 _symmetry_equiv_pos_site_id
 _symmetry_equiv_pos_as_xyz
  1  'x, y, z'
loop_
 _atom_site_type_symbol
 _atom_site_label
 _atom_site_symmetry_multiplicity
 _atom_site_fract_x
 _atom_site_fract_y
 _atom_site_fract_z
 _atom_site_occupancy
  F  F0  1  0.00000000  0.00000000  0.00000000  1
  F  F1  1  0.50000000  0.50000000  0.50000000  1
  Ti  Ti2  1  0.25000000  0.25000000  0.25000000  1
  Ti  Ti3  1  0.75000000  0.25000000  0.00000000  1
  P  P4  1  0.25000000  0.75000000  0.50000000  1
  P  P5  1  0.48564255  0.71140423  0.11090454  1
  P  P6  1  0.30150511  0.57738136  0.69493229  1
  P  P7  1  0.77325041  0.59480189  0.87495587  1
  P  P8  1  0.45452968  0.27445919  0.54823414  1
  P  P9  1  0.54983526  0.45092196  0.14115925  1
  Li  Li10  1  0.41968820  0.04751432  0.85542448  1
  Li  Li11  1  0.94594766  0.66256232  0.94514058  1
  Cu  Cu12  1  0.27949867  0.93637574  0.82515829  1
  Cu  Cu13  1  0.24111515  0.53885442  0.92468096  1
