# generated using pymatgen
data_Li3TiP3I4O3
_symmetry_space_group_name_H-M   'P 1'
_cell_length_a   7.14752537
_cell_length_b   6.87711223
_cell_length_c   7.05694447
_cell_angle_alpha   93.81134344
_cell_angle_beta   94.37316825
_cell_angle_gamma   93.44173781
_symmetry_Int_Tables_number   1
_chemical_formula_structural   Li3TiP3I4O3
_chemical_formula_sum   'Li3 Ti1 P3 I4 O3'
_cell_volume   344.36488134
_cell_formula_units_Z   1
loop_
 _symmetry_equiv_pos_site_id
 _symmetry_equiv_pos_as_xyz
  1  'x, y, z'
loop_
 _atom_site_type_symbol
 _atom_site_label
 _atom_site_symmetry_multiplicity
 _atom_site_fract_x
 _atom_site_fract_y
 _atom_site_fract_z
 _atom_site_occupancy
  I  I0  1  0.00000000  0.00000000  0.00000000  1
  I  I1  1  0.50000000  0.50000000  0.50000000  1
  I  I2  1  0.50000000  0.50000000  0.00000000  1
  I  I3  1  0.50000000  0.00000000  0.50000000  1
  P  P4  1  0.00000000  0.50000000  0.50000000  1
  P  P5  1  0.02512734  0.80746900  0.25414359  1
  P  P6  1  0.31959911  0.19637322  0.50708815  1
  Li  Li7  1  0.29647584  0.65055526  0.02779089  1
  Li  Li8  1  0.56803954  0.58905382  0.51391762  1
  Li  Li9  1  0.01365782  0.42124686  0.28129181  1
  Ti  Ti10  1  0.09103301  0.02616518  0.29618208  1
  O  O11  1  0.43769063  0.91559157  0.25061261  1
  O  O12  1  0.50096838  0.33338402  0.60241853  1
  O  O13  1  0.00927323  0.76086857  0.09606313  1
