# generated using pymatgen
data_Li2TiSb5(PCl)3
_symmetry_space_group_name_H-M   'P 1'
_cell_length_a   4.79670658
_cell_length_b   5.12828632
_cell_length_c   7.21716148
_cell_angle_alpha   97.75180192
_cell_angle_beta   99.18272563
_cell_angle_gamma   98.82250769
_symmetry_Int_Tables_number   1
_chemical_formula_structural   Li2TiSb5(PCl)3
_chemical_formula_sum   'Li2 Ti1 Sb5 P3 Cl3'
_cell_volume   170.85882316
_cell_formula_units_Z   1
loop_
 _symmetry_equiv_pos_site_id
 _symmetry_equiv_pos_as_xyz
  1  'x, y, z'
loop_
 _atom_site_type_symbol
 _atom_site_label
 _atom_site_symmetry_multiplicity
 _atom_site_fract_x
 _atom_site_fract_y
 _atom_site_fract_z
 _atom_site_occupancy
  Cl  Cl0  1  0.00000000  0.00000000  0.00000000  1
  Cl  Cl1  1  0.50000000  0.50000000  0.50000000  1
  Cl  Cl2  1  0.50000000  0.50000000  0.00000000  1
  Ti  Ti3  1  0.50000000  0.00000000  0.50000000  1
  Sb  Sb4  1  0.00000000  0.50000000  0.50000000  1
  Sb  Sb5  1  0.50081480  0.14070779  0.87413347  1
  Sb  Sb6  1  0.98995845  0.08586978  0.63773200  1
  Sb  Sb7  1  0.71266631  0.14035288  0.49778804  1
  Sb  Sb8  1  0.70000246  0.39131069  0.94166147  1
  P  P9  1  0.70516901  0.63121838  0.24487268  1
  P  P10  1  0.51908528  0.01057878  0.06124690  1
  P  P11  1  0.05724535  0.41087387  0.87314224  1
  Li  Li12  1  0.67526930  0.67960415  0.23926049  1
  Li  Li13  1  0.24017685  0.26257639  0.25205793  1
