# generated using pymatgen
data_Li2Mn2Sb4P3
_symmetry_space_group_name_H-M   'P 1'
_cell_length_a   5.64099189
_cell_length_b   6.07161650
_cell_length_c   6.92425404
_cell_angle_alpha   96.84185307
_cell_angle_beta   93.61340727
_cell_angle_gamma   97.16138492
_symmetry_Int_Tables_number   1
_chemical_formula_structural   Li2Mn2Sb4P3
_chemical_formula_sum   'Li2 Mn2 Sb4 P3'
_cell_volume   232.89843618
_cell_formula_units_Z   1
loop_
 _symmetry_equiv_pos_site_id
 _symmetry_equiv_pos_as_xyz
  1  'x, y, z'
loop_
 _atom_site_type_symbol
 _atom_site_label
 _atom_site_symmetry_multiplicity
 _atom_site_fract_x
 _atom_site_fract_y
 _atom_site_fract_z
 _atom_site_occupancy
  Mn  Mn0  1  0.12500000  0.00000000  0.25000000  1
  Mn  Mn1  1  0.00000000  0.00000000  0.00000000  1
  Sb  Sb2  1  0.37500000  0.00000000  0.25000000  1
  Sb  Sb3  1  0.25000000  0.25000000  0.25000000  1
  Sb  Sb4  1  0.00000000  0.25000000  0.12500000  1
  Sb  Sb5  1  0.11287906  0.69965548  0.54980910  1
  P  P6  1  0.73796362  0.19185149  0.67054955  1
  P  P7  1  0.61287754  0.65719048  0.33046089  1
  P  P8  1  0.51588557  0.57044234  0.85531883  1
  Li  Li9  1  0.72991373  0.02610011  0.05560274  1
  Li  Li10  1  0.64112312  0.79235750  0.45998574  1
