# generated using pymatgen
data_Li2OF3
_symmetry_space_group_name_H-M   'P 1'
_cell_length_a   3.23008576
_cell_length_b   2.81518069
_cell_length_c   5.91075052
_cell_angle_alpha   93.45829464
_cell_angle_beta   101.08254475
_cell_angle_gamma   95.47925502
_symmetry_Int_Tables_number   1
_chemical_formula_structural   Li2OF3
_chemical_formula_sum   'Li2 O1 F3'
_cell_volume   52.33417656
_cell_formula_units_Z   1
loop_
 _symmetry_equiv_pos_site_id
 _symmetry_equiv_pos_as_xyz
  1  'x, y, z'
loop_
 _atom_site_type_symbol
 _atom_site_label
 _atom_site_symmetry_multiplicity
 _atom_site_fract_x
 _atom_site_fract_y
 _atom_site_fract_z
 _atom_site_occupancy
  F  F0  1  0.00000000  0.00000000  0.00000000  1
  F  F1  1  0.50000000  0.50000000  0.50000000  1
  F  F2  1  0.25000000  0.25000000  0.25000000  1
  O  O3  1  0.75000000  0.25000000  0.00000000  1
  Li  Li4  1  0.25000000  0.75000000  0.50000000  1
  Li  Li5  1  0.09687509  0.47855954  0.75496193  1
