# generated using pymatgen
data_LiAs3
_symmetry_space_group_name_H-M   'P 1'
_cell_length_a   8.26804286
_cell_length_b   8.28479428
_cell_length_c   7.73823472
_cell_angle_alpha   90.20957371
_cell_angle_beta   90.99708807
_cell_angle_gamma   90.23959871
_symmetry_Int_Tables_number   1
_chemical_formula_structural   LiAs3
_chemical_formula_sum   'Li2 As6'
_cell_volume   529.97302033
_cell_formula_units_Z   2
loop_
 _symmetry_equiv_pos_site_id
 _symmetry_equiv_pos_as_xyz
  1  'x, y, z'
loop_
 _atom_site_type_symbol
 _atom_site_label
 _atom_site_symmetry_multiplicity
 _atom_site_fract_x
 _atom_site_fract_y
 _atom_site_fract_z
 _atom_site_occupancy
  Li  Li0  1  0.00000000  0.00000000  0.00000000  1
  Li  Li1  1  0.50000000  0.50000000  0.50000000  1
  As  As2  1  0.50000000  0.50000000  0.00000000  1
  As  As3  1  0.50000000  0.00000000  0.50000000  1
  As  As4  1  0.00000000  0.50000000  0.50000000  1
  As  As5  1  0.22167118  0.41633765  0.86294894  1
  As  As6  1  0.63714803  0.35019315  0.14408635  1
  As  As7  1  0.77780713  0.84113876  0.88057294  1
