# generated using pymatgen
data_Li4LuNi2As6N5
_symmetry_space_group_name_H-M   'P 1'
_cell_length_a   7.95635765
_cell_length_b   7.71711016
_cell_length_c   9.33216204
_cell_angle_alpha   91.41862879
_cell_angle_beta   90.50154485
_cell_angle_gamma   91.64543766
_symmetry_Int_Tables_number   1
_chemical_formula_structural   Li4LuNi2As6N5
_chemical_formula_sum   'Li4 Lu1 Ni2 As6 N5'
_cell_volume   572.55806758
_cell_formula_units_Z   1
loop_
 _symmetry_equiv_pos_site_id
 _symmetry_equiv_pos_as_xyz
  1  'x, y, z'
loop_
 _atom_site_type_symbol
 _atom_site_label
 _atom_site_symmetry_multiplicity
 _atom_site_fract_x
 _atom_site_fract_y
 _atom_site_fract_z
 _atom_site_occupancy
  Lu  Lu0  1  0.00000000  0.00000000  0.00000000  1
  Li  Li1  1  0.50000000  0.50000000  0.50000000  1
  Li  Li2  1  0.50000000  0.50000000  0.00000000  1
  Li  Li3  1  0.50000000  0.00000000  0.50000000  1
  Li  Li4  1  0.00000000  0.50000000  0.50000000  1
  Ni  Ni5  1  0.99781673  0.85566317  0.90361016  1
  Ni  Ni6  1  0.53462462  0.46637356  0.04242425  1
  As  As7  1  0.05866242  0.87225735  0.52182787  1
  As  As8  1  0.81538908  0.50160485  0.75496182  1
  As  As9  1  0.32194448  0.36543956  0.80409100  1
  As  As10  1  0.83697310  0.36743609  0.19123634  1
  As  As11  1  0.24608175  0.42476854  0.82907122  1
  As  As12  1  0.51243094  0.95750803  0.30761542  1
  N  N13  1  0.84060143  0.07617962  0.18621665  1
  N  N14  1  0.60096268  0.54355500  0.96532771  1
  N  N15  1  0.95660545  0.12431439  0.49776950  1
  N  N16  1  0.93083132  0.10884007  0.98785307  1
  N  N17  1  0.66681462  0.51912017  0.44715795  1
