# generated using pymatgen
data_LiMnSb2P
_symmetry_space_group_name_H-M   'P 1'
_cell_length_a   5.44777660
_cell_length_b   5.75169037
_cell_length_c   6.58953563
_cell_angle_alpha   99.18140575
_cell_angle_beta   94.70841623
_cell_angle_gamma   97.64101598
_symmetry_Int_Tables_number   1
_chemical_formula_structural   LiMnSb2P
_chemical_formula_sum   'Li2 Mn2 Sb4 P2'
_cell_volume   200.89165300
_cell_formula_units_Z   2
loop_
 _symmetry_equiv_pos_site_id
 _symmetry_equiv_pos_as_xyz
  1  'x, y, z'
loop_
 _atom_site_type_symbol
 _atom_site_label
 _atom_site_symmetry_multiplicity
 _atom_site_fract_x
 _atom_site_fract_y
 _atom_site_fract_z
 _atom_site_occupancy
  Mn  Mn0  1  0.12500000  0.12500000  0.12500000  1
  Mn  Mn1  1  0.50000000  0.50000000  0.50000000  1
  Sb  Sb2  1  0.25000000  0.25000000  0.25000000  1
  Sb  Sb3  1  0.75000000  0.75000000  0.75000000  1
  Sb  Sb4  1  0.76907913  0.13656636  0.46819298  1
  Sb  Sb5  1  0.63886884  0.05265468  0.16286214  1
  P  P6  1  0.71665059  0.72811155  0.63659012  1
  P  P7  1  0.26365089  0.92743968  0.80781293  1
  Li  Li8  1  0.02776029  0.24031229  0.63774932  1
  Li  Li9  1  0.32264463  0.35513429  0.85683124  1
