# generated using pymatgen
data_Li2LuTi2P2Br3
_symmetry_space_group_name_H-M   'P 1'
_cell_length_a   7.45913460
_cell_length_b   7.33588406
_cell_length_c   8.41472714
_cell_angle_alpha   92.91589826
_cell_angle_beta   91.64665856
_cell_angle_gamma   93.46023888
_symmetry_Int_Tables_number   1
_chemical_formula_structural   Li2LuTi2P2Br3
_chemical_formula_sum   'Li2 Lu1 Ti2 P2 Br3'
_cell_volume   458.78018720
_cell_formula_units_Z   1
loop_
 _symmetry_equiv_pos_site_id
 _symmetry_equiv_pos_as_xyz
  1  'x, y, z'
loop_
 _atom_site_type_symbol
 _atom_site_label
 _atom_site_symmetry_multiplicity
 _atom_site_fract_x
 _atom_site_fract_y
 _atom_site_fract_z
 _atom_site_occupancy
  P  P0  1  0.12500000  0.00000000  0.25000000  1
  P  P1  1  0.00000000  0.00000000  0.00000000  1
  Lu  Lu2  1  0.37500000  0.00000000  0.25000000  1
  Li  Li3  1  0.25000000  0.25000000  0.25000000  1
  Li  Li4  1  0.00000000  0.25000000  0.12500000  1
  Ti  Ti5  1  0.00241063  0.22941096  0.47921357  1
  Ti  Ti6  1  0.09431150  0.89154802  0.05436518  1
  Br  Br7  1  0.64991042  0.45809515  0.54607272  1
  Br  Br8  1  0.65532677  0.85216750  0.53682340  1
  Br  Br9  1  0.33187325  0.10860042  0.66424888  1
