# generated using pymatgen
data_Li3LuNi2(As3P2)2
_symmetry_space_group_name_H-M   'P 1'
_cell_length_a   7.44600403
_cell_length_b   7.25925612
_cell_length_c   8.72137515
_cell_angle_alpha   92.48253025
_cell_angle_beta   91.59460160
_cell_angle_gamma   92.87673042
_symmetry_Int_Tables_number   1
_chemical_formula_structural   Li3LuNi2(As3P2)2
_chemical_formula_sum   'Li3 Lu1 Ni2 As6 P4'
_cell_volume   470.16309143
_cell_formula_units_Z   1
loop_
 _symmetry_equiv_pos_site_id
 _symmetry_equiv_pos_as_xyz
  1  'x, y, z'
loop_
 _atom_site_type_symbol
 _atom_site_label
 _atom_site_symmetry_multiplicity
 _atom_site_fract_x
 _atom_site_fract_y
 _atom_site_fract_z
 _atom_site_occupancy
  P  P0  1  0.00000000  0.00000000  0.00000000  1
  P  P1  1  0.50000000  0.50000000  0.50000000  1
  P  P2  1  0.50000000  0.50000000  0.00000000  1
  P  P3  1  0.50000000  0.00000000  0.50000000  1
  Lu  Lu4  1  0.00000000  0.50000000  0.50000000  1
  Li  Li5  1  0.45388146  0.57893926  0.51547544  1
  Li  Li6  1  0.65594312  0.17395519  0.49769342  1
  Li  Li7  1  0.24827805  0.78481753  0.33020396  1
  Ni  Ni8  1  0.46600402  0.21876131  0.84089835  1
  Ni  Ni9  1  0.61195014  0.24720960  0.14131401  1
  As  As10  1  0.61699464  0.29673262  0.89366332  1
  As  As11  1  0.15949558  0.64163023  0.17937328  1
  As  As12  1  0.14646603  0.44484518  0.58841672  1
  As  As13  1  0.29587281  0.09254054  0.10201938  1
  As  As14  1  0.05235844  0.43961340  0.37070043  1
  As  As15  1  0.88642738  0.87202287  0.16872174  1
