# generated using pymatgen
data_Li3TiNi2I4O5
_symmetry_space_group_name_H-M   'P 1'
_cell_length_a   8.49376789
_cell_length_b   8.35835716
_cell_length_c   8.86842478
_cell_angle_alpha   90.00000000
_cell_angle_beta   90.00000000
_cell_angle_gamma   90.00000000
_symmetry_Int_Tables_number   1
_chemical_formula_structural   Li3TiNi2I4O5
_chemical_formula_sum   'Li3 Ti1 Ni2 I4 O5'
_cell_volume   629.60446701
_cell_formula_units_Z   1
loop_
 _symmetry_equiv_pos_site_id
 _symmetry_equiv_pos_as_xyz
  1  'x, y, z'
loop_
 _atom_site_type_symbol
 _atom_site_label
 _atom_site_symmetry_multiplicity
 _atom_site_fract_x
 _atom_site_fract_y
 _atom_site_fract_z
 _atom_site_occupancy
  I  I0  1  0.00000000  0.00000000  0.00000000  1
  I  I1  1  0.50000000  0.50000000  0.50000000  1
  I  I2  1  0.25000000  0.25000000  0.25000000  1
  I  I3  1  0.75000000  0.25000000  0.00000000  1
  Li  Li4  1  0.25000000  0.75000000  0.50000000  1
  Li  Li5  1  0.57976635  0.61535204  0.88058273  1
  Li  Li6  1  0.99359167  0.92727543  0.56115769  1
  Ni  Ni7  1  0.88010300  0.46267528  0.33621151  1
  Ni  Ni8  1  0.45546738  0.66172182  0.74576218  1
  Ti  Ti9  1  0.08859583  0.79190328  0.73936363  1
  O  O10  1  0.59302936  0.77198330  0.36563104  1
  O  O11  1  0.51619709  0.05053812  0.02264342  1
  O  O12  1  0.67050231  0.04513345  0.58098332  1
  O  O13  1  0.72899618  0.49980194  0.93756819  1
  O  O14  1  0.23948551  0.17790138  0.57370412  1
