# generated using pymatgen
data_Li2Ti2Cu2P2F3
_symmetry_space_group_name_H-M   'P 1'
_cell_length_a   7.52575914
_cell_length_b   7.68127087
_cell_length_c   8.13058364
_cell_angle_alpha   90.98386335
_cell_angle_beta   92.54933138
_cell_angle_gamma   91.21716573
_symmetry_Int_Tables_number   1
_chemical_formula_structural   Li2Ti2Cu2P2F3
_chemical_formula_sum   'Li2 Ti2 Cu2 P2 F3'
_cell_volume   469.35951804
_cell_formula_units_Z   1
loop_
 _symmetry_equiv_pos_site_id
 _symmetry_equiv_pos_as_xyz
  1  'x, y, z'
loop_
 _atom_site_type_symbol
 _atom_site_label
 _atom_site_symmetry_multiplicity
 _atom_site_fract_x
 _atom_site_fract_y
 _atom_site_fract_z
 _atom_site_occupancy
  P  P0  1  0.00000000  0.00000000  0.00000000  1
  P  P1  1  0.50000000  0.50000000  0.50000000  1
  Li  Li2  1  0.25000000  0.25000000  0.25000000  1
  Li  Li3  1  0.75000000  0.25000000  0.00000000  1
  Cu  Cu4  1  0.25000000  0.75000000  0.50000000  1
  Cu  Cu5  1  0.34355045  0.56206254  0.62762439  1
  F  F6  1  0.12189794  0.68660496  0.79092935  1
  F  F7  1  0.85143462  0.47219190  0.57577548  1
  F  F8  1  0.98222141  0.23249304  0.87075539  1
  Ti  Ti9  1  0.12925093  0.37051125  0.81404232  1
  Ti  Ti10  1  0.18148929  0.41672756  0.36303479  1
