# generated using pymatgen
data_Li3TiN5
_symmetry_space_group_name_H-M   'P 1'
_cell_length_a   7.35738986
_cell_length_b   7.03092550
_cell_length_c   7.65120160
_cell_angle_alpha   92.69922396
_cell_angle_beta   92.83920509
_cell_angle_gamma   92.81846721
_symmetry_Int_Tables_number   1
_chemical_formula_structural   Li3TiN5
_chemical_formula_sum   'Li3 Ti1 N5'
_cell_volume   394.34003148
_cell_formula_units_Z   1
loop_
 _symmetry_equiv_pos_site_id
 _symmetry_equiv_pos_as_xyz
  1  'x, y, z'
loop_
 _atom_site_type_symbol
 _atom_site_label
 _atom_site_symmetry_multiplicity
 _atom_site_fract_x
 _atom_site_fract_y
 _atom_site_fract_z
 _atom_site_occupancy
  Li  Li0  1  0.00000000  0.00000000  0.00000000  1
  Li  Li1  1  0.50000000  0.50000000  0.50000000  1
  Li  Li2  1  0.25000000  0.25000000  0.25000000  1
  Ti  Ti3  1  0.75000000  0.25000000  0.00000000  1
  N  N4  1  0.25000000  0.75000000  0.50000000  1
  N  N5  1  0.69500969  0.11408127  0.51825368  1
  N  N6  1  0.42594214  0.15887998  0.64131383  1
  N  N7  1  0.90178644  0.51443250  0.49867216  1
  N  N8  1  0.18036216  0.88233777  0.92368860  1
