# generated using pymatgen
data_Li2MnSb4P2N
_symmetry_space_group_name_H-M   'P 1'
_cell_length_a   5.75073937
_cell_length_b   6.20822640
_cell_length_c   6.97943312
_cell_angle_alpha   96.25264542
_cell_angle_beta   94.26363650
_cell_angle_gamma   96.25538134
_symmetry_Int_Tables_number   1
_chemical_formula_structural   Li2MnSb4P2N
_chemical_formula_sum   'Li2 Mn1 Sb4 P2 N1'
_cell_volume   245.28297473
_cell_formula_units_Z   1
loop_
 _symmetry_equiv_pos_site_id
 _symmetry_equiv_pos_as_xyz
  1  'x, y, z'
loop_
 _atom_site_type_symbol
 _atom_site_label
 _atom_site_symmetry_multiplicity
 _atom_site_fract_x
 _atom_site_fract_y
 _atom_site_fract_z
 _atom_site_occupancy
  N  N0  1  0.12500000  0.00000000  0.25000000  1
  Mn  Mn1  1  0.00000000  0.00000000  0.00000000  1
  Sb  Sb2  1  0.37500000  0.00000000  0.25000000  1
  Sb  Sb3  1  0.25000000  0.25000000  0.25000000  1
  Sb  Sb4  1  0.00000000  0.25000000  0.12500000  1
  Sb  Sb5  1  0.48453767  0.46437345  0.04774726  1
  P  P6  1  0.00669056  0.95094181  0.46370054  1
  P  P7  1  0.75581679  0.32320890  0.03006482  1
  Li  Li8  1  0.12196763  0.61688957  0.94269007  1
  Li  Li9  1  0.30478239  0.27317171  0.09952054  1
