# generated using pymatgen
data_Li2Mn3P4SeS4
_symmetry_space_group_name_H-M   'P 1'
_cell_length_a   8.18341051
_cell_length_b   7.40829429
_cell_length_c   9.23772134
_cell_angle_alpha   90.00000000
_cell_angle_beta   90.00000000
_cell_angle_gamma   90.00000000
_symmetry_Int_Tables_number   1
_chemical_formula_structural   Li2Mn3P4SeS4
_chemical_formula_sum   'Li2 Mn3 P4 Se1 S4'
_cell_volume   560.03790313
_cell_formula_units_Z   1
loop_
 _symmetry_equiv_pos_site_id
 _symmetry_equiv_pos_as_xyz
  1  'x, y, z'
loop_
 _atom_site_type_symbol
 _atom_site_label
 _atom_site_symmetry_multiplicity
 _atom_site_fract_x
 _atom_site_fract_y
 _atom_site_fract_z
 _atom_site_occupancy
  S  S0  1  0.12500000  0.00000000  0.25000000  1
  S  S1  1  0.00000000  0.00000000  0.00000000  1
  S  S2  1  0.37500000  0.00000000  0.25000000  1
  S  S3  1  0.25000000  0.25000000  0.25000000  1
  Se  Se4  1  0.00000000  0.25000000  0.12500000  1
  Mn  Mn5  1  0.46280520  0.24636372  0.87917287  1
  Mn  Mn6  1  0.58677244  0.90558580  0.05106671  1
  Mn  Mn7  1  0.56138935  0.46944123  0.28026119  1
  P  P8  1  0.28520264  0.55324870  0.21395315  1
  P  P9  1  0.78341517  0.47781994  0.68957091  1
  P  P10  1  0.39349616  0.06062007  0.16649904  1
  P  P11  1  0.90773044  0.96823134  0.72624621  1
  Li  Li12  1  0.38219101  0.92454877  0.42975818  1
  Li  Li13  1  0.50919051  0.28265365  0.24557560  1
