# generated using pymatgen
data_LiMn(SbP)2
_symmetry_space_group_name_H-M   'P 1'
_cell_length_a   4.50535295
_cell_length_b   4.69281909
_cell_length_c   5.85442506
_cell_angle_alpha   99.23956843
_cell_angle_beta   94.22318777
_cell_angle_gamma   98.22312195
_symmetry_Int_Tables_number   1
_chemical_formula_structural   LiMn(SbP)2
_chemical_formula_sum   'Li1 Mn1 Sb2 P2'
_cell_volume   120.32417653
_cell_formula_units_Z   1
loop_
 _symmetry_equiv_pos_site_id
 _symmetry_equiv_pos_as_xyz
  1  'x, y, z'
loop_
 _atom_site_type_symbol
 _atom_site_label
 _atom_site_symmetry_multiplicity
 _atom_site_fract_x
 _atom_site_fract_y
 _atom_site_fract_z
 _atom_site_occupancy
  Mn  Mn0  1  0.12500000  0.12500000  0.12500000  1
  Sb  Sb1  1  0.50000000  0.50000000  0.50000000  1
  Sb  Sb2  1  0.25000000  0.25000000  0.25000000  1
  P  P3  1  0.75000000  0.75000000  0.75000000  1
  P  P4  1  0.60176452  0.62334506  0.80617871  1
  Li  Li5  1  0.52452987  0.73746267  0.80798624  1
