# generated using pymatgen
data_Li3La2P4Se7
_symmetry_space_group_name_H-M   'P 1'
_cell_length_a   6.17461789
_cell_length_b   5.93135326
_cell_length_c   6.50601968
_cell_angle_alpha   101.69708835
_cell_angle_beta   91.58757586
_cell_angle_gamma   101.92920674
_symmetry_Int_Tables_number   1
_chemical_formula_structural   Li3La2P4Se7
_chemical_formula_sum   'Li3 La2 P4 Se7'
_cell_volume   227.68482785
_cell_formula_units_Z   1
loop_
 _symmetry_equiv_pos_site_id
 _symmetry_equiv_pos_as_xyz
  1  'x, y, z'
loop_
 _atom_site_type_symbol
 _atom_site_label
 _atom_site_symmetry_multiplicity
 _atom_site_fract_x
 _atom_site_fract_y
 _atom_site_fract_z
 _atom_site_occupancy
  Se  Se0  1  0.12500000  0.00000000  0.25000000  1
  Se  Se1  1  0.00000000  0.00000000  0.00000000  1
  Se  Se2  1  0.37500000  0.00000000  0.25000000  1
  Se  Se3  1  0.25000000  0.25000000  0.25000000  1
  Se  Se4  1  0.00000000  0.25000000  0.12500000  1
  Se  Se5  1  0.39454750  0.33764800  0.18348226  1
  Se  Se6  1  0.74992239  0.72735568  0.21133211  1
  La  La7  1  0.79126589  0.82010288  0.33180230  1
  La  La8  1  0.82363406  0.22104984  0.24356076  1
  P  P9  1  0.04885104  0.95099398  0.24852464  1
  P  P10  1  0.06758593  0.10848469  0.36174337  1
  P  P11  1  0.95670124  0.96708563  0.19499197  1
  P  P12  1  0.84262352  0.48056940  0.86541484  1
  Li  Li13  1  0.32160184  0.98945723  0.15276148  1
  Li  Li14  1  0.82232256  0.54320940  0.72615891  1
  Li  Li15  1  0.40935785  0.18391750  0.40362782  1
