# generated using pymatgen
data_LiMn3Sb2Mo2P3
_symmetry_space_group_name_H-M   'P 1'
_cell_length_a   5.68858682
_cell_length_b   5.87528636
_cell_length_c   6.02906591
_cell_angle_alpha   91.95549340
_cell_angle_beta   89.24949025
_cell_angle_gamma   91.53612465
_symmetry_Int_Tables_number   1
_chemical_formula_structural   LiMn3Sb2Mo2P3
_chemical_formula_sum   'Li1 Mn3 Sb2 Mo2 P3'
_cell_volume   201.29920880
_cell_formula_units_Z   1
loop_
 _symmetry_equiv_pos_site_id
 _symmetry_equiv_pos_as_xyz
  1  'x, y, z'
loop_
 _atom_site_type_symbol
 _atom_site_label
 _atom_site_symmetry_multiplicity
 _atom_site_fract_x
 _atom_site_fract_y
 _atom_site_fract_z
 _atom_site_occupancy
  Mn  Mn0  1  0.12500000  0.00000000  0.25000000  1
  Mn  Mn1  1  0.00000000  0.00000000  0.00000000  1
  Mn  Mn2  1  0.37500000  0.00000000  0.25000000  1
  Sb  Sb3  1  0.25000000  0.25000000  0.25000000  1
  Sb  Sb4  1  0.00000000  0.25000000  0.12500000  1
  P  P5  1  0.16648895  0.82022278  0.07223091  1
  P  P6  1  0.75264935  0.30979919  0.98459678  1
  P  P7  1  0.34317919  0.70403632  0.15104787  1
  Mo  Mo8  1  0.61415216  0.92818058  0.15303403  1
  Mo  Mo9  1  0.69315983  0.76753179  0.04916692  1
  Li  Li10  1  0.75050151  0.93404364  0.84748350  1
