# generated using pymatgen
data_LiZr3Si2F3
_symmetry_space_group_name_H-M   'P 1'
_cell_length_a   8.59073915
_cell_length_b   8.15689129
_cell_length_c   9.77121052
_cell_angle_alpha   91.27495432
_cell_angle_beta   96.06584543
_cell_angle_gamma   91.45761323
_symmetry_Int_Tables_number   1
_chemical_formula_structural   LiZr3Si2F3
_chemical_formula_sum   'Li1 Zr3 Si2 F3'
_cell_volume   680.43699920
_cell_formula_units_Z   1
loop_
 _symmetry_equiv_pos_site_id
 _symmetry_equiv_pos_as_xyz
  1  'x, y, z'
loop_
 _atom_site_type_symbol
 _atom_site_label
 _atom_site_symmetry_multiplicity
 _atom_site_fract_x
 _atom_site_fract_y
 _atom_site_fract_z
 _atom_site_occupancy
  F  F0  1  0.12500000  0.12500000  0.12500000  1
  F  F1  1  0.50000000  0.50000000  0.50000000  1
  F  F2  1  0.25000000  0.25000000  0.25000000  1
  Si  Si3  1  0.75000000  0.75000000  0.75000000  1
  Si  Si4  1  0.02059914  0.54999700  0.27907736  1
  Li  Li5  1  0.07018396  0.11072626  0.57221820  1
  Zr  Zr6  1  0.98429482  0.56611208  0.51809079  1
  Zr  Zr7  1  0.14602010  0.10924766  0.41342723  1
  Zr  Zr8  1  0.06694537  0.96511426  0.57691810  1
