# generated using pymatgen
data_LiMn2Sb4P3
_symmetry_space_group_name_H-M   'P 1'
_cell_length_a   6.35499183
_cell_length_b   6.75578471
_cell_length_c   7.04294077
_cell_angle_alpha   91.73237663
_cell_angle_beta   92.34565718
_cell_angle_gamma   92.16767593
_symmetry_Int_Tables_number   1
_chemical_formula_structural   LiMn2Sb4P3
_chemical_formula_sum   'Li1 Mn2 Sb4 P3'
_cell_volume   301.75175514
_cell_formula_units_Z   1
loop_
 _symmetry_equiv_pos_site_id
 _symmetry_equiv_pos_as_xyz
  1  'x, y, z'
loop_
 _atom_site_type_symbol
 _atom_site_label
 _atom_site_symmetry_multiplicity
 _atom_site_fract_x
 _atom_site_fract_y
 _atom_site_fract_z
 _atom_site_occupancy
  Mn  Mn0  1  0.12500000  0.00000000  0.25000000  1
  Mn  Mn1  1  0.00000000  0.00000000  0.00000000  1
  Sb  Sb2  1  0.37500000  0.00000000  0.25000000  1
  Sb  Sb3  1  0.25000000  0.25000000  0.25000000  1
  Sb  Sb4  1  0.00000000  0.25000000  0.12500000  1
  Sb  Sb5  1  0.38917390  0.59672942  0.22372296  1
  P  P6  1  0.96145960  0.69909504  0.01032867  1
  P  P7  1  0.37094221  0.51658897  0.07956927  1
  P  P8  1  0.44336550  0.86256386  0.57973480  1
  Li  Li9  1  0.52386412  0.38753433  0.99807579  1
