# generated using pymatgen
data_Li4LuNi2P4N5
_symmetry_space_group_name_H-M   'P 1'
_cell_length_a   7.43249497
_cell_length_b   7.05219556
_cell_length_c   8.86811598
_cell_angle_alpha   93.49759716
_cell_angle_beta   91.23654746
_cell_angle_gamma   94.05678930
_symmetry_Int_Tables_number   1
_chemical_formula_structural   Li4LuNi2P4N5
_chemical_formula_sum   'Li4 Lu1 Ni2 P4 N5'
_cell_volume   462.64105756
_cell_formula_units_Z   1
loop_
 _symmetry_equiv_pos_site_id
 _symmetry_equiv_pos_as_xyz
  1  'x, y, z'
loop_
 _atom_site_type_symbol
 _atom_site_label
 _atom_site_symmetry_multiplicity
 _atom_site_fract_x
 _atom_site_fract_y
 _atom_site_fract_z
 _atom_site_occupancy
  P  P0  1  0.12500000  0.00000000  0.25000000  1
  P  P1  1  0.00000000  0.00000000  0.00000000  1
  P  P2  1  0.37500000  0.00000000  0.25000000  1
  P  P3  1  0.25000000  0.25000000  0.25000000  1
  Lu  Lu4  1  0.00000000  0.25000000  0.12500000  1
  Li  Li5  1  0.92936387  0.01419835  0.32889588  1
  Li  Li6  1  0.29262574  0.27843626  0.27305494  1
  Li  Li7  1  0.36923859  0.61192264  0.11760009  1
  Li  Li8  1  0.40620653  0.32338894  0.18407857  1
  Ni  Ni9  1  0.35017823  0.28789913  0.94606341  1
  Ni  Ni10  1  0.81126434  0.02081787  0.85257464  1
  N  N11  1  0.38858034  0.84034233  0.40393793  1
  N  N12  1  0.22793616  0.47461670  0.89900092  1
  N  N13  1  0.82710453  0.60918132  0.37556315  1
  N  N14  1  0.33087855  0.97205334  0.08646268  1
  N  N15  1  0.88969613  0.13944071  0.39362719  1
