# generated using pymatgen
data_Li2MnSb4P2N
_symmetry_space_group_name_H-M   'P 1'
_cell_length_a   4.64088468
_cell_length_b   4.90937473
_cell_length_c   6.09874886
_cell_angle_alpha   100.49797725
_cell_angle_beta   94.26390128
_cell_angle_gamma   99.85244899
_symmetry_Int_Tables_number   1
_chemical_formula_structural   Li2MnSb4P2N
_chemical_formula_sum   'Li2 Mn1 Sb4 P2 N1'
_cell_volume   133.81100380
_cell_formula_units_Z   1
loop_
 _symmetry_equiv_pos_site_id
 _symmetry_equiv_pos_as_xyz
  1  'x, y, z'
loop_
 _atom_site_type_symbol
 _atom_site_label
 _atom_site_symmetry_multiplicity
 _atom_site_fract_x
 _atom_site_fract_y
 _atom_site_fract_z
 _atom_site_occupancy
  N  N0  1  0.00000000  0.00000000  0.00000000  1
  Mn  Mn1  1  0.50000000  0.50000000  0.50000000  1
  Sb  Sb2  1  0.25000000  0.25000000  0.25000000  1
  Sb  Sb3  1  0.75000000  0.25000000  0.00000000  1
  Sb  Sb4  1  0.25000000  0.75000000  0.50000000  1
  Sb  Sb5  1  0.04685204  0.24588259  0.71797378  1
  P  P6  1  0.52716883  0.27738550  0.08549558  1
  P  P7  1  0.46915644  0.47298621  0.12822550  1
  Li  Li8  1  0.16699339  0.15229649  0.39508470  1
  Li  Li9  1  0.75811207  0.77167241  0.80432715  1
