# generated using pymatgen
data_Li2Mn2Sb4P3
_symmetry_space_group_name_H-M   'P 1'
_cell_length_a   6.03842164
_cell_length_b   6.49354396
_cell_length_c   6.85818440
_cell_angle_alpha   96.61249445
_cell_angle_beta   91.24876200
_cell_angle_gamma   96.60887485
_symmetry_Int_Tables_number   1
_chemical_formula_structural   Li2Mn2Sb4P3
_chemical_formula_sum   'Li2 Mn2 Sb4 P3'
_cell_volume   265.18320877
_cell_formula_units_Z   1
loop_
 _symmetry_equiv_pos_site_id
 _symmetry_equiv_pos_as_xyz
  1  'x, y, z'
loop_
 _atom_site_type_symbol
 _atom_site_label
 _atom_site_symmetry_multiplicity
 _atom_site_fract_x
 _atom_site_fract_y
 _atom_site_fract_z
 _atom_site_occupancy
  Mn  Mn0  1  0.00000000  0.00000000  0.00000000  1
  Mn  Mn1  1  0.50000000  0.50000000  0.50000000  1
  Sb  Sb2  1  0.50000000  0.50000000  0.00000000  1
  Sb  Sb3  1  0.50000000  0.00000000  0.50000000  1
  Sb  Sb4  1  0.00000000  0.50000000  0.50000000  1
  Sb  Sb5  1  0.05358711  0.60146643  0.46434972  1
  P  P6  1  0.96206914  0.21468207  0.03369359  1
  P  P7  1  0.40091698  0.56311993  0.64957893  1
  P  P8  1  0.12682090  0.19590342  0.47807758  1
  Li  Li9  1  0.95007805  0.72565526  0.93712468  1
  Li  Li10  1  0.81239617  0.95176974  0.38000092  1
