# generated using pymatgen
data_LiMn2(Sb2P)2
_symmetry_space_group_name_H-M   'P 1'
_cell_length_a   5.25929167
_cell_length_b   5.63504641
_cell_length_c   6.46960389
_cell_angle_alpha   99.04360921
_cell_angle_beta   93.30499562
_cell_angle_gamma   98.62863863
_symmetry_Int_Tables_number   1
_chemical_formula_structural   LiMn2(Sb2P)2
_chemical_formula_sum   'Li1 Mn2 Sb4 P2'
_cell_volume   186.55977496
_cell_formula_units_Z   1
loop_
 _symmetry_equiv_pos_site_id
 _symmetry_equiv_pos_as_xyz
  1  'x, y, z'
loop_
 _atom_site_type_symbol
 _atom_site_label
 _atom_site_symmetry_multiplicity
 _atom_site_fract_x
 _atom_site_fract_y
 _atom_site_fract_z
 _atom_site_occupancy
  Mn  Mn0  1  0.00000000  0.00000000  0.00000000  1
  Mn  Mn1  1  0.33300000  0.66700000  0.25000000  1
  Sb  Sb2  1  0.66700000  0.33300000  0.50000000  1
  Sb  Sb3  1  0.00000000  0.00000000  0.75000000  1
  Sb  Sb4  1  0.38639105  0.95682011  0.33570831  1
  Sb  Sb5  1  0.24978033  0.01874866  0.37342515  1
  P  P6  1  0.70743999  0.47419346  0.83018796  1
  P  P7  1  0.66597602  0.49627805  0.61038000  1
  Li  Li8  1  0.67592043  0.40784987  0.13659695  1
