# generated using pymatgen
data_Li3Ti2P3(SO)2
_symmetry_space_group_name_H-M   'P 1'
_cell_length_a   6.58627142
_cell_length_b   5.96021058
_cell_length_c   7.09982775
_cell_angle_alpha   92.87973354
_cell_angle_beta   94.85824919
_cell_angle_gamma   92.70388117
_symmetry_Int_Tables_number   1
_chemical_formula_structural   Li3Ti2P3(SO)2
_chemical_formula_sum   'Li3 Ti2 P3 S2 O2'
_cell_volume   276.98510957
_cell_formula_units_Z   1
loop_
 _symmetry_equiv_pos_site_id
 _symmetry_equiv_pos_as_xyz
  1  'x, y, z'
loop_
 _atom_site_type_symbol
 _atom_site_label
 _atom_site_symmetry_multiplicity
 _atom_site_fract_x
 _atom_site_fract_y
 _atom_site_fract_z
 _atom_site_occupancy
  P  P0  1  0.12500000  0.00000000  0.25000000  1
  P  P1  1  0.00000000  0.00000000  0.00000000  1
  P  P2  1  0.37500000  0.00000000  0.25000000  1
  Li  Li3  1  0.25000000  0.25000000  0.25000000  1
  Li  Li4  1  0.00000000  0.25000000  0.12500000  1
  Li  Li5  1  0.70067786  0.96003188  0.57365826  1
  S  S6  1  0.82120493  0.88415825  0.23304035  1
  S  S7  1  0.45729585  0.03076000  0.20733223  1
  Ti  Ti8  1  0.16443145  0.50361630  0.85395432  1
  Ti  Ti9  1  0.81385834  0.88030668  0.92785633  1
  O  O10  1  0.73617729  0.72676932  0.96746806  1
  O  O11  1  0.69861384  0.38328547  0.31154372  1
