# generated using pymatgen
data_Li2TiNO4
_symmetry_space_group_name_H-M   'P 1'
_cell_length_a   6.65802769
_cell_length_b   6.75651773
_cell_length_c   6.36396574
_cell_angle_alpha   91.24245679
_cell_angle_beta   100.25978999
_cell_angle_gamma   91.27280134
_symmetry_Int_Tables_number   1
_chemical_formula_structural   Li2TiNO4
_chemical_formula_sum   'Li2 Ti1 N1 O4'
_cell_volume   281.54075270
_cell_formula_units_Z   1
loop_
 _symmetry_equiv_pos_site_id
 _symmetry_equiv_pos_as_xyz
  1  'x, y, z'
loop_
 _atom_site_type_symbol
 _atom_site_label
 _atom_site_symmetry_multiplicity
 _atom_site_fract_x
 _atom_site_fract_y
 _atom_site_fract_z
 _atom_site_occupancy
  Ti  Ti0  1  0.12500000  0.12500000  0.12500000  1
  O  O1  1  0.50000000  0.50000000  0.50000000  1
  O  O2  1  0.25000000  0.25000000  0.25000000  1
  O  O3  1  0.75000000  0.75000000  0.75000000  1
  O  O4  1  0.17778895  0.43566736  0.54544060  1
  Li  Li5  1  0.17173915  0.63811646  0.56559953  1
  Li  Li6  1  0.09065134  0.88713663  0.61025741  1
  N  N7  1  0.61125000  0.88675643  0.71772136  1
