# generated using pymatgen
data_LiMn2Sb4P3
_symmetry_space_group_name_H-M   'P 1'
_cell_length_a   6.70290881
_cell_length_b   6.79410294
_cell_length_c   7.19954899
_cell_angle_alpha   92.59363065
_cell_angle_beta   91.23051949
_cell_angle_gamma   92.56127317
_symmetry_Int_Tables_number   1
_chemical_formula_structural   LiMn2Sb4P3
_chemical_formula_sum   'Li1 Mn2 Sb4 P3'
_cell_volume   327.11549911
_cell_formula_units_Z   1
loop_
 _symmetry_equiv_pos_site_id
 _symmetry_equiv_pos_as_xyz
  1  'x, y, z'
loop_
 _atom_site_type_symbol
 _atom_site_label
 _atom_site_symmetry_multiplicity
 _atom_site_fract_x
 _atom_site_fract_y
 _atom_site_fract_z
 _atom_site_occupancy
  Mn  Mn0  1  0.12500000  0.00000000  0.25000000  1
  Mn  Mn1  1  0.00000000  0.00000000  0.00000000  1
  Sb  Sb2  1  0.37500000  0.00000000  0.25000000  1
  Sb  Sb3  1  0.25000000  0.25000000  0.25000000  1
  Sb  Sb4  1  0.00000000  0.25000000  0.12500000  1
  Sb  Sb5  1  0.65726048  0.54612015  0.84454818  1
  P  P6  1  0.52567013  0.52146050  0.69385033  1
  P  P7  1  0.08434406  0.95734012  0.09802091  1
  P  P8  1  0.26372635  0.20181962  0.54249513  1
  Li  Li9  1  0.41098260  0.46945351  0.29929482  1
