# generated using pymatgen
data_Li2MnSb4P3
_symmetry_space_group_name_H-M   'P 1'
_cell_length_a   3.73540686
_cell_length_b   3.95840560
_cell_length_c   6.60052497
_cell_angle_alpha   101.82262472
_cell_angle_beta   99.58998882
_cell_angle_gamma   102.84075739
_symmetry_Int_Tables_number   1
_chemical_formula_structural   Li2MnSb4P3
_chemical_formula_sum   'Li2 Mn1 Sb4 P3'
_cell_volume   90.80752355
_cell_formula_units_Z   1
loop_
 _symmetry_equiv_pos_site_id
 _symmetry_equiv_pos_as_xyz
  1  'x, y, z'
loop_
 _atom_site_type_symbol
 _atom_site_label
 _atom_site_symmetry_multiplicity
 _atom_site_fract_x
 _atom_site_fract_y
 _atom_site_fract_z
 _atom_site_occupancy
  Mn  Mn0  1  0.12500000  0.00000000  0.25000000  1
  Sb  Sb1  1  0.00000000  0.00000000  0.00000000  1
  Sb  Sb2  1  0.37500000  0.00000000  0.25000000  1
  Sb  Sb3  1  0.25000000  0.25000000  0.25000000  1
  Sb  Sb4  1  0.00000000  0.25000000  0.12500000  1
  P  P5  1  0.28069695  0.11304451  0.31409070  1
  P  P6  1  0.51438352  0.73918302  0.26997194  1
  P  P7  1  0.18812580  0.99336062  0.32912509  1
  Li  Li8  1  0.35707563  0.71167446  0.00973654  1
  Li  Li9  1  0.68146305  0.89505962  0.18750976  1
