# generated using pymatgen
data_LiMn3Sb4P3
_symmetry_space_group_name_H-M   'P 1'
_cell_length_a   6.60833059
_cell_length_b   6.77340320
_cell_length_c   7.05188367
_cell_angle_alpha   92.05691229
_cell_angle_beta   90.93054349
_cell_angle_gamma   92.29173833
_symmetry_Int_Tables_number   1
_chemical_formula_structural   LiMn3Sb4P3
_chemical_formula_sum   'Li1 Mn3 Sb4 P3'
_cell_volume   315.14350355
_cell_formula_units_Z   1
loop_
 _symmetry_equiv_pos_site_id
 _symmetry_equiv_pos_as_xyz
  1  'x, y, z'
loop_
 _atom_site_type_symbol
 _atom_site_label
 _atom_site_symmetry_multiplicity
 _atom_site_fract_x
 _atom_site_fract_y
 _atom_site_fract_z
 _atom_site_occupancy
  Mn  Mn0  1  0.00000000  0.00000000  0.00000000  1
  Mn  Mn1  1  0.33300000  0.66700000  0.25000000  1
  Mn  Mn2  1  0.66700000  0.33300000  0.50000000  1
  Sb  Sb3  1  0.00000000  0.00000000  0.75000000  1
  Sb  Sb4  1  0.82428345  0.59365640  0.44540017  1
  Sb  Sb5  1  0.42136914  0.93618916  0.83834643  1
  Sb  Sb6  1  0.08010782  0.57639652  0.07601282  1
  P  P7  1  0.75017992  0.69593208  0.49899125  1
  P  P8  1  0.51363227  0.05097805  0.34315216  1
  P  P9  1  0.75055797  0.14634814  0.97851025  1
  Li  Li10  1  0.28140013  0.87182673  0.20439789  1
