# generated using pymatgen
data_LiTiP3
_symmetry_space_group_name_H-M   'P 1'
_cell_length_a   8.10550149
_cell_length_b   7.95984658
_cell_length_c   8.10439743
_cell_angle_alpha   90.27618801
_cell_angle_beta   91.31401867
_cell_angle_gamma   90.31575664
_symmetry_Int_Tables_number   1
_chemical_formula_structural   LiTiP3
_chemical_formula_sum   'Li2 Ti2 P6'
_cell_volume   522.73211639
_cell_formula_units_Z   2
loop_
 _symmetry_equiv_pos_site_id
 _symmetry_equiv_pos_as_xyz
  1  'x, y, z'
loop_
 _atom_site_type_symbol
 _atom_site_label
 _atom_site_symmetry_multiplicity
 _atom_site_fract_x
 _atom_site_fract_y
 _atom_site_fract_z
 _atom_site_occupancy
  Ti  Ti0  1  0.00000000  0.00000000  0.00000000  1
  Ti  Ti1  1  0.50000000  0.50000000  0.50000000  1
  P  P2  1  0.25000000  0.25000000  0.25000000  1
  P  P3  1  0.75000000  0.25000000  0.00000000  1
  P  P4  1  0.25000000  0.75000000  0.50000000  1
  P  P5  1  0.88964174  0.76142630  0.32060174  1
  P  P6  1  0.82178592  0.25317668  0.82945674  1
  P  P7  1  0.90883408  0.50392367  0.02958574  1
  Li  Li8  1  0.42739761  0.68883328  0.02625304  1
  Li  Li9  1  0.32652366  0.54859979  0.71386910  1
