# generated using pymatgen
data_Li2Mn2Sb4P3
_symmetry_space_group_name_H-M   'P 1'
_cell_length_a   5.78200925
_cell_length_b   6.26871395
_cell_length_c   7.23744623
_cell_angle_alpha   94.72071882
_cell_angle_beta   95.59212763
_cell_angle_gamma   95.37276088
_symmetry_Int_Tables_number   1
_chemical_formula_structural   Li2Mn2Sb4P3
_chemical_formula_sum   'Li2 Mn2 Sb4 P3'
_cell_volume   258.82250487
_cell_formula_units_Z   1
loop_
 _symmetry_equiv_pos_site_id
 _symmetry_equiv_pos_as_xyz
  1  'x, y, z'
loop_
 _atom_site_type_symbol
 _atom_site_label
 _atom_site_symmetry_multiplicity
 _atom_site_fract_x
 _atom_site_fract_y
 _atom_site_fract_z
 _atom_site_occupancy
  Mn  Mn0  1  0.00000000  0.00000000  0.00000000  1
  Mn  Mn1  1  0.50000000  0.50000000  0.50000000  1
  Sb  Sb2  1  0.25000000  0.25000000  0.25000000  1
  Sb  Sb3  1  0.75000000  0.25000000  0.00000000  1
  Sb  Sb4  1  0.25000000  0.75000000  0.50000000  1
  Sb  Sb5  1  0.98998541  0.86963520  0.16464630  1
  P  P6  1  0.89437914  0.68263585  0.11443498  1
  P  P7  1  0.78834905  0.06525871  0.00499842  1
  P  P8  1  0.52280085  0.73831864  0.23318239  1
  Li  Li9  1  0.74634145  0.35807202  0.71737479  1
  Li  Li10  1  0.56689322  0.68808978  0.63927692  1
