# generated using pymatgen
data_Li3Ti(N2O)3
_symmetry_space_group_name_H-M   'P 1'
_cell_length_a   6.78955417
_cell_length_b   6.88629992
_cell_length_c   5.99720760
_cell_angle_alpha   88.07937324
_cell_angle_beta   91.69195703
_cell_angle_gamma   91.92702768
_symmetry_Int_Tables_number   1
_chemical_formula_structural   Li3Ti(N2O)3
_chemical_formula_sum   'Li3 Ti1 N6 O3'
_cell_volume   279.96964820
_cell_formula_units_Z   1
loop_
 _symmetry_equiv_pos_site_id
 _symmetry_equiv_pos_as_xyz
  1  'x, y, z'
loop_
 _atom_site_type_symbol
 _atom_site_label
 _atom_site_symmetry_multiplicity
 _atom_site_fract_x
 _atom_site_fract_y
 _atom_site_fract_z
 _atom_site_occupancy
  Li  Li0  1  0.00000000  0.00000000  0.00000000  1
  Li  Li1  1  0.33300000  0.66700000  0.25000000  1
  Li  Li2  1  0.66700000  0.33300000  0.50000000  1
  Ti  Ti3  1  0.00000000  0.00000000  0.75000000  1
  O  O4  1  0.11640378  0.64265147  0.04766537  1
  O  O5  1  0.81644333  0.70520156  0.28535964  1
  O  O6  1  0.44282617  0.67127585  0.52910638  1
  N  N7  1  0.66047007  0.24990650  0.95952855  1
  N  N8  1  0.03584284  0.14378696  0.59555898  1
  N  N9  1  0.27194736  0.94575746  0.41067079  1
  N  N10  1  0.84742042  0.35297610  0.79374695  1
  N  N11  1  0.50444706  0.58954911  0.65951088  1
  N  N12  1  0.16482343  0.94961898  0.66912136  1
