# generated using pymatgen
data_Li3TiCu2I4O3
_symmetry_space_group_name_H-M   'P 1'
_cell_length_a   6.72690798
_cell_length_b   6.90261947
_cell_length_c   6.87474322
_cell_angle_alpha   96.71126045
_cell_angle_beta   99.09004981
_cell_angle_gamma   98.63677998
_symmetry_Int_Tables_number   1
_chemical_formula_structural   Li3TiCu2I4O3
_chemical_formula_sum   'Li3 Ti1 Cu2 I4 O3'
_cell_volume   308.38507183
_cell_formula_units_Z   1
loop_
 _symmetry_equiv_pos_site_id
 _symmetry_equiv_pos_as_xyz
  1  'x, y, z'
loop_
 _atom_site_type_symbol
 _atom_site_label
 _atom_site_symmetry_multiplicity
 _atom_site_fract_x
 _atom_site_fract_y
 _atom_site_fract_z
 _atom_site_occupancy
  I  I0  1  0.12500000  0.00000000  0.25000000  1
  I  I1  1  0.00000000  0.00000000  0.00000000  1
  I  I2  1  0.37500000  0.00000000  0.25000000  1
  I  I3  1  0.25000000  0.25000000  0.25000000  1
  Li  Li4  1  0.00000000  0.25000000  0.12500000  1
  Li  Li5  1  0.50248098  0.32635549  0.80275874  1
  Li  Li6  1  0.21367916  0.92032106  0.71406490  1
  Cu  Cu7  1  0.04326421  0.51407998  0.73304301  1
  Cu  Cu8  1  0.57113472  0.18607692  0.19920940  1
  Ti  Ti9  1  0.98749145  0.56786934  0.00620616  1
  O  O10  1  0.39623619  0.12736057  0.06906029  1
  O  O11  1  0.01978716  0.21165217  0.94830025  1
  O  O12  1  0.19500896  0.28709478  0.83349996  1
