# generated using pymatgen
data_LiNiAs3P3F
_symmetry_space_group_name_H-M   'P 1'
_cell_length_a   8.27796328
_cell_length_b   8.01361920
_cell_length_c   8.75411249
_cell_angle_alpha   91.34545742
_cell_angle_beta   91.95848696
_cell_angle_gamma   91.38086031
_symmetry_Int_Tables_number   1
_chemical_formula_structural   LiNiAs3P3F
_chemical_formula_sum   'Li2 Ni2 As6 P6 F2'
_cell_volume   580.03724917
_cell_formula_units_Z   2
loop_
 _symmetry_equiv_pos_site_id
 _symmetry_equiv_pos_as_xyz
  1  'x, y, z'
loop_
 _atom_site_type_symbol
 _atom_site_label
 _atom_site_symmetry_multiplicity
 _atom_site_fract_x
 _atom_site_fract_y
 _atom_site_fract_z
 _atom_site_occupancy
  P  P0  1  0.00000000  0.00000000  0.00000000  1
  P  P1  1  0.50000000  0.50000000  0.50000000  1
  P  P2  1  0.25000000  0.25000000  0.25000000  1
  P  P3  1  0.75000000  0.25000000  0.00000000  1
  P  P4  1  0.25000000  0.75000000  0.50000000  1
  P  P5  1  0.76813505  0.79395643  0.17177061  1
  Li  Li6  1  0.52937186  0.48215289  0.73407428  1
  Li  Li7  1  0.44756743  0.43398323  0.24993892  1
  F  F8  1  0.57242414  0.15140999  0.93158642  1
  F  F9  1  0.89205892  0.42424496  0.87908813  1
  Ni  Ni10  1  0.03200754  0.07540672  0.47987978  1
  Ni  Ni11  1  0.45386396  0.35411191  0.48283740  1
  As  As12  1  0.02447798  0.49068791  0.25434618  1
  As  As13  1  0.03244084  0.58176337  0.93411494  1
  As  As14  1  0.88614549  0.47175527  0.91317779  1
  As  As15  1  0.41189338  0.38413322  0.13072639  1
  As  As16  1  0.17099913  0.67789654  0.63403135  1
  As  As17  1  0.33658674  0.81313127  0.09644383  1
