# generated using pymatgen
data_Li3LuNi2(As3P2)2
_symmetry_space_group_name_H-M   'P 1'
_cell_length_a   7.43888892
_cell_length_b   7.15019892
_cell_length_c   8.79866241
_cell_angle_alpha   93.01715816
_cell_angle_beta   91.40601725
_cell_angle_gamma   93.49825832
_symmetry_Int_Tables_number   1
_chemical_formula_structural   Li3LuNi2(As3P2)2
_chemical_formula_sum   'Li3 Lu1 Ni2 As6 P4'
_cell_volume   466.29640608
_cell_formula_units_Z   1
loop_
 _symmetry_equiv_pos_site_id
 _symmetry_equiv_pos_as_xyz
  1  'x, y, z'
loop_
 _atom_site_type_symbol
 _atom_site_label
 _atom_site_symmetry_multiplicity
 _atom_site_fract_x
 _atom_site_fract_y
 _atom_site_fract_z
 _atom_site_occupancy
  P  P0  1  0.00000000  0.00000000  0.00000000  1
  P  P1  1  0.50000000  0.50000000  0.50000000  1
  P  P2  1  0.50000000  0.50000000  0.00000000  1
  P  P3  1  0.50000000  0.00000000  0.50000000  1
  Lu  Lu4  1  0.00000000  0.50000000  0.50000000  1
  Li  Li5  1  0.59992061  0.05991145  0.40740642  1
  Li  Li6  1  0.55452013  0.44529074  0.91836859  1
  Li  Li7  1  0.02309791  0.56666965  0.33357975  1
  Ni  Ni8  1  0.68206752  0.79683283  0.86191151  1
  Ni  Ni9  1  0.75883609  0.79896151  0.65266389  1
  As  As10  1  0.59018998  0.62188479  0.23051112  1
  As  As11  1  0.62259620  0.62814868  0.34986272  1
  As  As12  1  0.91410027  0.83963538  0.05186257  1
  As  As13  1  0.13015383  0.37905431  0.08583353  1
  As  As14  1  0.35252853  0.73889364  0.77766470  1
  As  As15  1  0.02305751  0.76692710  0.63077163  1
