# generated using pymatgen
data_Li3P4N5
_symmetry_space_group_name_H-M   'P 1'
_cell_length_a   7.50798528
_cell_length_b   7.23377557
_cell_length_c   8.29070448
_cell_angle_alpha   92.28172975
_cell_angle_beta   91.40593454
_cell_angle_gamma   92.64427000
_symmetry_Int_Tables_number   1
_chemical_formula_structural   Li3P4N5
_chemical_formula_sum   'Li3 P4 N5'
_cell_volume   449.28414219
_cell_formula_units_Z   1
loop_
 _symmetry_equiv_pos_site_id
 _symmetry_equiv_pos_as_xyz
  1  'x, y, z'
loop_
 _atom_site_type_symbol
 _atom_site_label
 _atom_site_symmetry_multiplicity
 _atom_site_fract_x
 _atom_site_fract_y
 _atom_site_fract_z
 _atom_site_occupancy
  P  P0  1  0.00000000  0.00000000  0.00000000  1
  P  P1  1  0.50000000  0.50000000  0.50000000  1
  P  P2  1  0.50000000  0.50000000  0.00000000  1
  P  P3  1  0.50000000  0.00000000  0.50000000  1
  Li  Li4  1  0.00000000  0.50000000  0.50000000  1
  Li  Li5  1  0.10842478  0.84877523  0.60174624  1
  Li  Li6  1  0.52321504  0.14533872  0.89115637  1
  N  N7  1  0.80650740  0.73937870  0.79723394  1
  N  N8  1  0.38497348  0.53823461  0.09491163  1
  N  N9  1  0.53927129  0.99578173  0.19531765  1
  N  N10  1  0.54172016  0.28647987  0.69365045  1
  N  N11  1  0.63748731  0.91370852  0.56950210  1
