# generated using pymatgen
data_Li2MnMo2P3
_symmetry_space_group_name_H-M   'P 1'
_cell_length_a   4.17350780
_cell_length_b   4.37192687
_cell_length_c   6.16124649
_cell_angle_alpha   103.79018688
_cell_angle_beta   93.91606530
_cell_angle_gamma   103.96532493
_symmetry_Int_Tables_number   1
_chemical_formula_structural   Li2MnMo2P3
_chemical_formula_sum   'Li2 Mn1 Mo2 P3'
_cell_volume   105.00373740
_cell_formula_units_Z   1
loop_
 _symmetry_equiv_pos_site_id
 _symmetry_equiv_pos_as_xyz
  1  'x, y, z'
loop_
 _atom_site_type_symbol
 _atom_site_label
 _atom_site_symmetry_multiplicity
 _atom_site_fract_x
 _atom_site_fract_y
 _atom_site_fract_z
 _atom_site_occupancy
  Mn  Mn0  1  0.12500000  0.12500000  0.12500000  1
  P  P1  1  0.50000000  0.50000000  0.50000000  1
  P  P2  1  0.25000000  0.25000000  0.25000000  1
  P  P3  1  0.75000000  0.75000000  0.75000000  1
  Mo  Mo4  1  0.19683807  0.35474152  0.67311036  1
  Mo  Mo5  1  0.48904880  0.05785423  0.73873733  1
  Li  Li6  1  0.63021301  0.69226720  0.65732777  1
  Li  Li7  1  0.26853721  0.22202648  0.64830449  1
