# generated using pymatgen
data_LiTiAs3P3I2
_symmetry_space_group_name_H-M   'P 1'
_cell_length_a   8.44896586
_cell_length_b   8.19780748
_cell_length_c   8.22359627
_cell_angle_alpha   90.11572701
_cell_angle_beta   90.55059399
_cell_angle_gamma   90.13230688
_symmetry_Int_Tables_number   1
_chemical_formula_structural   LiTiAs3P3I2
_chemical_formula_sum   'Li2 Ti2 As6 P6 I4'
_cell_volume   569.56190636
_cell_formula_units_Z   2
loop_
 _symmetry_equiv_pos_site_id
 _symmetry_equiv_pos_as_xyz
  1  'x, y, z'
loop_
 _atom_site_type_symbol
 _atom_site_label
 _atom_site_symmetry_multiplicity
 _atom_site_fract_x
 _atom_site_fract_y
 _atom_site_fract_z
 _atom_site_occupancy
  P  P0  1  0.00000000  0.00000000  0.00000000  1
  P  P1  1  0.50000000  0.50000000  0.50000000  1
  P  P2  1  0.25000000  0.25000000  0.25000000  1
  P  P3  1  0.75000000  0.25000000  0.00000000  1
  P  P4  1  0.25000000  0.75000000  0.50000000  1
  P  P5  1  0.92614426  0.61450828  0.85572567  1
  I  I6  1  0.40238881  0.79576478  0.10069218  1
  I  I7  1  0.93295424  0.25568590  0.11818961  1
  I  I8  1  0.45302104  0.61531667  0.14879044  1
  I  I9  1  0.59004864  0.65300013  0.88556743  1
  Li  Li10  1  0.13018238  0.95609746  0.42637391  1
  Li  Li11  1  0.08411368  0.29264021  0.07520591  1
  Ti  Ti12  1  0.40699042  0.21859644  0.79366607  1
  Ti  Ti13  1  0.90972590  0.89412156  0.95344064  1
  As  As14  1  0.58917766  0.25193573  0.07151012  1
  As  As15  1  0.76875436  0.50427340  0.24495275  1
  As  As16  1  0.77691494  0.68993895  0.78374618  1
  As  As17  1  0.95456987  0.60541026  0.06856764  1
  As  As18  1  0.54759613  0.16422074  0.68260346  1
  As  As19  1  0.39811420  0.20918548  0.40679086  1
