# generated using pymatgen
data_Li4Ni2As6N5
_symmetry_space_group_name_H-M   'P 1'
_cell_length_a   8.02296787
_cell_length_b   7.80165543
_cell_length_c   9.39116645
_cell_angle_alpha   91.15428365
_cell_angle_beta   90.40808774
_cell_angle_gamma   91.33882930
_symmetry_Int_Tables_number   1
_chemical_formula_structural   Li4Ni2As6N5
_chemical_formula_sum   'Li4 Ni2 As6 N5'
_cell_volume   587.51926244
_cell_formula_units_Z   1
loop_
 _symmetry_equiv_pos_site_id
 _symmetry_equiv_pos_as_xyz
  1  'x, y, z'
loop_
 _atom_site_type_symbol
 _atom_site_label
 _atom_site_symmetry_multiplicity
 _atom_site_fract_x
 _atom_site_fract_y
 _atom_site_fract_z
 _atom_site_occupancy
  Li  Li0  1  0.00000000  0.00000000  0.00000000  1
  Li  Li1  1  0.50000000  0.50000000  0.50000000  1
  Li  Li2  1  0.50000000  0.50000000  0.00000000  1
  Li  Li3  1  0.50000000  0.00000000  0.50000000  1
  Ni  Ni4  1  0.00000000  0.50000000  0.50000000  1
  Ni  Ni5  1  0.20526254  0.63008789  0.50058790  1
  As  As6  1  0.80392682  0.83869053  0.10630569  1
  As  As7  1  0.06543926  0.41242500  0.05467169  1
  As  As8  1  0.90184393  0.03926590  0.01609365  1
  As  As9  1  0.34249254  0.48174750  0.18616224  1
  As  As10  1  0.51145533  0.10010111  0.27236311  1
  As  As11  1  0.37078796  0.76410860  0.11196966  1
  N  N12  1  0.94618203  0.82079768  0.93940972  1
  N  N13  1  0.90155287  0.80056260  0.37760201  1
  N  N14  1  0.43018900  0.93568374  0.39683370  1
  N  N15  1  0.13657101  0.99418257  0.03545075  1
  N  N16  1  0.06000806  0.60301044  0.24046415  1
