# generated using pymatgen
data_Li4Ti2P3O5
_symmetry_space_group_name_H-M   'P 1'
_cell_length_a   8.17049140
_cell_length_b   7.83686345
_cell_length_c   7.82498853
_cell_angle_alpha   90.00000000
_cell_angle_beta   90.00000000
_cell_angle_gamma   90.00000000
_symmetry_Int_Tables_number   1
_chemical_formula_structural   Li4Ti2P3O5
_chemical_formula_sum   'Li4 Ti2 P3 O5'
_cell_volume   501.04203982
_cell_formula_units_Z   1
loop_
 _symmetry_equiv_pos_site_id
 _symmetry_equiv_pos_as_xyz
  1  'x, y, z'
loop_
 _atom_site_type_symbol
 _atom_site_label
 _atom_site_symmetry_multiplicity
 _atom_site_fract_x
 _atom_site_fract_y
 _atom_site_fract_z
 _atom_site_occupancy
  P  P0  1  0.12500000  0.12500000  0.12500000  1
  P  P1  1  0.50000000  0.50000000  0.50000000  1
  P  P2  1  0.25000000  0.25000000  0.25000000  1
  Li  Li3  1  0.75000000  0.75000000  0.75000000  1
  Li  Li4  1  0.05051593  0.07206232  0.95770572  1
  Li  Li5  1  0.97385960  0.48460451  0.84528451  1
  Li  Li6  1  0.22892925  0.97637085  0.76488209  1
  Ti  Ti7  1  0.40055982  0.69998189  0.82151372  1
  Ti  Ti8  1  0.08174063  0.89851781  0.68960112  1
  O  O9  1  0.84191546  0.23873080  0.82699649  1
  O  O10  1  0.56733845  0.41582147  0.17094713  1
  O  O11  1  0.91006255  0.93891746  0.65114524  1
  O  O12  1  0.19234771  0.16229583  0.82358238  1
  O  O13  1  0.26247115  0.03534808  0.37609518  1
