# generated using pymatgen
data_Li4Ti2P3I4O3
_symmetry_space_group_name_H-M   'P 1'
_cell_length_a   8.22223830
_cell_length_b   8.77802485
_cell_length_c   7.10318842
_cell_angle_alpha   90.00000000
_cell_angle_beta   90.00000000
_cell_angle_gamma   90.00000000
_symmetry_Int_Tables_number   1
_chemical_formula_structural   Li4Ti2P3I4O3
_chemical_formula_sum   'Li4 Ti2 P3 I4 O3'
_cell_volume   512.67271009
_cell_formula_units_Z   1
loop_
 _symmetry_equiv_pos_site_id
 _symmetry_equiv_pos_as_xyz
  1  'x, y, z'
loop_
 _atom_site_type_symbol
 _atom_site_label
 _atom_site_symmetry_multiplicity
 _atom_site_fract_x
 _atom_site_fract_y
 _atom_site_fract_z
 _atom_site_occupancy
  I  I0  1  0.00000000  0.00000000  0.00000000  1
  I  I1  1  0.50000000  0.50000000  0.50000000  1
  I  I2  1  0.50000000  0.50000000  0.00000000  1
  I  I3  1  0.50000000  0.00000000  0.50000000  1
  P  P4  1  0.00000000  0.50000000  0.50000000  1
  P  P5  1  0.20325171  0.87246635  0.20313381  1
  P  P6  1  0.79497222  0.13380019  0.17943959  1
  Li  Li7  1  0.49299465  0.42668792  0.83221785  1
  Li  Li8  1  0.81613219  0.94082542  0.53918038  1
  Li  Li9  1  0.11459162  0.37988482  0.46922432  1
  Li  Li10  1  0.26731190  0.02270219  0.48065088  1
  Ti  Ti11  1  0.01182975  0.57015025  0.32575860  1
  Ti  Ti12  1  0.65008723  0.39957391  0.88069034  1
  O  O13  1  0.21981982  0.44427519  0.76684317  1
  O  O14  1  0.32996341  0.37902831  0.65919928  1
  O  O15  1  0.75298784  0.62106779  0.84245814  1
