# generated using pymatgen
data_Li3LuNi2(As3P2)2
_symmetry_space_group_name_H-M   'P 1'
_cell_length_a   7.44095284
_cell_length_b   7.18183375
_cell_length_c   8.77624327
_cell_angle_alpha   92.86207566
_cell_angle_beta   91.46072096
_cell_angle_gamma   93.31796826
_symmetry_Int_Tables_number   1
_chemical_formula_structural   Li3LuNi2(As3P2)2
_chemical_formula_sum   'Li3 Lu1 Ni2 As6 P4'
_cell_volume   467.43998785
_cell_formula_units_Z   1
loop_
 _symmetry_equiv_pos_site_id
 _symmetry_equiv_pos_as_xyz
  1  'x, y, z'
loop_
 _atom_site_type_symbol
 _atom_site_label
 _atom_site_symmetry_multiplicity
 _atom_site_fract_x
 _atom_site_fract_y
 _atom_site_fract_z
 _atom_site_occupancy
  P  P0  1  0.00000000  0.00000000  0.00000000  1
  P  P1  1  0.50000000  0.50000000  0.50000000  1
  P  P2  1  0.50000000  0.50000000  0.00000000  1
  P  P3  1  0.50000000  0.00000000  0.50000000  1
  Lu  Lu4  1  0.00000000  0.50000000  0.50000000  1
  Li  Li5  1  0.65278975  0.34523827  0.16122767  1
  Li  Li6  1  0.10749457  0.39924205  0.90328633  1
  Li  Li7  1  0.10655463  0.22206524  0.16534045  1
  Ni  Ni8  1  0.64424885  0.67373138  0.59707694  1
  Ni  Ni9  1  0.80532478  0.39162132  0.26599503  1
  As  As10  1  0.76275185  0.04932373  0.08176304  1
  As  As11  1  0.02363245  0.21619603  0.42893566  1
  As  As12  1  0.33985888  0.27434828  0.36521216  1
  As  As13  1  0.19398294  0.32975537  0.41724821  1
  As  As14  1  0.53236055  0.22393838  0.93339445  1
  As  As15  1  0.78127872  0.65948762  0.73249627  1
