# generated using pymatgen
data_LiMn2Sb4P2N
_symmetry_space_group_name_H-M   'P 1'
_cell_length_a   6.37525524
_cell_length_b   6.88874300
_cell_length_c   7.06308912
_cell_angle_alpha   93.43520600
_cell_angle_beta   92.27234606
_cell_angle_gamma   93.46111538
_symmetry_Int_Tables_number   1
_chemical_formula_structural   LiMn2Sb4P2N
_chemical_formula_sum   'Li1 Mn2 Sb4 P2 N1'
_cell_volume   308.77951204
_cell_formula_units_Z   1
loop_
 _symmetry_equiv_pos_site_id
 _symmetry_equiv_pos_as_xyz
  1  'x, y, z'
loop_
 _atom_site_type_symbol
 _atom_site_label
 _atom_site_symmetry_multiplicity
 _atom_site_fract_x
 _atom_site_fract_y
 _atom_site_fract_z
 _atom_site_occupancy
  N  N0  1  0.00000000  0.00000000  0.00000000  1
  Mn  Mn1  1  0.50000000  0.50000000  0.50000000  1
  Mn  Mn2  1  0.25000000  0.25000000  0.25000000  1
  Sb  Sb3  1  0.75000000  0.25000000  0.00000000  1
  Sb  Sb4  1  0.25000000  0.75000000  0.50000000  1
  Sb  Sb5  1  0.45104971  0.02427407  0.50552105  1
  Sb  Sb6  1  0.87464954  0.97813894  0.00897613  1
  P  P7  1  0.37931734  0.99791978  0.31273140  1
  P  P8  1  0.04568428  0.25136373  0.45202879  1
  Li  Li9  1  0.68150223  0.41758190  0.89130564  1
