# generated using pymatgen
data_LiNb2ClO2F3
_symmetry_space_group_name_H-M   'P 1'
_cell_length_a   8.10401666
_cell_length_b   7.06480864
_cell_length_c   8.90363242
_cell_angle_alpha   90.00000000
_cell_angle_beta   90.00000000
_cell_angle_gamma   90.00000000
_symmetry_Int_Tables_number   1
_chemical_formula_structural   LiNb2ClO2F3
_chemical_formula_sum   'Li1 Nb2 Cl1 O2 F3'
_cell_volume   509.76257787
_cell_formula_units_Z   1
loop_
 _symmetry_equiv_pos_site_id
 _symmetry_equiv_pos_as_xyz
  1  'x, y, z'
loop_
 _atom_site_type_symbol
 _atom_site_label
 _atom_site_symmetry_multiplicity
 _atom_site_fract_x
 _atom_site_fract_y
 _atom_site_fract_z
 _atom_site_occupancy
  Li  Li0  1  0.00000000  0.00000000  0.00000000  1
  Nb  Nb1  1  0.50000000  0.50000000  0.50000000  1
  Nb  Nb2  1  0.50000000  0.50000000  0.00000000  1
  F  F3  1  0.50000000  0.00000000  0.50000000  1
  F  F4  1  0.00000000  0.50000000  0.50000000  1
  F  F5  1  0.86141033  0.22321312  0.48229549  1
  Cl  Cl6  1  0.94783629  0.80553973  0.45486492  1
  O  O7  1  0.99406843  0.37673701  0.19737452  1
  O  O8  1  0.40727033  0.55213117  0.61880511  1
