# generated using pymatgen
data_Li2LuCu2Ni2N5
_symmetry_space_group_name_H-M   'P 1'
_cell_length_a   7.47754715
_cell_length_b   7.26939550
_cell_length_c   8.71414303
_cell_angle_alpha   92.16970055
_cell_angle_beta   91.84141938
_cell_angle_gamma   92.50626328
_symmetry_Int_Tables_number   1
_chemical_formula_structural   Li2LuCu2Ni2N5
_chemical_formula_sum   'Li2 Lu1 Cu2 Ni2 N5'
_cell_volume   472.61354304
_cell_formula_units_Z   1
loop_
 _symmetry_equiv_pos_site_id
 _symmetry_equiv_pos_as_xyz
  1  'x, y, z'
loop_
 _atom_site_type_symbol
 _atom_site_label
 _atom_site_symmetry_multiplicity
 _atom_site_fract_x
 _atom_site_fract_y
 _atom_site_fract_z
 _atom_site_occupancy
  Lu  Lu0  1  0.00000000  0.00000000  0.00000000  1
  Li  Li1  1  0.50000000  0.50000000  0.50000000  1
  Li  Li2  1  0.50000000  0.50000000  0.00000000  1
  Cu  Cu3  1  0.50000000  0.00000000  0.50000000  1
  Cu  Cu4  1  0.00000000  0.50000000  0.50000000  1
  Ni  Ni5  1  0.86888434  0.53292363  0.48072162  1
  Ni  Ni6  1  0.86109688  0.75902261  0.22425143  1
  N  N7  1  0.62267917  0.07335860  0.75529353  1
  N  N8  1  0.83152613  0.12622367  0.34603056  1
  N  N9  1  0.08962747  0.56694957  0.38771163  1
  N  N10  1  0.21871460  0.26989659  0.70432074  1
  N  N11  1  0.61262601  0.94823153  0.08090118  1
