# generated using pymatgen
data_Li2Ti2Cu2P3S2
_symmetry_space_group_name_H-M   'P 1'
_cell_length_a   6.63214753
_cell_length_b   6.52103172
_cell_length_c   7.63713939
_cell_angle_alpha   92.36701438
_cell_angle_beta   94.81373097
_cell_angle_gamma   92.27706821
_symmetry_Int_Tables_number   1
_chemical_formula_structural   Li2Ti2Cu2P3S2
_chemical_formula_sum   'Li2 Ti2 Cu2 P3 S2'
_cell_volume   328.53888233
_cell_formula_units_Z   1
loop_
 _symmetry_equiv_pos_site_id
 _symmetry_equiv_pos_as_xyz
  1  'x, y, z'
loop_
 _atom_site_type_symbol
 _atom_site_label
 _atom_site_symmetry_multiplicity
 _atom_site_fract_x
 _atom_site_fract_y
 _atom_site_fract_z
 _atom_site_occupancy
  S  S0  1  0.00000000  0.00000000  0.00000000  1
  S  S1  1  0.50000000  0.50000000  0.50000000  1
  Ti  Ti2  1  0.50000000  0.50000000  0.00000000  1
  Ti  Ti3  1  0.50000000  0.00000000  0.50000000  1
  P  P4  1  0.00000000  0.50000000  0.50000000  1
  P  P5  1  0.20176930  0.76479129  0.80015030  1
  P  P6  1  0.87081521  0.18164278  0.73330158  1
  Li  Li7  1  0.88879365  0.93433682  0.49180265  1
  Li  Li8  1  0.66482265  0.23286379  0.49322185  1
  Cu  Cu9  1  0.00616770  0.55967941  0.14258033  1
  Cu  Cu10  1  0.06702176  0.37206997  0.97428716  1
