# generated using pymatgen
data_LiMn2Sb4P3
_symmetry_space_group_name_H-M   'P 1'
_cell_length_a   6.13200143
_cell_length_b   6.59747442
_cell_length_c   7.06202509
_cell_angle_alpha   93.61781290
_cell_angle_beta   93.04896590
_cell_angle_gamma   93.85526290
_symmetry_Int_Tables_number   1
_chemical_formula_structural   LiMn2Sb4P3
_chemical_formula_sum   'Li1 Mn2 Sb4 P3'
_cell_volume   284.01116189
_cell_formula_units_Z   1
loop_
 _symmetry_equiv_pos_site_id
 _symmetry_equiv_pos_as_xyz
  1  'x, y, z'
loop_
 _atom_site_type_symbol
 _atom_site_label
 _atom_site_symmetry_multiplicity
 _atom_site_fract_x
 _atom_site_fract_y
 _atom_site_fract_z
 _atom_site_occupancy
  Mn  Mn0  1  0.12500000  0.12500000  0.12500000  1
  Mn  Mn1  1  0.50000000  0.50000000  0.50000000  1
  Sb  Sb2  1  0.25000000  0.25000000  0.25000000  1
  Sb  Sb3  1  0.75000000  0.75000000  0.75000000  1
  Sb  Sb4  1  0.34236868  0.55423193  0.74735114  1
  Sb  Sb5  1  0.08441178  0.21261501  0.31957446  1
  P  P6  1  0.72821783  0.96025320  0.53795075  1
  P  P7  1  0.84806222  0.20205013  0.24072399  1
  P  P8  1  0.77647408  0.85141450  0.84947678  1
  Li  Li9  1  0.47803202  0.54825103  0.01052098  1
