# generated using pymatgen
data_Li5Si3(PS)3
_symmetry_space_group_name_H-M   'P 1'
_cell_length_a   9.49707815
_cell_length_b   10.05780112
_cell_length_c   8.59903130
_cell_angle_alpha   90.00000000
_cell_angle_beta   90.00000000
_cell_angle_gamma   90.00000000
_symmetry_Int_Tables_number   1
_chemical_formula_structural   Li5Si3(PS)3
_chemical_formula_sum   'Li5 Si3 P3 S3'
_cell_volume   821.37709044
_cell_formula_units_Z   1
loop_
 _symmetry_equiv_pos_site_id
 _symmetry_equiv_pos_as_xyz
  1  'x, y, z'
loop_
 _atom_site_type_symbol
 _atom_site_label
 _atom_site_symmetry_multiplicity
 _atom_site_fract_x
 _atom_site_fract_y
 _atom_site_fract_z
 _atom_site_occupancy
  Si  Si0  1  0.12500000  0.12500000  0.12500000  1
  Si  Si1  1  0.50000000  0.50000000  0.50000000  1
  Si  Si2  1  0.25000000  0.25000000  0.25000000  1
  S  S3  1  0.75000000  0.75000000  0.75000000  1
  S  S4  1  0.62489665  0.67189687  0.59979454  1
  S  S5  1  0.71362203  0.23861936  0.07606123  1
  P  P6  1  0.25963838  0.91063255  0.88212588  1
  P  P7  1  0.24118602  0.39830179  0.74660568  1
  P  P8  1  0.02965002  0.02994935  0.67145620  1
  Li  Li9  1  0.90348374  0.76747652  0.44086027  1
  Li  Li10  1  0.99291164  0.77995313  0.16436274  1
  Li  Li11  1  0.95516199  0.70499760  0.61492630  1
  Li  Li12  1  0.34615739  0.31280139  0.77892925  1
  Li  Li13  1  0.76865654  0.20640881  0.82842101  1
