# generated using pymatgen
data_Li2MnMo2P3N
_symmetry_space_group_name_H-M   'P 1'
_cell_length_a   4.13401581
_cell_length_b   4.33927233
_cell_length_c   6.09445610
_cell_angle_alpha   102.78949907
_cell_angle_beta   95.04057105
_cell_angle_gamma   102.66845467
_symmetry_Int_Tables_number   1
_chemical_formula_structural   Li2MnMo2P3N
_chemical_formula_sum   'Li2 Mn1 Mo2 P3 N1'
_cell_volume   102.94368188
_cell_formula_units_Z   1
loop_
 _symmetry_equiv_pos_site_id
 _symmetry_equiv_pos_as_xyz
  1  'x, y, z'
loop_
 _atom_site_type_symbol
 _atom_site_label
 _atom_site_symmetry_multiplicity
 _atom_site_fract_x
 _atom_site_fract_y
 _atom_site_fract_z
 _atom_site_occupancy
  N  N0  1  0.00000000  0.00000000  0.00000000  1
  Mn  Mn1  1  0.50000000  0.50000000  0.50000000  1
  P  P2  1  0.50000000  0.50000000  0.00000000  1
  P  P3  1  0.50000000  0.00000000  0.50000000  1
  P  P4  1  0.00000000  0.50000000  0.50000000  1
  Mo  Mo5  1  0.80816138  0.21855444  0.01224485  1
  Mo  Mo6  1  0.95744453  0.24900693  0.84814368  1
  Li  Li7  1  0.32264770  0.71459155  0.89986587  1
  Li  Li8  1  0.37548588  0.96728048  0.55461476  1
