# generated using pymatgen
data_Li2Ti(I2O)2
_symmetry_space_group_name_H-M   'P 1'
_cell_length_a   8.06969564
_cell_length_b   7.95911285
_cell_length_c   7.31508275
_cell_angle_alpha   90.22747750
_cell_angle_beta   91.08226886
_cell_angle_gamma   90.26006752
_symmetry_Int_Tables_number   1
_chemical_formula_structural   Li2Ti(I2O)2
_chemical_formula_sum   'Li2 Ti1 I4 O2'
_cell_volume   469.73782263
_cell_formula_units_Z   1
loop_
 _symmetry_equiv_pos_site_id
 _symmetry_equiv_pos_as_xyz
  1  'x, y, z'
loop_
 _atom_site_type_symbol
 _atom_site_label
 _atom_site_symmetry_multiplicity
 _atom_site_fract_x
 _atom_site_fract_y
 _atom_site_fract_z
 _atom_site_occupancy
  I  I0  1  0.00000000  0.00000000  0.00000000  1
  I  I1  1  0.33300000  0.66700000  0.25000000  1
  I  I2  1  0.66700000  0.33300000  0.50000000  1
  I  I3  1  0.00000000  0.00000000  0.75000000  1
  Li  Li4  1  0.84296438  0.76395522  0.51595917  1
  Li  Li5  1  0.82223348  0.82304497  0.91338563  1
  Ti  Ti6  1  0.31520916  0.77621035  0.47375180  1
  O  O7  1  0.74836973  0.71131031  0.19534535  1
  O  O8  1  0.09582827  0.02048589  0.33381649  1
