# generated using pymatgen
data_Li2MnSb4P3
_symmetry_space_group_name_H-M   'P 1'
_cell_length_a   6.03630068
_cell_length_b   6.24581470
_cell_length_c   7.25304000
_cell_angle_alpha   95.27658437
_cell_angle_beta   94.12744530
_cell_angle_gamma   95.70972604
_symmetry_Int_Tables_number   1
_chemical_formula_structural   Li2MnSb4P3
_chemical_formula_sum   'Li2 Mn1 Sb4 P3'
_cell_volume   270.03193238
_cell_formula_units_Z   1
loop_
 _symmetry_equiv_pos_site_id
 _symmetry_equiv_pos_as_xyz
  1  'x, y, z'
loop_
 _atom_site_type_symbol
 _atom_site_label
 _atom_site_symmetry_multiplicity
 _atom_site_fract_x
 _atom_site_fract_y
 _atom_site_fract_z
 _atom_site_occupancy
  Mn  Mn0  1  0.12500000  0.00000000  0.25000000  1
  Sb  Sb1  1  0.00000000  0.00000000  0.00000000  1
  Sb  Sb2  1  0.37500000  0.00000000  0.25000000  1
  Sb  Sb3  1  0.25000000  0.25000000  0.25000000  1
  Sb  Sb4  1  0.00000000  0.25000000  0.12500000  1
  P  P5  1  0.91798417  0.62544389  0.02568766  1
  P  P6  1  0.65250884  0.25769637  0.14281318  1
  P  P7  1  0.12080005  0.16786056  0.55340104  1
  Li  Li8  1  0.12403238  0.67029254  0.61342110  1
  Li  Li9  1  0.73708915  0.18055147  0.64434722  1
