# generated using pymatgen
data_Li2Mn2Sb4P3
_symmetry_space_group_name_H-M   'P 1'
_cell_length_a   5.24714441
_cell_length_b   5.55668728
_cell_length_c   6.89395557
_cell_angle_alpha   98.04897924
_cell_angle_beta   95.64808930
_cell_angle_gamma   98.66047371
_symmetry_Int_Tables_number   1
_chemical_formula_structural   Li2Mn2Sb4P3
_chemical_formula_sum   'Li2 Mn2 Sb4 P3'
_cell_volume   195.28407701
_cell_formula_units_Z   1
loop_
 _symmetry_equiv_pos_site_id
 _symmetry_equiv_pos_as_xyz
  1  'x, y, z'
loop_
 _atom_site_type_symbol
 _atom_site_label
 _atom_site_symmetry_multiplicity
 _atom_site_fract_x
 _atom_site_fract_y
 _atom_site_fract_z
 _atom_site_occupancy
  Mn  Mn0  1  0.00000000  0.00000000  0.00000000  1
  Mn  Mn1  1  0.33300000  0.66700000  0.25000000  1
  Sb  Sb2  1  0.66700000  0.33300000  0.50000000  1
  Sb  Sb3  1  0.00000000  0.00000000  0.75000000  1
  Sb  Sb4  1  0.12122731  0.21741182  0.97122865  1
  Sb  Sb5  1  0.52299601  0.15683816  0.12376768  1
  P  P6  1  0.23453201  0.15597582  0.77676791  1
  P  P7  1  0.11615531  0.57419393  0.23857685  1
  P  P8  1  0.71689040  0.28688485  0.33278693  1
  Li  Li9  1  0.77936193  0.09745002  0.68150071  1
  Li  Li10  1  0.51273475  0.13659050  0.49428953  1
