# generated using pymatgen
data_Li3Ti2Ni2N5
_symmetry_space_group_name_H-M   'P 1'
_cell_length_a   7.23471852
_cell_length_b   7.01954048
_cell_length_c   8.27132813
_cell_angle_alpha   94.41880310
_cell_angle_beta   93.53621780
_cell_angle_gamma   95.37580485
_symmetry_Int_Tables_number   1
_chemical_formula_structural   Li3Ti2Ni2N5
_chemical_formula_sum   'Li3 Ti2 Ni2 N5'
_cell_volume   415.95817932
_cell_formula_units_Z   1
loop_
 _symmetry_equiv_pos_site_id
 _symmetry_equiv_pos_as_xyz
  1  'x, y, z'
loop_
 _atom_site_type_symbol
 _atom_site_label
 _atom_site_symmetry_multiplicity
 _atom_site_fract_x
 _atom_site_fract_y
 _atom_site_fract_z
 _atom_site_occupancy
  Li  Li0  1  0.00000000  0.00000000  0.00000000  1
  Li  Li1  1  0.33300000  0.66700000  0.25000000  1
  Li  Li2  1  0.66700000  0.33300000  0.50000000  1
  Ni  Ni3  1  0.00000000  0.00000000  0.75000000  1
  Ni  Ni4  1  0.77433680  0.35320107  0.38252051  1
  Ti  Ti5  1  0.40022558  0.41762838  0.75441453  1
  Ti  Ti6  1  0.05326269  0.43222232  0.25824814  1
  N  N7  1  0.91979277  0.07616078  0.41396266  1
  N  N8  1  0.21038169  0.96624116  0.18692488  1
  N  N9  1  0.95400840  0.05451655  0.31980571  1
  N  N10  1  0.80409867  0.21546038  0.49457366  1
  N  N11  1  0.89808109  0.77866238  0.41401174  1
