# generated using pymatgen
data_Li3TiP3(IO)4
_symmetry_space_group_name_H-M   'P 1'
_cell_length_a   6.89423378
_cell_length_b   6.58648232
_cell_length_c   7.84108668
_cell_angle_alpha   94.63684482
_cell_angle_beta   95.40155860
_cell_angle_gamma   94.28224538
_symmetry_Int_Tables_number   1
_chemical_formula_structural   Li3TiP3(IO)4
_chemical_formula_sum   'Li3 Ti1 P3 I4 O4'
_cell_volume   352.09601303
_cell_formula_units_Z   1
loop_
 _symmetry_equiv_pos_site_id
 _symmetry_equiv_pos_as_xyz
  1  'x, y, z'
loop_
 _atom_site_type_symbol
 _atom_site_label
 _atom_site_symmetry_multiplicity
 _atom_site_fract_x
 _atom_site_fract_y
 _atom_site_fract_z
 _atom_site_occupancy
  I  I0  1  0.12500000  0.00000000  0.25000000  1
  I  I1  1  0.00000000  0.00000000  0.00000000  1
  I  I2  1  0.37500000  0.00000000  0.25000000  1
  I  I3  1  0.25000000  0.25000000  0.25000000  1
  P  P4  1  0.00000000  0.25000000  0.12500000  1
  P  P5  1  0.50598121  0.36583827  0.68099326  1
  P  P6  1  0.14549930  0.70476563  0.66523896  1
  Li  Li7  1  0.43584732  0.13262687  0.73528873  1
  Li  Li8  1  0.50609918  0.02993845  0.06925503  1
  Li  Li9  1  0.12497727  0.40064105  0.66380168  1
  Ti  Ti10  1  0.86595132  0.49145322  0.84271369  1
  O  O11  1  0.82377884  0.50961094  0.46096966  1
  O  O12  1  0.25124032  0.87551921  0.09455818  1
  O  O13  1  0.72037226  0.76847114  0.73849978  1
  O  O14  1  0.07752769  0.52479661  0.37835139  1
