# generated using pymatgen
data_Li2Mn2Sb4P3
_symmetry_space_group_name_H-M   'P 1'
_cell_length_a   6.97773239
_cell_length_b   7.59515292
_cell_length_c   7.44366410
_cell_angle_alpha   91.57668490
_cell_angle_beta   91.86772894
_cell_angle_gamma   91.79446208
_symmetry_Int_Tables_number   1
_chemical_formula_structural   Li2Mn2Sb4P3
_chemical_formula_sum   'Li2 Mn2 Sb4 P3'
_cell_volume   393.92770470
_cell_formula_units_Z   1
loop_
 _symmetry_equiv_pos_site_id
 _symmetry_equiv_pos_as_xyz
  1  'x, y, z'
loop_
 _atom_site_type_symbol
 _atom_site_label
 _atom_site_symmetry_multiplicity
 _atom_site_fract_x
 _atom_site_fract_y
 _atom_site_fract_z
 _atom_site_occupancy
  Mn  Mn0  1  0.00000000  0.00000000  0.00000000  1
  Mn  Mn1  1  0.50000000  0.50000000  0.50000000  1
  Sb  Sb2  1  0.25000000  0.25000000  0.25000000  1
  Sb  Sb3  1  0.75000000  0.25000000  0.00000000  1
  Sb  Sb4  1  0.25000000  0.75000000  0.50000000  1
  Sb  Sb5  1  0.18203332  0.04661674  0.52758441  1
  P  P6  1  0.29119056  0.16442755  0.64140246  1
  P  P7  1  0.31734456  0.16689290  0.75076414  1
  P  P8  1  0.39611469  0.95373341  0.51949394  1
  Li  Li9  1  0.57396236  0.54620487  0.48425904  1
  Li  Li10  1  0.66877631  0.03222344  0.34690564  1
