# generated using pymatgen
data_LiMn2Sb4P2N
_symmetry_space_group_name_H-M   'P 1'
_cell_length_a   5.43803235
_cell_length_b   5.87830825
_cell_length_c   6.67896406
_cell_angle_alpha   97.42622996
_cell_angle_beta   95.78627621
_cell_angle_gamma   96.39714558
_symmetry_Int_Tables_number   1
_chemical_formula_structural   LiMn2Sb4P2N
_chemical_formula_sum   'Li1 Mn2 Sb4 P2 N1'
_cell_volume   208.95051331
_cell_formula_units_Z   1
loop_
 _symmetry_equiv_pos_site_id
 _symmetry_equiv_pos_as_xyz
  1  'x, y, z'
loop_
 _atom_site_type_symbol
 _atom_site_label
 _atom_site_symmetry_multiplicity
 _atom_site_fract_x
 _atom_site_fract_y
 _atom_site_fract_z
 _atom_site_occupancy
  N  N0  1  0.00000000  0.00000000  0.00000000  1
  Mn  Mn1  1  0.50000000  0.50000000  0.50000000  1
  Mn  Mn2  1  0.25000000  0.25000000  0.25000000  1
  Sb  Sb3  1  0.75000000  0.25000000  0.00000000  1
  Sb  Sb4  1  0.25000000  0.75000000  0.50000000  1
  Sb  Sb5  1  0.66427470  0.47208952  0.38737556  1
  Sb  Sb6  1  0.18644882  0.10796443  0.74453968  1
  P  P7  1  0.23882844  0.68447041  0.09756931  1
  P  P8  1  0.17226671  0.58169768  0.74099287  1
  Li  Li9  1  0.01110753  0.28438087  0.53691657  1
