# generated using pymatgen
data_Li2MnSb4Mo2P3
_symmetry_space_group_name_H-M   'P 1'
_cell_length_a   4.09345737
_cell_length_b   4.15943259
_cell_length_c   5.87575664
_cell_angle_alpha   105.94585680
_cell_angle_beta   91.76753037
_cell_angle_gamma   105.76390845
_symmetry_Int_Tables_number   1
_chemical_formula_structural   Li2MnSb4Mo2P3
_chemical_formula_sum   'Li2 Mn1 Sb4 Mo2 P3'
_cell_volume   91.97251244
_cell_formula_units_Z   1
loop_
 _symmetry_equiv_pos_site_id
 _symmetry_equiv_pos_as_xyz
  1  'x, y, z'
loop_
 _atom_site_type_symbol
 _atom_site_label
 _atom_site_symmetry_multiplicity
 _atom_site_fract_x
 _atom_site_fract_y
 _atom_site_fract_z
 _atom_site_occupancy
  Mn  Mn0  1  0.00000000  0.00000000  0.00000000  1
  Sb  Sb1  1  0.50000000  0.50000000  0.50000000  1
  Sb  Sb2  1  0.25000000  0.25000000  0.25000000  1
  Sb  Sb3  1  0.75000000  0.25000000  0.00000000  1
  Sb  Sb4  1  0.25000000  0.75000000  0.50000000  1
  P  P5  1  0.00605694  0.65150489  0.44746864  1
  P  P6  1  0.66787340  0.43854710  0.05632349  1
  P  P7  1  0.15444949  0.24634727  0.89349170  1
  Mo  Mo8  1  0.19692598  0.92083415  0.94438253  1
  Mo  Mo9  1  0.86175141  0.86509822  0.73805490  1
  Li  Li10  1  0.45165490  0.83565498  0.17121718  1
  Li  Li11  1  0.61858445  0.68116913  0.48476207  1
