# generated using pymatgen
data_LiMn3Sb4P3
_symmetry_space_group_name_H-M   'P 1'
_cell_length_a   5.75378281
_cell_length_b   6.13453875
_cell_length_c   6.55207963
_cell_angle_alpha   97.02353274
_cell_angle_beta   90.58054341
_cell_angle_gamma   96.99775677
_symmetry_Int_Tables_number   1
_chemical_formula_structural   LiMn3Sb4P3
_chemical_formula_sum   'Li1 Mn3 Sb4 P3'
_cell_volume   227.74869016
_cell_formula_units_Z   1
loop_
 _symmetry_equiv_pos_site_id
 _symmetry_equiv_pos_as_xyz
  1  'x, y, z'
loop_
 _atom_site_type_symbol
 _atom_site_label
 _atom_site_symmetry_multiplicity
 _atom_site_fract_x
 _atom_site_fract_y
 _atom_site_fract_z
 _atom_site_occupancy
  Mn  Mn0  1  0.00000000  0.00000000  0.00000000  1
  Mn  Mn1  1  0.33300000  0.66700000  0.25000000  1
  Mn  Mn2  1  0.66700000  0.33300000  0.50000000  1
  Sb  Sb3  1  0.00000000  0.00000000  0.75000000  1
  Sb  Sb4  1  0.13413676  0.21088979  0.55486880  1
  Sb  Sb5  1  0.19835900  0.07027985  0.94571743  1
  Sb  Sb6  1  0.73858009  0.51881347  0.21286217  1
  P  P7  1  0.76486829  0.13373416  0.13660908  1
  P  P8  1  0.21279675  0.50413566  0.61791641  1
  P  P9  1  0.95787575  0.46776159  0.30676731  1
  Li  Li10  1  0.32318080  0.39539639  0.42610893  1
