# generated using pymatgen
data_Li2Cu2As6O4F3
_symmetry_space_group_name_H-M   'P 1'
_cell_length_a   6.08323886
_cell_length_b   5.93038795
_cell_length_c   7.66524305
_cell_angle_alpha   98.18423933
_cell_angle_beta   101.67463158
_cell_angle_gamma   97.71817856
_symmetry_Int_Tables_number   1
_chemical_formula_structural   Li2Cu2As6O4F3
_chemical_formula_sum   'Li2 Cu2 As6 O4 F3'
_cell_volume   264.23022635
_cell_formula_units_Z   1
loop_
 _symmetry_equiv_pos_site_id
 _symmetry_equiv_pos_as_xyz
  1  'x, y, z'
loop_
 _atom_site_type_symbol
 _atom_site_label
 _atom_site_symmetry_multiplicity
 _atom_site_fract_x
 _atom_site_fract_y
 _atom_site_fract_z
 _atom_site_occupancy
  Li  Li0  1  0.12500000  0.00000000  0.25000000  1
  Li  Li1  1  0.00000000  0.00000000  0.00000000  1
  Cu  Cu2  1  0.37500000  0.00000000  0.25000000  1
  Cu  Cu3  1  0.25000000  0.25000000  0.25000000  1
  F  F4  1  0.00000000  0.25000000  0.12500000  1
  F  F5  1  0.92913745  0.57160354  0.98544337  1
  F  F6  1  0.94070298  0.27447572  0.50697273  1
  As  As7  1  0.96972856  0.55315723  0.67592320  1
  As  As8  1  0.21801432  0.84947467  0.78090105  1
  As  As9  1  0.23626433  0.26569357  0.98033530  1
  As  As10  1  0.51644070  0.77894136  0.59048619  1
  As  As11  1  0.68493665  0.73801165  0.82755474  1
  As  As12  1  0.81833448  0.09248440  0.43655351  1
  O  O13  1  0.57174027  0.46391625  0.60766148  1
  O  O14  1  0.04399255  0.31685492  0.82692255  1
  O  O15  1  0.08176461  0.05653829  0.28612620  1
  O  O16  1  0.42721011  0.45016454  0.24290220  1
