# generated using pymatgen
data_Li2Mn2(SbP)3
_symmetry_space_group_name_H-M   'P 1'
_cell_length_a   6.90046588
_cell_length_b   7.05540551
_cell_length_c   7.51557893
_cell_angle_alpha   92.19665676
_cell_angle_beta   92.46607055
_cell_angle_gamma   92.43985509
_symmetry_Int_Tables_number   1
_chemical_formula_structural   Li2Mn2(SbP)3
_chemical_formula_sum   'Li2 Mn2 Sb3 P3'
_cell_volume   364.93434581
_cell_formula_units_Z   1
loop_
 _symmetry_equiv_pos_site_id
 _symmetry_equiv_pos_as_xyz
  1  'x, y, z'
loop_
 _atom_site_type_symbol
 _atom_site_label
 _atom_site_symmetry_multiplicity
 _atom_site_fract_x
 _atom_site_fract_y
 _atom_site_fract_z
 _atom_site_occupancy
  Mn  Mn0  1  0.00000000  0.00000000  0.00000000  1
  Mn  Mn1  1  0.33300000  0.66700000  0.25000000  1
  Sb  Sb2  1  0.66700000  0.33300000  0.50000000  1
  Sb  Sb3  1  0.00000000  0.00000000  0.75000000  1
  Sb  Sb4  1  0.33241715  0.98536411  0.58058072  1
  P  P5  1  0.73556781  0.80054708  0.43194046  1
  P  P6  1  0.73406326  0.68770194  0.84758129  1
  P  P7  1  0.09367362  0.02257843  0.95890868  1
  Li  Li8  1  0.09813591  0.49749621  0.28993638  1
  Li  Li9  1  0.06754679  0.58862236  0.60348242  1
