# generated using pymatgen
data_Li2Mn2Sb4P3
_symmetry_space_group_name_H-M   'P 1'
_cell_length_a   6.42615121
_cell_length_b   6.95721851
_cell_length_c   7.16344841
_cell_angle_alpha   94.14850657
_cell_angle_beta   92.03652263
_cell_angle_gamma   94.32074446
_symmetry_Int_Tables_number   1
_chemical_formula_structural   Li2Mn2Sb4P3
_chemical_formula_sum   'Li2 Mn2 Sb4 P3'
_cell_volume   318.24688414
_cell_formula_units_Z   1
loop_
 _symmetry_equiv_pos_site_id
 _symmetry_equiv_pos_as_xyz
  1  'x, y, z'
loop_
 _atom_site_type_symbol
 _atom_site_label
 _atom_site_symmetry_multiplicity
 _atom_site_fract_x
 _atom_site_fract_y
 _atom_site_fract_z
 _atom_site_occupancy
  Mn  Mn0  1  0.12500000  0.00000000  0.25000000  1
  Mn  Mn1  1  0.00000000  0.00000000  0.00000000  1
  Sb  Sb2  1  0.37500000  0.00000000  0.25000000  1
  Sb  Sb3  1  0.25000000  0.25000000  0.25000000  1
  Sb  Sb4  1  0.00000000  0.25000000  0.12500000  1
  Sb  Sb5  1  0.73776825  0.51440986  0.93900862  1
  P  P6  1  0.54418259  0.74021858  0.42907511  1
  P  P7  1  0.39155096  0.72743823  0.49555059  1
  P  P8  1  0.59198300  0.96593042  0.95632192  1
  Li  Li9  1  0.31897616  0.70623755  0.81707541  1
  Li  Li10  1  0.33262581  0.25095389  0.09625386  1
