# generated using pymatgen
data_LiTiAs3F
_symmetry_space_group_name_H-M   'P 1'
_cell_length_a   7.82194071
_cell_length_b   7.82866504
_cell_length_c   8.25134346
_cell_angle_alpha   90.36901879
_cell_angle_beta   91.75567932
_cell_angle_gamma   90.42188701
_symmetry_Int_Tables_number   1
_chemical_formula_structural   LiTiAs3F
_chemical_formula_sum   'Li2 Ti2 As6 F2'
_cell_volume   505.01181614
_cell_formula_units_Z   2
loop_
 _symmetry_equiv_pos_site_id
 _symmetry_equiv_pos_as_xyz
  1  'x, y, z'
loop_
 _atom_site_type_symbol
 _atom_site_label
 _atom_site_symmetry_multiplicity
 _atom_site_fract_x
 _atom_site_fract_y
 _atom_site_fract_z
 _atom_site_occupancy
  F  F0  1  0.00000000  0.00000000  0.00000000  1
  F  F1  1  0.50000000  0.50000000  0.50000000  1
  Ti  Ti2  1  0.50000000  0.50000000  0.00000000  1
  Ti  Ti3  1  0.50000000  0.00000000  0.50000000  1
  As  As4  1  0.00000000  0.50000000  0.50000000  1
  As  As5  1  0.74319760  0.15149821  0.59148341  1
  As  As6  1  0.46186216  0.55121715  0.17475708  1
  As  As7  1  0.47506842  0.12774974  0.74732521  1
  As  As8  1  0.77317751  0.68906829  0.76583829  1
  As  As9  1  0.77058423  0.79990100  0.77238198  1
  Li  Li10  1  0.48027740  0.60621184  0.62106568  1
  Li  Li11  1  0.37166254  0.99059615  0.29642137  1
