# generated using pymatgen
data_Li2TiNb2I4O3
_symmetry_space_group_name_H-M   'P 1'
_cell_length_a   8.02318894
_cell_length_b   7.85972964
_cell_length_c   7.36247183
_cell_angle_alpha   90.32488449
_cell_angle_beta   91.54570175
_cell_angle_gamma   90.37142973
_symmetry_Int_Tables_number   1
_chemical_formula_structural   Li2TiNb2I4O3
_chemical_formula_sum   'Li2 Ti1 Nb2 I4 O3'
_cell_volume   464.09155492
_cell_formula_units_Z   1
loop_
 _symmetry_equiv_pos_site_id
 _symmetry_equiv_pos_as_xyz
  1  'x, y, z'
loop_
 _atom_site_type_symbol
 _atom_site_label
 _atom_site_symmetry_multiplicity
 _atom_site_fract_x
 _atom_site_fract_y
 _atom_site_fract_z
 _atom_site_occupancy
  I  I0  1  0.00000000  0.00000000  0.00000000  1
  I  I1  1  0.50000000  0.50000000  0.50000000  1
  I  I2  1  0.25000000  0.25000000  0.25000000  1
  I  I3  1  0.75000000  0.25000000  0.00000000  1
  Li  Li4  1  0.25000000  0.75000000  0.50000000  1
  Li  Li5  1  0.64386450  0.15938769  0.03422008  1
  Nb  Nb6  1  0.58812032  0.79803552  0.30903448  1
  Nb  Nb7  1  0.35136338  0.49659720  0.00218431  1
  Ti  Ti8  1  0.72894692  0.91501383  0.02596032  1
  O  O9  1  0.82943535  0.95438152  0.40828873  1
  O  O10  1  0.79460749  0.62353699  0.92749459  1
  O  O11  1  0.79918109  0.38603556  0.19877783  1
