# generated using pymatgen
data_Li3Ti2(As3O2)2
_symmetry_space_group_name_H-M   'P 1'
_cell_length_a   7.90806015
_cell_length_b   7.78704395
_cell_length_c   8.30349880
_cell_angle_alpha   90.20820531
_cell_angle_beta   90.99057761
_cell_angle_gamma   90.23803426
_symmetry_Int_Tables_number   1
_chemical_formula_structural   Li3Ti2(As3O2)2
_chemical_formula_sum   'Li3 Ti2 As6 O4'
_cell_volume   511.24853499
_cell_formula_units_Z   1
loop_
 _symmetry_equiv_pos_site_id
 _symmetry_equiv_pos_as_xyz
  1  'x, y, z'
loop_
 _atom_site_type_symbol
 _atom_site_label
 _atom_site_symmetry_multiplicity
 _atom_site_fract_x
 _atom_site_fract_y
 _atom_site_fract_z
 _atom_site_occupancy
  Li  Li0  1  0.12500000  0.00000000  0.25000000  1
  Li  Li1  1  0.00000000  0.00000000  0.00000000  1
  Li  Li2  1  0.37500000  0.00000000  0.25000000  1
  Ti  Ti3  1  0.25000000  0.25000000  0.25000000  1
  Ti  Ti4  1  0.00000000  0.25000000  0.12500000  1
  As  As5  1  0.32883444  0.81350002  0.77536201  1
  As  As6  1  0.69432390  0.68029715  0.60349999  1
  As  As7  1  0.20026454  0.90945362  0.77980281  1
  As  As8  1  0.49108698  0.93154119  0.56867333  1
  As  As9  1  0.51586921  0.50572113  0.50039270  1
  As  As10  1  0.14052179  0.81859485  0.23098214  1
  O  O11  1  0.57742504  0.17341462  0.61147224  1
  O  O12  1  0.66879069  0.13821956  0.70157383  1
  O  O13  1  0.02183512  0.09359219  0.48355483  1
  O  O14  1  0.33767818  0.61128926  0.36134264  1
