# generated using pymatgen
data_Li2Mn2Sb4P3N5
_symmetry_space_group_name_H-M   'P 1'
_cell_length_a   6.64901413
_cell_length_b   7.17971400
_cell_length_c   7.55486230
_cell_angle_alpha   94.31905395
_cell_angle_beta   94.29668448
_cell_angle_gamma   92.92931492
_symmetry_Int_Tables_number   1
_chemical_formula_structural   Li2Mn2Sb4P3N5
_chemical_formula_sum   'Li2 Mn2 Sb4 P3 N5'
_cell_volume   358.03476093
_cell_formula_units_Z   1
loop_
 _symmetry_equiv_pos_site_id
 _symmetry_equiv_pos_as_xyz
  1  'x, y, z'
loop_
 _atom_site_type_symbol
 _atom_site_label
 _atom_site_symmetry_multiplicity
 _atom_site_fract_x
 _atom_site_fract_y
 _atom_site_fract_z
 _atom_site_occupancy
  N  N0  1  0.12500000  0.00000000  0.25000000  1
  N  N1  1  0.00000000  0.00000000  0.00000000  1
  N  N2  1  0.37500000  0.00000000  0.25000000  1
  N  N3  1  0.25000000  0.25000000  0.25000000  1
  N  N4  1  0.00000000  0.25000000  0.12500000  1
  Mn  Mn5  1  0.58619452  0.79356263  0.40097288  1
  Mn  Mn6  1  0.42447386  0.17888134  0.85587890  1
  Sb  Sb7  1  0.45161490  0.24267722  0.36183575  1
  Sb  Sb8  1  0.85969171  0.09233894  0.49850043  1
  Sb  Sb9  1  0.99407094  0.63084646  0.40496317  1
  Sb  Sb10  1  0.88909618  0.13621369  0.43001310  1
  P  P11  1  0.11327671  0.81213614  0.57714005  1
  P  P12  1  0.22968642  0.57087694  0.65619216  1
  P  P13  1  0.50631481  0.91368846  0.96071781  1
  Li  Li14  1  0.30482518  0.98943015  0.91118222  1
  Li  Li15  1  0.33707115  0.71615694  0.13940435  1
