# generated using pymatgen
data_Li2Mn2Sb4P3
_symmetry_space_group_name_H-M   'P 1'
_cell_length_a   5.78061977
_cell_length_b   6.03498603
_cell_length_c   6.89458851
_cell_angle_alpha   97.44404924
_cell_angle_beta   92.46213612
_cell_angle_gamma   97.58708363
_symmetry_Int_Tables_number   1
_chemical_formula_structural   Li2Mn2Sb4P3
_chemical_formula_sum   'Li2 Mn2 Sb4 P3'
_cell_volume   235.96734781
_cell_formula_units_Z   1
loop_
 _symmetry_equiv_pos_site_id
 _symmetry_equiv_pos_as_xyz
  1  'x, y, z'
loop_
 _atom_site_type_symbol
 _atom_site_label
 _atom_site_symmetry_multiplicity
 _atom_site_fract_x
 _atom_site_fract_y
 _atom_site_fract_z
 _atom_site_occupancy
  Mn  Mn0  1  0.00000000  0.00000000  0.00000000  1
  Mn  Mn1  1  0.50000000  0.50000000  0.50000000  1
  Sb  Sb2  1  0.50000000  0.50000000  0.00000000  1
  Sb  Sb3  1  0.50000000  0.00000000  0.50000000  1
  Sb  Sb4  1  0.00000000  0.50000000  0.50000000  1
  Sb  Sb5  1  0.49125567  0.67681200  0.91142385  1
  P  P6  1  0.67609218  0.54679703  0.35226387  1
  P  P7  1  0.76233079  0.83537366  0.04157821  1
  P  P8  1  0.30110705  0.43449695  0.68719273  1
  Li  Li9  1  0.08034347  0.27664072  0.43061766  1
  Li  Li10  1  0.20144993  0.53428429  0.36887936  1
