# generated using pymatgen
data_Li2Mn2Sb4P2N
_symmetry_space_group_name_H-M   'P 1'
_cell_length_a   5.43286027
_cell_length_b   5.78927167
_cell_length_c   6.47697781
_cell_angle_alpha   99.82826967
_cell_angle_beta   91.27324033
_cell_angle_gamma   99.46215212
_symmetry_Int_Tables_number   1
_chemical_formula_structural   Li2Mn2Sb4P2N
_chemical_formula_sum   'Li2 Mn2 Sb4 P2 N1'
_cell_volume   197.72995876
_cell_formula_units_Z   1
loop_
 _symmetry_equiv_pos_site_id
 _symmetry_equiv_pos_as_xyz
  1  'x, y, z'
loop_
 _atom_site_type_symbol
 _atom_site_label
 _atom_site_symmetry_multiplicity
 _atom_site_fract_x
 _atom_site_fract_y
 _atom_site_fract_z
 _atom_site_occupancy
  N  N0  1  0.12500000  0.00000000  0.25000000  1
  Mn  Mn1  1  0.00000000  0.00000000  0.00000000  1
  Mn  Mn2  1  0.37500000  0.00000000  0.25000000  1
  Sb  Sb3  1  0.25000000  0.25000000  0.25000000  1
  Sb  Sb4  1  0.00000000  0.25000000  0.12500000  1
  Sb  Sb5  1  0.25765478  0.76708834  0.31246414  1
  Sb  Sb6  1  0.21047847  0.44612133  0.52703610  1
  P  P7  1  0.86162555  0.24374743  0.32712892  1
  P  P8  1  0.31141085  0.20962849  0.23613397  1
  Li  Li9  1  0.79730757  0.45123272  0.55670952  1
  Li  Li10  1  0.65916403  0.94838858  0.96173211  1
