# generated using pymatgen
data_Li3Zn2Ni2(Te3P2)2
_symmetry_space_group_name_H-M   'P 1'
_cell_length_a   7.94117998
_cell_length_b   7.94196339
_cell_length_c   8.15510166
_cell_angle_alpha   91.96604523
_cell_angle_beta   90.69507955
_cell_angle_gamma   92.28037446
_symmetry_Int_Tables_number   1
_chemical_formula_structural   Li3Zn2Ni2(Te3P2)2
_chemical_formula_sum   'Li3 Zn2 Ni2 Te6 P4'
_cell_volume   513.57377827
_cell_formula_units_Z   1
loop_
 _symmetry_equiv_pos_site_id
 _symmetry_equiv_pos_as_xyz
  1  'x, y, z'
loop_
 _atom_site_type_symbol
 _atom_site_label
 _atom_site_symmetry_multiplicity
 _atom_site_fract_x
 _atom_site_fract_y
 _atom_site_fract_z
 _atom_site_occupancy
  P  P0  1  0.00000000  0.00000000  0.00000000  1
  P  P1  1  0.50000000  0.50000000  0.50000000  1
  P  P2  1  0.50000000  0.50000000  0.00000000  1
  P  P3  1  0.50000000  0.00000000  0.50000000  1
  Li  Li4  1  0.00000000  0.50000000  0.50000000  1
  Li  Li5  1  0.56593710  0.86919475  0.16174940  1
  Li  Li6  1  0.57351019  0.04186911  0.60424657  1
  Zn  Zn7  1  0.44187028  0.40454098  0.64593221  1
  Zn  Zn8  1  0.82835103  0.31425702  0.17869699  1
  Ni  Ni9  1  0.59383334  0.33529602  0.57626274  1
  Ni  Ni10  1  0.99651258  0.49888264  0.84106357  1
  Te  Te11  1  0.43303481  0.62062017  0.36333701  1
  Te  Te12  1  0.80199217  0.04610896  0.97955477  1
  Te  Te13  1  0.00740462  0.97267533  0.53020893  1
  Te  Te14  1  0.82342962  0.37513593  0.83666063  1
  Te  Te15  1  0.93220970  0.85478573  0.31386340  1
  Te  Te16  1  0.18741047  0.44067370  0.56025896  1
