# generated using pymatgen
data_LiMnSb4P3
_symmetry_space_group_name_H-M   'P 1'
_cell_length_a   5.36153121
_cell_length_b   5.66249415
_cell_length_c   6.44815562
_cell_angle_alpha   94.63410077
_cell_angle_beta   93.12421765
_cell_angle_gamma   94.64407491
_symmetry_Int_Tables_number   1
_chemical_formula_structural   LiMnSb4P3
_chemical_formula_sum   'Li1 Mn1 Sb4 P3'
_cell_volume   194.11563602
_cell_formula_units_Z   1
loop_
 _symmetry_equiv_pos_site_id
 _symmetry_equiv_pos_as_xyz
  1  'x, y, z'
loop_
 _atom_site_type_symbol
 _atom_site_label
 _atom_site_symmetry_multiplicity
 _atom_site_fract_x
 _atom_site_fract_y
 _atom_site_fract_z
 _atom_site_occupancy
  Mn  Mn0  1  0.12500000  0.12500000  0.12500000  1
  Sb  Sb1  1  0.50000000  0.50000000  0.50000000  1
  Sb  Sb2  1  0.25000000  0.25000000  0.25000000  1
  Sb  Sb3  1  0.75000000  0.75000000  0.75000000  1
  Sb  Sb4  1  0.67306697  0.23666128  0.90126615  1
  P  P5  1  0.97963442  0.30836099  0.71094384  1
  P  P6  1  0.38184213  0.47480076  0.30045961  1
  P  P7  1  0.56764526  0.34004475  0.70352026  1
  Li  Li8  1  0.47599784  0.48497444  0.84423486  1
