# generated using pymatgen
data_Li2MnP3
_symmetry_space_group_name_H-M   'P 1'
_cell_length_a   5.25306087
_cell_length_b   5.44182847
_cell_length_c   6.58753367
_cell_angle_alpha   97.25742339
_cell_angle_beta   95.28551762
_cell_angle_gamma   96.83745830
_symmetry_Int_Tables_number   1
_chemical_formula_structural   Li2MnP3
_chemical_formula_sum   'Li2 Mn1 P3'
_cell_volume   184.37469801
_cell_formula_units_Z   1
loop_
 _symmetry_equiv_pos_site_id
 _symmetry_equiv_pos_as_xyz
  1  'x, y, z'
loop_
 _atom_site_type_symbol
 _atom_site_label
 _atom_site_symmetry_multiplicity
 _atom_site_fract_x
 _atom_site_fract_y
 _atom_site_fract_z
 _atom_site_occupancy
  Mn  Mn0  1  0.12500000  0.00000000  0.25000000  1
  P  P1  1  0.00000000  0.00000000  0.00000000  1
  P  P2  1  0.37500000  0.00000000  0.25000000  1
  P  P3  1  0.25000000  0.25000000  0.25000000  1
  Li  Li4  1  0.00000000  0.25000000  0.12500000  1
  Li  Li5  1  0.39995790  0.99188615  0.72496762  1
