# generated using pymatgen
data_Li2Cu2As6O7
_symmetry_space_group_name_H-M   'P 1'
_cell_length_a   7.53210422
_cell_length_b   7.55736528
_cell_length_c   8.51000914
_cell_angle_alpha   90.45322566
_cell_angle_beta   92.60495772
_cell_angle_gamma   90.50292378
_symmetry_Int_Tables_number   1
_chemical_formula_structural   Li2Cu2As6O7
_chemical_formula_sum   'Li2 Cu2 As6 O7'
_cell_volume   483.87812787
_cell_formula_units_Z   1
loop_
 _symmetry_equiv_pos_site_id
 _symmetry_equiv_pos_as_xyz
  1  'x, y, z'
loop_
 _atom_site_type_symbol
 _atom_site_label
 _atom_site_symmetry_multiplicity
 _atom_site_fract_x
 _atom_site_fract_y
 _atom_site_fract_z
 _atom_site_occupancy
  O  O0  1  0.12500000  0.00000000  0.25000000  1
  O  O1  1  0.00000000  0.00000000  0.00000000  1
  O  O2  1  0.37500000  0.00000000  0.25000000  1
  O  O3  1  0.25000000  0.25000000  0.25000000  1
  O  O4  1  0.00000000  0.25000000  0.12500000  1
  O  O5  1  0.49352944  0.86890019  0.23297489  1
  O  O6  1  0.84299769  0.78437045  0.11045089  1
  As  As7  1  0.28352165  0.22355927  0.35060964  1
  As  As8  1  0.98270375  0.60736594  0.95698176  1
  As  As9  1  0.88115955  0.13315633  0.28024949  1
  As  As10  1  0.91992529  0.55320395  0.61077579  1
  As  As11  1  0.67132194  0.81180279  0.29080454  1
  As  As12  1  0.97231238  0.04338275  0.30089117  1
  Li  Li13  1  0.88132512  0.37650464  0.82902953  1
  Li  Li14  1  0.91241247  0.38493923  0.50180899  1
  Cu  Cu15  1  0.82467833  0.32279456  0.15417290  1
  Cu  Cu16  1  0.69561680  0.48287212  0.77880441  1
