# generated using pymatgen
data_Li5ZrTi3(CuCl)2
_symmetry_space_group_name_H-M   'P 1'
_cell_length_a   4.29830584
_cell_length_b   4.19213212
_cell_length_c   6.57650819
_cell_angle_alpha   108.31298915
_cell_angle_beta   113.77224566
_cell_angle_gamma   108.96888610
_symmetry_Int_Tables_number   1
_chemical_formula_structural   Li5ZrTi3(CuCl)2
_chemical_formula_sum   'Li5 Zr1 Ti3 Cu2 Cl2'
_cell_volume   87.94615643
_cell_formula_units_Z   1
loop_
 _symmetry_equiv_pos_site_id
 _symmetry_equiv_pos_as_xyz
  1  'x, y, z'
loop_
 _atom_site_type_symbol
 _atom_site_label
 _atom_site_symmetry_multiplicity
 _atom_site_fract_x
 _atom_site_fract_y
 _atom_site_fract_z
 _atom_site_occupancy
  Li  Li0  1  0.00000000  0.00000000  0.00000000  1
  Li  Li1  1  0.50000000  0.50000000  0.50000000  1
  Li  Li2  1  0.50000000  0.50000000  0.00000000  1
  Li  Li3  1  0.50000000  0.00000000  0.50000000  1
  Li  Li4  1  0.00000000  0.50000000  0.50000000  1
  Cu  Cu5  1  0.28949579  0.44002573  0.42593466  1
  Cu  Cu6  1  0.00948590  0.58151620  0.21884174  1
  Cl  Cl7  1  0.89637334  0.97840160  0.07488301  1
  Cl  Cl8  1  0.43013812  0.80230121  0.07705600  1
  Ti  Ti9  1  0.01831400  0.52434620  0.36091027  1
  Ti  Ti10  1  0.74220832  0.82059078  0.46252185  1
  Ti  Ti11  1  0.35771448  0.79002145  0.39811679  1
  Zr  Zr12  1  0.25851214  0.45815519  0.12340504  1
