# generated using pymatgen
data_LiMnSb4Mo2P3
_symmetry_space_group_name_H-M   'P 1'
_cell_length_a   5.10972090
_cell_length_b   5.19982092
_cell_length_c   6.59007009
_cell_angle_alpha   98.67210693
_cell_angle_beta   93.50305892
_cell_angle_gamma   98.82643102
_symmetry_Int_Tables_number   1
_chemical_formula_structural   LiMnSb4Mo2P3
_chemical_formula_sum   'Li1 Mn1 Sb4 Mo2 P3'
_cell_volume   170.40697814
_cell_formula_units_Z   1
loop_
 _symmetry_equiv_pos_site_id
 _symmetry_equiv_pos_as_xyz
  1  'x, y, z'
loop_
 _atom_site_type_symbol
 _atom_site_label
 _atom_site_symmetry_multiplicity
 _atom_site_fract_x
 _atom_site_fract_y
 _atom_site_fract_z
 _atom_site_occupancy
  Mn  Mn0  1  0.12500000  0.00000000  0.25000000  1
  Sb  Sb1  1  0.00000000  0.00000000  0.00000000  1
  Sb  Sb2  1  0.37500000  0.00000000  0.25000000  1
  Sb  Sb3  1  0.25000000  0.25000000  0.25000000  1
  Sb  Sb4  1  0.00000000  0.25000000  0.12500000  1
  P  P5  1  0.38929477  0.84133702  0.33160002  1
  P  P6  1  0.76264766  0.18627825  0.96035133  1
  P  P7  1  0.80682117  0.36415057  0.32756418  1
  Mo  Mo8  1  0.60434591  0.61436383  0.87754167  1
  Mo  Mo9  1  0.25792881  0.33421268  0.31941616  1
  Li  Li10  1  0.12371328  0.29341768  0.66096686  1
