# generated using pymatgen
data_LiTi2P2Se5O2
_symmetry_space_group_name_H-M   'P 1'
_cell_length_a   7.83570768
_cell_length_b   8.40637816
_cell_length_c   7.50344962
_cell_angle_alpha   90.73607202
_cell_angle_beta   90.99697089
_cell_angle_gamma   90.94725754
_symmetry_Int_Tables_number   1
_chemical_formula_structural   LiTi2P2Se5O2
_chemical_formula_sum   'Li1 Ti2 P2 Se5 O2'
_cell_volume   494.06663863
_cell_formula_units_Z   1
loop_
 _symmetry_equiv_pos_site_id
 _symmetry_equiv_pos_as_xyz
  1  'x, y, z'
loop_
 _atom_site_type_symbol
 _atom_site_label
 _atom_site_symmetry_multiplicity
 _atom_site_fract_x
 _atom_site_fract_y
 _atom_site_fract_z
 _atom_site_occupancy
  P  P0  1  0.12500000  0.00000000  0.25000000  1
  P  P1  1  0.00000000  0.00000000  0.00000000  1
  Li  Li2  1  0.37500000  0.00000000  0.25000000  1
  Se  Se3  1  0.25000000  0.25000000  0.25000000  1
  Se  Se4  1  0.00000000  0.25000000  0.12500000  1
  Se  Se5  1  0.68318128  0.66903216  0.21872248  1
  Se  Se6  1  0.27122899  0.80586707  0.70397878  1
  Se  Se7  1  0.56681940  0.83637485  0.95529776  1
  Ti  Ti8  1  0.01945745  0.02474929  0.75656191  1
  Ti  Ti9  1  0.19091370  0.95008443  0.96680644  1
  O  O10  1  0.82546358  0.16249203  0.71442306  1
  O  O11  1  0.30157191  0.62943792  0.09975790  1
