# generated using pymatgen
data_Li2Mn2Sb4P2N
_symmetry_space_group_name_H-M   'P 1'
_cell_length_a   6.45158282
_cell_length_b   6.72819394
_cell_length_c   7.22115411
_cell_angle_alpha   94.50432824
_cell_angle_beta   94.62130779
_cell_angle_gamma   93.39499761
_symmetry_Int_Tables_number   1
_chemical_formula_structural   Li2Mn2Sb4P2N
_chemical_formula_sum   'Li2 Mn2 Sb4 P2 N1'
_cell_volume   310.78985078
_cell_formula_units_Z   1
loop_
 _symmetry_equiv_pos_site_id
 _symmetry_equiv_pos_as_xyz
  1  'x, y, z'
loop_
 _atom_site_type_symbol
 _atom_site_label
 _atom_site_symmetry_multiplicity
 _atom_site_fract_x
 _atom_site_fract_y
 _atom_site_fract_z
 _atom_site_occupancy
  N  N0  1  0.12500000  0.00000000  0.25000000  1
  Mn  Mn1  1  0.00000000  0.00000000  0.00000000  1
  Mn  Mn2  1  0.37500000  0.00000000  0.25000000  1
  Sb  Sb3  1  0.25000000  0.25000000  0.25000000  1
  Sb  Sb4  1  0.00000000  0.25000000  0.12500000  1
  Sb  Sb5  1  0.68544721  0.12282116  0.08306755  1
  Sb  Sb6  1  0.49966541  0.43685096  0.06301494  1
  P  P7  1  0.40982159  0.43636690  0.16827241  1
  P  P8  1  0.13126855  0.54077665  0.67894520  1
  Li  Li9  1  0.76412496  0.27415344  0.15706052  1
  Li  Li10  1  0.49333417  0.24498730  0.81742102  1
