# generated using pymatgen
data_Li3Ti2Se5S2O
_symmetry_space_group_name_H-M   'P 1'
_cell_length_a   5.36276264
_cell_length_b   5.38377494
_cell_length_c   7.07949845
_cell_angle_alpha   98.39379096
_cell_angle_beta   99.19985942
_cell_angle_gamma   97.55110485
_symmetry_Int_Tables_number   1
_chemical_formula_structural   Li3Ti2Se5S2O
_chemical_formula_sum   'Li3 Ti2 Se5 S2 O1'
_cell_volume   197.08599104
_cell_formula_units_Z   1
loop_
 _symmetry_equiv_pos_site_id
 _symmetry_equiv_pos_as_xyz
  1  'x, y, z'
loop_
 _atom_site_type_symbol
 _atom_site_label
 _atom_site_symmetry_multiplicity
 _atom_site_fract_x
 _atom_site_fract_y
 _atom_site_fract_z
 _atom_site_occupancy
  Se  Se0  1  0.00000000  0.00000000  0.00000000  1
  Se  Se1  1  0.50000000  0.50000000  0.50000000  1
  Se  Se2  1  0.50000000  0.50000000  0.00000000  1
  Se  Se3  1  0.50000000  0.00000000  0.50000000  1
  Se  Se4  1  0.00000000  0.50000000  0.50000000  1
  S  S5  1  0.92003873  0.78304872  0.06104807  1
  S  S6  1  0.66995273  0.44622483  0.09397799  1
  Ti  Ti7  1  0.62398021  0.81015337  0.98820389  1
  Ti  Ti8  1  0.64701462  0.28561362  0.91718782  1
  O  O9  1  0.47551851  0.12667802  0.27727738  1
  Li  Li10  1  0.57203289  0.49950370  0.47270431  1
  Li  Li11  1  0.04295600  0.81545755  0.76477185  1
  Li  Li12  1  0.79265329  0.21694384  0.84836238  1
