# generated using pymatgen
data_LiMn2Sb2Mo2P3
_symmetry_space_group_name_H-M   'P 1'
_cell_length_a   5.61250511
_cell_length_b   5.80948144
_cell_length_c   6.42231877
_cell_angle_alpha   95.90697312
_cell_angle_beta   91.95470328
_cell_angle_gamma   96.22938916
_symmetry_Int_Tables_number   1
_chemical_formula_structural   LiMn2Sb2Mo2P3
_chemical_formula_sum   'Li1 Mn2 Sb2 Mo2 P3'
_cell_volume   206.84555498
_cell_formula_units_Z   1
loop_
 _symmetry_equiv_pos_site_id
 _symmetry_equiv_pos_as_xyz
  1  'x, y, z'
loop_
 _atom_site_type_symbol
 _atom_site_label
 _atom_site_symmetry_multiplicity
 _atom_site_fract_x
 _atom_site_fract_y
 _atom_site_fract_z
 _atom_site_occupancy
  Mn  Mn0  1  0.00000000  0.00000000  0.00000000  1
  Mn  Mn1  1  0.50000000  0.50000000  0.50000000  1
  Sb  Sb2  1  0.25000000  0.25000000  0.25000000  1
  Sb  Sb3  1  0.75000000  0.25000000  0.00000000  1
  P  P4  1  0.25000000  0.75000000  0.50000000  1
  P  P5  1  0.75768945  0.51518853  0.68192287  1
  P  P6  1  0.27061772  0.07874093  0.84334701  1
  Mo  Mo7  1  0.57873193  0.49730823  0.72075294  1
  Mo  Mo8  1  0.74925535  0.03078846  0.88456173  1
  Li  Li9  1  0.13725391  0.81554278  0.22581697  1
