# generated using pymatgen
data_Li2Mn2Sb4P2N
_symmetry_space_group_name_H-M   'P 1'
_cell_length_a   5.21877745
_cell_length_b   5.62691110
_cell_length_c   6.77066242
_cell_angle_alpha   98.15081514
_cell_angle_beta   96.72394349
_cell_angle_gamma   97.34959857
_symmetry_Int_Tables_number   1
_chemical_formula_structural   Li2Mn2Sb4P2N
_chemical_formula_sum   'Li2 Mn2 Sb4 P2 N1'
_cell_volume   193.33865530
_cell_formula_units_Z   1
loop_
 _symmetry_equiv_pos_site_id
 _symmetry_equiv_pos_as_xyz
  1  'x, y, z'
loop_
 _atom_site_type_symbol
 _atom_site_label
 _atom_site_symmetry_multiplicity
 _atom_site_fract_x
 _atom_site_fract_y
 _atom_site_fract_z
 _atom_site_occupancy
  N  N0  1  0.00000000  0.00000000  0.00000000  1
  Mn  Mn1  1  0.50000000  0.50000000  0.50000000  1
  Mn  Mn2  1  0.50000000  0.50000000  0.00000000  1
  Sb  Sb3  1  0.50000000  0.00000000  0.50000000  1
  Sb  Sb4  1  0.00000000  0.50000000  0.50000000  1
  Sb  Sb5  1  0.57305188  0.92773116  0.24028597  1
  Sb  Sb6  1  0.80211372  0.92667275  0.70238769  1
  P  P7  1  0.66283173  0.16817157  0.55393363  1
  P  P8  1  0.56864821  0.01481042  0.50799918  1
  Li  Li9  1  0.02416821  0.43376127  0.87316223  1
  Li  Li10  1  0.49906829  0.84413807  0.45331987  1
