# generated using pymatgen
data_Li2Sb2P4N5
_symmetry_space_group_name_H-M   'P 1'
_cell_length_a   7.83281242
_cell_length_b   7.53525205
_cell_length_c   8.38310847
_cell_angle_alpha   92.39916666
_cell_angle_beta   90.84820616
_cell_angle_gamma   92.78274289
_symmetry_Int_Tables_number   1
_chemical_formula_structural   Li2Sb2P4N5
_chemical_formula_sum   'Li2 Sb2 P4 N5'
_cell_volume   493.70271064
_cell_formula_units_Z   1
loop_
 _symmetry_equiv_pos_site_id
 _symmetry_equiv_pos_as_xyz
  1  'x, y, z'
loop_
 _atom_site_type_symbol
 _atom_site_label
 _atom_site_symmetry_multiplicity
 _atom_site_fract_x
 _atom_site_fract_y
 _atom_site_fract_z
 _atom_site_occupancy
  P  P0  1  0.12500000  0.00000000  0.25000000  1
  P  P1  1  0.00000000  0.00000000  0.00000000  1
  P  P2  1  0.37500000  0.00000000  0.25000000  1
  P  P3  1  0.25000000  0.25000000  0.25000000  1
  Li  Li4  1  0.00000000  0.25000000  0.12500000  1
  Li  Li5  1  0.24774306  0.79873513  0.01104629  1
  Sb  Sb6  1  0.31417982  0.22243802  0.84178308  1
  Sb  Sb7  1  0.29486337  0.52216491  0.29066829  1
  N  N8  1  0.61612855  0.84912779  0.88390300  1
  N  N9  1  0.01391116  0.50914330  0.73949118  1
  N  N10  1  0.78483121  0.60369458  0.49403335  1
  N  N11  1  0.25040922  0.69251096  0.64812135  1
  N  N12  1  0.40369409  0.56375593  0.65309386  1
