# generated using pymatgen
data_Li2Sb4Mo2P3N
_symmetry_space_group_name_H-M   'P 1'
_cell_length_a   4.01584844
_cell_length_b   4.11268380
_cell_length_c   6.00424397
_cell_angle_alpha   103.99926945
_cell_angle_beta   95.25424125
_cell_angle_gamma   103.93995360
_symmetry_Int_Tables_number   1
_chemical_formula_structural   Li2Sb4Mo2P3N
_chemical_formula_sum   'Li2 Sb4 Mo2 P3 N1'
_cell_volume   92.19653388
_cell_formula_units_Z   1
loop_
 _symmetry_equiv_pos_site_id
 _symmetry_equiv_pos_as_xyz
  1  'x, y, z'
loop_
 _atom_site_type_symbol
 _atom_site_label
 _atom_site_symmetry_multiplicity
 _atom_site_fract_x
 _atom_site_fract_y
 _atom_site_fract_z
 _atom_site_occupancy
  N  N0  1  0.00000000  0.00000000  0.00000000  1
  Sb  Sb1  1  0.50000000  0.50000000  0.50000000  1
  Sb  Sb2  1  0.50000000  0.50000000  0.00000000  1
  Sb  Sb3  1  0.50000000  0.00000000  0.50000000  1
  Sb  Sb4  1  0.00000000  0.50000000  0.50000000  1
  P  P5  1  0.61325147  0.30401482  0.14117357  1
  P  P6  1  0.84045353  0.97324326  0.46969703  1
  P  P7  1  0.47118000  0.20946556  0.01426172  1
  Mo  Mo8  1  0.67945818  0.39719976  0.45876782  1
  Mo  Mo9  1  0.22554323  0.04723230  0.64809425  1
  Li  Li10  1  0.71508525  0.63149168  0.51865967  1
  Li  Li11  1  0.46176769  0.12216125  0.58516542  1
