# generated using pymatgen
data_LiTiCu(AsP)3
_symmetry_space_group_name_H-M   'P 1'
_cell_length_a   7.85835822
_cell_length_b   7.84551259
_cell_length_c   8.23247129
_cell_angle_alpha   90.35709659
_cell_angle_beta   91.69895715
_cell_angle_gamma   90.40825676
_symmetry_Int_Tables_number   1
_chemical_formula_structural   LiTiCu(AsP)3
_chemical_formula_sum   'Li2 Ti2 Cu2 As6 P6'
_cell_volume   507.30876157
_cell_formula_units_Z   2
loop_
 _symmetry_equiv_pos_site_id
 _symmetry_equiv_pos_as_xyz
  1  'x, y, z'
loop_
 _atom_site_type_symbol
 _atom_site_label
 _atom_site_symmetry_multiplicity
 _atom_site_fract_x
 _atom_site_fract_y
 _atom_site_fract_z
 _atom_site_occupancy
  Ti  Ti0  1  0.12500000  0.00000000  0.25000000  1
  Ti  Ti1  1  0.00000000  0.00000000  0.00000000  1
  P  P2  1  0.37500000  0.00000000  0.25000000  1
  P  P3  1  0.25000000  0.25000000  0.25000000  1
  P  P4  1  0.00000000  0.25000000  0.12500000  1
  P  P5  1  0.02482203  0.87688801  0.11718202  1
  P  P6  1  0.96224746  0.22563404  0.33614740  1
  P  P7  1  0.06423640  0.10288118  0.92646637  1
  As  As8  1  0.61624086  0.05579737  0.09602921  1
  As  As9  1  0.73002583  0.73652803  0.42895441  1
  As  As10  1  0.94833841  0.79709040  0.75663012  1
  As  As11  1  0.15160625  0.65968280  0.81334004  1
  As  As12  1  0.84070098  0.61307834  0.13293166  1
  As  As13  1  0.93214258  0.46021379  0.60646663  1
  Li  Li14  1  0.60895696  0.06377713  0.41626753  1
  Li  Li15  1  0.80974466  0.29022849  0.80477425  1
  Cu  Cu16  1  0.24127654  0.84134658  0.82503047  1
  Cu  Cu17  1  0.27017140  0.12781155  0.13187193  1
