# generated using pymatgen
data_LiP3ClF
_symmetry_space_group_name_H-M   'P 1'
_cell_length_a   6.34206280
_cell_length_b   5.97363942
_cell_length_c   7.51236898
_cell_angle_alpha   99.98405506
_cell_angle_beta   102.94464612
_cell_angle_gamma   99.40363989
_symmetry_Int_Tables_number   1
_chemical_formula_structural   LiP3ClF
_chemical_formula_sum   'Li2 P6 Cl2 F2'
_cell_volume   267.04230910
_cell_formula_units_Z   2
loop_
 _symmetry_equiv_pos_site_id
 _symmetry_equiv_pos_as_xyz
  1  'x, y, z'
loop_
 _atom_site_type_symbol
 _atom_site_label
 _atom_site_symmetry_multiplicity
 _atom_site_fract_x
 _atom_site_fract_y
 _atom_site_fract_z
 _atom_site_occupancy
  F  F0  1  0.00000000  0.00000000  0.00000000  1
  F  F1  1  0.50000000  0.50000000  0.50000000  1
  Cl  Cl2  1  0.25000000  0.25000000  0.25000000  1
  Cl  Cl3  1  0.75000000  0.25000000  0.00000000  1
  P  P4  1  0.25000000  0.75000000  0.50000000  1
  P  P5  1  0.13048741  0.56341949  0.05793860  1
  P  P6  1  0.03442287  0.27057515  0.97527542  1
  P  P7  1  0.70355008  0.66819094  0.15761384  1
  P  P8  1  0.97348713  0.75315870  0.17173866  1
  P  P9  1  0.72158835  0.04653533  0.45142622  1
  Li  Li10  1  0.23837720  0.02695361  0.53234107  1
  Li  Li11  1  0.23221095  0.79507621  0.82712690  1
