# generated using pymatgen
data_Li2Ti(SeO)2
_symmetry_space_group_name_H-M   'P 1'
_cell_length_a   8.64785560
_cell_length_b   8.48271846
_cell_length_c   7.14331251
_cell_angle_alpha   90.08154616
_cell_angle_beta   90.38797185
_cell_angle_gamma   90.09322903
_symmetry_Int_Tables_number   1
_chemical_formula_structural   Li2Ti(SeO)2
_chemical_formula_sum   'Li2 Ti1 Se2 O2'
_cell_volume   524.00104693
_cell_formula_units_Z   1
loop_
 _symmetry_equiv_pos_site_id
 _symmetry_equiv_pos_as_xyz
  1  'x, y, z'
loop_
 _atom_site_type_symbol
 _atom_site_label
 _atom_site_symmetry_multiplicity
 _atom_site_fract_x
 _atom_site_fract_y
 _atom_site_fract_z
 _atom_site_occupancy
  Li  Li0  1  0.00000000  0.00000000  0.00000000  1
  Li  Li1  1  0.50000000  0.50000000  0.50000000  1
  Se  Se2  1  0.25000000  0.25000000  0.25000000  1
  Se  Se3  1  0.75000000  0.25000000  0.00000000  1
  Ti  Ti4  1  0.25000000  0.75000000  0.50000000  1
  O  O5  1  0.92118946  0.24172877  0.81249545  1
  O  O6  1  0.68101988  0.65059496  0.90166300  1
