# generated using pymatgen
data_Li2Mn2Sb4P3
_symmetry_space_group_name_H-M   'P 1'
_cell_length_a   6.64506673
_cell_length_b   7.14557644
_cell_length_c   7.18236653
_cell_angle_alpha   93.69136220
_cell_angle_beta   93.67224371
_cell_angle_gamma   92.50359512
_symmetry_Int_Tables_number   1
_chemical_formula_structural   Li2Mn2Sb4P3
_chemical_formula_sum   'Li2 Mn2 Sb4 P3'
_cell_volume   339.24124081
_cell_formula_units_Z   1
loop_
 _symmetry_equiv_pos_site_id
 _symmetry_equiv_pos_as_xyz
  1  'x, y, z'
loop_
 _atom_site_type_symbol
 _atom_site_label
 _atom_site_symmetry_multiplicity
 _atom_site_fract_x
 _atom_site_fract_y
 _atom_site_fract_z
 _atom_site_occupancy
  Mn  Mn0  1  0.12500000  0.00000000  0.25000000  1
  Mn  Mn1  1  0.00000000  0.00000000  0.00000000  1
  Sb  Sb2  1  0.37500000  0.00000000  0.25000000  1
  Sb  Sb3  1  0.25000000  0.25000000  0.25000000  1
  Sb  Sb4  1  0.00000000  0.25000000  0.12500000  1
  Sb  Sb5  1  0.66893108  0.19609218  0.40427621  1
  P  P6  1  0.38226501  0.30405661  0.52654309  1
  P  P7  1  0.98769867  0.23796491  0.87487040  1
  P  P8  1  0.71630003  0.99332974  0.73774975  1
  Li  Li9  1  0.70994981  0.27009677  0.35656494  1
  Li  Li10  1  0.52370439  0.20284439  0.05296185  1
