# generated using pymatgen
data_Li2Ti(P3O)2
_symmetry_space_group_name_H-M   'P 1'
_cell_length_a   8.28842834
_cell_length_b   8.05023670
_cell_length_c   7.71545273
_cell_angle_alpha   90.19429857
_cell_angle_beta   90.92441360
_cell_angle_gamma   90.22213515
_symmetry_Int_Tables_number   1
_chemical_formula_structural   Li2Ti(P3O)2
_chemical_formula_sum   'Li2 Ti1 P6 O2'
_cell_volume   514.73046058
_cell_formula_units_Z   1
loop_
 _symmetry_equiv_pos_site_id
 _symmetry_equiv_pos_as_xyz
  1  'x, y, z'
loop_
 _atom_site_type_symbol
 _atom_site_label
 _atom_site_symmetry_multiplicity
 _atom_site_fract_x
 _atom_site_fract_y
 _atom_site_fract_z
 _atom_site_occupancy
  P  P0  1  0.00000000  0.00000000  0.00000000  1
  P  P1  1  0.50000000  0.50000000  0.50000000  1
  P  P2  1  0.50000000  0.50000000  0.00000000  1
  P  P3  1  0.50000000  0.00000000  0.50000000  1
  P  P4  1  0.00000000  0.50000000  0.50000000  1
  P  P5  1  0.54505045  0.31526048  0.31333450  1
  Li  Li6  1  0.55579895  0.51201720  0.12840581  1
  Li  Li7  1  0.47250719  0.35413404  0.69874008  1
  Ti  Ti8  1  0.23993041  0.48650587  0.73564144  1
  O  O9  1  0.11081547  0.80857430  0.93621301  1
  O  O10  1  0.69386771  0.17221609  0.93980616  1
