# generated using pymatgen
data_LiMn2Sb4Mo2P3
_symmetry_space_group_name_H-M   'P 1'
_cell_length_a   5.69713432
_cell_length_b   6.01914028
_cell_length_c   6.42200343
_cell_angle_alpha   94.15930720
_cell_angle_beta   90.94228203
_cell_angle_gamma   94.25214894
_symmetry_Int_Tables_number   1
_chemical_formula_structural   LiMn2Sb4Mo2P3
_chemical_formula_sum   'Li1 Mn2 Sb4 Mo2 P3'
_cell_volume   218.98505389
_cell_formula_units_Z   1
loop_
 _symmetry_equiv_pos_site_id
 _symmetry_equiv_pos_as_xyz
  1  'x, y, z'
loop_
 _atom_site_type_symbol
 _atom_site_label
 _atom_site_symmetry_multiplicity
 _atom_site_fract_x
 _atom_site_fract_y
 _atom_site_fract_z
 _atom_site_occupancy
  Mn  Mn0  1  0.12500000  0.00000000  0.25000000  1
  Mn  Mn1  1  0.00000000  0.00000000  0.00000000  1
  Sb  Sb2  1  0.37500000  0.00000000  0.25000000  1
  Sb  Sb3  1  0.25000000  0.25000000  0.25000000  1
  Sb  Sb4  1  0.00000000  0.25000000  0.12500000  1
  Sb  Sb5  1  0.21352643  0.35285418  0.99082737  1
  P  P6  1  0.75668835  0.70216049  0.22956840  1
  P  P7  1  0.54446115  0.89914828  0.40268789  1
  P  P8  1  0.54413270  0.74190407  0.56751849  1
  Mo  Mo9  1  0.24663259  0.06308055  0.75863872  1
  Mo  Mo10  1  0.07256645  0.39881049  0.02190081  1
  Li  Li11  1  0.11632807  0.65236267  0.99011808  1
