# generated using pymatgen
data_Li2TiSe2I4O3
_symmetry_space_group_name_H-M   'P 1'
_cell_length_a   8.54198321
_cell_length_b   8.35563639
_cell_length_c   7.11389915
_cell_angle_alpha   90.11924430
_cell_angle_beta   90.56732816
_cell_angle_gamma   90.13632807
_symmetry_Int_Tables_number   1
_chemical_formula_structural   Li2TiSe2I4O3
_chemical_formula_sum   'Li2 Ti1 Se2 I4 O3'
_cell_volume   507.71789211
_cell_formula_units_Z   1
loop_
 _symmetry_equiv_pos_site_id
 _symmetry_equiv_pos_as_xyz
  1  'x, y, z'
loop_
 _atom_site_type_symbol
 _atom_site_label
 _atom_site_symmetry_multiplicity
 _atom_site_fract_x
 _atom_site_fract_y
 _atom_site_fract_z
 _atom_site_occupancy
  I  I0  1  0.00000000  0.00000000  0.00000000  1
  I  I1  1  0.50000000  0.50000000  0.50000000  1
  I  I2  1  0.50000000  0.50000000  0.00000000  1
  I  I3  1  0.50000000  0.00000000  0.50000000  1
  Li  Li4  1  0.00000000  0.50000000  0.50000000  1
  Li  Li5  1  0.04697876  0.80134344  0.90186283  1
  Se  Se6  1  0.76600124  0.85040850  0.49703625  1
  Se  Se7  1  0.02481993  0.90684428  0.45623067  1
  Ti  Ti8  1  0.37567465  0.34351738  0.89600518  1
  O  O9  1  0.34919085  0.37920481  0.34368252  1
  O  O10  1  0.56527280  0.71950840  0.40591729  1
  O  O11  1  0.33723427  0.62279443  0.20798254  1
