# generated using pymatgen
data_Li2MnSb4P2N
_symmetry_space_group_name_H-M   'P 1'
_cell_length_a   4.07172799
_cell_length_b   4.37986383
_cell_length_c   6.40862424
_cell_angle_alpha   101.75943393
_cell_angle_beta   102.34449565
_cell_angle_gamma   99.54104543
_symmetry_Int_Tables_number   1
_chemical_formula_structural   Li2MnSb4P2N
_chemical_formula_sum   'Li2 Mn1 Sb4 P2 N1'
_cell_volume   106.65307305
_cell_formula_units_Z   1
loop_
 _symmetry_equiv_pos_site_id
 _symmetry_equiv_pos_as_xyz
  1  'x, y, z'
loop_
 _atom_site_type_symbol
 _atom_site_label
 _atom_site_symmetry_multiplicity
 _atom_site_fract_x
 _atom_site_fract_y
 _atom_site_fract_z
 _atom_site_occupancy
  N  N0  1  0.12500000  0.00000000  0.25000000  1
  Mn  Mn1  1  0.00000000  0.00000000  0.00000000  1
  Sb  Sb2  1  0.37500000  0.00000000  0.25000000  1
  Sb  Sb3  1  0.25000000  0.25000000  0.25000000  1
  Sb  Sb4  1  0.00000000  0.25000000  0.12500000  1
  Sb  Sb5  1  0.99010961  0.93641434  0.42032759  1
  P  P6  1  0.25172668  0.04232483  0.01522709  1
  P  P7  1  0.66306845  0.66252906  0.10479618  1
  Li  Li8  1  0.47715937  0.89005031  0.64818642  1
  Li  Li9  1  0.59100047  0.17880522  0.33470746  1
