# generated using pymatgen
data_Li3LuNi2P3O2
_symmetry_space_group_name_H-M   'P 1'
_cell_length_a   6.58581146
_cell_length_b   6.22450120
_cell_length_c   7.56220681
_cell_angle_alpha   95.14678285
_cell_angle_beta   95.04442770
_cell_angle_gamma   94.92625915
_symmetry_Int_Tables_number   1
_chemical_formula_structural   Li3LuNi2P3O2
_chemical_formula_sum   'Li3 Lu1 Ni2 P3 O2'
_cell_volume   306.17822574
_cell_formula_units_Z   1
loop_
 _symmetry_equiv_pos_site_id
 _symmetry_equiv_pos_as_xyz
  1  'x, y, z'
loop_
 _atom_site_type_symbol
 _atom_site_label
 _atom_site_symmetry_multiplicity
 _atom_site_fract_x
 _atom_site_fract_y
 _atom_site_fract_z
 _atom_site_occupancy
  P  P0  1  0.00000000  0.00000000  0.00000000  1
  P  P1  1  0.50000000  0.50000000  0.50000000  1
  P  P2  1  0.50000000  0.50000000  0.00000000  1
  Lu  Lu3  1  0.50000000  0.00000000  0.50000000  1
  Li  Li4  1  0.00000000  0.50000000  0.50000000  1
  Li  Li5  1  0.55575714  0.26307022  0.89884505  1
  Li  Li6  1  0.52291496  0.29204355  0.65562863  1
  Ni  Ni7  1  0.40909703  0.76009592  0.30024237  1
  Ni  Ni8  1  0.01518533  0.27405157  0.93578046  1
  O  O9  1  0.84671159  0.60807430  0.54147414  1
  O  O10  1  0.10511982  0.15238642  0.76768201  1
