# generated using pymatgen
data_LiMn2Sb4P3
_symmetry_space_group_name_H-M   'P 1'
_cell_length_a   5.47721000
_cell_length_b   5.81528749
_cell_length_c   6.55026377
_cell_angle_alpha   92.40709178
_cell_angle_beta   93.42085250
_cell_angle_gamma   93.11987198
_symmetry_Int_Tables_number   1
_chemical_formula_structural   LiMn2Sb4P3
_chemical_formula_sum   'Li1 Mn2 Sb4 P3'
_cell_volume   207.74125160
_cell_formula_units_Z   1
loop_
 _symmetry_equiv_pos_site_id
 _symmetry_equiv_pos_as_xyz
  1  'x, y, z'
loop_
 _atom_site_type_symbol
 _atom_site_label
 _atom_site_symmetry_multiplicity
 _atom_site_fract_x
 _atom_site_fract_y
 _atom_site_fract_z
 _atom_site_occupancy
  Mn  Mn0  1  0.00000000  0.00000000  0.00000000  1
  Mn  Mn1  1  0.33300000  0.66700000  0.25000000  1
  Sb  Sb2  1  0.66700000  0.33300000  0.50000000  1
  Sb  Sb3  1  0.00000000  0.00000000  0.75000000  1
  Sb  Sb4  1  0.96701765  0.88433119  0.85498178  1
  Sb  Sb5  1  0.97786282  0.16567430  0.36592117  1
  P  P6  1  0.58465125  0.16631997  0.43105788  1
  P  P7  1  0.89304100  0.10938814  0.43069425  1
  P  P8  1  0.65793739  0.59335561  0.17130805  1
  Li  Li9  1  0.75701047  0.95003388  0.14384654  1
