# generated using pymatgen
data_Li2Mn2Sb4P3
_symmetry_space_group_name_H-M   'P 1'
_cell_length_a   5.02396827
_cell_length_b   5.32596221
_cell_length_c   6.06309715
_cell_angle_alpha   99.66178865
_cell_angle_beta   92.67530418
_cell_angle_gamma   98.67199155
_symmetry_Int_Tables_number   1
_chemical_formula_structural   Li2Mn2Sb4P3
_chemical_formula_sum   'Li2 Mn2 Sb4 P3'
_cell_volume   157.67168987
_cell_formula_units_Z   1
loop_
 _symmetry_equiv_pos_site_id
 _symmetry_equiv_pos_as_xyz
  1  'x, y, z'
loop_
 _atom_site_type_symbol
 _atom_site_label
 _atom_site_symmetry_multiplicity
 _atom_site_fract_x
 _atom_site_fract_y
 _atom_site_fract_z
 _atom_site_occupancy
  Mn  Mn0  1  0.12500000  0.12500000  0.12500000  1
  Mn  Mn1  1  0.50000000  0.50000000  0.50000000  1
  Sb  Sb2  1  0.25000000  0.25000000  0.25000000  1
  Sb  Sb3  1  0.75000000  0.75000000  0.75000000  1
  Sb  Sb4  1  0.26603623  0.85513274  0.59037934  1
  Sb  Sb5  1  0.72737642  0.86859227  0.65345556  1
  P  P6  1  0.16192318  0.98478599  0.42815482  1
  P  P7  1  0.89801591  0.06148467  0.79311309  1
  P  P8  1  0.59209536  0.68414666  0.33964701  1
  Li  Li9  1  0.83225914  0.59673247  0.91620933  1
  Li  Li10  1  0.41896403  0.65845157  0.70236929  1
