# generated using pymatgen
data_Li2MnSbMo2P3
_symmetry_space_group_name_H-M   'P 1'
_cell_length_a   3.54051977
_cell_length_b   3.71919788
_cell_length_c   6.44007078
_cell_angle_alpha   102.04123302
_cell_angle_beta   99.62252289
_cell_angle_gamma   102.99409994
_symmetry_Int_Tables_number   1
_chemical_formula_structural   Li2MnSbMo2P3
_chemical_formula_sum   'Li2 Mn1 Sb1 Mo2 P3'
_cell_volume   78.74732796
_cell_formula_units_Z   1
loop_
 _symmetry_equiv_pos_site_id
 _symmetry_equiv_pos_as_xyz
  1  'x, y, z'
loop_
 _atom_site_type_symbol
 _atom_site_label
 _atom_site_symmetry_multiplicity
 _atom_site_fract_x
 _atom_site_fract_y
 _atom_site_fract_z
 _atom_site_occupancy
  Mn  Mn0  1  0.12500000  0.00000000  0.25000000  1
  Sb  Sb1  1  0.00000000  0.00000000  0.00000000  1
  P  P2  1  0.37500000  0.00000000  0.25000000  1
  P  P3  1  0.25000000  0.25000000  0.25000000  1
  P  P4  1  0.00000000  0.25000000  0.12500000  1
  Mo  Mo5  1  0.15171408  0.21519724  0.73484601  1
  Mo  Mo6  1  0.30234675  0.13103391  0.44206241  1
  Li  Li7  1  0.94559431  0.46650887  0.24418706  1
  Li  Li8  1  0.11565692  0.19884207  0.34591885  1
