# generated using pymatgen
data_Li2Mn3(Sb2P)2
_symmetry_space_group_name_H-M   'P 1'
_cell_length_a   5.45612792
_cell_length_b   5.85119141
_cell_length_c   6.42984887
_cell_angle_alpha   99.71770582
_cell_angle_beta   93.82775965
_cell_angle_gamma   97.83294338
_symmetry_Int_Tables_number   1
_chemical_formula_structural   Li2Mn3(Sb2P)2
_chemical_formula_sum   'Li2 Mn3 Sb4 P2'
_cell_volume   199.59011278
_cell_formula_units_Z   1
loop_
 _symmetry_equiv_pos_site_id
 _symmetry_equiv_pos_as_xyz
  1  'x, y, z'
loop_
 _atom_site_type_symbol
 _atom_site_label
 _atom_site_symmetry_multiplicity
 _atom_site_fract_x
 _atom_site_fract_y
 _atom_site_fract_z
 _atom_site_occupancy
  Mn  Mn0  1  0.00000000  0.00000000  0.00000000  1
  Mn  Mn1  1  0.50000000  0.50000000  0.50000000  1
  Mn  Mn2  1  0.25000000  0.25000000  0.25000000  1
  Sb  Sb3  1  0.75000000  0.25000000  0.00000000  1
  Sb  Sb4  1  0.25000000  0.75000000  0.50000000  1
  Sb  Sb5  1  0.38109229  0.04141997  0.84569477  1
  Sb  Sb6  1  0.90707877  0.19476068  0.63326964  1
  P  P7  1  0.29990445  0.66709455  0.94847811  1
  P  P8  1  0.78683972  0.76619707  0.80181773  1
  Li  Li9  1  0.43712562  0.74916624  0.94619488  1
  Li  Li10  1  0.41266731  0.52106864  0.55586049  1
