# generated using pymatgen
data_Li2Mn3Sb4P3
_symmetry_space_group_name_H-M   'P 1'
_cell_length_a   5.22392500
_cell_length_b   5.53566038
_cell_length_c   6.33164394
_cell_angle_alpha   101.09342096
_cell_angle_beta   90.55419141
_cell_angle_gamma   100.87277278
_symmetry_Int_Tables_number   1
_chemical_formula_structural   Li2Mn3Sb4P3
_chemical_formula_sum   'Li2 Mn3 Sb4 P3'
_cell_volume   176.25015922
_cell_formula_units_Z   1
loop_
 _symmetry_equiv_pos_site_id
 _symmetry_equiv_pos_as_xyz
  1  'x, y, z'
loop_
 _atom_site_type_symbol
 _atom_site_label
 _atom_site_symmetry_multiplicity
 _atom_site_fract_x
 _atom_site_fract_y
 _atom_site_fract_z
 _atom_site_occupancy
  Mn  Mn0  1  0.12500000  0.12500000  0.12500000  1
  Mn  Mn1  1  0.50000000  0.50000000  0.50000000  1
  Mn  Mn2  1  0.25000000  0.25000000  0.25000000  1
  Sb  Sb3  1  0.75000000  0.75000000  0.75000000  1
  Sb  Sb4  1  0.44759317  0.95946793  0.53829820  1
  Sb  Sb5  1  0.58826736  0.53134008  0.19650577  1
  Sb  Sb6  1  0.46696996  0.91095050  0.43433265  1
  P  P7  1  0.24269132  0.19620775  0.64961848  1
  P  P8  1  0.60319992  0.14952340  0.93157890  1
  P  P9  1  0.98021291  0.55325476  0.88790943  1
  Li  Li10  1  0.35560051  0.67248824  0.99789340  1
  Li  Li11  1  0.80315837  0.33872742  0.55611350  1
