# generated using pymatgen
data_LiTiPS
_symmetry_space_group_name_H-M   'P 1'
_cell_length_a   6.83718049
_cell_length_b   6.90616257
_cell_length_c   7.23105962
_cell_angle_alpha   92.81518789
_cell_angle_beta   94.36139209
_cell_angle_gamma   93.04917519
_symmetry_Int_Tables_number   1
_chemical_formula_structural   LiTiPS
_chemical_formula_sum   'Li2 Ti2 P2 S2'
_cell_volume   339.48547504
_cell_formula_units_Z   2
loop_
 _symmetry_equiv_pos_site_id
 _symmetry_equiv_pos_as_xyz
  1  'x, y, z'
loop_
 _atom_site_type_symbol
 _atom_site_label
 _atom_site_symmetry_multiplicity
 _atom_site_fract_x
 _atom_site_fract_y
 _atom_site_fract_z
 _atom_site_occupancy
  P  P0  1  0.12500000  0.12500000  0.12500000  1
  P  P1  1  0.50000000  0.50000000  0.50000000  1
  Li  Li2  1  0.25000000  0.25000000  0.25000000  1
  Li  Li3  1  0.75000000  0.75000000  0.75000000  1
  S  S4  1  0.97382668  0.19877563  0.96196696  1
  S  S5  1  0.24308516  0.61412028  0.38193642  1
  Ti  Ti6  1  0.43683125  0.01143638  0.30923308  1
  Ti  Ti7  1  0.41734385  0.95992516  0.65840830  1
