# generated using pymatgen
data_LiTiAs3
_symmetry_space_group_name_H-M   'P 1'
_cell_length_a   7.91122675
_cell_length_b   7.86997076
_cell_length_c   8.20507391
_cell_angle_alpha   90.33978875
_cell_angle_beta   91.61661166
_cell_angle_gamma   90.38846927
_symmetry_Int_Tables_number   1
_chemical_formula_structural   LiTiAs3
_chemical_formula_sum   'Li2 Ti2 As6'
_cell_volume   510.63247171
_cell_formula_units_Z   2
loop_
 _symmetry_equiv_pos_site_id
 _symmetry_equiv_pos_as_xyz
  1  'x, y, z'
loop_
 _atom_site_type_symbol
 _atom_site_label
 _atom_site_symmetry_multiplicity
 _atom_site_fract_x
 _atom_site_fract_y
 _atom_site_fract_z
 _atom_site_occupancy
  Ti  Ti0  1  0.12500000  0.12500000  0.12500000  1
  Ti  Ti1  1  0.50000000  0.50000000  0.50000000  1
  As  As2  1  0.25000000  0.25000000  0.25000000  1
  As  As3  1  0.75000000  0.75000000  0.75000000  1
  As  As4  1  0.25162086  0.35045006  0.10424806  1
  As  As5  1  0.11513507  0.79736708  0.48285780  1
  As  As6  1  0.56171489  0.47563493  0.00753329  1
  As  As7  1  0.79499393  0.51321468  0.32478617  1
  Li  Li8  1  0.78006455  0.49758237  0.83999082  1
  Li  Li9  1  0.37873302  0.03997692  0.31577549  1
