# generated using pymatgen
data_Li3Ni2As6(I2O3)2
_symmetry_space_group_name_H-M   'P 1'
_cell_length_a   8.41443392
_cell_length_b   8.27567820
_cell_length_c   9.21248902
_cell_angle_alpha   90.00000000
_cell_angle_beta   90.00000000
_cell_angle_gamma   90.00000000
_symmetry_Int_Tables_number   1
_chemical_formula_structural   Li3Ni2As6(I2O3)2
_chemical_formula_sum   'Li3 Ni2 As6 I4 O6'
_cell_volume   641.51303098
_cell_formula_units_Z   1
loop_
 _symmetry_equiv_pos_site_id
 _symmetry_equiv_pos_as_xyz
  1  'x, y, z'
loop_
 _atom_site_type_symbol
 _atom_site_label
 _atom_site_symmetry_multiplicity
 _atom_site_fract_x
 _atom_site_fract_y
 _atom_site_fract_z
 _atom_site_occupancy
  I  I0  1  0.12500000  0.00000000  0.25000000  1
  I  I1  1  0.00000000  0.00000000  0.00000000  1
  I  I2  1  0.37500000  0.00000000  0.25000000  1
  I  I3  1  0.25000000  0.25000000  0.25000000  1
  Li  Li4  1  0.00000000  0.25000000  0.12500000  1
  Li  Li5  1  0.93023749  0.75272450  0.47061742  1
  Li  Li6  1  0.69166876  0.41997660  0.37039966  1
  Ni  Ni7  1  0.99108437  0.77810728  0.73004568  1
  Ni  Ni8  1  0.25752913  0.71079639  0.08472376  1
  As  As9  1  0.19836602  0.32096611  0.81049442  1
  As  As10  1  0.57076941  0.93419597  0.58126881  1
  As  As11  1  0.11591896  0.65946619  0.94482914  1
  As  As12  1  0.07037852  0.79115434  0.80046568  1
  As  As13  1  0.34057012  0.64492660  0.46287809  1
  As  As14  1  0.47735436  0.33525427  0.75451001  1
  O  O15  1  0.33818804  0.78646774  0.41387967  1
  O  O16  1  0.52931479  0.73372769  0.03701009  1
  O  O17  1  0.13207966  0.41278690  0.08734511  1
  O  O18  1  0.69958920  0.51750711  0.36243604  1
  O  O19  1  0.16421950  0.39049618  0.19728992  1
  O  O20  1  0.51762599  0.62800523  0.48531407  1
