# generated using pymatgen
data_LiMn2Sb4(MoP)2
_symmetry_space_group_name_H-M   'P 1'
_cell_length_a   4.53604384
_cell_length_b   4.58580785
_cell_length_c   5.71233721
_cell_angle_alpha   98.03101401
_cell_angle_beta   91.82127715
_cell_angle_gamma   97.14612119
_symmetry_Int_Tables_number   1
_chemical_formula_structural   LiMn2Sb4(MoP)2
_chemical_formula_sum   'Li1 Mn2 Sb4 Mo2 P2'
_cell_volume   116.59918799
_cell_formula_units_Z   1
loop_
 _symmetry_equiv_pos_site_id
 _symmetry_equiv_pos_as_xyz
  1  'x, y, z'
loop_
 _atom_site_type_symbol
 _atom_site_label
 _atom_site_symmetry_multiplicity
 _atom_site_fract_x
 _atom_site_fract_y
 _atom_site_fract_z
 _atom_site_occupancy
  Mn  Mn0  1  0.12500000  0.00000000  0.25000000  1
  Mn  Mn1  1  0.00000000  0.00000000  0.00000000  1
  Sb  Sb2  1  0.37500000  0.00000000  0.25000000  1
  Sb  Sb3  1  0.25000000  0.25000000  0.25000000  1
  Sb  Sb4  1  0.00000000  0.25000000  0.12500000  1
  Sb  Sb5  1  0.27050043  0.57781825  0.71578970  1
  P  P6  1  0.19391245  0.36777787  0.47884200  1
  P  P7  1  0.56461947  0.13661257  0.72068583  1
  Mo  Mo8  1  0.61266976  0.82170419  0.58709861  1
  Mo  Mo9  1  0.48338974  0.59823139  0.40710541  1
  Li  Li10  1  0.59155038  0.88617709  0.95793253  1
