# generated using pymatgen
data_Li2Mn2Sb4P2N
_symmetry_space_group_name_H-M   'P 1'
_cell_length_a   5.43712631
_cell_length_b   5.76619176
_cell_length_c   6.73194871
_cell_angle_alpha   98.15891822
_cell_angle_beta   98.19651238
_cell_angle_gamma   95.72714028
_symmetry_Int_Tables_number   1
_chemical_formula_structural   Li2Mn2Sb4P2N
_chemical_formula_sum   'Li2 Mn2 Sb4 P2 N1'
_cell_volume   205.22888507
_cell_formula_units_Z   1
loop_
 _symmetry_equiv_pos_site_id
 _symmetry_equiv_pos_as_xyz
  1  'x, y, z'
loop_
 _atom_site_type_symbol
 _atom_site_label
 _atom_site_symmetry_multiplicity
 _atom_site_fract_x
 _atom_site_fract_y
 _atom_site_fract_z
 _atom_site_occupancy
  N  N0  1  0.00000000  0.00000000  0.00000000  1
  Mn  Mn1  1  0.50000000  0.50000000  0.50000000  1
  Mn  Mn2  1  0.50000000  0.50000000  0.00000000  1
  Sb  Sb3  1  0.50000000  0.00000000  0.50000000  1
  Sb  Sb4  1  0.00000000  0.50000000  0.50000000  1
  Sb  Sb5  1  0.46398449  0.51672252  0.30426770  1
  Sb  Sb6  1  0.64538106  0.47074914  0.38259566  1
  P  P7  1  0.40706688  0.56069806  0.98722394  1
  P  P8  1  0.51496045  0.17675548  0.35206729  1
  Li  Li9  1  0.76167527  0.01842036  0.82121511  1
  Li  Li10  1  0.25229654  0.12997307  0.69983757  1
