# generated using pymatgen
data_Li2Mn2Sb4P3
_symmetry_space_group_name_H-M   'P 1'
_cell_length_a   5.67835220
_cell_length_b   6.11720836
_cell_length_c   6.96015937
_cell_angle_alpha   96.56510029
_cell_angle_beta   93.74364609
_cell_angle_gamma   96.91019970
_symmetry_Int_Tables_number   1
_chemical_formula_structural   Li2Mn2Sb4P3
_chemical_formula_sum   'Li2 Mn2 Sb4 P3'
_cell_volume   237.66857860
_cell_formula_units_Z   1
loop_
 _symmetry_equiv_pos_site_id
 _symmetry_equiv_pos_as_xyz
  1  'x, y, z'
loop_
 _atom_site_type_symbol
 _atom_site_label
 _atom_site_symmetry_multiplicity
 _atom_site_fract_x
 _atom_site_fract_y
 _atom_site_fract_z
 _atom_site_occupancy
  Mn  Mn0  1  0.12500000  0.00000000  0.25000000  1
  Mn  Mn1  1  0.00000000  0.00000000  0.00000000  1
  Sb  Sb2  1  0.37500000  0.00000000  0.25000000  1
  Sb  Sb3  1  0.25000000  0.25000000  0.25000000  1
  Sb  Sb4  1  0.00000000  0.25000000  0.12500000  1
  Sb  Sb5  1  0.94130849  0.61442946  0.79930349  1
  P  P6  1  0.51080194  0.50592306  0.47709551  1
  P  P7  1  0.14774785  0.65888951  0.66360089  1
  P  P8  1  0.34193500  0.61889238  0.05448173  1
  Li  Li9  1  0.15294613  0.38193317  0.14336121  1
  Li  Li10  1  0.69123428  0.02646230  0.12621224  1
