# generated using pymatgen
data_Li3Ni3P3W
_symmetry_space_group_name_H-M   'P 1'
_cell_length_a   4.87933657
_cell_length_b   4.69672686
_cell_length_c   5.66387590
_cell_angle_alpha   98.50794451
_cell_angle_beta   93.21594686
_cell_angle_gamma   96.09451652
_symmetry_Int_Tables_number   1
_chemical_formula_structural   Li3Ni3P3W
_chemical_formula_sum   'Li3 Ni3 P3 W1'
_cell_volume   127.30388500
_cell_formula_units_Z   1
loop_
 _symmetry_equiv_pos_site_id
 _symmetry_equiv_pos_as_xyz
  1  'x, y, z'
loop_
 _atom_site_type_symbol
 _atom_site_label
 _atom_site_symmetry_multiplicity
 _atom_site_fract_x
 _atom_site_fract_y
 _atom_site_fract_z
 _atom_site_occupancy
  Ni  Ni0  1  0.12500000  0.00000000  0.25000000  1
  Ni  Ni1  1  0.00000000  0.00000000  0.00000000  1
  Ni  Ni2  1  0.37500000  0.00000000  0.25000000  1
  W  W3  1  0.25000000  0.25000000  0.25000000  1
  P  P4  1  0.00000000  0.25000000  0.12500000  1
  P  P5  1  0.50415374  0.94471440  0.72290627  1
  P  P6  1  0.71692375  0.49073215  0.07607663  1
  Li  Li7  1  0.37540933  0.57106263  0.46280338  1
  Li  Li8  1  0.59653072  0.31709802  0.94732496  1
  Li  Li9  1  0.66076835  0.11587919  0.32212592  1
