# generated using pymatgen
data_Li3TiCu2P3I4
_symmetry_space_group_name_H-M   'P 1'
_cell_length_a   6.98185960
_cell_length_b   6.73607140
_cell_length_c   8.06552308
_cell_angle_alpha   93.74082848
_cell_angle_beta   93.53200586
_cell_angle_gamma   93.77116198
_symmetry_Int_Tables_number   1
_chemical_formula_structural   Li3TiCu2P3I4
_chemical_formula_sum   'Li3 Ti1 Cu2 P3 I4'
_cell_volume   376.86815768
_cell_formula_units_Z   1
loop_
 _symmetry_equiv_pos_site_id
 _symmetry_equiv_pos_as_xyz
  1  'x, y, z'
loop_
 _atom_site_type_symbol
 _atom_site_label
 _atom_site_symmetry_multiplicity
 _atom_site_fract_x
 _atom_site_fract_y
 _atom_site_fract_z
 _atom_site_occupancy
  I  I0  1  0.00000000  0.00000000  0.00000000  1
  I  I1  1  0.50000000  0.50000000  0.50000000  1
  I  I2  1  0.25000000  0.25000000  0.25000000  1
  I  I3  1  0.75000000  0.25000000  0.00000000  1
  P  P4  1  0.25000000  0.75000000  0.50000000  1
  P  P5  1  0.93836428  0.53120160  0.72514485  1
  P  P6  1  0.15183912  0.13420404  0.86311839  1
  Li  Li7  1  0.37712446  0.76130340  0.28449517  1
  Li  Li8  1  0.45317552  0.90384554  0.65075964  1
  Li  Li9  1  0.17236036  0.45339459  0.09222121  1
  Cu  Cu10  1  0.80607197  0.14963822  0.29062244  1
  Cu  Cu11  1  0.23863262  0.57343257  0.16738257  1
  Ti  Ti12  1  0.51101993  0.36905490  0.85040268  1
