# generated using pymatgen
data_Li2Lu(CuAs3)2
_symmetry_space_group_name_H-M   'P 1'
_cell_length_a   7.49749949
_cell_length_b   7.42795631
_cell_length_c   8.60175880
_cell_angle_alpha   91.31053272
_cell_angle_beta   92.18693873
_cell_angle_gamma   91.50533162
_symmetry_Int_Tables_number   1
_chemical_formula_structural   Li2Lu(CuAs3)2
_chemical_formula_sum   'Li2 Lu1 Cu2 As6'
_cell_volume   478.39059972
_cell_formula_units_Z   1
loop_
 _symmetry_equiv_pos_site_id
 _symmetry_equiv_pos_as_xyz
  1  'x, y, z'
loop_
 _atom_site_type_symbol
 _atom_site_label
 _atom_site_symmetry_multiplicity
 _atom_site_fract_x
 _atom_site_fract_y
 _atom_site_fract_z
 _atom_site_occupancy
  Lu  Lu0  1  0.12500000  0.00000000  0.25000000  1
  Li  Li1  1  0.00000000  0.00000000  0.00000000  1
  Li  Li2  1  0.37500000  0.00000000  0.25000000  1
  Cu  Cu3  1  0.25000000  0.25000000  0.25000000  1
  Cu  Cu4  1  0.00000000  0.25000000  0.12500000  1
  As  As5  1  0.53011798  0.57422318  0.61929854  1
  As  As6  1  0.87524135  0.93648435  0.50632397  1
  As  As7  1  0.74726892  0.59347333  0.16187521  1
  As  As8  1  0.52069242  0.45470368  0.02988198  1
  As  As9  1  0.32931725  0.42615411  0.57249815  1
  As  As10  1  0.97177527  0.28807797  0.39357628  1
