# generated using pymatgen
data_Li4LuNi2P4N5
_symmetry_space_group_name_H-M   'P 1'
_cell_length_a   7.43249497
_cell_length_b   7.05219556
_cell_length_c   8.86811598
_cell_angle_alpha   93.49759716
_cell_angle_beta   91.23654746
_cell_angle_gamma   94.05678930
_symmetry_Int_Tables_number   1
_chemical_formula_structural   Li4LuNi2P4N5
_chemical_formula_sum   'Li4 Lu1 Ni2 P4 N5'
_cell_volume   462.64105756
_cell_formula_units_Z   1
loop_
 _symmetry_equiv_pos_site_id
 _symmetry_equiv_pos_as_xyz
  1  'x, y, z'
loop_
 _atom_site_type_symbol
 _atom_site_label
 _atom_site_symmetry_multiplicity
 _atom_site_fract_x
 _atom_site_fract_y
 _atom_site_fract_z
 _atom_site_occupancy
  P  P0  1  0.12500000  0.00000000  0.25000000  1
  P  P1  1  0.00000000  0.00000000  0.00000000  1
  P  P2  1  0.37500000  0.00000000  0.25000000  1
  P  P3  1  0.25000000  0.25000000  0.25000000  1
  Lu  Lu4  1  0.00000000  0.25000000  0.12500000  1
  Li  Li5  1  0.09842092  0.64736581  0.65201055  1
  Li  Li6  1  0.63364401  0.15232325  0.01112686  1
  Li  Li7  1  0.46038693  0.86388066  0.62349112  1
  Li  Li8  1  0.39193445  0.31623542  0.66197766  1
  Ni  Ni9  1  0.49527762  0.99812785  0.62546611  1
  Ni  Ni10  1  0.16515753  0.09958055  0.27482544  1
  N  N11  1  0.33489490  0.86677079  0.01412266  1
  N  N12  1  0.28617626  0.27720458  0.76212343  1
  N  N13  1  0.76630486  0.34489374  0.87942024  1
  N  N14  1  0.60598841  0.45815418  0.32490017  1
  N  N15  1  0.30031345  0.75678305  0.03240056  1
