# generated using pymatgen
data_Li3Ni2P5O2
_symmetry_space_group_name_H-M   'P 1'
_cell_length_a   6.95307443
_cell_length_b   6.83895089
_cell_length_c   7.90329687
_cell_angle_alpha   95.23307533
_cell_angle_beta   95.84223777
_cell_angle_gamma   96.54755705
_symmetry_Int_Tables_number   1
_chemical_formula_structural   Li3Ni2P5O2
_chemical_formula_sum   'Li3 Ni2 P5 O2'
_cell_volume   369.40968308
_cell_formula_units_Z   1
loop_
 _symmetry_equiv_pos_site_id
 _symmetry_equiv_pos_as_xyz
  1  'x, y, z'
loop_
 _atom_site_type_symbol
 _atom_site_label
 _atom_site_symmetry_multiplicity
 _atom_site_fract_x
 _atom_site_fract_y
 _atom_site_fract_z
 _atom_site_occupancy
  P  P0  1  0.00000000  0.00000000  0.00000000  1
  P  P1  1  0.33300000  0.66700000  0.25000000  1
  P  P2  1  0.66700000  0.33300000  0.50000000  1
  P  P3  1  0.00000000  0.00000000  0.75000000  1
  P  P4  1  0.75450334  0.62487144  0.96000684  1
  Li  Li5  1  0.54977645  0.17495222  0.94074604  1
  Li  Li6  1  0.36210906  0.34453405  0.88097437  1
  Li  Li7  1  0.64654277  0.50065228  0.68590018  1
  Ni  Ni8  1  0.49259402  0.17981400  0.63119017  1
  Ni  Ni9  1  0.76466248  0.42045991  0.66571144  1
  O  O10  1  0.53168485  0.41272459  0.84929210  1
  O  O11  1  0.71088374  0.60021043  0.31050362  1
