# generated using pymatgen
data_Li3Ti2Cu2(I2O)2
_symmetry_space_group_name_H-M   'P 1'
_cell_length_a   7.42059106
_cell_length_b   7.50113111
_cell_length_c   6.98192530
_cell_angle_alpha   94.54588087
_cell_angle_beta   96.15715689
_cell_angle_gamma   95.85013399
_symmetry_Int_Tables_number   1
_chemical_formula_structural   Li3Ti2Cu2(I2O)2
_chemical_formula_sum   'Li3 Ti2 Cu2 I4 O2'
_cell_volume   382.77803863
_cell_formula_units_Z   1
loop_
 _symmetry_equiv_pos_site_id
 _symmetry_equiv_pos_as_xyz
  1  'x, y, z'
loop_
 _atom_site_type_symbol
 _atom_site_label
 _atom_site_symmetry_multiplicity
 _atom_site_fract_x
 _atom_site_fract_y
 _atom_site_fract_z
 _atom_site_occupancy
  I  I0  1  0.00000000  0.00000000  0.00000000  1
  I  I1  1  0.50000000  0.50000000  0.50000000  1
  I  I2  1  0.25000000  0.25000000  0.25000000  1
  I  I3  1  0.75000000  0.25000000  0.00000000  1
  Li  Li4  1  0.25000000  0.75000000  0.50000000  1
  Li  Li5  1  0.47101111  0.24287187  0.33461420  1
  Li  Li6  1  0.34869110  0.14208327  0.01363321  1
  Cu  Cu7  1  0.77781357  0.44121360  0.68750799  1
  Cu  Cu8  1  0.66875513  0.98242837  0.22097296  1
  Ti  Ti9  1  0.98912701  0.31546885  0.31849280  1
  Ti  Ti10  1  0.20188485  0.76341996  0.05805991  1
  O  O11  1  0.45241817  0.12307199  0.38305825  1
  O  O12  1  0.41536397  0.53443587  0.78196636  1
