# generated using pymatgen
data_Li3Ni2P3(SeO)2
_symmetry_space_group_name_H-M   'P 1'
_cell_length_a   8.05673983
_cell_length_b   7.78283340
_cell_length_c   7.68204628
_cell_angle_alpha   91.30883800
_cell_angle_beta   90.97684185
_cell_angle_gamma   91.51615447
_symmetry_Int_Tables_number   1
_chemical_formula_structural   Li3Ni2P3(SeO)2
_chemical_formula_sum   'Li3 Ni2 P3 Se2 O2'
_cell_volume   481.32768140
_cell_formula_units_Z   1
loop_
 _symmetry_equiv_pos_site_id
 _symmetry_equiv_pos_as_xyz
  1  'x, y, z'
loop_
 _atom_site_type_symbol
 _atom_site_label
 _atom_site_symmetry_multiplicity
 _atom_site_fract_x
 _atom_site_fract_y
 _atom_site_fract_z
 _atom_site_occupancy
  P  P0  1  0.00000000  0.00000000  0.00000000  1
  P  P1  1  0.50000000  0.50000000  0.50000000  1
  P  P2  1  0.50000000  0.50000000  0.00000000  1
  Li  Li3  1  0.50000000  0.00000000  0.50000000  1
  Li  Li4  1  0.00000000  0.50000000  0.50000000  1
  Li  Li5  1  0.49392362  0.77883807  0.97264258  1
  Se  Se6  1  0.57906545  0.83118831  0.80092920  1
  Se  Se7  1  0.18799156  0.76104506  0.80504600  1
  Ni  Ni8  1  0.49170419  0.07037644  0.59457420  1
  Ni  Ni9  1  0.67234622  0.99191159  0.48886170  1
  O  O10  1  0.55626729  0.63099328  0.34912862  1
  O  O11  1  0.01965941  0.70806969  0.25937165  1
