# generated using pymatgen
data_Li4Ti2Cu2(OF)3
_symmetry_space_group_name_H-M   'P 1'
_cell_length_a   4.71286107
_cell_length_b   4.79543517
_cell_length_c   6.62930491
_cell_angle_alpha   104.40734793
_cell_angle_beta   109.03941136
_cell_angle_gamma   105.91474362
_symmetry_Int_Tables_number   1
_chemical_formula_structural   Li4Ti2Cu2(OF)3
_chemical_formula_sum   'Li4 Ti2 Cu2 O3 F3'
_cell_volume   126.41877739
_cell_formula_units_Z   1
loop_
 _symmetry_equiv_pos_site_id
 _symmetry_equiv_pos_as_xyz
  1  'x, y, z'
loop_
 _atom_site_type_symbol
 _atom_site_label
 _atom_site_symmetry_multiplicity
 _atom_site_fract_x
 _atom_site_fract_y
 _atom_site_fract_z
 _atom_site_occupancy
  Li  Li0  1  0.00000000  0.00000000  0.00000000  1
  Li  Li1  1  0.50000000  0.50000000  0.50000000  1
  Li  Li2  1  0.25000000  0.25000000  0.25000000  1
  Li  Li3  1  0.75000000  0.25000000  0.00000000  1
  Cu  Cu4  1  0.25000000  0.75000000  0.50000000  1
  Cu  Cu5  1  0.45705320  0.89719541  0.31558741  1
  F  F6  1  0.10385551  0.19999583  0.10114771  1
  F  F7  1  0.86667681  0.30717722  0.23129233  1
  F  F8  1  0.10928469  0.91412668  0.64334856  1
  Ti  Ti9  1  0.55707175  0.48608605  0.82549515  1
  Ti  Ti10  1  0.40212122  0.10367638  0.89897965  1
  O  O11  1  0.16826662  0.82135026  0.31670948  1
  O  O12  1  0.87981265  0.14290911  0.70004536  1
  O  O13  1  0.63068996  0.48301791  0.03680162  1
