# generated using pymatgen
data_LiMn2Sb4P3
_symmetry_space_group_name_H-M   'P 1'
_cell_length_a   6.71062832
_cell_length_b   7.00717963
_cell_length_c   7.33011614
_cell_angle_alpha   92.50147461
_cell_angle_beta   92.11104714
_cell_angle_gamma   92.66626863
_symmetry_Int_Tables_number   1
_chemical_formula_structural   LiMn2Sb4P3
_chemical_formula_sum   'Li1 Mn2 Sb4 P3'
_cell_volume   343.71875673
_cell_formula_units_Z   1
loop_
 _symmetry_equiv_pos_site_id
 _symmetry_equiv_pos_as_xyz
  1  'x, y, z'
loop_
 _atom_site_type_symbol
 _atom_site_label
 _atom_site_symmetry_multiplicity
 _atom_site_fract_x
 _atom_site_fract_y
 _atom_site_fract_z
 _atom_site_occupancy
  Mn  Mn0  1  0.00000000  0.00000000  0.00000000  1
  Mn  Mn1  1  0.33300000  0.66700000  0.25000000  1
  Sb  Sb2  1  0.66700000  0.33300000  0.50000000  1
  Sb  Sb3  1  0.00000000  0.00000000  0.75000000  1
  Sb  Sb4  1  0.47709602  0.34524015  0.73686800  1
  Sb  Sb5  1  0.26916232  0.10040660  0.35005040  1
  P  P6  1  0.30949772  0.12000556  0.65670833  1
  P  P7  1  0.45495431  0.53761905  0.40772301  1
  P  P8  1  0.85401522  0.17172693  0.30666103  1
  Li  Li9  1  0.20048741  0.46995726  0.37870393  1
