# generated using pymatgen
data_Li3Ti(PI)4
_symmetry_space_group_name_H-M   'P 1'
_cell_length_a   6.37162516
_cell_length_b   6.08488963
_cell_length_c   7.63715611
_cell_angle_alpha   96.16632063
_cell_angle_beta   96.31414396
_cell_angle_gamma   95.79654569
_symmetry_Int_Tables_number   1
_chemical_formula_structural   Li3Ti(PI)4
_chemical_formula_sum   'Li3 Ti1 P4 I4'
_cell_volume   290.68562035
_cell_formula_units_Z   1
loop_
 _symmetry_equiv_pos_site_id
 _symmetry_equiv_pos_as_xyz
  1  'x, y, z'
loop_
 _atom_site_type_symbol
 _atom_site_label
 _atom_site_symmetry_multiplicity
 _atom_site_fract_x
 _atom_site_fract_y
 _atom_site_fract_z
 _atom_site_occupancy
  P  P0  1  0.00000000  0.00000000  0.00000000  1
  P  P1  1  0.50000000  0.50000000  0.50000000  1
  P  P2  1  0.25000000  0.25000000  0.25000000  1
  P  P3  1  0.75000000  0.25000000  0.00000000  1
  I  I4  1  0.25000000  0.75000000  0.50000000  1
  I  I5  1  0.14894075  0.45916644  0.49850856  1
  I  I6  1  0.82553423  0.34286381  0.99450159  1
  I  I7  1  0.77331600  0.14076680  0.95053874  1
  Li  Li8  1  0.65315269  0.07776782  0.16469988  1
  Li  Li9  1  0.99074802  0.58615992  0.44367071  1
  Li  Li10  1  0.27752949  0.41355906  0.18741135  1
  Ti  Ti11  1  0.68795080  0.05662985  0.98614334  1
