# generated using pymatgen
data_Li4LuVP4N5
_symmetry_space_group_name_H-M   'P 1'
_cell_length_a   5.75505057
_cell_length_b   4.92309317
_cell_length_c   7.38220853
_cell_angle_alpha   100.15459724
_cell_angle_beta   93.59007653
_cell_angle_gamma   101.77810351
_symmetry_Int_Tables_number   1
_chemical_formula_structural   Li4LuVP4N5
_chemical_formula_sum   'Li4 Lu1 V1 P4 N5'
_cell_volume   200.48848124
_cell_formula_units_Z   1
loop_
 _symmetry_equiv_pos_site_id
 _symmetry_equiv_pos_as_xyz
  1  'x, y, z'
loop_
 _atom_site_type_symbol
 _atom_site_label
 _atom_site_symmetry_multiplicity
 _atom_site_fract_x
 _atom_site_fract_y
 _atom_site_fract_z
 _atom_site_occupancy
  P  P0  1  0.12500000  0.00000000  0.25000000  1
  P  P1  1  0.00000000  0.00000000  0.00000000  1
  P  P2  1  0.37500000  0.00000000  0.25000000  1
  P  P3  1  0.25000000  0.25000000  0.25000000  1
  Lu  Lu4  1  0.00000000  0.25000000  0.12500000  1
  Li  Li5  1  0.55602900  0.45831258  0.91471589  1
  Li  Li6  1  0.46750598  0.11123257  0.05003259  1
  Li  Li7  1  0.55045507  0.77335281  0.78011607  1
  Li  Li8  1  0.31499987  0.01273627  0.97441667  1
  V  V9  1  0.52829288  0.85656153  0.69856322  1
  N  N10  1  0.39726278  0.65446306  0.61248440  1
  N  N11  1  0.96414001  0.69815649  0.38466367  1
  N  N12  1  0.83026642  0.32531498  0.12758863  1
  N  N13  1  0.65326470  0.25214854  0.55255925  1
  N  N14  1  0.42990401  0.45326018  0.14049985  1
