# generated using pymatgen
data_Li3Ti(I2O)2
_symmetry_space_group_name_H-M   'P 1'
_cell_length_a   8.00970695
_cell_length_b   7.93948565
_cell_length_c   7.46944671
_cell_angle_alpha   91.35633827
_cell_angle_beta   92.21652570
_cell_angle_gamma   91.30413852
_symmetry_Int_Tables_number   1
_chemical_formula_structural   Li3Ti(I2O)2
_chemical_formula_sum   'Li3 Ti1 I4 O2'
_cell_volume   474.38251418
_cell_formula_units_Z   1
loop_
 _symmetry_equiv_pos_site_id
 _symmetry_equiv_pos_as_xyz
  1  'x, y, z'
loop_
 _atom_site_type_symbol
 _atom_site_label
 _atom_site_symmetry_multiplicity
 _atom_site_fract_x
 _atom_site_fract_y
 _atom_site_fract_z
 _atom_site_occupancy
  I  I0  1  0.12500000  0.00000000  0.25000000  1
  I  I1  1  0.00000000  0.00000000  0.00000000  1
  I  I2  1  0.37500000  0.00000000  0.25000000  1
  I  I3  1  0.25000000  0.25000000  0.25000000  1
  Li  Li4  1  0.00000000  0.25000000  0.12500000  1
  Li  Li5  1  0.18707477  0.49074660  0.29028307  1
  Li  Li6  1  0.98509371  0.67169231  0.64682366  1
  Ti  Ti7  1  0.34716225  0.81008686  0.37654338  1
  O  O8  1  0.99346455  0.50905152  0.79194685  1
  O  O9  1  0.14892671  0.34401549  0.49031033  1
