# generated using pymatgen
data_Li2Mn2Sb4P3
_symmetry_space_group_name_H-M   'P 1'
_cell_length_a   5.47390270
_cell_length_b   5.86771277
_cell_length_c   6.76367209
_cell_angle_alpha   98.07959414
_cell_angle_beta   93.03093097
_cell_angle_gamma   98.28477839
_symmetry_Int_Tables_number   1
_chemical_formula_structural   Li2Mn2Sb4P3
_chemical_formula_sum   'Li2 Mn2 Sb4 P3'
_cell_volume   212.24958143
_cell_formula_units_Z   1
loop_
 _symmetry_equiv_pos_site_id
 _symmetry_equiv_pos_as_xyz
  1  'x, y, z'
loop_
 _atom_site_type_symbol
 _atom_site_label
 _atom_site_symmetry_multiplicity
 _atom_site_fract_x
 _atom_site_fract_y
 _atom_site_fract_z
 _atom_site_occupancy
  Mn  Mn0  1  0.12500000  0.12500000  0.12500000  1
  Mn  Mn1  1  0.50000000  0.50000000  0.50000000  1
  Sb  Sb2  1  0.25000000  0.25000000  0.25000000  1
  Sb  Sb3  1  0.75000000  0.75000000  0.75000000  1
  Sb  Sb4  1  0.10671126  0.02603192  0.74232905  1
  Sb  Sb5  1  0.12667486  0.21708957  0.09930452  1
  P  P6  1  0.40830050  0.83327535  0.62388193  1
  P  P7  1  0.87562940  0.99869506  0.10207460  1
  P  P8  1  0.27669942  0.90726509  0.14352713  1
  Li  Li9  1  0.51877135  0.78004699  0.09994948  1
  Li  Li10  1  0.32835375  0.39941105  0.33399559  1
