# generated using pymatgen
data_Li2MnP3N
_symmetry_space_group_name_H-M   'P 1'
_cell_length_a   5.61840533
_cell_length_b   6.05776046
_cell_length_c   6.78491377
_cell_angle_alpha   95.45489224
_cell_angle_beta   94.87204247
_cell_angle_gamma   95.24619281
_symmetry_Int_Tables_number   1
_chemical_formula_structural   Li2MnP3N
_chemical_formula_sum   'Li2 Mn1 P3 N1'
_cell_volume   227.89227130
_cell_formula_units_Z   1
loop_
 _symmetry_equiv_pos_site_id
 _symmetry_equiv_pos_as_xyz
  1  'x, y, z'
loop_
 _atom_site_type_symbol
 _atom_site_label
 _atom_site_symmetry_multiplicity
 _atom_site_fract_x
 _atom_site_fract_y
 _atom_site_fract_z
 _atom_site_occupancy
  N  N0  1  0.12500000  0.00000000  0.25000000  1
  Mn  Mn1  1  0.00000000  0.00000000  0.00000000  1
  P  P2  1  0.37500000  0.00000000  0.25000000  1
  P  P3  1  0.25000000  0.25000000  0.25000000  1
  P  P4  1  0.00000000  0.25000000  0.12500000  1
  Li  Li5  1  0.63358886  0.74999911  0.70741601  1
  Li  Li6  1  0.94446520  0.04330030  0.14769538  1
