# generated using pymatgen
data_Li2Mn2Sb4P3N
_symmetry_space_group_name_H-M   'P 1'
_cell_length_a   6.59512993
_cell_length_b   7.16018208
_cell_length_c   6.71550706
_cell_angle_alpha   93.37054331
_cell_angle_beta   92.53910818
_cell_angle_gamma   93.21691642
_symmetry_Int_Tables_number   1
_chemical_formula_structural   Li2Mn2Sb4P3N
_chemical_formula_sum   'Li2 Mn2 Sb4 P3 N1'
_cell_volume   315.71382750
_cell_formula_units_Z   1
loop_
 _symmetry_equiv_pos_site_id
 _symmetry_equiv_pos_as_xyz
  1  'x, y, z'
loop_
 _atom_site_type_symbol
 _atom_site_label
 _atom_site_symmetry_multiplicity
 _atom_site_fract_x
 _atom_site_fract_y
 _atom_site_fract_z
 _atom_site_occupancy
  N  N0  1  0.00000000  0.00000000  0.00000000  1
  Mn  Mn1  1  0.50000000  0.50000000  0.50000000  1
  Mn  Mn2  1  0.25000000  0.25000000  0.25000000  1
  Sb  Sb3  1  0.75000000  0.25000000  0.00000000  1
  Sb  Sb4  1  0.25000000  0.75000000  0.50000000  1
  Sb  Sb5  1  0.66371405  0.06475065  0.41853840  1
  Sb  Sb6  1  0.03187035  0.27976842  0.14255475  1
  P  P7  1  0.25191774  0.45209413  0.24544951  1
  P  P8  1  0.04970336  0.95412471  0.24407993  1
  P  P9  1  0.42304564  0.91530898  0.27840692  1
  Li  Li10  1  0.03487007  0.36314761  0.09118191  1
  Li  Li11  1  0.06924534  0.30104160  0.54655397  1
