# generated using pymatgen
data_LiMn2Sb4P3
_symmetry_space_group_name_H-M   'P 1'
_cell_length_a   6.06650327
_cell_length_b   6.12469145
_cell_length_c   6.75873529
_cell_angle_alpha   91.22190234
_cell_angle_beta   92.03672910
_cell_angle_gamma   91.78423258
_symmetry_Int_Tables_number   1
_chemical_formula_structural   LiMn2Sb4P3
_chemical_formula_sum   'Li1 Mn2 Sb4 P3'
_cell_volume   250.78034353
_cell_formula_units_Z   1
loop_
 _symmetry_equiv_pos_site_id
 _symmetry_equiv_pos_as_xyz
  1  'x, y, z'
loop_
 _atom_site_type_symbol
 _atom_site_label
 _atom_site_symmetry_multiplicity
 _atom_site_fract_x
 _atom_site_fract_y
 _atom_site_fract_z
 _atom_site_occupancy
  Mn  Mn0  1  0.00000000  0.00000000  0.00000000  1
  Mn  Mn1  1  0.33300000  0.66700000  0.25000000  1
  Sb  Sb2  1  0.66700000  0.33300000  0.50000000  1
  Sb  Sb3  1  0.00000000  0.00000000  0.75000000  1
  Sb  Sb4  1  0.98390288  0.26489853  0.04496125  1
  Sb  Sb5  1  0.39026674  0.81483215  0.20219176  1
  P  P6  1  0.28993583  0.56928178  0.12042111  1
  P  P7  1  0.79025012  0.04813428  0.43389245  1
  P  P8  1  0.15150121  0.57019107  0.30550054  1
  Li  Li9  1  0.97995462  0.05369585  0.66569795  1
