# generated using pymatgen
data_LiMn3Mo2P3
_symmetry_space_group_name_H-M   'P 1'
_cell_length_a   5.14598562
_cell_length_b   5.16111609
_cell_length_c   6.61715990
_cell_angle_alpha   95.26787464
_cell_angle_beta   94.36439990
_cell_angle_gamma   95.30342121
_symmetry_Int_Tables_number   1
_chemical_formula_structural   LiMn3Mo2P3
_chemical_formula_sum   'Li1 Mn3 Mo2 P3'
_cell_volume   173.61865122
_cell_formula_units_Z   1
loop_
 _symmetry_equiv_pos_site_id
 _symmetry_equiv_pos_as_xyz
  1  'x, y, z'
loop_
 _atom_site_type_symbol
 _atom_site_label
 _atom_site_symmetry_multiplicity
 _atom_site_fract_x
 _atom_site_fract_y
 _atom_site_fract_z
 _atom_site_occupancy
  Mn  Mn0  1  0.12500000  0.00000000  0.25000000  1
  Mn  Mn1  1  0.00000000  0.00000000  0.00000000  1
  Mn  Mn2  1  0.37500000  0.00000000  0.25000000  1
  P  P3  1  0.25000000  0.25000000  0.25000000  1
  P  P4  1  0.00000000  0.25000000  0.12500000  1
  P  P5  1  0.11333500  0.55802727  0.91787844  1
  Mo  Mo6  1  0.20762374  0.45527878  0.97424173  1
  Mo  Mo7  1  0.59495875  0.30818961  0.09198870  1
  Li  Li8  1  0.01670747  0.70589150  0.46736366  1
