# generated using pymatgen
data_LiTiNiAs3F
_symmetry_space_group_name_H-M   'P 1'
_cell_length_a   7.13169171
_cell_length_b   7.05497479
_cell_length_c   8.54977228
_cell_angle_alpha   90.76399676
_cell_angle_beta   93.63486457
_cell_angle_gamma   90.87345230
_symmetry_Int_Tables_number   1
_chemical_formula_structural   LiTiNiAs3F
_chemical_formula_sum   'Li2 Ti2 Ni2 As6 F2'
_cell_volume   429.21310441
_cell_formula_units_Z   2
loop_
 _symmetry_equiv_pos_site_id
 _symmetry_equiv_pos_as_xyz
  1  'x, y, z'
loop_
 _atom_site_type_symbol
 _atom_site_label
 _atom_site_symmetry_multiplicity
 _atom_site_fract_x
 _atom_site_fract_y
 _atom_site_fract_z
 _atom_site_occupancy
  Li  Li0  1  0.00000000  0.00000000  0.00000000  1
  Li  Li1  1  0.50000000  0.50000000  0.50000000  1
  F  F2  1  0.25000000  0.25000000  0.25000000  1
  F  F3  1  0.75000000  0.25000000  0.00000000  1
  Ti  Ti4  1  0.25000000  0.75000000  0.50000000  1
  Ti  Ti5  1  0.87028336  0.15734019  0.31000891  1
  Ni  Ni6  1  0.22059010  0.49504524  0.45694565  1
  Ni  Ni7  1  0.91152577  0.39727211  0.46959515  1
  As  As8  1  0.61939461  0.90208731  0.78210101  1
  As  As9  1  0.77597132  0.12768691  0.02954487  1
  As  As10  1  0.60767228  0.22729364  0.37659649  1
  As  As11  1  0.69132266  0.66126875  0.33587862  1
  As  As12  1  0.92648252  0.31007025  0.19372934  1
  As  As13  1  0.48589476  0.85748941  0.31300704  1
