# generated using pymatgen
data_Li2Mn2P3
_symmetry_space_group_name_H-M   'P 1'
_cell_length_a   5.90638012
_cell_length_b   6.36954399
_cell_length_c   6.72408718
_cell_angle_alpha   94.77685092
_cell_angle_beta   93.65486284
_cell_angle_gamma   94.22395594
_symmetry_Int_Tables_number   1
_chemical_formula_structural   Li2Mn2P3
_chemical_formula_sum   'Li2 Mn2 P3'
_cell_volume   250.78089548
_cell_formula_units_Z   1
loop_
 _symmetry_equiv_pos_site_id
 _symmetry_equiv_pos_as_xyz
  1  'x, y, z'
loop_
 _atom_site_type_symbol
 _atom_site_label
 _atom_site_symmetry_multiplicity
 _atom_site_fract_x
 _atom_site_fract_y
 _atom_site_fract_z
 _atom_site_occupancy
  Mn  Mn0  1  0.00000000  0.00000000  0.00000000  1
  Mn  Mn1  1  0.50000000  0.50000000  0.50000000  1
  P  P2  1  0.25000000  0.25000000  0.25000000  1
  P  P3  1  0.75000000  0.25000000  0.00000000  1
  P  P4  1  0.25000000  0.75000000  0.50000000  1
  Li  Li5  1  0.91218713  0.07393370  0.37259682  1
  Li  Li6  1  0.19633292  0.32898770  0.99029636  1
