# generated using pymatgen
data_LiMn2(Sb2P)2
_symmetry_space_group_name_H-M   'P 1'
_cell_length_a   4.88271765
_cell_length_b   5.20121381
_cell_length_c   5.97572444
_cell_angle_alpha   98.33049010
_cell_angle_beta   95.00674809
_cell_angle_gamma   96.89375195
_symmetry_Int_Tables_number   1
_chemical_formula_structural   LiMn2(Sb2P)2
_chemical_formula_sum   'Li1 Mn2 Sb4 P2'
_cell_volume   148.22440835
_cell_formula_units_Z   1
loop_
 _symmetry_equiv_pos_site_id
 _symmetry_equiv_pos_as_xyz
  1  'x, y, z'
loop_
 _atom_site_type_symbol
 _atom_site_label
 _atom_site_symmetry_multiplicity
 _atom_site_fract_x
 _atom_site_fract_y
 _atom_site_fract_z
 _atom_site_occupancy
  Mn  Mn0  1  0.00000000  0.00000000  0.00000000  1
  Mn  Mn1  1  0.33300000  0.66700000  0.25000000  1
  Sb  Sb2  1  0.66700000  0.33300000  0.50000000  1
  Sb  Sb3  1  0.00000000  0.00000000  0.75000000  1
  Sb  Sb4  1  0.56175046  0.03495761  0.98023294  1
  Sb  Sb5  1  0.99032064  0.29723208  0.95434244  1
  P  P6  1  0.37356394  0.96484014  0.81177925  1
  P  P7  1  0.27013187  0.98667088  0.75520989  1
  Li  Li8  1  0.36232768  0.25613047  0.67136598  1
