# generated using pymatgen
data_Li4LuNi2P4N5
_symmetry_space_group_name_H-M   'P 1'
_cell_length_a   7.97135870
_cell_length_b   7.73615031
_cell_length_c   9.34545022
_cell_angle_alpha   91.35909654
_cell_angle_beta   90.48049770
_cell_angle_gamma   91.57638746
_symmetry_Int_Tables_number   1
_chemical_formula_structural   Li4LuNi2P4N5
_chemical_formula_sum   'Li4 Lu1 Ni2 P4 N5'
_cell_volume   575.90801909
_cell_formula_units_Z   1
loop_
 _symmetry_equiv_pos_site_id
 _symmetry_equiv_pos_as_xyz
  1  'x, y, z'
loop_
 _atom_site_type_symbol
 _atom_site_label
 _atom_site_symmetry_multiplicity
 _atom_site_fract_x
 _atom_site_fract_y
 _atom_site_fract_z
 _atom_site_occupancy
  P  P0  1  0.12500000  0.00000000  0.25000000  1
  P  P1  1  0.00000000  0.00000000  0.00000000  1
  P  P2  1  0.37500000  0.00000000  0.25000000  1
  P  P3  1  0.25000000  0.25000000  0.25000000  1
  Lu  Lu4  1  0.00000000  0.25000000  0.12500000  1
  Li  Li5  1  0.99117596  0.99138542  0.66270969  1
  Li  Li6  1  0.52301570  0.62038188  0.95671584  1
  Li  Li7  1  0.67032424  0.93700895  0.92919366  1
  Li  Li8  1  0.49551725  0.36920644  0.91150351  1
  Ni  Ni9  1  0.54249625  0.24922968  0.06718396  1
  Ni  Ni10  1  0.58512059  0.85625345  0.16519022  1
  N  N11  1  0.42568853  0.06419352  0.24626316  1
  N  N12  1  0.41034196  0.92819163  0.63789818  1
  N  N13  1  0.55824262  0.89219834  0.80732327  1
  N  N14  1  0.53872915  0.03908361  0.72522991  1
  N  N15  1  0.61328299  0.88078948  0.93586443  1
