# generated using pymatgen
data_Li4TiP8(I2O)2
_symmetry_space_group_name_H-M   'P 1'
_cell_length_a   8.09257355
_cell_length_b   8.06526144
_cell_length_c   7.61971385
_cell_angle_alpha   92.55925240
_cell_angle_beta   93.26757751
_cell_angle_gamma   92.40752938
_symmetry_Int_Tables_number   1
_chemical_formula_structural   Li4TiP8(I2O)2
_chemical_formula_sum   'Li4 Ti1 P8 I4 O2'
_cell_volume   495.53008150
_cell_formula_units_Z   1
loop_
 _symmetry_equiv_pos_site_id
 _symmetry_equiv_pos_as_xyz
  1  'x, y, z'
loop_
 _atom_site_type_symbol
 _atom_site_label
 _atom_site_symmetry_multiplicity
 _atom_site_fract_x
 _atom_site_fract_y
 _atom_site_fract_z
 _atom_site_occupancy
  I  I0  1  0.00000000  0.00000000  0.00000000  1
  I  I1  1  0.50000000  0.50000000  0.50000000  1
  I  I2  1  0.50000000  0.50000000  0.00000000  1
  I  I3  1  0.50000000  0.00000000  0.50000000  1
  P  P4  1  0.00000000  0.50000000  0.50000000  1
  P  P5  1  0.20567704  0.89101816  0.12080502  1
  P  P6  1  0.80772596  0.33987207  0.16808619  1
  P  P7  1  0.50810099  0.78176493  0.08605250  1
  P  P8  1  0.70790006  0.53456718  0.32767907  1
  P  P9  1  0.94037647  0.59511618  0.21668040  1
  P  P10  1  0.84981999  0.09671550  0.99123364  1
  P  P11  1  0.78591067  0.08091568  0.18760166  1
  Li  Li12  1  0.88010274  0.99071228  0.14822812  1
  Li  Li13  1  0.11296524  0.42610640  0.49887647  1
  Li  Li14  1  0.23488898  0.05672007  0.14767434  1
  Li  Li15  1  0.89195055  0.49829844  0.29252902  1
  Ti  Ti16  1  0.41972117  0.30383327  0.24459995  1
  O  O17  1  0.10076103  0.52860972  0.33958379  1
  O  O18  1  0.53236212  0.93852224  0.23689869  1
