# generated using pymatgen
data_LiSb4P3
_symmetry_space_group_name_H-M   'P 1'
_cell_length_a   5.10939220
_cell_length_b   5.41256684
_cell_length_c   6.55759429
_cell_angle_alpha   98.02952547
_cell_angle_beta   93.57371540
_cell_angle_gamma   98.20680602
_symmetry_Int_Tables_number   1
_chemical_formula_structural   LiSb4P3
_chemical_formula_sum   'Li1 Sb4 P3'
_cell_volume   177.10558505
_cell_formula_units_Z   1
loop_
 _symmetry_equiv_pos_site_id
 _symmetry_equiv_pos_as_xyz
  1  'x, y, z'
loop_
 _atom_site_type_symbol
 _atom_site_label
 _atom_site_symmetry_multiplicity
 _atom_site_fract_x
 _atom_site_fract_y
 _atom_site_fract_z
 _atom_site_occupancy
  Sb  Sb0  1  0.00000000  0.00000000  0.00000000  1
  Sb  Sb1  1  0.33300000  0.66700000  0.25000000  1
  Sb  Sb2  1  0.66700000  0.33300000  0.50000000  1
  Sb  Sb3  1  0.00000000  0.00000000  0.75000000  1
  P  P4  1  0.63058109  0.56480971  0.35461142  1
  P  P5  1  0.24745004  0.30662196  0.13542675  1
  P  P6  1  0.77312660  0.83751367  0.12386009  1
  Li  Li7  1  0.41851503  0.10385083  0.39161100  1
