# generated using pymatgen
data_Li2Mn2(SbP)3
_symmetry_space_group_name_H-M   'P 1'
_cell_length_a   6.40988152
_cell_length_b   6.94626324
_cell_length_c   7.24141654
_cell_angle_alpha   92.82118206
_cell_angle_beta   93.16719213
_cell_angle_gamma   93.13352342
_symmetry_Int_Tables_number   1
_chemical_formula_structural   Li2Mn2(SbP)3
_chemical_formula_sum   'Li2 Mn2 Sb3 P3'
_cell_volume   321.00669645
_cell_formula_units_Z   1
loop_
 _symmetry_equiv_pos_site_id
 _symmetry_equiv_pos_as_xyz
  1  'x, y, z'
loop_
 _atom_site_type_symbol
 _atom_site_label
 _atom_site_symmetry_multiplicity
 _atom_site_fract_x
 _atom_site_fract_y
 _atom_site_fract_z
 _atom_site_occupancy
  Mn  Mn0  1  0.12500000  0.12500000  0.12500000  1
  Mn  Mn1  1  0.50000000  0.50000000  0.50000000  1
  Sb  Sb2  1  0.25000000  0.25000000  0.25000000  1
  Sb  Sb3  1  0.75000000  0.75000000  0.75000000  1
  Sb  Sb4  1  0.56567957  0.42398537  0.01420158  1
  P  P5  1  0.21907174  0.58845135  0.38963416  1
  P  P6  1  0.05075654  0.56429997  0.66149062  1
  P  P7  1  0.32019650  0.81683255  0.20777487  1
  Li  Li8  1  0.94523826  0.00502146  0.85763568  1
  Li  Li9  1  0.29920512  0.15744613  0.21699328  1
