# generated using pymatgen
data_Li2Mn3Sb4P3
_symmetry_space_group_name_H-M   'P 1'
_cell_length_a   6.35950985
_cell_length_b   6.85037472
_cell_length_c   6.91811624
_cell_angle_alpha   95.74061910
_cell_angle_beta   90.28678275
_cell_angle_gamma   95.62643816
_symmetry_Int_Tables_number   1
_chemical_formula_structural   Li2Mn3Sb4P3
_chemical_formula_sum   'Li2 Mn3 Sb4 P3'
_cell_volume   298.39830682
_cell_formula_units_Z   1
loop_
 _symmetry_equiv_pos_site_id
 _symmetry_equiv_pos_as_xyz
  1  'x, y, z'
loop_
 _atom_site_type_symbol
 _atom_site_label
 _atom_site_symmetry_multiplicity
 _atom_site_fract_x
 _atom_site_fract_y
 _atom_site_fract_z
 _atom_site_occupancy
  Mn  Mn0  1  0.00000000  0.00000000  0.00000000  1
  Mn  Mn1  1  0.50000000  0.50000000  0.50000000  1
  Mn  Mn2  1  0.25000000  0.25000000  0.25000000  1
  Sb  Sb3  1  0.75000000  0.25000000  0.00000000  1
  Sb  Sb4  1  0.25000000  0.75000000  0.50000000  1
  Sb  Sb5  1  0.30825379  0.82847456  0.67388028  1
  Sb  Sb6  1  0.49989274  0.61573436  0.55552218  1
  P  P7  1  0.94995957  0.95330540  0.69109685  1
  P  P8  1  0.40525570  0.16851898  0.75620578  1
  P  P9  1  0.75752688  0.05577156  0.69641191  1
  Li  Li10  1  0.20228509  0.38313573  0.02499484  1
  Li  Li11  1  0.51772498  0.51671602  0.35523272  1
