# generated using pymatgen
data_Li2Sb2Se3OF2
_symmetry_space_group_name_H-M   'P 1'
_cell_length_a   8.24517465
_cell_length_b   8.40852712
_cell_length_c   8.24422501
_cell_angle_alpha   90.00000000
_cell_angle_beta   90.00000000
_cell_angle_gamma   90.00000000
_symmetry_Int_Tables_number   1
_chemical_formula_structural   Li2Sb2Se3OF2
_chemical_formula_sum   'Li2 Sb2 Se3 O1 F2'
_cell_volume   571.57026203
_cell_formula_units_Z   1
loop_
 _symmetry_equiv_pos_site_id
 _symmetry_equiv_pos_as_xyz
  1  'x, y, z'
loop_
 _atom_site_type_symbol
 _atom_site_label
 _atom_site_symmetry_multiplicity
 _atom_site_fract_x
 _atom_site_fract_y
 _atom_site_fract_z
 _atom_site_occupancy
  Li  Li0  1  0.00000000  0.00000000  0.00000000  1
  Li  Li1  1  0.50000000  0.50000000  0.50000000  1
  Sb  Sb2  1  0.50000000  0.50000000  0.00000000  1
  Sb  Sb3  1  0.50000000  0.00000000  0.50000000  1
  Se  Se4  1  0.00000000  0.50000000  0.50000000  1
  Se  Se5  1  0.47662013  0.17742281  0.10531740  1
  Se  Se6  1  0.24984927  0.42514538  0.61379033  1
  F  F7  1  0.29959665  0.61073532  0.55465909  1
  F  F8  1  0.73967253  0.93231390  0.40672246  1
  O  O9  1  0.49798161  0.38458905  0.03775267  1
