# generated using pymatgen
data_LiMn2Sb4P3
_symmetry_space_group_name_H-M   'P 1'
_cell_length_a   5.71070744
_cell_length_b   6.05612146
_cell_length_c   6.60340307
_cell_angle_alpha   93.05786673
_cell_angle_beta   92.39493551
_cell_angle_gamma   93.35535371
_symmetry_Int_Tables_number   1
_chemical_formula_structural   LiMn2Sb4P3
_chemical_formula_sum   'Li1 Mn2 Sb4 P3'
_cell_volume   227.42970867
_cell_formula_units_Z   1
loop_
 _symmetry_equiv_pos_site_id
 _symmetry_equiv_pos_as_xyz
  1  'x, y, z'
loop_
 _atom_site_type_symbol
 _atom_site_label
 _atom_site_symmetry_multiplicity
 _atom_site_fract_x
 _atom_site_fract_y
 _atom_site_fract_z
 _atom_site_occupancy
  Mn  Mn0  1  0.00000000  0.00000000  0.00000000  1
  Mn  Mn1  1  0.50000000  0.50000000  0.50000000  1
  Sb  Sb2  1  0.25000000  0.25000000  0.25000000  1
  Sb  Sb3  1  0.75000000  0.25000000  0.00000000  1
  Sb  Sb4  1  0.25000000  0.75000000  0.50000000  1
  Sb  Sb5  1  0.65859926  0.04689077  0.22058395  1
  P  P6  1  0.40801984  0.17647846  0.74455713  1
  P  P7  1  0.73760253  0.47241002  0.54701853  1
  P  P8  1  0.37062368  0.61229733  0.01169766  1
  Li  Li9  1  0.92815619  0.08943072  0.35102450  1
