# generated using pymatgen
data_Li2Mn2Sb4P3
_symmetry_space_group_name_H-M   'P 1'
_cell_length_a   5.55157513
_cell_length_b   5.79040023
_cell_length_c   6.67368539
_cell_angle_alpha   99.21585237
_cell_angle_beta   92.80479180
_cell_angle_gamma   99.43234140
_symmetry_Int_Tables_number   1
_chemical_formula_structural   Li2Mn2Sb4P3
_chemical_formula_sum   'Li2 Mn2 Sb4 P3'
_cell_volume   208.27545941
_cell_formula_units_Z   1
loop_
 _symmetry_equiv_pos_site_id
 _symmetry_equiv_pos_as_xyz
  1  'x, y, z'
loop_
 _atom_site_type_symbol
 _atom_site_label
 _atom_site_symmetry_multiplicity
 _atom_site_fract_x
 _atom_site_fract_y
 _atom_site_fract_z
 _atom_site_occupancy
  Mn  Mn0  1  0.00000000  0.00000000  0.00000000  1
  Mn  Mn1  1  0.33300000  0.66700000  0.25000000  1
  Sb  Sb2  1  0.66700000  0.33300000  0.50000000  1
  Sb  Sb3  1  0.00000000  0.00000000  0.75000000  1
  Sb  Sb4  1  0.41313328  0.97479153  0.27970790  1
  Sb  Sb5  1  0.01438366  0.67814801  0.48456703  1
  P  P6  1  0.08868867  0.80670123  0.35521173  1
  P  P7  1  0.12941733  0.96213269  0.73801578  1
  P  P8  1  0.38284582  0.41071181  0.58095890  1
  Li  Li9  1  0.76115070  0.64270096  0.93581390  1
  Li  Li10  1  0.73722743  0.13744054  0.51381541  1
