# generated using pymatgen
data_Li2Sb4Mo2P3
_symmetry_space_group_name_H-M   'P 1'
_cell_length_a   4.47618472
_cell_length_b   4.66997001
_cell_length_c   5.94547379
_cell_angle_alpha   104.61804139
_cell_angle_beta   90.73027003
_cell_angle_gamma   104.32728849
_symmetry_Int_Tables_number   1
_chemical_formula_structural   Li2Sb4Mo2P3
_chemical_formula_sum   'Li2 Sb4 Mo2 P3'
_cell_volume   116.14334487
_cell_formula_units_Z   1
loop_
 _symmetry_equiv_pos_site_id
 _symmetry_equiv_pos_as_xyz
  1  'x, y, z'
loop_
 _atom_site_type_symbol
 _atom_site_label
 _atom_site_symmetry_multiplicity
 _atom_site_fract_x
 _atom_site_fract_y
 _atom_site_fract_z
 _atom_site_occupancy
  Sb  Sb0  1  0.00000000  0.00000000  0.00000000  1
  Sb  Sb1  1  0.33300000  0.66700000  0.25000000  1
  Sb  Sb2  1  0.66700000  0.33300000  0.50000000  1
  Sb  Sb3  1  0.00000000  0.00000000  0.75000000  1
  P  P4  1  0.55603970  0.50021385  0.39856271  1
  P  P5  1  0.15099548  0.51744117  0.52090941  1
  P  P6  1  0.79572400  0.60291924  0.33738632  1
  Mo  Mo7  1  0.56092735  0.00055184  0.56618988  1
  Mo  Mo8  1  0.64614765  0.92833304  0.97816455  1
  Li  Li9  1  0.32539097  0.80230356  0.39030518  1
  Li  Li10  1  0.85843029  0.18488417  0.57426868  1
