# generated using pymatgen
data_Li2Mn3Sb4P3
_symmetry_space_group_name_H-M   'P 1'
_cell_length_a   6.25233577
_cell_length_b   6.40464982
_cell_length_c   6.92460234
_cell_angle_alpha   97.02703436
_cell_angle_beta   90.35104789
_cell_angle_gamma   96.88726662
_symmetry_Int_Tables_number   1
_chemical_formula_structural   Li2Mn3Sb4P3
_chemical_formula_sum   'Li2 Mn3 Sb4 P3'
_cell_volume   273.15932855
_cell_formula_units_Z   1
loop_
 _symmetry_equiv_pos_site_id
 _symmetry_equiv_pos_as_xyz
  1  'x, y, z'
loop_
 _atom_site_type_symbol
 _atom_site_label
 _atom_site_symmetry_multiplicity
 _atom_site_fract_x
 _atom_site_fract_y
 _atom_site_fract_z
 _atom_site_occupancy
  Mn  Mn0  1  0.00000000  0.00000000  0.00000000  1
  Mn  Mn1  1  0.33300000  0.66700000  0.25000000  1
  Mn  Mn2  1  0.66700000  0.33300000  0.50000000  1
  Sb  Sb3  1  0.00000000  0.00000000  0.75000000  1
  Sb  Sb4  1  0.74947409  0.84176978  0.82197719  1
  Sb  Sb5  1  0.70941716  0.41501917  0.59013745  1
  Sb  Sb6  1  0.28785229  0.11095408  0.77785848  1
  P  P7  1  0.89389930  0.79652551  0.20587555  1
  P  P8  1  0.43255972  0.77561768  0.75896123  1
  P  P9  1  0.80235670  0.10523145  0.08410691  1
  Li  Li10  1  0.08737858  0.33654054  0.95720744  1
  Li  Li11  1  0.23150355  0.52869657  0.54541579  1
