# generated using pymatgen
data_Li3LuNi2N5
_symmetry_space_group_name_H-M   'P 1'
_cell_length_a   8.02017468
_cell_length_b   7.74608639
_cell_length_c   8.19222532
_cell_angle_alpha   92.07451506
_cell_angle_beta   90.73342818
_cell_angle_gamma   92.40618633
_symmetry_Int_Tables_number   1
_chemical_formula_structural   Li3LuNi2N5
_chemical_formula_sum   'Li3 Lu1 Ni2 N5'
_cell_volume   508.10745028
_cell_formula_units_Z   1
loop_
 _symmetry_equiv_pos_site_id
 _symmetry_equiv_pos_as_xyz
  1  'x, y, z'
loop_
 _atom_site_type_symbol
 _atom_site_label
 _atom_site_symmetry_multiplicity
 _atom_site_fract_x
 _atom_site_fract_y
 _atom_site_fract_z
 _atom_site_occupancy
  Lu  Lu0  1  0.00000000  0.00000000  0.00000000  1
  Li  Li1  1  0.50000000  0.50000000  0.50000000  1
  Li  Li2  1  0.50000000  0.50000000  0.00000000  1
  Li  Li3  1  0.50000000  0.00000000  0.50000000  1
  Ni  Ni4  1  0.00000000  0.50000000  0.50000000  1
  Ni  Ni5  1  0.04293522  0.85160023  0.32517717  1
  N  N6  1  0.08581515  0.59460550  0.61241255  1
  N  N7  1  0.39376708  0.32295608  0.18992785  1
  N  N8  1  0.29463776  0.81616189  0.66580521  1
  N  N9  1  0.93317007  0.05074477  0.34372291  1
  N  N10  1  0.91132539  0.50501199  0.25594121  1
