# generated using pymatgen
data_Li4Ti2S2I5Cl2
_symmetry_space_group_name_H-M   'P 1'
_cell_length_a   6.49784280
_cell_length_b   6.12836437
_cell_length_c   8.43798109
_cell_angle_alpha   100.19602053
_cell_angle_beta   103.87264419
_cell_angle_gamma   99.37618611
_symmetry_Int_Tables_number   1
_chemical_formula_structural   Li4Ti2S2I5Cl2
_chemical_formula_sum   'Li4 Ti2 S2 I5 Cl2'
_cell_volume   313.55477318
_cell_formula_units_Z   1
loop_
 _symmetry_equiv_pos_site_id
 _symmetry_equiv_pos_as_xyz
  1  'x, y, z'
loop_
 _atom_site_type_symbol
 _atom_site_label
 _atom_site_symmetry_multiplicity
 _atom_site_fract_x
 _atom_site_fract_y
 _atom_site_fract_z
 _atom_site_occupancy
  Cl  Cl0  1  0.12500000  0.00000000  0.25000000  1
  Cl  Cl1  1  0.00000000  0.00000000  0.00000000  1
  S  S2  1  0.37500000  0.00000000  0.25000000  1
  S  S3  1  0.25000000  0.25000000  0.25000000  1
  Ti  Ti4  1  0.00000000  0.25000000  0.12500000  1
  Ti  Ti5  1  0.40507441  0.37833299  0.54516347  1
  I  I6  1  0.99172608  0.83366469  0.14249625  1
  I  I7  1  0.42435393  0.02380695  0.03798155  1
  I  I8  1  0.60821917  0.00675099  0.63963730  1
  I  I9  1  0.77792998  0.52352893  0.46398068  1
  I  I10  1  0.66098354  0.65117455  0.29753444  1
  Li  Li11  1  0.36552762  0.54863829  0.45538850  1
  Li  Li12  1  0.06119724  0.81750978  0.05867405  1
  Li  Li13  1  0.36541185  0.98458587  0.77813195  1
  Li  Li14  1  0.91421560  0.95946035  0.51672982  1
