# generated using pymatgen
data_LiMn2Mo2P3N
_symmetry_space_group_name_H-M   'P 1'
_cell_length_a   5.82786312
_cell_length_b   6.20457844
_cell_length_c   6.52644726
_cell_angle_alpha   93.98409502
_cell_angle_beta   92.62978014
_cell_angle_gamma   93.35067504
_symmetry_Int_Tables_number   1
_chemical_formula_structural   LiMn2Mo2P3N
_chemical_formula_sum   'Li1 Mn2 Mo2 P3 N1'
_cell_volume   234.72415756
_cell_formula_units_Z   1
loop_
 _symmetry_equiv_pos_site_id
 _symmetry_equiv_pos_as_xyz
  1  'x, y, z'
loop_
 _atom_site_type_symbol
 _atom_site_label
 _atom_site_symmetry_multiplicity
 _atom_site_fract_x
 _atom_site_fract_y
 _atom_site_fract_z
 _atom_site_occupancy
  N  N0  1  0.12500000  0.00000000  0.25000000  1
  Mn  Mn1  1  0.00000000  0.00000000  0.00000000  1
  Mn  Mn2  1  0.37500000  0.00000000  0.25000000  1
  P  P3  1  0.25000000  0.25000000  0.25000000  1
  P  P4  1  0.00000000  0.25000000  0.12500000  1
  P  P5  1  0.29569440  0.27933830  0.78872861  1
  Mo  Mo6  1  0.18496669  0.62176054  0.61093770  1
  Mo  Mo7  1  0.66129856  0.63150936  0.74387981  1
  Li  Li8  1  0.30244097  0.44637979  0.08872042  1
