# generated using pymatgen
data_LiTi3Nb2O4F3
_symmetry_space_group_name_H-M   'P 1'
_cell_length_a   7.00483589
_cell_length_b   6.80098910
_cell_length_c   8.14411816
_cell_angle_alpha   90.67795942
_cell_angle_beta   93.71244375
_cell_angle_gamma   90.75855496
_symmetry_Int_Tables_number   1
_chemical_formula_structural   LiTi3Nb2O4F3
_chemical_formula_sum   'Li1 Ti3 Nb2 O4 F3'
_cell_volume   387.10487074
_cell_formula_units_Z   1
loop_
 _symmetry_equiv_pos_site_id
 _symmetry_equiv_pos_as_xyz
  1  'x, y, z'
loop_
 _atom_site_type_symbol
 _atom_site_label
 _atom_site_symmetry_multiplicity
 _atom_site_fract_x
 _atom_site_fract_y
 _atom_site_fract_z
 _atom_site_occupancy
  Li  Li0  1  0.00000000  0.00000000  0.00000000  1
  Nb  Nb1  1  0.50000000  0.50000000  0.50000000  1
  Nb  Nb2  1  0.50000000  0.50000000  0.00000000  1
  F  F3  1  0.50000000  0.00000000  0.50000000  1
  F  F4  1  0.00000000  0.50000000  0.50000000  1
  F  F5  1  0.09486684  0.59070219  0.82887267  1
  Ti  Ti6  1  0.62849937  0.03818869  0.89868041  1
  Ti  Ti7  1  0.67524581  0.32962860  0.25979910  1
  Ti  Ti8  1  0.10302890  0.10177886  0.77771203  1
  O  O9  1  0.81168106  0.14090633  0.86898797  1
  O  O10  1  0.26806428  0.54521295  0.78376133  1
  O  O11  1  0.95809195  0.07734554  0.50869029  1
  O  O12  1  0.88060327  0.41915183  0.09637841  1
