# generated using pymatgen
data_LiMnP3
_symmetry_space_group_name_H-M   'P 1'
_cell_length_a   6.38676577
_cell_length_b   6.85174790
_cell_length_c   6.97479012
_cell_angle_alpha   93.13768668
_cell_angle_beta   91.35294995
_cell_angle_gamma   93.11802565
_symmetry_Int_Tables_number   1
_chemical_formula_structural   LiMnP3
_chemical_formula_sum   'Li1 Mn1 P3'
_cell_volume   304.20340729
_cell_formula_units_Z   1
loop_
 _symmetry_equiv_pos_site_id
 _symmetry_equiv_pos_as_xyz
  1  'x, y, z'
loop_
 _atom_site_type_symbol
 _atom_site_label
 _atom_site_symmetry_multiplicity
 _atom_site_fract_x
 _atom_site_fract_y
 _atom_site_fract_z
 _atom_site_occupancy
  Mn  Mn0  1  0.00000000  0.00000000  0.00000000  1
  P  P1  1  0.33300000  0.66700000  0.25000000  1
  P  P2  1  0.66700000  0.33300000  0.50000000  1
  P  P3  1  0.00000000  0.00000000  0.75000000  1
  Li  Li4  1  0.09035086  0.75777725  0.11150703  1
