# generated using pymatgen
data_Li3TiCu2(I2O)2
_symmetry_space_group_name_H-M   'P 1'
_cell_length_a   8.29473973
_cell_length_b   8.20840039
_cell_length_c   7.38316126
_cell_angle_alpha   90.91051663
_cell_angle_beta   91.48796474
_cell_angle_gamma   90.87547469
_symmetry_Int_Tables_number   1
_chemical_formula_structural   Li3TiCu2(I2O)2
_chemical_formula_sum   'Li3 Ti1 Cu2 I4 O2'
_cell_volume   502.39905675
_cell_formula_units_Z   1
loop_
 _symmetry_equiv_pos_site_id
 _symmetry_equiv_pos_as_xyz
  1  'x, y, z'
loop_
 _atom_site_type_symbol
 _atom_site_label
 _atom_site_symmetry_multiplicity
 _atom_site_fract_x
 _atom_site_fract_y
 _atom_site_fract_z
 _atom_site_occupancy
  I  I0  1  0.00000000  0.00000000  0.00000000  1
  I  I1  1  0.50000000  0.50000000  0.50000000  1
  I  I2  1  0.25000000  0.25000000  0.25000000  1
  I  I3  1  0.75000000  0.25000000  0.00000000  1
  Li  Li4  1  0.25000000  0.75000000  0.50000000  1
  Li  Li5  1  0.92079665  0.92919364  0.88637706  1
  Li  Li6  1  0.13620870  0.19746763  0.69150696  1
  Cu  Cu7  1  0.18096557  0.62384353  0.30613006  1
  Cu  Cu8  1  0.43739602  0.04904318  0.83672977  1
  Ti  Ti9  1  0.81154383  0.29307649  0.33254661  1
  O  O10  1  0.50103368  0.83927615  0.53214049  1
  O  O11  1  0.78715272  0.32763520  0.16860408  1
