# generated using pymatgen
data_Li2MnSb4P2N
_symmetry_space_group_name_H-M   'P 1'
_cell_length_a   5.50057203
_cell_length_b   5.71331954
_cell_length_c   7.08965314
_cell_angle_alpha   96.80421904
_cell_angle_beta   96.16975255
_cell_angle_gamma   96.93877845
_symmetry_Int_Tables_number   1
_chemical_formula_structural   Li2MnSb4P2N
_chemical_formula_sum   'Li2 Mn1 Sb4 P2 N1'
_cell_volume   217.93077865
_cell_formula_units_Z   1
loop_
 _symmetry_equiv_pos_site_id
 _symmetry_equiv_pos_as_xyz
  1  'x, y, z'
loop_
 _atom_site_type_symbol
 _atom_site_label
 _atom_site_symmetry_multiplicity
 _atom_site_fract_x
 _atom_site_fract_y
 _atom_site_fract_z
 _atom_site_occupancy
  N  N0  1  0.12500000  0.00000000  0.25000000  1
  Mn  Mn1  1  0.00000000  0.00000000  0.00000000  1
  Sb  Sb2  1  0.37500000  0.00000000  0.25000000  1
  Sb  Sb3  1  0.25000000  0.25000000  0.25000000  1
  Sb  Sb4  1  0.00000000  0.25000000  0.12500000  1
  Sb  Sb5  1  0.38275394  0.15836581  0.90308896  1
  P  P6  1  0.57128016  0.17477168  0.93832873  1
  P  P7  1  0.59010156  0.07639140  0.12054855  1
  Li  Li8  1  0.09746616  0.36051975  0.20485572  1
  Li  Li9  1  0.36303704  0.28964988  0.01089552  1
