# generated using pymatgen
data_Li2TiI4O3
_symmetry_space_group_name_H-M   'P 1'
_cell_length_a   8.25762592
_cell_length_b   8.14502339
_cell_length_c   7.28990392
_cell_angle_alpha   90.17451520
_cell_angle_beta   90.83029030
_cell_angle_gamma   90.19951747
_symmetry_Int_Tables_number   1
_chemical_formula_structural   Li2TiI4O3
_chemical_formula_sum   'Li2 Ti1 I4 O3'
_cell_volume   490.25160892
_cell_formula_units_Z   1
loop_
 _symmetry_equiv_pos_site_id
 _symmetry_equiv_pos_as_xyz
  1  'x, y, z'
loop_
 _atom_site_type_symbol
 _atom_site_label
 _atom_site_symmetry_multiplicity
 _atom_site_fract_x
 _atom_site_fract_y
 _atom_site_fract_z
 _atom_site_occupancy
  I  I0  1  0.00000000  0.00000000  0.00000000  1
  I  I1  1  0.50000000  0.50000000  0.50000000  1
  I  I2  1  0.25000000  0.25000000  0.25000000  1
  I  I3  1  0.75000000  0.25000000  0.00000000  1
  Li  Li4  1  0.25000000  0.75000000  0.50000000  1
  Li  Li5  1  0.62229133  0.64679273  0.81199154  1
  Ti  Ti6  1  0.24169143  0.34382359  0.86654647  1
  O  O7  1  0.34832107  0.20408600  0.93477986  1
  O  O8  1  0.78347209  0.92567628  0.48519108  1
  O  O9  1  0.27922646  0.70980675  0.78354249  1
