# generated using pymatgen
data_LiMn3Sb4P3
_symmetry_space_group_name_H-M   'P 1'
_cell_length_a   6.55458155
_cell_length_b   7.05623873
_cell_length_c   6.96474616
_cell_angle_alpha   91.83639567
_cell_angle_beta   90.83078216
_cell_angle_gamma   92.04604658
_symmetry_Int_Tables_number   1
_chemical_formula_structural   LiMn3Sb4P3
_chemical_formula_sum   'Li1 Mn3 Sb4 P3'
_cell_volume   321.71416370
_cell_formula_units_Z   1
loop_
 _symmetry_equiv_pos_site_id
 _symmetry_equiv_pos_as_xyz
  1  'x, y, z'
loop_
 _atom_site_type_symbol
 _atom_site_label
 _atom_site_symmetry_multiplicity
 _atom_site_fract_x
 _atom_site_fract_y
 _atom_site_fract_z
 _atom_site_occupancy
  Mn  Mn0  1  0.00000000  0.00000000  0.00000000  1
  Mn  Mn1  1  0.33300000  0.66700000  0.25000000  1
  Mn  Mn2  1  0.66700000  0.33300000  0.50000000  1
  Sb  Sb3  1  0.00000000  0.00000000  0.75000000  1
  Sb  Sb4  1  0.92442440  0.99930418  0.94854220  1
  Sb  Sb5  1  0.41028777  0.67563656  0.99017514  1
  Sb  Sb6  1  0.53309963  0.00611392  0.27935709  1
  P  P7  1  0.58602122  0.96593478  0.19087154  1
  P  P8  1  0.68337954  0.33927922  0.40476260  1
  P  P9  1  0.95511939  0.77661889  0.86904187  1
  Li  Li10  1  0.84156881  0.95152789  0.26353373  1
