# generated using pymatgen
data_Li2Mn2Ni3P3W
_symmetry_space_group_name_H-M   'P 1'
_cell_length_a   6.19162967
_cell_length_b   6.17543768
_cell_length_c   7.17870834
_cell_angle_alpha   94.19032846
_cell_angle_beta   92.71061191
_cell_angle_gamma   94.04965255
_symmetry_Int_Tables_number   1
_chemical_formula_structural   Li2Mn2Ni3P3W
_chemical_formula_sum   'Li2 Mn2 Ni3 P3 W1'
_cell_volume   272.68821153
_cell_formula_units_Z   1
loop_
 _symmetry_equiv_pos_site_id
 _symmetry_equiv_pos_as_xyz
  1  'x, y, z'
loop_
 _atom_site_type_symbol
 _atom_site_label
 _atom_site_symmetry_multiplicity
 _atom_site_fract_x
 _atom_site_fract_y
 _atom_site_fract_z
 _atom_site_occupancy
  Ni  Ni0  1  0.00000000  0.00000000  0.00000000  1
  Ni  Ni1  1  0.50000000  0.50000000  0.50000000  1
  Ni  Ni2  1  0.50000000  0.50000000  0.00000000  1
  Mn  Mn3  1  0.50000000  0.00000000  0.50000000  1
  Mn  Mn4  1  0.00000000  0.50000000  0.50000000  1
  W  W5  1  0.76141623  0.93625992  0.83818772  1
  P  P6  1  0.93836345  0.79861803  0.81344611  1
  P  P7  1  0.78122389  0.27004383  0.65825762  1
  P  P8  1  0.69960880  0.76646901  0.52885042  1
  Li  Li9  1  0.12061703  0.06724020  0.74250121  1
  Li  Li10  1  0.32362518  0.78579044  0.05225674  1
