# generated using pymatgen
data_Li3Zr2SbCl
_symmetry_space_group_name_H-M   'P 1'
_cell_length_a   5.72709725
_cell_length_b   6.29262677
_cell_length_c   7.06620556
_cell_angle_alpha   93.34144290
_cell_angle_beta   90.17142036
_cell_angle_gamma   95.68181513
_symmetry_Int_Tables_number   1
_chemical_formula_structural   Li3Zr2SbCl
_chemical_formula_sum   'Li3 Zr2 Sb1 Cl1'
_cell_volume   252.96358604
_cell_formula_units_Z   1
loop_
 _symmetry_equiv_pos_site_id
 _symmetry_equiv_pos_as_xyz
  1  'x, y, z'
loop_
 _atom_site_type_symbol
 _atom_site_label
 _atom_site_symmetry_multiplicity
 _atom_site_fract_x
 _atom_site_fract_y
 _atom_site_fract_z
 _atom_site_occupancy
  Sb  Sb0  1  0.00000000  0.00000000  0.00000000  1
  Cl  Cl1  1  0.50000000  0.50000000  0.50000000  1
  Zr  Zr2  1  0.50000000  0.50000000  0.00000000  1
  Zr  Zr3  1  0.50000000  0.00000000  0.50000000  1
  Li  Li4  1  0.00000000  0.50000000  0.50000000  1
  Li  Li5  1  0.61625666  0.17801543  0.66870126  1
  Li  Li6  1  0.94546330  0.10035775  0.24759753  1
