# generated using pymatgen
data_Li3Ti3(CuAs3)2
_symmetry_space_group_name_H-M   'P 1'
_cell_length_a   6.15247474
_cell_length_b   6.27955937
_cell_length_c   7.61321575
_cell_angle_alpha   97.56995041
_cell_angle_beta   99.39492153
_cell_angle_gamma   99.58926154
_symmetry_Int_Tables_number   1
_chemical_formula_structural   Li3Ti3(CuAs3)2
_chemical_formula_sum   'Li3 Ti3 Cu2 As6'
_cell_volume   282.29080683
_cell_formula_units_Z   1
loop_
 _symmetry_equiv_pos_site_id
 _symmetry_equiv_pos_as_xyz
  1  'x, y, z'
loop_
 _atom_site_type_symbol
 _atom_site_label
 _atom_site_symmetry_multiplicity
 _atom_site_fract_x
 _atom_site_fract_y
 _atom_site_fract_z
 _atom_site_occupancy
  Li  Li0  1  0.12500000  0.12500000  0.12500000  1
  Li  Li1  1  0.50000000  0.50000000  0.50000000  1
  Li  Li2  1  0.25000000  0.25000000  0.25000000  1
  Cu  Cu3  1  0.75000000  0.75000000  0.75000000  1
  Cu  Cu4  1  0.03862381  0.49671131  0.18013402  1
  Ti  Ti5  1  0.95693051  0.38347258  0.70766688  1
  Ti  Ti6  1  0.00117852  0.95617665  0.78022463  1
  Ti  Ti7  1  0.68323454  0.16877484  0.69928066  1
  As  As8  1  0.43511648  0.59973074  0.38570549  1
  As  As9  1  0.11294756  0.31458862  0.76855396  1
  As  As10  1  0.19127576  0.47699204  0.55430967  1
  As  As11  1  0.65346596  0.83562524  0.28482079  1
  As  As12  1  0.41497074  0.14968556  0.10639480  1
  As  As13  1  0.35613364  0.80174556  0.18324677  1
