# generated using pymatgen
data_LiTi2Nb2(OF)3
_symmetry_space_group_name_H-M   'P 1'
_cell_length_a   5.93617765
_cell_length_b   5.75772318
_cell_length_c   7.28072392
_cell_angle_alpha   93.69265322
_cell_angle_beta   96.79686008
_cell_angle_gamma   93.50490154
_symmetry_Int_Tables_number   1
_chemical_formula_structural   LiTi2Nb2(OF)3
_chemical_formula_sum   'Li1 Ti2 Nb2 O3 F3'
_cell_volume   245.99068621
_cell_formula_units_Z   1
loop_
 _symmetry_equiv_pos_site_id
 _symmetry_equiv_pos_as_xyz
  1  'x, y, z'
loop_
 _atom_site_type_symbol
 _atom_site_label
 _atom_site_symmetry_multiplicity
 _atom_site_fract_x
 _atom_site_fract_y
 _atom_site_fract_z
 _atom_site_occupancy
  Li  Li0  1  0.00000000  0.00000000  0.00000000  1
  Nb  Nb1  1  0.50000000  0.50000000  0.50000000  1
  Nb  Nb2  1  0.25000000  0.25000000  0.25000000  1
  F  F3  1  0.75000000  0.25000000  0.00000000  1
  F  F4  1  0.25000000  0.75000000  0.50000000  1
  F  F5  1  0.59015776  0.14793072  0.49881801  1
  Ti  Ti6  1  0.54265061  0.96935941  0.62629592  1
  Ti  Ti7  1  0.21934837  0.53374007  0.33654533  1
  O  O8  1  0.71418959  0.38602009  0.14463830  1
  O  O9  1  0.58195675  0.17378821  0.91763037  1
  O  O10  1  0.98739415  0.72219068  0.90436431  1
