# generated using pymatgen
data_Li3LuNi2(As3P2)2
_symmetry_space_group_name_H-M   'P 1'
_cell_length_a   7.43748967
_cell_length_b   7.12875196
_cell_length_c   8.81386157
_cell_angle_alpha   93.12229700
_cell_angle_beta   91.36893063
_cell_angle_gamma   93.62048673
_symmetry_Int_Tables_number   1
_chemical_formula_structural   Li3LuNi2(As3P2)2
_chemical_formula_sum   'Li3 Lu1 Ni2 As6 P4'
_cell_volume   465.51097913
_cell_formula_units_Z   1
loop_
 _symmetry_equiv_pos_site_id
 _symmetry_equiv_pos_as_xyz
  1  'x, y, z'
loop_
 _atom_site_type_symbol
 _atom_site_label
 _atom_site_symmetry_multiplicity
 _atom_site_fract_x
 _atom_site_fract_y
 _atom_site_fract_z
 _atom_site_occupancy
  P  P0  1  0.00000000  0.00000000  0.00000000  1
  P  P1  1  0.50000000  0.50000000  0.50000000  1
  P  P2  1  0.50000000  0.50000000  0.00000000  1
  P  P3  1  0.50000000  0.00000000  0.50000000  1
  Lu  Lu4  1  0.00000000  0.50000000  0.50000000  1
  Li  Li5  1  0.53027923  0.50094425  0.08408354  1
  Li  Li6  1  0.63542097  0.17822740  0.81772138  1
  Li  Li7  1  0.95829353  0.96289106  0.53428470  1
  Ni  Ni8  1  0.94832355  0.90882801  0.98929909  1
  Ni  Ni9  1  0.49491774  0.26977447  0.01673687  1
  As  As10  1  0.78041880  0.29753935  0.70245831  1
  As  As11  1  0.65495760  0.30002442  0.06945655  1
  As  As12  1  0.67145811  0.33790441  0.82843924  1
  As  As13  1  0.40185632  0.21148493  0.29584324  1
  As  As14  1  0.71675216  0.02213416  0.11684511  1
  As  As15  1  0.82856935  0.00575731  0.02143363  1
