# generated using pymatgen
data_Li4LuNi2P4N5
_symmetry_space_group_name_H-M   'P 1'
_cell_length_a   7.43249497
_cell_length_b   7.05219556
_cell_length_c   8.86811598
_cell_angle_alpha   93.49759716
_cell_angle_beta   91.23654746
_cell_angle_gamma   94.05678930
_symmetry_Int_Tables_number   1
_chemical_formula_structural   Li4LuNi2P4N5
_chemical_formula_sum   'Li4 Lu1 Ni2 P4 N5'
_cell_volume   462.64105756
_cell_formula_units_Z   1
loop_
 _symmetry_equiv_pos_site_id
 _symmetry_equiv_pos_as_xyz
  1  'x, y, z'
loop_
 _atom_site_type_symbol
 _atom_site_label
 _atom_site_symmetry_multiplicity
 _atom_site_fract_x
 _atom_site_fract_y
 _atom_site_fract_z
 _atom_site_occupancy
  P  P0  1  0.00000000  0.00000000  0.00000000  1
  P  P1  1  0.50000000  0.50000000  0.50000000  1
  P  P2  1  0.50000000  0.50000000  0.00000000  1
  P  P3  1  0.50000000  0.00000000  0.50000000  1
  Lu  Lu4  1  0.00000000  0.50000000  0.50000000  1
  Li  Li5  1  0.12573686  0.02129210  0.17491929  1
  Li  Li6  1  0.06696316  0.01970608  0.25924598  1
  Li  Li7  1  0.51795875  0.29318176  0.33101706  1
  Li  Li8  1  0.20353613  0.40637857  0.84978315  1
  Ni  Ni9  1  0.20895982  0.30924988  0.07322239  1
  Ni  Ni10  1  0.61953228  0.13598176  0.01933688  1
  N  N11  1  0.33910238  0.19153407  0.55548231  1
  N  N12  1  0.14672962  0.60790825  0.88453141  1
  N  N13  1  0.36502900  0.46603117  0.72629405  1
  N  N14  1  0.70229046  0.67447731  0.10705277  1
  N  N15  1  0.23992034  0.86471712  0.16624325  1
