# generated using pymatgen
data_Li4ZrCu2(NiAs3)2
_symmetry_space_group_name_H-M   'P 1'
_cell_length_a   6.38992982
_cell_length_b   6.11484754
_cell_length_c   8.19805055
_cell_angle_alpha   98.96325499
_cell_angle_beta   100.86058021
_cell_angle_gamma   98.63575988
_symmetry_Int_Tables_number   1
_chemical_formula_structural   Li4ZrCu2(NiAs3)2
_chemical_formula_sum   'Li4 Zr1 Cu2 Ni2 As6'
_cell_volume   305.38057701
_cell_formula_units_Z   1
loop_
 _symmetry_equiv_pos_site_id
 _symmetry_equiv_pos_as_xyz
  1  'x, y, z'
loop_
 _atom_site_type_symbol
 _atom_site_label
 _atom_site_symmetry_multiplicity
 _atom_site_fract_x
 _atom_site_fract_y
 _atom_site_fract_z
 _atom_site_occupancy
  Li  Li0  1  0.00000000  0.00000000  0.00000000  1
  Li  Li1  1  0.50000000  0.50000000  0.50000000  1
  Li  Li2  1  0.25000000  0.25000000  0.25000000  1
  Li  Li3  1  0.75000000  0.25000000  0.00000000  1
  Cu  Cu4  1  0.25000000  0.75000000  0.50000000  1
  Cu  Cu5  1  0.57672452  0.63212485  0.76286587  1
  Ni  Ni6  1  0.30083530  0.31322343  0.49151523  1
  Ni  Ni7  1  0.47571693  0.20631060  0.09964783  1
  As  As8  1  0.10631196  0.01228791  0.78502293  1
  As  As9  1  0.84704090  0.60959800  0.86622782  1
  As  As10  1  0.12753203  0.10171950  0.17406335  1
  As  As11  1  0.73779697  0.60361523  0.26085326  1
  As  As12  1  0.87378554  0.15281347  0.73893801  1
  As  As13  1  0.77171904  0.38385795  0.99127760  1
  Zr  Zr14  1  0.11537013  0.92944218  0.61879711  1
