# generated using pymatgen
data_LiMn2Sb3Mo2P3
_symmetry_space_group_name_H-M   'P 1'
_cell_length_a   4.65161811
_cell_length_b   4.84850960
_cell_length_c   5.98844846
_cell_angle_alpha   99.47732860
_cell_angle_beta   91.82723000
_cell_angle_gamma   99.61309897
_symmetry_Int_Tables_number   1
_chemical_formula_structural   LiMn2Sb3Mo2P3
_chemical_formula_sum   'Li1 Mn2 Sb3 Mo2 P3'
_cell_volume   131.10077322
_cell_formula_units_Z   1
loop_
 _symmetry_equiv_pos_site_id
 _symmetry_equiv_pos_as_xyz
  1  'x, y, z'
loop_
 _atom_site_type_symbol
 _atom_site_label
 _atom_site_symmetry_multiplicity
 _atom_site_fract_x
 _atom_site_fract_y
 _atom_site_fract_z
 _atom_site_occupancy
  Mn  Mn0  1  0.00000000  0.00000000  0.00000000  1
  Mn  Mn1  1  0.50000000  0.50000000  0.50000000  1
  Sb  Sb2  1  0.50000000  0.50000000  0.00000000  1
  Sb  Sb3  1  0.50000000  0.00000000  0.50000000  1
  Sb  Sb4  1  0.00000000  0.50000000  0.50000000  1
  P  P5  1  0.29060848  0.76361334  0.83699314  1
  P  P6  1  0.44116821  0.21971709  0.18519947  1
  P  P7  1  0.96264105  0.20191513  0.08105275  1
  Mo  Mo8  1  0.01390405  0.10665072  0.05257170  1
  Mo  Mo9  1  0.09180873  0.66823099  0.87385422  1
  Li  Li10  1  0.52168933  0.85103483  0.55152610  1
