# generated using pymatgen
data_Li2TiI4(ClO)2
_symmetry_space_group_name_H-M   'P 1'
_cell_length_a   8.30742255
_cell_length_b   8.11622860
_cell_length_c   8.39421329
_cell_angle_alpha   93.67419494
_cell_angle_beta   96.62713311
_cell_angle_gamma   93.49798457
_symmetry_Int_Tables_number   1
_chemical_formula_structural   Li2TiI4(ClO)2
_chemical_formula_sum   'Li2 Ti1 I4 Cl2 O2'
_cell_volume   559.70444910
_cell_formula_units_Z   1
loop_
 _symmetry_equiv_pos_site_id
 _symmetry_equiv_pos_as_xyz
  1  'x, y, z'
loop_
 _atom_site_type_symbol
 _atom_site_label
 _atom_site_symmetry_multiplicity
 _atom_site_fract_x
 _atom_site_fract_y
 _atom_site_fract_z
 _atom_site_occupancy
  I  I0  1  0.12500000  0.00000000  0.25000000  1
  I  I1  1  0.00000000  0.00000000  0.00000000  1
  I  I2  1  0.37500000  0.00000000  0.25000000  1
  I  I3  1  0.25000000  0.25000000  0.25000000  1
  Li  Li4  1  0.00000000  0.25000000  0.12500000  1
  Li  Li5  1  0.09611945  0.93100656  0.88916485  1
  Cl  Cl6  1  0.00464048  0.06587639  0.89724200  1
  Cl  Cl7  1  0.28481048  0.15976059  0.52099777  1
  Ti  Ti8  1  0.30146118  0.32708014  0.25172661  1
  O  O9  1  0.01124635  0.09723024  0.90016822  1
  O  O10  1  0.87692819  0.21231392  0.64235667  1
