# generated using pymatgen
data_Li2Mn3Sb4P3
_symmetry_space_group_name_H-M   'P 1'
_cell_length_a   6.51108492
_cell_length_b   7.02585955
_cell_length_c   6.99639712
_cell_angle_alpha   95.02614029
_cell_angle_beta   90.25108970
_cell_angle_gamma   94.92617034
_symmetry_Int_Tables_number   1
_chemical_formula_structural   Li2Mn3Sb4P3
_chemical_formula_sum   'Li2 Mn3 Sb4 P3'
_cell_volume   317.62574307
_cell_formula_units_Z   1
loop_
 _symmetry_equiv_pos_site_id
 _symmetry_equiv_pos_as_xyz
  1  'x, y, z'
loop_
 _atom_site_type_symbol
 _atom_site_label
 _atom_site_symmetry_multiplicity
 _atom_site_fract_x
 _atom_site_fract_y
 _atom_site_fract_z
 _atom_site_occupancy
  Mn  Mn0  1  0.00000000  0.00000000  0.00000000  1
  Mn  Mn1  1  0.33300000  0.66700000  0.25000000  1
  Mn  Mn2  1  0.66700000  0.33300000  0.50000000  1
  Sb  Sb3  1  0.00000000  0.00000000  0.75000000  1
  Sb  Sb4  1  0.90159546  0.89523981  0.79271313  1
  Sb  Sb5  1  0.26345240  0.15804648  0.86915047  1
  Sb  Sb6  1  0.15609318  0.56711638  0.95835353  1
  P  P7  1  0.07269455  0.51876781  0.47839983  1
  P  P8  1  0.95346680  0.85947916  0.10391950  1
  P  P9  1  0.57522501  0.12451878  0.06055741  1
  Li  Li10  1  0.04723364  0.49199777  0.19371701  1
  Li  Li11  1  0.51913415  0.46131559  0.95259992  1
