# generated using pymatgen
data_Li3Zr(ClO)2
_symmetry_space_group_name_H-M   'P 1'
_cell_length_a   7.84342705
_cell_length_b   7.73935431
_cell_length_c   8.91279082
_cell_angle_alpha   96.73124287
_cell_angle_beta   100.30119801
_cell_angle_gamma   96.35265490
_symmetry_Int_Tables_number   1
_chemical_formula_structural   Li3Zr(ClO)2
_chemical_formula_sum   'Li3 Zr1 Cl2 O2'
_cell_volume   523.82633495
_cell_formula_units_Z   1
loop_
 _symmetry_equiv_pos_site_id
 _symmetry_equiv_pos_as_xyz
  1  'x, y, z'
loop_
 _atom_site_type_symbol
 _atom_site_label
 _atom_site_symmetry_multiplicity
 _atom_site_fract_x
 _atom_site_fract_y
 _atom_site_fract_z
 _atom_site_occupancy
  Li  Li0  1  0.00000000  0.00000000  0.00000000  1
  Li  Li1  1  0.33300000  0.66700000  0.25000000  1
  Li  Li2  1  0.66700000  0.33300000  0.50000000  1
  Cl  Cl3  1  0.00000000  0.00000000  0.75000000  1
  Cl  Cl4  1  0.02270828  0.53622056  0.10047615  1
  O  O5  1  0.19361634  0.27707811  0.69120575  1
  O  O6  1  0.43306017  0.58380108  0.31800824  1
  Zr  Zr7  1  0.85861259  0.47586668  0.81806520  1
