# generated using pymatgen
data_Li3TiP3I4N5
_symmetry_space_group_name_H-M   'P 1'
_cell_length_a   7.32306713
_cell_length_b   7.02654968
_cell_length_c   7.62148437
_cell_angle_alpha   93.52110821
_cell_angle_beta   93.18636925
_cell_angle_gamma   93.45588734
_symmetry_Int_Tables_number   1
_chemical_formula_structural   Li3TiP3I4N5
_chemical_formula_sum   'Li3 Ti1 P3 I4 N5'
_cell_volume   390.02577769
_cell_formula_units_Z   1
loop_
 _symmetry_equiv_pos_site_id
 _symmetry_equiv_pos_as_xyz
  1  'x, y, z'
loop_
 _atom_site_type_symbol
 _atom_site_label
 _atom_site_symmetry_multiplicity
 _atom_site_fract_x
 _atom_site_fract_y
 _atom_site_fract_z
 _atom_site_occupancy
  I  I0  1  0.00000000  0.00000000  0.00000000  1
  I  I1  1  0.50000000  0.50000000  0.50000000  1
  I  I2  1  0.25000000  0.25000000  0.25000000  1
  I  I3  1  0.75000000  0.25000000  0.00000000  1
  P  P4  1  0.25000000  0.75000000  0.50000000  1
  P  P5  1  0.78424987  0.88554565  0.10165687  1
  P  P6  1  0.24836666  0.56126502  0.06427564  1
  Li  Li7  1  0.07677097  0.72751006  0.08692583  1
  Li  Li8  1  0.38113737  0.75156331  0.87131585  1
  Li  Li9  1  0.83350617  0.96010908  0.88563537  1
  Ti  Ti10  1  0.60405352  0.15497794  0.75399237  1
  N  N11  1  0.96098466  0.60156232  0.84436660  1
  N  N12  1  0.60309696  0.59702516  0.03348088  1
  N  N13  1  0.35402737  0.12469508  0.89482331  1
  N  N14  1  0.73727271  0.03562885  0.61347689  1
  N  N15  1  0.81213878  0.78440136  0.20627633  1
