# generated using pymatgen
data_Li2LuNi2(As3P2)2
_symmetry_space_group_name_H-M   'P 1'
_cell_length_a   7.46145744
_cell_length_b   7.49611865
_cell_length_c   8.55351408
_cell_angle_alpha   91.32136601
_cell_angle_beta   92.00419002
_cell_angle_gamma   91.52682712
_symmetry_Int_Tables_number   1
_chemical_formula_structural   Li2LuNi2(As3P2)2
_chemical_formula_sum   'Li2 Lu1 Ni2 As6 P4'
_cell_volume   477.81463773
_cell_formula_units_Z   1
loop_
 _symmetry_equiv_pos_site_id
 _symmetry_equiv_pos_as_xyz
  1  'x, y, z'
loop_
 _atom_site_type_symbol
 _atom_site_label
 _atom_site_symmetry_multiplicity
 _atom_site_fract_x
 _atom_site_fract_y
 _atom_site_fract_z
 _atom_site_occupancy
  P  P0  1  0.00000000  0.00000000  0.00000000  1
  P  P1  1  0.50000000  0.50000000  0.50000000  1
  P  P2  1  0.50000000  0.50000000  0.00000000  1
  P  P3  1  0.50000000  0.00000000  0.50000000  1
  Lu  Lu4  1  0.00000000  0.50000000  0.50000000  1
  Li  Li5  1  0.19349603  0.59834393  0.32867741  1
  Li  Li6  1  0.18474432  0.27029939  0.69936886  1
  Ni  Ni7  1  0.90705121  0.12445404  0.92598057  1
  Ni  Ni8  1  0.32274484  0.05866943  0.03225591  1
  As  As9  1  0.09539102  0.03153291  0.12884550  1
  As  As10  1  0.75188412  0.81538329  0.57062036  1
  As  As11  1  0.92638243  0.96868710  0.67690127  1
  As  As12  1  0.17129921  0.52370582  0.17531921  1
  As  As13  1  0.34552041  0.26875479  0.02261714  1
  As  As14  1  0.11691912  0.39503002  0.02083138  1
