# generated using pymatgen
data_Li2Ti2(PN)5
_symmetry_space_group_name_H-M   'P 1'
_cell_length_a   7.80994755
_cell_length_b   7.45620775
_cell_length_c   8.51288293
_cell_angle_alpha   92.21953002
_cell_angle_beta   91.08170070
_cell_angle_gamma   92.57326587
_symmetry_Int_Tables_number   1
_chemical_formula_structural   Li2Ti2(PN)5
_chemical_formula_sum   'Li2 Ti2 P5 N5'
_cell_volume   494.75027019
_cell_formula_units_Z   1
loop_
 _symmetry_equiv_pos_site_id
 _symmetry_equiv_pos_as_xyz
  1  'x, y, z'
loop_
 _atom_site_type_symbol
 _atom_site_label
 _atom_site_symmetry_multiplicity
 _atom_site_fract_x
 _atom_site_fract_y
 _atom_site_fract_z
 _atom_site_occupancy
  P  P0  1  0.00000000  0.00000000  0.00000000  1
  P  P1  1  0.50000000  0.50000000  0.50000000  1
  P  P2  1  0.25000000  0.25000000  0.25000000  1
  P  P3  1  0.75000000  0.25000000  0.00000000  1
  P  P4  1  0.25000000  0.75000000  0.50000000  1
  Li  Li5  1  0.31602779  0.18488709  0.82399502  1
  Li  Li6  1  0.19084134  0.61403029  0.00869952  1
  Ti  Ti7  1  0.81111745  0.35620627  0.81322199  1
  Ti  Ti8  1  0.66168210  0.47460852  0.41276875  1
  N  N9  1  0.32191951  0.98432133  0.36212570  1
  N  N10  1  0.59023669  0.45296778  0.65676471  1
  N  N11  1  0.43023075  0.34038409  0.25765418  1
  N  N12  1  0.59465160  0.78355546  0.88585924  1
  N  N13  1  0.88714864  0.00385036  0.57563573  1
