# generated using pymatgen
data_Li2Mn2Sb4P3
_symmetry_space_group_name_H-M   'P 1'
_cell_length_a   5.69507294
_cell_length_b   6.02142152
_cell_length_c   6.79518969
_cell_angle_alpha   97.85558609
_cell_angle_beta   92.15517200
_cell_angle_gamma   97.94482295
_symmetry_Int_Tables_number   1
_chemical_formula_structural   Li2Mn2Sb4P3
_chemical_formula_sum   'Li2 Mn2 Sb4 P3'
_cell_volume   228.24180560
_cell_formula_units_Z   1
loop_
 _symmetry_equiv_pos_site_id
 _symmetry_equiv_pos_as_xyz
  1  'x, y, z'
loop_
 _atom_site_type_symbol
 _atom_site_label
 _atom_site_symmetry_multiplicity
 _atom_site_fract_x
 _atom_site_fract_y
 _atom_site_fract_z
 _atom_site_occupancy
  Mn  Mn0  1  0.12500000  0.00000000  0.25000000  1
  Mn  Mn1  1  0.00000000  0.00000000  0.00000000  1
  Sb  Sb2  1  0.37500000  0.00000000  0.25000000  1
  Sb  Sb3  1  0.25000000  0.25000000  0.25000000  1
  Sb  Sb4  1  0.00000000  0.25000000  0.12500000  1
  Sb  Sb5  1  0.16430072  0.41091177  0.73484017  1
  P  P6  1  0.35268314  0.83951650  0.96316238  1
  P  P7  1  0.84094363  0.15892116  0.49212262  1
  P  P8  1  0.96294099  0.98620329  0.33032961  1
  Li  Li9  1  0.28962412  0.85806654  0.31288550  1
  Li  Li10  1  0.30417570  0.15032138  0.13044856  1
