# generated using pymatgen
data_Li4Ni2As6O7
_symmetry_space_group_name_H-M   'P 1'
_cell_length_a   8.31382661
_cell_length_b   8.17082894
_cell_length_c   9.64881384
_cell_angle_alpha   90.00000000
_cell_angle_beta   90.00000000
_cell_angle_gamma   90.00000000
_symmetry_Int_Tables_number   1
_chemical_formula_structural   Li4Ni2As6O7
_chemical_formula_sum   'Li4 Ni2 As6 O7'
_cell_volume   655.45217486
_cell_formula_units_Z   1
loop_
 _symmetry_equiv_pos_site_id
 _symmetry_equiv_pos_as_xyz
  1  'x, y, z'
loop_
 _atom_site_type_symbol
 _atom_site_label
 _atom_site_symmetry_multiplicity
 _atom_site_fract_x
 _atom_site_fract_y
 _atom_site_fract_z
 _atom_site_occupancy
  Li  Li0  1  0.12500000  0.12500000  0.12500000  1
  Li  Li1  1  0.50000000  0.50000000  0.50000000  1
  Li  Li2  1  0.25000000  0.25000000  0.25000000  1
  Li  Li3  1  0.75000000  0.75000000  0.75000000  1
  Ni  Ni4  1  0.71290385  0.07432003  0.77417271  1
  Ni  Ni5  1  0.36758062  0.14931706  0.67818624  1
  As  As6  1  0.91105566  0.53220343  0.75734013  1
  As  As7  1  0.84589556  0.32556529  0.49494668  1
  As  As8  1  0.40970752  0.38488254  0.25645837  1
  As  As9  1  0.13536296  0.26615947  0.38505286  1
  As  As10  1  0.92728795  0.69196204  0.08178251  1
  As  As11  1  0.60913076  0.48589917  0.52841515  1
  O  O12  1  0.97026633  0.07122203  0.06749188  1
  O  O13  1  0.21096651  0.19972979  0.65037703  1
  O  O14  1  0.04807870  0.19893046  0.32173688  1
  O  O15  1  0.48239504  0.11994302  0.28886035  1
  O  O16  1  0.57091335  0.09950463  0.32741825  1
  O  O17  1  0.78528295  0.51728060  0.30403012  1
  O  O18  1  0.31606149  0.00007920  0.83859828  1
