# generated using pymatgen
data_Li2Mn2Sb4P3
_symmetry_space_group_name_H-M   'P 1'
_cell_length_a   7.25038393
_cell_length_b   7.89761058
_cell_length_c   7.49068637
_cell_angle_alpha   90.85977506
_cell_angle_beta   91.01848300
_cell_angle_gamma   90.97853018
_symmetry_Int_Tables_number   1
_chemical_formula_structural   Li2Mn2Sb4P3
_chemical_formula_sum   'Li2 Mn2 Sb4 P3'
_cell_volume   428.74142524
_cell_formula_units_Z   1
loop_
 _symmetry_equiv_pos_site_id
 _symmetry_equiv_pos_as_xyz
  1  'x, y, z'
loop_
 _atom_site_type_symbol
 _atom_site_label
 _atom_site_symmetry_multiplicity
 _atom_site_fract_x
 _atom_site_fract_y
 _atom_site_fract_z
 _atom_site_occupancy
  Mn  Mn0  1  0.12500000  0.12500000  0.12500000  1
  Mn  Mn1  1  0.50000000  0.50000000  0.50000000  1
  Sb  Sb2  1  0.25000000  0.25000000  0.25000000  1
  Sb  Sb3  1  0.75000000  0.75000000  0.75000000  1
  Sb  Sb4  1  0.41507615  0.74110066  0.29867803  1
  Sb  Sb5  1  0.79907309  0.57000368  0.54134186  1
  P  P6  1  0.40246235  0.68031902  0.91043087  1
  P  P7  1  0.93125552  0.68903249  0.79392388  1
  P  P8  1  0.08255041  0.16490751  0.70740698  1
  Li  Li9  1  0.97468873  0.65776303  0.43775804  1
  Li  Li10  1  0.82361561  0.82166432  0.48886984  1
