# generated using pymatgen
data_LiNi3Mo2P3
_symmetry_space_group_name_H-M   'P 1'
_cell_length_a   4.20183342
_cell_length_b   4.27362638
_cell_length_c   6.12130759
_cell_angle_alpha   99.95450183
_cell_angle_beta   94.67665766
_cell_angle_gamma   100.37334884
_symmetry_Int_Tables_number   1
_chemical_formula_structural   LiNi3Mo2P3
_chemical_formula_sum   'Li1 Ni3 Mo2 P3'
_cell_volume   105.77389495
_cell_formula_units_Z   1
loop_
 _symmetry_equiv_pos_site_id
 _symmetry_equiv_pos_as_xyz
  1  'x, y, z'
loop_
 _atom_site_type_symbol
 _atom_site_label
 _atom_site_symmetry_multiplicity
 _atom_site_fract_x
 _atom_site_fract_y
 _atom_site_fract_z
 _atom_site_occupancy
  Ni  Ni0  1  0.00000000  0.00000000  0.00000000  1
  Ni  Ni1  1  0.50000000  0.50000000  0.50000000  1
  Ni  Ni2  1  0.25000000  0.25000000  0.25000000  1
  P  P3  1  0.75000000  0.25000000  0.00000000  1
  P  P4  1  0.25000000  0.75000000  0.50000000  1
  P  P5  1  0.43742904  0.19171156  0.38431539  1
  Mo  Mo6  1  0.22529114  0.83487942  0.93235871  1
  Mo  Mo7  1  0.99019302  0.09979163  0.82546733  1
  Li  Li8  1  0.37194451  0.99179013  0.73749166  1
