# generated using pymatgen
data_Li2MnSb4P3
_symmetry_space_group_name_H-M   'P 1'
_cell_length_a   5.22417710
_cell_length_b   5.45298318
_cell_length_c   7.21586308
_cell_angle_alpha   96.46110559
_cell_angle_beta   97.65377656
_cell_angle_gamma   97.35353590
_symmetry_Int_Tables_number   1
_chemical_formula_structural   Li2MnSb4P3
_chemical_formula_sum   'Li2 Mn1 Sb4 P3'
_cell_volume   200.29054353
_cell_formula_units_Z   1
loop_
 _symmetry_equiv_pos_site_id
 _symmetry_equiv_pos_as_xyz
  1  'x, y, z'
loop_
 _atom_site_type_symbol
 _atom_site_label
 _atom_site_symmetry_multiplicity
 _atom_site_fract_x
 _atom_site_fract_y
 _atom_site_fract_z
 _atom_site_occupancy
  Mn  Mn0  1  0.00000000  0.00000000  0.00000000  1
  Sb  Sb1  1  0.50000000  0.50000000  0.50000000  1
  Sb  Sb2  1  0.25000000  0.25000000  0.25000000  1
  Sb  Sb3  1  0.75000000  0.25000000  0.00000000  1
  Sb  Sb4  1  0.25000000  0.75000000  0.50000000  1
  P  P5  1  0.38237635  0.79490608  0.56360339  1
  P  P6  1  0.53686213  0.32184503  0.83788950  1
  P  P7  1  0.85704244  0.49362623  0.35105654  1
  Li  Li8  1  0.65296662  0.40204251  0.38470971  1
  Li  Li9  1  0.96646171  0.34250595  0.49342629  1
