# generated using pymatgen
data_Li2Sb4P3N
_symmetry_space_group_name_H-M   'P 1'
_cell_length_a   4.41923698
_cell_length_b   4.49928559
_cell_length_c   5.98979436
_cell_angle_alpha   102.71115476
_cell_angle_beta   94.73017799
_cell_angle_gamma   102.30517100
_symmetry_Int_Tables_number   1
_chemical_formula_structural   Li2Sb4P3N
_chemical_formula_sum   'Li2 Sb4 P3 N1'
_cell_volume   112.45924896
_cell_formula_units_Z   1
loop_
 _symmetry_equiv_pos_site_id
 _symmetry_equiv_pos_as_xyz
  1  'x, y, z'
loop_
 _atom_site_type_symbol
 _atom_site_label
 _atom_site_symmetry_multiplicity
 _atom_site_fract_x
 _atom_site_fract_y
 _atom_site_fract_z
 _atom_site_occupancy
  N  N0  1  0.12500000  0.00000000  0.25000000  1
  Sb  Sb1  1  0.00000000  0.00000000  0.00000000  1
  Sb  Sb2  1  0.37500000  0.00000000  0.25000000  1
  Sb  Sb3  1  0.25000000  0.25000000  0.25000000  1
  Sb  Sb4  1  0.00000000  0.25000000  0.12500000  1
  P  P5  1  0.07899193  0.13633084  0.88011416  1
  P  P6  1  0.06457463  0.48384109  0.71303220  1
  P  P7  1  0.14795496  0.81429459  0.63880632  1
  Li  Li8  1  0.55104541  0.29322894  0.12280427  1
  Li  Li9  1  0.27317707  0.04396309  0.75278402  1
