# generated using pymatgen
data_LiTiP3F
_symmetry_space_group_name_H-M   'P 1'
_cell_length_a   8.41367138
_cell_length_b   8.10241285
_cell_length_c   7.94469854
_cell_angle_alpha   90.17530082
_cell_angle_beta   90.83402806
_cell_angle_gamma   90.20041565
_symmetry_Int_Tables_number   1
_chemical_formula_structural   LiTiP3F
_chemical_formula_sum   'Li2 Ti2 P6 F2'
_cell_volume   541.53504245
_cell_formula_units_Z   2
loop_
 _symmetry_equiv_pos_site_id
 _symmetry_equiv_pos_as_xyz
  1  'x, y, z'
loop_
 _atom_site_type_symbol
 _atom_site_label
 _atom_site_symmetry_multiplicity
 _atom_site_fract_x
 _atom_site_fract_y
 _atom_site_fract_z
 _atom_site_occupancy
  P  P0  1  0.00000000  0.00000000  0.00000000  1
  P  P1  1  0.50000000  0.50000000  0.50000000  1
  P  P2  1  0.50000000  0.50000000  0.00000000  1
  P  P3  1  0.50000000  0.00000000  0.50000000  1
  P  P4  1  0.00000000  0.50000000  0.50000000  1
  P  P5  1  0.00400132  0.55440245  0.33381634  1
  Li  Li6  1  0.03014570  0.05875975  0.38033225  1
  Li  Li7  1  0.65531492  0.28540901  0.61321500  1
  F  F8  1  0.54723070  0.03875776  0.92981211  1
  F  F9  1  0.01038222  0.54585519  0.67021259  1
  Ti  Ti10  1  0.66409030  0.52593016  0.09063736  1
  Ti  Ti11  1  0.20212756  0.85187304  0.94643673  1
