# generated using pymatgen
data_Li2Sb2P3
_symmetry_space_group_name_H-M   'P 1'
_cell_length_a   4.55168512
_cell_length_b   4.75563266
_cell_length_c   6.01532897
_cell_angle_alpha   102.82089950
_cell_angle_beta   91.54603731
_cell_angle_gamma   102.61652992
_symmetry_Int_Tables_number   1
_chemical_formula_structural   Li2Sb2P3
_chemical_formula_sum   'Li2 Sb2 P3'
_cell_volume   123.50659612
_cell_formula_units_Z   1
loop_
 _symmetry_equiv_pos_site_id
 _symmetry_equiv_pos_as_xyz
  1  'x, y, z'
loop_
 _atom_site_type_symbol
 _atom_site_label
 _atom_site_symmetry_multiplicity
 _atom_site_fract_x
 _atom_site_fract_y
 _atom_site_fract_z
 _atom_site_occupancy
  Sb  Sb0  1  0.12500000  0.12500000  0.12500000  1
  Sb  Sb1  1  0.50000000  0.50000000  0.50000000  1
  P  P2  1  0.25000000  0.25000000  0.25000000  1
  P  P3  1  0.75000000  0.75000000  0.75000000  1
  P  P4  1  0.86350268  0.36223746  0.89208418  1
  Li  Li5  1  0.61825843  0.99979678  0.13084868  1
  Li  Li6  1  0.02448633  0.79605807  0.60090736  1
