# generated using pymatgen
data_LiZnTe3I2
_symmetry_space_group_name_H-M   'P 1'
_cell_length_a   8.57917761
_cell_length_b   8.82186772
_cell_length_c   7.96803057
_cell_angle_alpha   92.32172571
_cell_angle_beta   93.96729027
_cell_angle_gamma   92.19611087
_symmetry_Int_Tables_number   1
_chemical_formula_structural   LiZnTe3I2
_chemical_formula_sum   'Li2 Zn2 Te6 I4'
_cell_volume   600.60464973
_cell_formula_units_Z   2
loop_
 _symmetry_equiv_pos_site_id
 _symmetry_equiv_pos_as_xyz
  1  'x, y, z'
loop_
 _atom_site_type_symbol
 _atom_site_label
 _atom_site_symmetry_multiplicity
 _atom_site_fract_x
 _atom_site_fract_y
 _atom_site_fract_z
 _atom_site_occupancy
  I  I0  1  0.12500000  0.00000000  0.25000000  1
  I  I1  1  0.00000000  0.00000000  0.00000000  1
  I  I2  1  0.37500000  0.00000000  0.25000000  1
  I  I3  1  0.25000000  0.25000000  0.25000000  1
  Li  Li4  1  0.00000000  0.25000000  0.12500000  1
  Li  Li5  1  0.89495324  0.58977204  0.15044686  1
  Zn  Zn6  1  0.07991527  0.72464234  0.45286481  1
  Zn  Zn7  1  0.12591573  0.23031525  0.80207824  1
  Te  Te8  1  0.59418177  0.29143897  0.64336415  1
  Te  Te9  1  0.15876087  0.66503023  0.10886835  1
  Te  Te10  1  0.55745270  0.03184425  0.04571987  1
  Te  Te11  1  0.92818308  0.08349876  0.20694875  1
  Te  Te12  1  0.17421909  0.71912227  0.83019092  1
  Te  Te13  1  0.02211208  0.47099778  0.07952963  1
