# generated using pymatgen
data_Li3Al3As3SeO4
_symmetry_space_group_name_H-M   'P 1'
_cell_length_a   7.87182034
_cell_length_b   7.27202924
_cell_length_c   8.08759633
_cell_angle_alpha   90.00000000
_cell_angle_beta   90.00000000
_cell_angle_gamma   90.00000000
_symmetry_Int_Tables_number   1
_chemical_formula_structural   Li3Al3As3SeO4
_chemical_formula_sum   'Li3 Al3 As3 Se1 O4'
_cell_volume   462.96723549
_cell_formula_units_Z   1
loop_
 _symmetry_equiv_pos_site_id
 _symmetry_equiv_pos_as_xyz
  1  'x, y, z'
loop_
 _atom_site_type_symbol
 _atom_site_label
 _atom_site_symmetry_multiplicity
 _atom_site_fract_x
 _atom_site_fract_y
 _atom_site_fract_z
 _atom_site_occupancy
  Li  Li0  1  0.00000000  0.00000000  0.00000000  1
  Li  Li1  1  0.50000000  0.50000000  0.50000000  1
  Li  Li2  1  0.25000000  0.25000000  0.25000000  1
  Se  Se3  1  0.75000000  0.25000000  0.00000000  1
  Al  Al4  1  0.25000000  0.75000000  0.50000000  1
  Al  Al5  1  0.40668473  0.75136500  0.18925365  1
  Al  Al6  1  0.72408917  0.83583368  0.90484890  1
  As  As7  1  0.94323704  0.99430590  0.05577063  1
  As  As8  1  0.11493261  0.36310928  0.16130949  1
  As  As9  1  0.19430295  0.07154459  0.26082360  1
  O  O10  1  0.87008806  0.79382011  0.52166850  1
  O  O11  1  0.50852861  0.94744195  0.08140649  1
  O  O12  1  0.48776703  0.64739666  0.95286596  1
  O  O13  1  0.78508122  0.56901544  0.03761260  1
