# generated using pymatgen
data_LiMn2Sb4P3
_symmetry_space_group_name_H-M   'P 1'
_cell_length_a   4.63386466
_cell_length_b   4.83992586
_cell_length_c   6.06696967
_cell_angle_alpha   98.74491620
_cell_angle_beta   92.56706507
_cell_angle_gamma   99.07898455
_symmetry_Int_Tables_number   1
_chemical_formula_structural   LiMn2Sb4P3
_chemical_formula_sum   'Li1 Mn2 Sb4 P3'
_cell_volume   132.47051688
_cell_formula_units_Z   1
loop_
 _symmetry_equiv_pos_site_id
 _symmetry_equiv_pos_as_xyz
  1  'x, y, z'
loop_
 _atom_site_type_symbol
 _atom_site_label
 _atom_site_symmetry_multiplicity
 _atom_site_fract_x
 _atom_site_fract_y
 _atom_site_fract_z
 _atom_site_occupancy
  Mn  Mn0  1  0.12500000  0.00000000  0.25000000  1
  Mn  Mn1  1  0.00000000  0.00000000  0.00000000  1
  Sb  Sb2  1  0.37500000  0.00000000  0.25000000  1
  Sb  Sb3  1  0.25000000  0.25000000  0.25000000  1
  Sb  Sb4  1  0.00000000  0.25000000  0.12500000  1
  Sb  Sb5  1  0.54303063  0.39686129  0.21842559  1
  P  P6  1  0.15004591  0.95254320  0.91201406  1
  P  P7  1  0.03416872  0.43270688  0.16480510  1
  P  P8  1  0.05702968  0.76368742  0.49933688  1
  Li  Li9  1  0.31146365  0.53942262  0.40347258  1
