# generated using pymatgen
data_LiNbAl2Se5O
_symmetry_space_group_name_H-M   'P 1'
_cell_length_a   8.27447488
_cell_length_b   8.30956167
_cell_length_c   7.56618396
_cell_angle_alpha   90.00000000
_cell_angle_beta   90.00000000
_cell_angle_gamma   90.00000000
_symmetry_Int_Tables_number   1
_chemical_formula_structural   LiNbAl2Se5O
_chemical_formula_sum   'Li1 Nb1 Al2 Se5 O1'
_cell_volume   520.23007264
_cell_formula_units_Z   1
loop_
 _symmetry_equiv_pos_site_id
 _symmetry_equiv_pos_as_xyz
  1  'x, y, z'
loop_
 _atom_site_type_symbol
 _atom_site_label
 _atom_site_symmetry_multiplicity
 _atom_site_fract_x
 _atom_site_fract_y
 _atom_site_fract_z
 _atom_site_occupancy
  Li  Li0  1  0.00000000  0.00000000  0.00000000  1
  Nb  Nb1  1  0.50000000  0.50000000  0.50000000  1
  Se  Se2  1  0.50000000  0.50000000  0.00000000  1
  Se  Se3  1  0.50000000  0.00000000  0.50000000  1
  Se  Se4  1  0.00000000  0.50000000  0.50000000  1
  Se  Se5  1  0.79855790  0.28392562  0.93081093  1
  Se  Se6  1  0.87243837  0.97627425  0.99614193  1
  Al  Al7  1  0.86533883  0.87009023  0.81741211  1
  Al  Al8  1  0.68210695  0.17649154  0.00585948  1
  O  O9  1  0.41500106  0.96629137  0.80138393  1
