# generated using pymatgen
data_Li2Mn2Sb4P3
_symmetry_space_group_name_H-M   'P 1'
_cell_length_a   4.73258416
_cell_length_b   4.98777016
_cell_length_c   6.22675756
_cell_angle_alpha   102.50743574
_cell_angle_beta   91.91595526
_cell_angle_gamma   102.43846944
_symmetry_Int_Tables_number   1
_chemical_formula_structural   Li2Mn2Sb4P3
_chemical_formula_sum   'Li2 Mn2 Sb4 P3'
_cell_volume   139.63131910
_cell_formula_units_Z   1
loop_
 _symmetry_equiv_pos_site_id
 _symmetry_equiv_pos_as_xyz
  1  'x, y, z'
loop_
 _atom_site_type_symbol
 _atom_site_label
 _atom_site_symmetry_multiplicity
 _atom_site_fract_x
 _atom_site_fract_y
 _atom_site_fract_z
 _atom_site_occupancy
  Mn  Mn0  1  0.12500000  0.12500000  0.12500000  1
  Mn  Mn1  1  0.50000000  0.50000000  0.50000000  1
  Sb  Sb2  1  0.25000000  0.25000000  0.25000000  1
  Sb  Sb3  1  0.75000000  0.75000000  0.75000000  1
  Sb  Sb4  1  0.02188003  0.09439356  0.33646608  1
  Sb  Sb5  1  0.30806235  0.49126041  0.22643008  1
  P  P6  1  0.12398949  0.45566461  0.13907601  1
  P  P7  1  0.23283251  0.53475129  0.55358802  1
  P  P8  1  0.58791769  0.13912250  0.96599468  1
  Li  Li9  1  0.28533978  0.49846236  0.25096317  1
  Li  Li10  1  0.56014965  0.70774527  0.94536953  1
