# generated using pymatgen
data_Li2Mn2Sb4P2N
_symmetry_space_group_name_H-M   'P 1'
_cell_length_a   4.53038202
_cell_length_b   4.82921894
_cell_length_c   6.54059476
_cell_angle_alpha   100.78791981
_cell_angle_beta   96.64041215
_cell_angle_gamma   100.70050705
_symmetry_Int_Tables_number   1
_chemical_formula_structural   Li2Mn2Sb4P2N
_chemical_formula_sum   'Li2 Mn2 Sb4 P2 N1'
_cell_volume   136.43638064
_cell_formula_units_Z   1
loop_
 _symmetry_equiv_pos_site_id
 _symmetry_equiv_pos_as_xyz
  1  'x, y, z'
loop_
 _atom_site_type_symbol
 _atom_site_label
 _atom_site_symmetry_multiplicity
 _atom_site_fract_x
 _atom_site_fract_y
 _atom_site_fract_z
 _atom_site_occupancy
  N  N0  1  0.00000000  0.00000000  0.00000000  1
  Mn  Mn1  1  0.50000000  0.50000000  0.50000000  1
  Mn  Mn2  1  0.50000000  0.50000000  0.00000000  1
  Sb  Sb3  1  0.50000000  0.00000000  0.50000000  1
  Sb  Sb4  1  0.00000000  0.50000000  0.50000000  1
  Sb  Sb5  1  0.60345777  0.92086726  0.04852014  1
  Sb  Sb6  1  0.77315662  0.30611274  0.45163233  1
  P  P7  1  0.78021326  0.48054876  0.89351497  1
  P  P8  1  0.68480225  0.92761836  0.50341388  1
  Li  Li9  1  0.61062145  0.94120797  0.52751676  1
  Li  Li10  1  0.16357757  0.47412093  0.58677847  1
