# generated using pymatgen
data_Li3Ti2(CuP2)2
_symmetry_space_group_name_H-M   'P 1'
_cell_length_a   6.66604107
_cell_length_b   6.49970210
_cell_length_c   7.41996704
_cell_angle_alpha   94.02370757
_cell_angle_beta   96.16779767
_cell_angle_gamma   93.80218703
_symmetry_Int_Tables_number   1
_chemical_formula_structural   Li3Ti2(CuP2)2
_chemical_formula_sum   'Li3 Ti2 Cu2 P4'
_cell_volume   317.95302465
_cell_formula_units_Z   1
loop_
 _symmetry_equiv_pos_site_id
 _symmetry_equiv_pos_as_xyz
  1  'x, y, z'
loop_
 _atom_site_type_symbol
 _atom_site_label
 _atom_site_symmetry_multiplicity
 _atom_site_fract_x
 _atom_site_fract_y
 _atom_site_fract_z
 _atom_site_occupancy
  P  P0  1  0.00000000  0.00000000  0.00000000  1
  P  P1  1  0.33300000  0.66700000  0.25000000  1
  P  P2  1  0.66700000  0.33300000  0.50000000  1
  P  P3  1  0.00000000  0.00000000  0.75000000  1
  Li  Li4  1  0.89200036  0.21556566  0.31044376  1
  Li  Li5  1  0.09584087  0.92480505  0.54376110  1
  Li  Li6  1  0.54722056  0.47990016  0.77213884  1
  Cu  Cu7  1  0.70977117  0.11015679  0.28588863  1
  Cu  Cu8  1  0.68806142  0.94585409  0.85836889  1
  Ti  Ti9  1  0.22337584  0.98189543  0.73546785  1
  Ti  Ti10  1  0.51219215  0.70316935  0.99391364  1
