# generated using pymatgen
data_Li2Mn2Sb4P3
_symmetry_space_group_name_H-M   'P 1'
_cell_length_a   4.82002299
_cell_length_b   5.11838901
_cell_length_c   6.46104996
_cell_angle_alpha   100.94522957
_cell_angle_beta   93.46687908
_cell_angle_gamma   101.13419135
_symmetry_Int_Tables_number   1
_chemical_formula_structural   Li2Mn2Sb4P3
_chemical_formula_sum   'Li2 Mn2 Sb4 P3'
_cell_volume   152.77103443
_cell_formula_units_Z   1
loop_
 _symmetry_equiv_pos_site_id
 _symmetry_equiv_pos_as_xyz
  1  'x, y, z'
loop_
 _atom_site_type_symbol
 _atom_site_label
 _atom_site_symmetry_multiplicity
 _atom_site_fract_x
 _atom_site_fract_y
 _atom_site_fract_z
 _atom_site_occupancy
  Mn  Mn0  1  0.00000000  0.00000000  0.00000000  1
  Mn  Mn1  1  0.33300000  0.66700000  0.25000000  1
  Sb  Sb2  1  0.66700000  0.33300000  0.50000000  1
  Sb  Sb3  1  0.00000000  0.00000000  0.75000000  1
  Sb  Sb4  1  0.23101079  0.51761834  0.59667604  1
  Sb  Sb5  1  0.96409466  0.36737677  0.78406488  1
  P  P6  1  0.80104783  0.05232234  0.51381781  1
  P  P7  1  0.29669579  0.73060283  0.58638685  1
  P  P8  1  0.07010448  0.26195632  0.34632958  1
  Li  Li9  1  0.09330082  0.47514190  0.25525579  1
  Li  Li10  1  0.58053268  0.48372364  0.37547143  1
