# generated using pymatgen
data_Li3TiAs6P3Se2
_symmetry_space_group_name_H-M   'P 1'
_cell_length_a   7.33679768
_cell_length_b   7.07304796
_cell_length_c   7.38881127
_cell_angle_alpha   95.22902162
_cell_angle_beta   97.04912404
_cell_angle_gamma   94.94072025
_symmetry_Int_Tables_number   1
_chemical_formula_structural   Li3TiAs6P3Se2
_chemical_formula_sum   'Li3 Ti1 As6 P3 Se2'
_cell_volume   377.10823327
_cell_formula_units_Z   1
loop_
 _symmetry_equiv_pos_site_id
 _symmetry_equiv_pos_as_xyz
  1  'x, y, z'
loop_
 _atom_site_type_symbol
 _atom_site_label
 _atom_site_symmetry_multiplicity
 _atom_site_fract_x
 _atom_site_fract_y
 _atom_site_fract_z
 _atom_site_occupancy
  P  P0  1  0.00000000  0.00000000  0.00000000  1
  P  P1  1  0.50000000  0.50000000  0.50000000  1
  P  P2  1  0.50000000  0.50000000  0.00000000  1
  Li  Li3  1  0.50000000  0.00000000  0.50000000  1
  Li  Li4  1  0.00000000  0.50000000  0.50000000  1
  Li  Li5  1  0.70351674  0.77936171  0.96418819  1
  Se  Se6  1  0.77505086  0.78796459  0.89670704  1
  Se  Se7  1  0.24573056  0.99009184  0.27454924  1
  Ti  Ti8  1  0.71779675  0.66546823  0.11802903  1
  As  As9  1  0.35746714  0.87953464  0.23737249  1
  As  As10  1  0.61729888  0.21105234  0.31147154  1
  As  As11  1  0.59164112  0.43365466  0.46209511  1
  As  As12  1  0.16090312  0.37833621  0.87307062  1
  As  As13  1  0.61944396  0.95137515  0.97943254  1
  As  As14  1  0.33562607  0.61146225  0.49175531  1
