# generated using pymatgen
data_Li2TiP4(I2F)2
_symmetry_space_group_name_H-M   'P 1'
_cell_length_a   7.64053082
_cell_length_b   7.31473803
_cell_length_c   7.60529688
_cell_angle_alpha   92.17525872
_cell_angle_beta   92.90723268
_cell_angle_gamma   91.99168359
_symmetry_Int_Tables_number   1
_chemical_formula_structural   Li2TiP4(I2F)2
_chemical_formula_sum   'Li2 Ti1 P4 I4 F2'
_cell_volume   423.90894481
_cell_formula_units_Z   1
loop_
 _symmetry_equiv_pos_site_id
 _symmetry_equiv_pos_as_xyz
  1  'x, y, z'
loop_
 _atom_site_type_symbol
 _atom_site_label
 _atom_site_symmetry_multiplicity
 _atom_site_fract_x
 _atom_site_fract_y
 _atom_site_fract_z
 _atom_site_occupancy
  I  I0  1  0.00000000  0.00000000  0.00000000  1
  I  I1  1  0.50000000  0.50000000  0.50000000  1
  I  I2  1  0.50000000  0.50000000  0.00000000  1
  I  I3  1  0.50000000  0.00000000  0.50000000  1
  P  P4  1  0.00000000  0.50000000  0.50000000  1
  P  P5  1  0.72381241  0.40353587  0.77713912  1
  P  P6  1  0.16363747  0.75025146  0.88795840  1
  P  P7  1  0.35526715  0.10138107  0.53587528  1
  Li  Li8  1  0.84386415  0.42331061  0.46313004  1
  Li  Li9  1  0.40356061  0.67768376  0.42524251  1
  F  F10  1  0.53789367  0.21626832  0.72348083  1
  F  F11  1  0.78137225  0.46113061  0.17409483  1
  Ti  Ti12  1  0.41665052  0.78517392  0.68057836  1
