# generated using pymatgen
data_Li2Mn3Sb4Mo2P3
_symmetry_space_group_name_H-M   'P 1'
_cell_length_a   6.37379314
_cell_length_b   6.91208321
_cell_length_c   7.24638877
_cell_angle_alpha   93.72890776
_cell_angle_beta   92.96942762
_cell_angle_gamma   94.04233042
_symmetry_Int_Tables_number   1
_chemical_formula_structural   Li2Mn3Sb4Mo2P3
_chemical_formula_sum   'Li2 Mn3 Sb4 Mo2 P3'
_cell_volume   317.26957790
_cell_formula_units_Z   1
loop_
 _symmetry_equiv_pos_site_id
 _symmetry_equiv_pos_as_xyz
  1  'x, y, z'
loop_
 _atom_site_type_symbol
 _atom_site_label
 _atom_site_symmetry_multiplicity
 _atom_site_fract_x
 _atom_site_fract_y
 _atom_site_fract_z
 _atom_site_occupancy
  Mn  Mn0  1  0.00000000  0.00000000  0.00000000  1
  Mn  Mn1  1  0.50000000  0.50000000  0.50000000  1
  Mn  Mn2  1  0.25000000  0.25000000  0.25000000  1
  Sb  Sb3  1  0.75000000  0.25000000  0.00000000  1
  Sb  Sb4  1  0.25000000  0.75000000  0.50000000  1
  Sb  Sb5  1  0.85699277  0.59026413  0.49211442  1
  Sb  Sb6  1  0.20471061  0.32376011  0.60426955  1
  P  P7  1  0.39251318  0.17812125  0.98290183  1
  P  P8  1  0.33697811  0.72471241  0.18071946  1
  P  P9  1  0.60498328  0.01559519  0.11338998  1
  Mo  Mo10  1  0.32853999  0.66873161  0.22658663  1
  Mo  Mo11  1  0.75103896  0.18326451  0.56385013  1
  Li  Li12  1  0.25877493  0.59508296  0.82697367  1
  Li  Li13  1  0.47895380  0.83341293  0.11281367  1
