# generated using pymatgen
data_Li2MnSb4P3
_symmetry_space_group_name_H-M   'P 1'
_cell_length_a   5.77600413
_cell_length_b   6.23891816
_cell_length_c   7.07206874
_cell_angle_alpha   95.73229467
_cell_angle_beta   94.23523500
_cell_angle_gamma   96.16821299
_symmetry_Int_Tables_number   1
_chemical_formula_structural   Li2MnSb4P3
_chemical_formula_sum   'Li2 Mn1 Sb4 P3'
_cell_volume   251.18353603
_cell_formula_units_Z   1
loop_
 _symmetry_equiv_pos_site_id
 _symmetry_equiv_pos_as_xyz
  1  'x, y, z'
loop_
 _atom_site_type_symbol
 _atom_site_label
 _atom_site_symmetry_multiplicity
 _atom_site_fract_x
 _atom_site_fract_y
 _atom_site_fract_z
 _atom_site_occupancy
  Mn  Mn0  1  0.00000000  0.00000000  0.00000000  1
  Sb  Sb1  1  0.33300000  0.66700000  0.25000000  1
  Sb  Sb2  1  0.66700000  0.33300000  0.50000000  1
  Sb  Sb3  1  0.00000000  0.00000000  0.75000000  1
  Sb  Sb4  1  0.62412315  0.13593565  0.89509732  1
  P  P5  1  0.92383532  0.90229684  0.66404426  1
  P  P6  1  0.75366699  0.78032725  0.64233188  1
  P  P7  1  0.42912202  0.83928089  0.32541274  1
  Li  Li8  1  0.82855115  0.22645082  0.60919534  1
  Li  Li9  1  0.37488879  0.44248329  0.62514598  1
