# generated using pymatgen
data_Li2Cu2As6F3
_symmetry_space_group_name_H-M   'P 1'
_cell_length_a   7.53584718
_cell_length_b   7.55046429
_cell_length_c   8.51489346
_cell_angle_alpha   90.45132850
_cell_angle_beta   92.62415727
_cell_angle_gamma   90.49979639
_symmetry_Int_Tables_number   1
_chemical_formula_structural   Li2Cu2As6F3
_chemical_formula_sum   'Li2 Cu2 As6 F3'
_cell_volume   483.94707439
_cell_formula_units_Z   1
loop_
 _symmetry_equiv_pos_site_id
 _symmetry_equiv_pos_as_xyz
  1  'x, y, z'
loop_
 _atom_site_type_symbol
 _atom_site_label
 _atom_site_symmetry_multiplicity
 _atom_site_fract_x
 _atom_site_fract_y
 _atom_site_fract_z
 _atom_site_occupancy
  F  F0  1  0.00000000  0.00000000  0.00000000  1
  F  F1  1  0.50000000  0.50000000  0.50000000  1
  F  F2  1  0.50000000  0.50000000  0.00000000  1
  As  As3  1  0.50000000  0.00000000  0.50000000  1
  As  As4  1  0.00000000  0.50000000  0.50000000  1
  As  As5  1  0.31088755  0.12457724  0.59369089  1
  As  As6  1  0.94945051  0.20203956  0.30332972  1
  As  As7  1  0.27910061  0.58459977  0.67453769  1
  As  As8  1  0.80143680  0.55334456  0.24082586  1
  Li  Li9  1  0.95629781  0.53897793  0.82966808  1
  Li  Li10  1  0.75209427  0.27717546  0.25493171  1
  Cu  Cu11  1  0.18349763  0.87403898  0.36015026  1
  Cu  Cu12  1  0.56896561  0.59406591  0.76059428  1
