# generated using pymatgen
data_Li2TiCu2(As3P2)2
_symmetry_space_group_name_H-M   'P 1'
_cell_length_a   7.13297995
_cell_length_b   7.22958171
_cell_length_c   7.76228756
_cell_angle_alpha   90.57335751
_cell_angle_beta   92.06411868
_cell_angle_gamma   90.21037468
_symmetry_Int_Tables_number   1
_chemical_formula_structural   Li2TiCu2(As3P2)2
_chemical_formula_sum   'Li2 Ti1 Cu2 As6 P4'
_cell_volume   400.00621106
_cell_formula_units_Z   1
loop_
 _symmetry_equiv_pos_site_id
 _symmetry_equiv_pos_as_xyz
  1  'x, y, z'
loop_
 _atom_site_type_symbol
 _atom_site_label
 _atom_site_symmetry_multiplicity
 _atom_site_fract_x
 _atom_site_fract_y
 _atom_site_fract_z
 _atom_site_occupancy
  Ti  Ti0  1  0.12500000  0.00000000  0.25000000  1
  P  P1  1  0.00000000  0.00000000  0.00000000  1
  P  P2  1  0.37500000  0.00000000  0.25000000  1
  P  P3  1  0.25000000  0.25000000  0.25000000  1
  P  P4  1  0.00000000  0.25000000  0.12500000  1
  As  As5  1  0.28691687  0.70348455  0.20043749  1
  As  As6  1  0.39269627  0.37652344  0.41180832  1
  As  As7  1  0.20714271  0.82801552  0.64850462  1
  As  As8  1  0.02998314  0.68701527  0.67557458  1
  As  As9  1  0.32501019  0.87479399  0.58209257  1
  As  As10  1  0.70662376  0.02002577  0.62950649  1
  Li  Li11  1  0.02626144  0.33446685  0.25644953  1
  Li  Li12  1  0.20676740  0.56651444  0.39312721  1
  Cu  Cu13  1  0.48451835  0.77114106  0.84453253  1
  Cu  Cu14  1  0.43638370  0.79530943  0.22694291  1
