# generated using pymatgen
data_Li2MnSb4P3
_symmetry_space_group_name_H-M   'P 1'
_cell_length_a   4.80038637
_cell_length_b   5.11645276
_cell_length_c   6.37747855
_cell_angle_alpha   98.94770345
_cell_angle_beta   95.46908300
_cell_angle_gamma   98.63949972
_symmetry_Int_Tables_number   1
_chemical_formula_structural   Li2MnSb4P3
_chemical_formula_sum   'Li2 Mn1 Sb4 P3'
_cell_volume   151.84148077
_cell_formula_units_Z   1
loop_
 _symmetry_equiv_pos_site_id
 _symmetry_equiv_pos_as_xyz
  1  'x, y, z'
loop_
 _atom_site_type_symbol
 _atom_site_label
 _atom_site_symmetry_multiplicity
 _atom_site_fract_x
 _atom_site_fract_y
 _atom_site_fract_z
 _atom_site_occupancy
  Mn  Mn0  1  0.00000000  0.00000000  0.00000000  1
  Sb  Sb1  1  0.50000000  0.50000000  0.50000000  1
  Sb  Sb2  1  0.25000000  0.25000000  0.25000000  1
  Sb  Sb3  1  0.75000000  0.25000000  0.00000000  1
  Sb  Sb4  1  0.25000000  0.75000000  0.50000000  1
  P  P5  1  0.82101386  0.87918017  0.23378212  1
  P  P6  1  0.65045256  0.12202188  0.38286466  1
  P  P7  1  0.98713464  0.58318900  0.60633341  1
  Li  Li8  1  0.07788923  0.58600412  0.35173417  1
  Li  Li9  1  0.61321912  0.82421030  0.10575983  1
