# generated using pymatgen
data_Li4LuP4N5O2
_symmetry_space_group_name_H-M   'P 1'
_cell_length_a   6.11499544
_cell_length_b   6.16200379
_cell_length_c   7.65282839
_cell_angle_alpha   98.15314129
_cell_angle_beta   99.42181706
_cell_angle_gamma   100.28659658
_symmetry_Int_Tables_number   1
_chemical_formula_structural   Li4LuP4N5O2
_chemical_formula_sum   'Li4 Lu1 P4 N5 O2'
_cell_volume   275.52052390
_cell_formula_units_Z   1
loop_
 _symmetry_equiv_pos_site_id
 _symmetry_equiv_pos_as_xyz
  1  'x, y, z'
loop_
 _atom_site_type_symbol
 _atom_site_label
 _atom_site_symmetry_multiplicity
 _atom_site_fract_x
 _atom_site_fract_y
 _atom_site_fract_z
 _atom_site_occupancy
  P  P0  1  0.12500000  0.00000000  0.25000000  1
  P  P1  1  0.00000000  0.00000000  0.00000000  1
  P  P2  1  0.37500000  0.00000000  0.25000000  1
  P  P3  1  0.25000000  0.25000000  0.25000000  1
  Lu  Lu4  1  0.00000000  0.25000000  0.12500000  1
  Li  Li5  1  0.60251759  0.18958586  0.87789782  1
  Li  Li6  1  0.73465149  0.00968948  0.78133285  1
  Li  Li7  1  0.86665143  0.92865766  0.27596334  1
  Li  Li8  1  0.59486839  0.15590827  0.40604590  1
  O  O9  1  0.57490011  0.14341425  0.73337567  1
  O  O10  1  0.05456857  0.38015796  0.31674483  1
  N  N11  1  0.75676652  0.40939524  0.13376985  1
  N  N12  1  0.46670790  0.94587154  0.27686438  1
  N  N13  1  0.75382001  0.01984336  0.47814497  1
  N  N14  1  0.71863089  0.05121108  0.27161256  1
  N  N15  1  0.82369340  0.13316109  0.42314568  1
