# generated using pymatgen
data_LiMnSb4P3N
_symmetry_space_group_name_H-M   'P 1'
_cell_length_a   5.27377238
_cell_length_b   5.59404981
_cell_length_c   6.47216022
_cell_angle_alpha   95.43350733
_cell_angle_beta   94.48960702
_cell_angle_gamma   95.08516793
_symmetry_Int_Tables_number   1
_chemical_formula_structural   LiMnSb4P3N
_chemical_formula_sum   'Li1 Mn1 Sb4 P3 N1'
_cell_volume   188.60929598
_cell_formula_units_Z   1
loop_
 _symmetry_equiv_pos_site_id
 _symmetry_equiv_pos_as_xyz
  1  'x, y, z'
loop_
 _atom_site_type_symbol
 _atom_site_label
 _atom_site_symmetry_multiplicity
 _atom_site_fract_x
 _atom_site_fract_y
 _atom_site_fract_z
 _atom_site_occupancy
  N  N0  1  0.00000000  0.00000000  0.00000000  1
  Mn  Mn1  1  0.50000000  0.50000000  0.50000000  1
  Sb  Sb2  1  0.25000000  0.25000000  0.25000000  1
  Sb  Sb3  1  0.75000000  0.25000000  0.00000000  1
  Sb  Sb4  1  0.25000000  0.75000000  0.50000000  1
  Sb  Sb5  1  0.48982635  0.53206593  0.92923454  1
  P  P6  1  0.38516408  0.02593791  0.24392640  1
  P  P7  1  0.76170925  0.42546434  0.10177978  1
  P  P8  1  0.78234277  0.89198739  0.81603366  1
  Li  Li9  1  0.73433814  0.88218425  0.63824035  1
