# generated using pymatgen
data_Li2Ti(CuP2)2
_symmetry_space_group_name_H-M   'P 1'
_cell_length_a   6.81353685
_cell_length_b   6.81810908
_cell_length_c   7.13203063
_cell_angle_alpha   90.65798597
_cell_angle_beta   91.84246416
_cell_angle_gamma   89.88845875
_symmetry_Int_Tables_number   1
_chemical_formula_structural   Li2Ti(CuP2)2
_chemical_formula_sum   'Li2 Ti1 Cu2 P4'
_cell_volume   331.12806303
_cell_formula_units_Z   1
loop_
 _symmetry_equiv_pos_site_id
 _symmetry_equiv_pos_as_xyz
  1  'x, y, z'
loop_
 _atom_site_type_symbol
 _atom_site_label
 _atom_site_symmetry_multiplicity
 _atom_site_fract_x
 _atom_site_fract_y
 _atom_site_fract_z
 _atom_site_occupancy
  Li  Li0  1  0.00000000  0.00000000  0.00000000  1
  Li  Li1  1  0.33300000  0.66700000  0.25000000  1
  Ti  Ti2  1  0.66700000  0.33300000  0.50000000  1
  P  P3  1  0.00000000  0.00000000  0.75000000  1
  P  P4  1  0.48166618  0.67535183  0.19670578  1
  P  P5  1  0.76414028  0.38257849  0.76132684  1
  P  P6  1  0.78267950  0.89534305  0.20433486  1
  Cu  Cu7  1  0.59545218  0.75403047  0.71789396  1
  Cu  Cu8  1  0.78957662  0.57560642  0.55020018  1
