# generated using pymatgen
data_Li2Mn2Sb4P3
_symmetry_space_group_name_H-M   'P 1'
_cell_length_a   5.54783363
_cell_length_b   5.93469775
_cell_length_c   6.66966547
_cell_angle_alpha   98.53206582
_cell_angle_beta   91.90706120
_cell_angle_gamma   98.56858831
_symmetry_Int_Tables_number   1
_chemical_formula_structural   Li2Mn2Sb4P3
_chemical_formula_sum   'Li2 Mn2 Sb4 P3'
_cell_volume   214.39791501
_cell_formula_units_Z   1
loop_
 _symmetry_equiv_pos_site_id
 _symmetry_equiv_pos_as_xyz
  1  'x, y, z'
loop_
 _atom_site_type_symbol
 _atom_site_label
 _atom_site_symmetry_multiplicity
 _atom_site_fract_x
 _atom_site_fract_y
 _atom_site_fract_z
 _atom_site_occupancy
  Mn  Mn0  1  0.00000000  0.00000000  0.00000000  1
  Mn  Mn1  1  0.33300000  0.66700000  0.25000000  1
  Sb  Sb2  1  0.66700000  0.33300000  0.50000000  1
  Sb  Sb3  1  0.00000000  0.00000000  0.75000000  1
  Sb  Sb4  1  0.44636881  0.27029268  0.54337525  1
  Sb  Sb5  1  0.02841477  0.41973732  0.87899430  1
  P  P6  1  0.21425587  0.30417658  0.18373195  1
  P  P7  1  0.28121089  0.81628886  0.15163799  1
  P  P8  1  0.99080504  0.86041221  0.25447984  1
  Li  Li9  1  0.55975358  0.90942694  0.77073604  1
  Li  Li10  1  0.85597930  0.50551324  0.81338105  1
