# generated using pymatgen
data_Li3Cu2I5N5Cl2
_symmetry_space_group_name_H-M   'P 1'
_cell_length_a   5.88988637
_cell_length_b   6.07920875
_cell_length_c   7.38447670
_cell_angle_alpha   100.07158720
_cell_angle_beta   103.46800514
_cell_angle_gamma   102.53104710
_symmetry_Int_Tables_number   1
_chemical_formula_structural   Li3Cu2I5N5Cl2
_chemical_formula_sum   'Li3 Cu2 I5 N5 Cl2'
_cell_volume   243.83249848
_cell_formula_units_Z   1
loop_
 _symmetry_equiv_pos_site_id
 _symmetry_equiv_pos_as_xyz
  1  'x, y, z'
loop_
 _atom_site_type_symbol
 _atom_site_label
 _atom_site_symmetry_multiplicity
 _atom_site_fract_x
 _atom_site_fract_y
 _atom_site_fract_z
 _atom_site_occupancy
  I  I0  1  0.12500000  0.00000000  0.25000000  1
  I  I1  1  0.00000000  0.00000000  0.00000000  1
  I  I2  1  0.37500000  0.00000000  0.25000000  1
  I  I3  1  0.25000000  0.25000000  0.25000000  1
  I  I4  1  0.00000000  0.25000000  0.12500000  1
  Li  Li5  1  0.62685324  0.79209914  0.17069702  1
  Li  Li6  1  0.18781521  0.92236891  0.77237571  1
  Li  Li7  1  0.24545039  0.66040330  0.15323648  1
  Cu  Cu8  1  0.19966226  0.27272079  0.33543907  1
  Cu  Cu9  1  0.16230801  0.66352938  0.81790906  1
  Cl  Cl10  1  0.05353950  0.78849925  0.13451701  1
  Cl  Cl11  1  0.19982784  0.39541399  0.04300581  1
  N  N12  1  0.52555812  0.67207205  0.26140270  1
  N  N13  1  0.88323569  0.92516408  0.45573846  1
  N  N14  1  0.62861146  0.24350302  0.25996301  1
  N  N15  1  0.52831042  0.84607959  0.15447881  1
  N  N16  1  0.84592535  0.33214270  0.02251190  1
