# generated using pymatgen
data_LiMn2P2N
_symmetry_space_group_name_H-M   'P 1'
_cell_length_a   4.95846136
_cell_length_b   5.24165744
_cell_length_c   5.72839368
_cell_angle_alpha   97.94045094
_cell_angle_beta   93.53632992
_cell_angle_gamma   96.11335106
_symmetry_Int_Tables_number   1
_chemical_formula_structural   LiMn2P2N
_chemical_formula_sum   'Li1 Mn2 P2 N1'
_cell_volume   146.17628109
_cell_formula_units_Z   1
loop_
 _symmetry_equiv_pos_site_id
 _symmetry_equiv_pos_as_xyz
  1  'x, y, z'
loop_
 _atom_site_type_symbol
 _atom_site_label
 _atom_site_symmetry_multiplicity
 _atom_site_fract_x
 _atom_site_fract_y
 _atom_site_fract_z
 _atom_site_occupancy
  Mn  Mn0  1  0.00000000  0.00000000  0.00000000  1
  Mn  Mn1  1  0.50000000  0.50000000  0.50000000  1
  P  P2  1  0.50000000  0.50000000  0.00000000  1
  P  P3  1  0.50000000  0.00000000  0.50000000  1
  Li  Li4  1  0.00000000  0.50000000  0.50000000  1
  N  N5  1  0.44799766  0.65341875  0.45277547  1
