# generated using pymatgen
data_Li2Mn2Sb4P3
_symmetry_space_group_name_H-M   'P 1'
_cell_length_a   6.00730526
_cell_length_b   6.51863920
_cell_length_c   7.27630143
_cell_angle_alpha   94.12832559
_cell_angle_beta   94.89038311
_cell_angle_gamma   94.69854424
_symmetry_Int_Tables_number   1
_chemical_formula_structural   Li2Mn2Sb4P3
_chemical_formula_sum   'Li2 Mn2 Sb4 P3'
_cell_volume   282.04845420
_cell_formula_units_Z   1
loop_
 _symmetry_equiv_pos_site_id
 _symmetry_equiv_pos_as_xyz
  1  'x, y, z'
loop_
 _atom_site_type_symbol
 _atom_site_label
 _atom_site_symmetry_multiplicity
 _atom_site_fract_x
 _atom_site_fract_y
 _atom_site_fract_z
 _atom_site_occupancy
  Mn  Mn0  1  0.00000000  0.00000000  0.00000000  1
  Mn  Mn1  1  0.33300000  0.66700000  0.25000000  1
  Sb  Sb2  1  0.66700000  0.33300000  0.50000000  1
  Sb  Sb3  1  0.00000000  0.00000000  0.75000000  1
  Sb  Sb4  1  0.76252937  0.71310546  0.87626465  1
  Sb  Sb5  1  0.27003494  0.82484845  0.97427970  1
  P  P6  1  0.43550019  0.71674207  0.59194515  1
  P  P7  1  0.59393330  0.34571980  0.71012286  1
  P  P8  1  0.81984346  0.92019813  0.09842297  1
  Li  Li9  1  0.08557773  0.95160348  0.11859070  1
  Li  Li10  1  0.64243493  0.88459606  0.80677770  1
