# generated using pymatgen
data_Li2TiI4N5
_symmetry_space_group_name_H-M   'P 1'
_cell_length_a   8.03451809
_cell_length_b   7.84407036
_cell_length_c   7.99541795
_cell_angle_alpha   92.08106850
_cell_angle_beta   93.09929690
_cell_angle_gamma   92.13830792
_symmetry_Int_Tables_number   1
_chemical_formula_structural   Li2TiI4N5
_chemical_formula_sum   'Li2 Ti1 I4 N5'
_cell_volume   502.43931173
_cell_formula_units_Z   1
loop_
 _symmetry_equiv_pos_site_id
 _symmetry_equiv_pos_as_xyz
  1  'x, y, z'
loop_
 _atom_site_type_symbol
 _atom_site_label
 _atom_site_symmetry_multiplicity
 _atom_site_fract_x
 _atom_site_fract_y
 _atom_site_fract_z
 _atom_site_occupancy
  I  I0  1  0.12500000  0.00000000  0.25000000  1
  I  I1  1  0.00000000  0.00000000  0.00000000  1
  I  I2  1  0.37500000  0.00000000  0.25000000  1
  I  I3  1  0.25000000  0.25000000  0.25000000  1
  Li  Li4  1  0.00000000  0.25000000  0.12500000  1
  Li  Li5  1  0.61654371  0.82309334  0.80636910  1
  Ti  Ti6  1  0.90179431  0.98253148  0.52088470  1
  N  N7  1  0.19709294  0.13914692  0.69508879  1
  N  N8  1  0.09038379  0.03435180  0.37114490  1
  N  N9  1  0.02057766  0.35991403  0.41591892  1
  N  N10  1  0.59036445  0.37758253  0.20334427  1
  N  N11  1  0.94769854  0.42061359  0.70680256  1
