# generated using pymatgen
data_LiMn2Sb4Mo2P3
_symmetry_space_group_name_H-M   'P 1'
_cell_length_a   5.72870967
_cell_length_b   6.01010467
_cell_length_c   6.43766143
_cell_angle_alpha   94.24847157
_cell_angle_beta   90.88607515
_cell_angle_gamma   93.95592658
_symmetry_Int_Tables_number   1
_chemical_formula_structural   LiMn2Sb4Mo2P3
_chemical_formula_sum   'Li1 Mn2 Sb4 Mo2 P3'
_cell_volume   220.46674633
_cell_formula_units_Z   1
loop_
 _symmetry_equiv_pos_site_id
 _symmetry_equiv_pos_as_xyz
  1  'x, y, z'
loop_
 _atom_site_type_symbol
 _atom_site_label
 _atom_site_symmetry_multiplicity
 _atom_site_fract_x
 _atom_site_fract_y
 _atom_site_fract_z
 _atom_site_occupancy
  Mn  Mn0  1  0.00000000  0.00000000  0.00000000  1
  Mn  Mn1  1  0.50000000  0.50000000  0.50000000  1
  Sb  Sb2  1  0.25000000  0.25000000  0.25000000  1
  Sb  Sb3  1  0.75000000  0.25000000  0.00000000  1
  Sb  Sb4  1  0.25000000  0.75000000  0.50000000  1
  Sb  Sb5  1  0.76188645  0.54618751  0.36452241  1
  P  P6  1  0.12066836  0.97070076  0.07717831  1
  P  P7  1  0.65214094  0.20933157  0.34531448  1
  P  P8  1  0.71162480  0.44997687  0.44117865  1
  Mo  Mo9  1  0.81650030  0.08072980  0.65578255  1
  Mo  Mo10  1  0.40668707  0.16555385  0.39863686  1
  Li  Li11  1  0.20583894  0.56978570  0.34690117  1
