# generated using pymatgen
data_LiMnSb2P
_symmetry_space_group_name_H-M   'P 1'
_cell_length_a   5.81474420
_cell_length_b   6.30772087
_cell_length_c   7.07187545
_cell_angle_alpha   95.44980195
_cell_angle_beta   95.94725884
_cell_angle_gamma   94.97016303
_symmetry_Int_Tables_number   1
_chemical_formula_structural   LiMnSb2P
_chemical_formula_sum   'Li2 Mn2 Sb4 P2'
_cell_volume   255.59640804
_cell_formula_units_Z   2
loop_
 _symmetry_equiv_pos_site_id
 _symmetry_equiv_pos_as_xyz
  1  'x, y, z'
loop_
 _atom_site_type_symbol
 _atom_site_label
 _atom_site_symmetry_multiplicity
 _atom_site_fract_x
 _atom_site_fract_y
 _atom_site_fract_z
 _atom_site_occupancy
  Mn  Mn0  1  0.00000000  0.00000000  0.00000000  1
  Mn  Mn1  1  0.33300000  0.66700000  0.25000000  1
  Sb  Sb2  1  0.66700000  0.33300000  0.50000000  1
  Sb  Sb3  1  0.00000000  0.00000000  0.75000000  1
  Sb  Sb4  1  0.08254590  0.83222244  0.79904030  1
  Sb  Sb5  1  0.48352564  0.94041620  0.76606660  1
  P  P6  1  0.24867469  0.09810064  0.39015245  1
  P  P7  1  0.95106294  0.11577974  0.28780000  1
  Li  Li8  1  0.73100387  0.81540445  0.16624882  1
  Li  Li9  1  0.83565410  0.58697777  0.35712801  1
