# generated using pymatgen
data_Li3Ti(IO)4
_symmetry_space_group_name_H-M   'P 1'
_cell_length_a   8.57809294
_cell_length_b   8.44623765
_cell_length_c   8.50271463
_cell_angle_alpha   90.00000000
_cell_angle_beta   90.00000000
_cell_angle_gamma   90.00000000
_symmetry_Int_Tables_number   1
_chemical_formula_structural   Li3Ti(IO)4
_chemical_formula_sum   'Li3 Ti1 I4 O4'
_cell_volume   616.04388070
_cell_formula_units_Z   1
loop_
 _symmetry_equiv_pos_site_id
 _symmetry_equiv_pos_as_xyz
  1  'x, y, z'
loop_
 _atom_site_type_symbol
 _atom_site_label
 _atom_site_symmetry_multiplicity
 _atom_site_fract_x
 _atom_site_fract_y
 _atom_site_fract_z
 _atom_site_occupancy
  I  I0  1  0.12500000  0.12500000  0.12500000  1
  I  I1  1  0.50000000  0.50000000  0.50000000  1
  I  I2  1  0.25000000  0.25000000  0.25000000  1
  I  I3  1  0.75000000  0.75000000  0.75000000  1
  Li  Li4  1  0.27751498  0.55262467  0.17763586  1
  Li  Li5  1  0.92342381  0.93532619  0.25575181  1
  Li  Li6  1  0.68879825  0.64439895  0.26407976  1
  Ti  Ti7  1  0.12276994  0.94041972  0.14983835  1
  O  O8  1  0.12893919  0.54089761  0.75350635  1
  O  O9  1  0.94036021  0.07528477  0.00124964  1
  O  O10  1  0.14685525  0.03477152  0.18885757  1
  O  O11  1  0.42566972  0.22497570  0.18421846  1
