# generated using pymatgen
data_Li3Ti2P3F3
_symmetry_space_group_name_H-M   'P 1'
_cell_length_a   5.79383401
_cell_length_b   5.30355512
_cell_length_c   6.54119333
_cell_angle_alpha   91.42234569
_cell_angle_beta   96.76708881
_cell_angle_gamma   91.62612092
_symmetry_Int_Tables_number   1
_chemical_formula_structural   Li3Ti2P3F3
_chemical_formula_sum   'Li3 Ti2 P3 F3'
_cell_volume   199.43625991
_cell_formula_units_Z   1
loop_
 _symmetry_equiv_pos_site_id
 _symmetry_equiv_pos_as_xyz
  1  'x, y, z'
loop_
 _atom_site_type_symbol
 _atom_site_label
 _atom_site_symmetry_multiplicity
 _atom_site_fract_x
 _atom_site_fract_y
 _atom_site_fract_z
 _atom_site_occupancy
  F  F0  1  0.00000000  0.00000000  0.00000000  1
  F  F1  1  0.33300000  0.66700000  0.25000000  1
  F  F2  1  0.66700000  0.33300000  0.50000000  1
  Li  Li3  1  0.00000000  0.00000000  0.75000000  1
  Li  Li4  1  0.63397641  0.23990214  0.81054773  1
  Li  Li5  1  0.74868210  0.76858537  0.94226653  1
  Ti  Ti6  1  0.04521684  0.92766242  0.91749482  1
  Ti  Ti7  1  0.84406580  0.39151561  0.43694430  1
  P  P8  1  0.59228519  0.31562999  0.69395256  1
  P  P9  1  0.94176692  0.90660583  0.38047906  1
  P  P10  1  0.54918977  0.26921026  0.97598020  1
