# generated using pymatgen
data_LiTiSeO
_symmetry_space_group_name_H-M   'P 1'
_cell_length_a   3.72529703
_cell_length_b   3.20355357
_cell_length_c   4.90828224
_cell_angle_alpha   96.46898204
_cell_angle_beta   90.81298810
_cell_angle_gamma   89.29724620
_symmetry_Int_Tables_number   1
_chemical_formula_structural   LiTiSeO
_chemical_formula_sum   'Li1 Ti1 Se1 O1'
_cell_volume   58.19419679
_cell_formula_units_Z   1
loop_
 _symmetry_equiv_pos_site_id
 _symmetry_equiv_pos_as_xyz
  1  'x, y, z'
loop_
 _atom_site_type_symbol
 _atom_site_label
 _atom_site_symmetry_multiplicity
 _atom_site_fract_x
 _atom_site_fract_y
 _atom_site_fract_z
 _atom_site_occupancy
  Se  Se0  1  0.00000000  0.00000000  0.00000000  1
  O  O1  1  0.50000000  0.50000000  0.50000000  1
  Ti  Ti2  1  0.50000000  0.50000000  0.00000000  1
  Li  Li3  1  0.50000000  0.00000000  0.50000000  1
