# generated using pymatgen
data_LiSe3(BrO)3
_symmetry_space_group_name_H-M   'P 1'
_cell_length_a   7.76264694
_cell_length_b   8.27465529
_cell_length_c   8.09754974
_cell_angle_alpha   90.00000000
_cell_angle_beta   90.00000000
_cell_angle_gamma   90.00000000
_symmetry_Int_Tables_number   1
_chemical_formula_structural   LiSe3(BrO)3
_chemical_formula_sum   'Li1 Se3 Br3 O3'
_cell_volume   520.13175490
_cell_formula_units_Z   1
loop_
 _symmetry_equiv_pos_site_id
 _symmetry_equiv_pos_as_xyz
  1  'x, y, z'
loop_
 _atom_site_type_symbol
 _atom_site_label
 _atom_site_symmetry_multiplicity
 _atom_site_fract_x
 _atom_site_fract_y
 _atom_site_fract_z
 _atom_site_occupancy
  O  O0  1  0.00000000  0.00000000  0.00000000  1
  O  O1  1  0.50000000  0.50000000  0.50000000  1
  O  O2  1  0.25000000  0.25000000  0.25000000  1
  Li  Li3  1  0.75000000  0.25000000  0.00000000  1
  Se  Se4  1  0.25000000  0.75000000  0.50000000  1
  Se  Se5  1  0.62992568  0.54276077  0.09845524  1
  Se  Se6  1  0.84247891  0.09644061  0.87994576  1
  Br  Br7  1  0.06229432  0.09513526  0.09487888  1
  Br  Br8  1  0.51035877  0.16939237  0.87322639  1
  Br  Br9  1  0.35364532  0.59906603  0.47067938  1
