# generated using pymatgen
data_Li2Mn2Sb4P3
_symmetry_space_group_name_H-M   'P 1'
_cell_length_a   7.46364617
_cell_length_b   7.66765759
_cell_length_c   7.70425875
_cell_angle_alpha   90.94728293
_cell_angle_beta   91.12214415
_cell_angle_gamma   91.07812493
_symmetry_Int_Tables_number   1
_chemical_formula_structural   Li2Mn2Sb4P3
_chemical_formula_sum   'Li2 Mn2 Sb4 P3'
_cell_volume   440.67898913
_cell_formula_units_Z   1
loop_
 _symmetry_equiv_pos_site_id
 _symmetry_equiv_pos_as_xyz
  1  'x, y, z'
loop_
 _atom_site_type_symbol
 _atom_site_label
 _atom_site_symmetry_multiplicity
 _atom_site_fract_x
 _atom_site_fract_y
 _atom_site_fract_z
 _atom_site_occupancy
  Mn  Mn0  1  0.12500000  0.00000000  0.25000000  1
  Mn  Mn1  1  0.00000000  0.00000000  0.00000000  1
  Sb  Sb2  1  0.37500000  0.00000000  0.25000000  1
  Sb  Sb3  1  0.25000000  0.25000000  0.25000000  1
  Sb  Sb4  1  0.00000000  0.25000000  0.12500000  1
  Sb  Sb5  1  0.49807571  0.06687459  0.28843221  1
  P  P6  1  0.41904861  0.75942416  0.37300273  1
  P  P7  1  0.34981339  0.57514149  0.06130876  1
  P  P8  1  0.92095669  0.31280825  0.23533912  1
  Li  Li9  1  0.86431076  0.69098458  0.09412747  1
  Li  Li10  1  0.24299396  0.36795139  0.61827642  1
