# generated using pymatgen
data_Li2Sb4Mo2P3
_symmetry_space_group_name_H-M   'P 1'
_cell_length_a   5.32412335
_cell_length_b   5.51114795
_cell_length_c   6.70247398
_cell_angle_alpha   99.33655871
_cell_angle_beta   92.93279894
_cell_angle_gamma   99.49433080
_symmetry_Int_Tables_number   1
_chemical_formula_structural   Li2Sb4Mo2P3
_chemical_formula_sum   'Li2 Sb4 Mo2 P3'
_cell_volume   190.78613077
_cell_formula_units_Z   1
loop_
 _symmetry_equiv_pos_site_id
 _symmetry_equiv_pos_as_xyz
  1  'x, y, z'
loop_
 _atom_site_type_symbol
 _atom_site_label
 _atom_site_symmetry_multiplicity
 _atom_site_fract_x
 _atom_site_fract_y
 _atom_site_fract_z
 _atom_site_occupancy
  Sb  Sb0  1  0.12500000  0.12500000  0.12500000  1
  Sb  Sb1  1  0.50000000  0.50000000  0.50000000  1
  Sb  Sb2  1  0.25000000  0.25000000  0.25000000  1
  Sb  Sb3  1  0.75000000  0.75000000  0.75000000  1
  P  P4  1  0.47067132  0.81995939  0.13463267  1
  P  P5  1  0.57595355  0.83945505  0.89078838  1
  P  P6  1  0.08104032  0.87845975  0.83912633  1
  Mo  Mo7  1  0.64733365  0.84870421  0.07809670  1
  Mo  Mo8  1  0.79286678  0.41972428  0.88458103  1
  Li  Li9  1  0.17679988  0.82141748  0.68437175  1
  Li  Li10  1  0.95011681  0.57727338  0.17649788  1
