# generated using pymatgen
data_Li2MnSb4P3
_symmetry_space_group_name_H-M   'P 1'
_cell_length_a   4.63144307
_cell_length_b   4.99236848
_cell_length_c   7.03901627
_cell_angle_alpha   97.74601702
_cell_angle_beta   99.17587288
_cell_angle_gamma   98.81592376
_symmetry_Int_Tables_number   1
_chemical_formula_structural   Li2MnSb4P3
_chemical_formula_sum   'Li2 Mn1 Sb4 P3'
_cell_volume   156.64526002
_cell_formula_units_Z   1
loop_
 _symmetry_equiv_pos_site_id
 _symmetry_equiv_pos_as_xyz
  1  'x, y, z'
loop_
 _atom_site_type_symbol
 _atom_site_label
 _atom_site_symmetry_multiplicity
 _atom_site_fract_x
 _atom_site_fract_y
 _atom_site_fract_z
 _atom_site_occupancy
  Mn  Mn0  1  0.00000000  0.00000000  0.00000000  1
  Sb  Sb1  1  0.33300000  0.66700000  0.25000000  1
  Sb  Sb2  1  0.66700000  0.33300000  0.50000000  1
  Sb  Sb3  1  0.00000000  0.00000000  0.75000000  1
  Sb  Sb4  1  0.59777456  0.19906840  0.45077128  1
  P  P5  1  0.20808779  0.64806051  0.11306151  1
  P  P6  1  0.65935013  0.07439575  0.42897970  1
  P  P7  1  0.93882345  0.65520394  0.24738594  1
  Li  Li8  1  0.05540576  0.32905157  0.32920983  1
  Li  Li9  1  0.04827040  0.74825147  0.92079071  1
