# generated using pymatgen
data_Li2MnSb4P3
_symmetry_space_group_name_H-M   'P 1'
_cell_length_a   6.72999500
_cell_length_b   7.30356448
_cell_length_c   7.28181748
_cell_angle_alpha   92.94986842
_cell_angle_beta   91.64228883
_cell_angle_gamma   93.09938391
_symmetry_Int_Tables_number   1
_chemical_formula_structural   Li2MnSb4P3
_chemical_formula_sum   'Li2 Mn1 Sb4 P3'
_cell_volume   356.74824529
_cell_formula_units_Z   1
loop_
 _symmetry_equiv_pos_site_id
 _symmetry_equiv_pos_as_xyz
  1  'x, y, z'
loop_
 _atom_site_type_symbol
 _atom_site_label
 _atom_site_symmetry_multiplicity
 _atom_site_fract_x
 _atom_site_fract_y
 _atom_site_fract_z
 _atom_site_occupancy
  Mn  Mn0  1  0.12500000  0.00000000  0.25000000  1
  Sb  Sb1  1  0.00000000  0.00000000  0.00000000  1
  Sb  Sb2  1  0.37500000  0.00000000  0.25000000  1
  Sb  Sb3  1  0.25000000  0.25000000  0.25000000  1
  Sb  Sb4  1  0.00000000  0.25000000  0.12500000  1
  P  P5  1  0.98218162  0.93207159  0.48302108  1
  P  P6  1  0.95558997  0.01149375  0.12175118  1
  P  P7  1  0.21514886  0.50551557  0.83284248  1
  Li  Li8  1  0.79433064  0.95369958  0.16765081  1
  Li  Li9  1  0.51470759  0.37682265  0.80992093  1
