# generated using pymatgen
data_Li2MnSb4(MoP)2
_symmetry_space_group_name_H-M   'P 1'
_cell_length_a   4.03958416
_cell_length_b   4.20987004
_cell_length_c   6.03167929
_cell_angle_alpha   104.61230725
_cell_angle_beta   95.32708182
_cell_angle_gamma   103.86495174
_symmetry_Int_Tables_number   1
_chemical_formula_structural   Li2MnSb4(MoP)2
_chemical_formula_sum   'Li2 Mn1 Sb4 Mo2 P2'
_cell_volume   95.07407983
_cell_formula_units_Z   1
loop_
 _symmetry_equiv_pos_site_id
 _symmetry_equiv_pos_as_xyz
  1  'x, y, z'
loop_
 _atom_site_type_symbol
 _atom_site_label
 _atom_site_symmetry_multiplicity
 _atom_site_fract_x
 _atom_site_fract_y
 _atom_site_fract_z
 _atom_site_occupancy
  Mn  Mn0  1  0.00000000  0.00000000  0.00000000  1
  Sb  Sb1  1  0.50000000  0.50000000  0.50000000  1
  Sb  Sb2  1  0.25000000  0.25000000  0.25000000  1
  Sb  Sb3  1  0.75000000  0.25000000  0.00000000  1
  Sb  Sb4  1  0.25000000  0.75000000  0.50000000  1
  P  P5  1  0.48599969  0.10709800  0.83815415  1
  P  P6  1  0.32224519  0.69829616  0.93630470  1
  Mo  Mo7  1  0.97353454  0.98245959  0.69098891  1
  Mo  Mo8  1  0.30585055  0.09633329  0.76521720  1
  Li  Li9  1  0.46847471  0.87973828  0.63605849  1
  Li  Li10  1  0.75377397  0.46641002  0.56904890  1
