# generated using pymatgen
data_Li2Ti2P5Se2O
_symmetry_space_group_name_H-M   'P 1'
_cell_length_a   7.62935074
_cell_length_b   7.34194029
_cell_length_c   7.38332983
_cell_angle_alpha   90.36115982
_cell_angle_beta   91.71828872
_cell_angle_gamma   90.41290211
_symmetry_Int_Tables_number   1
_chemical_formula_structural   Li2Ti2P5Se2O
_chemical_formula_sum   'Li2 Ti2 P5 Se2 O1'
_cell_volume   413.36609662
_cell_formula_units_Z   1
loop_
 _symmetry_equiv_pos_site_id
 _symmetry_equiv_pos_as_xyz
  1  'x, y, z'
loop_
 _atom_site_type_symbol
 _atom_site_label
 _atom_site_symmetry_multiplicity
 _atom_site_fract_x
 _atom_site_fract_y
 _atom_site_fract_z
 _atom_site_occupancy
  P  P0  1  0.00000000  0.00000000  0.00000000  1
  P  P1  1  0.50000000  0.50000000  0.50000000  1
  P  P2  1  0.50000000  0.50000000  0.00000000  1
  P  P3  1  0.50000000  0.00000000  0.50000000  1
  P  P4  1  0.00000000  0.50000000  0.50000000  1
  Li  Li5  1  0.64032797  0.95250795  0.37118704  1
  Li  Li6  1  0.29619972  0.55243353  0.82190271  1
  Se  Se7  1  0.70542209  0.00011137  0.02712615  1
  Se  Se8  1  0.09053654  0.93330279  0.64459120  1
  Ti  Ti9  1  0.69179014  0.03759571  0.49698461  1
  Ti  Ti10  1  0.24378409  0.64825792  0.44040336  1
  O  O11  1  0.87242743  0.61476500  0.75377789  1
