# generated using pymatgen
data_LiMnSb2Mo2P3
_symmetry_space_group_name_H-M   'P 1'
_cell_length_a   4.88621072
_cell_length_b   4.88550178
_cell_length_c   6.04746459
_cell_angle_alpha   98.50746586
_cell_angle_beta   91.39540313
_cell_angle_gamma   98.16429797
_symmetry_Int_Tables_number   1
_chemical_formula_structural   LiMnSb2Mo2P3
_chemical_formula_sum   'Li1 Mn1 Sb2 Mo2 P3'
_cell_volume   141.17530077
_cell_formula_units_Z   1
loop_
 _symmetry_equiv_pos_site_id
 _symmetry_equiv_pos_as_xyz
  1  'x, y, z'
loop_
 _atom_site_type_symbol
 _atom_site_label
 _atom_site_symmetry_multiplicity
 _atom_site_fract_x
 _atom_site_fract_y
 _atom_site_fract_z
 _atom_site_occupancy
  Mn  Mn0  1  0.12500000  0.00000000  0.25000000  1
  Sb  Sb1  1  0.00000000  0.00000000  0.00000000  1
  Sb  Sb2  1  0.37500000  0.00000000  0.25000000  1
  P  P3  1  0.25000000  0.25000000  0.25000000  1
  P  P4  1  0.00000000  0.25000000  0.12500000  1
  P  P5  1  0.06204972  0.77703436  0.40011949  1
  Mo  Mo6  1  0.62093487  0.96880584  0.41366793  1
  Mo  Mo7  1  0.80494403  0.35923899  0.70752220  1
  Li  Li8  1  0.49305755  0.18364406  0.34237952  1
