# generated using pymatgen
data_Li2Mn3Sb4P4W
_symmetry_space_group_name_H-M   'P 1'
_cell_length_a   7.02133702
_cell_length_b   7.11821485
_cell_length_c   7.32708592
_cell_angle_alpha   91.98637094
_cell_angle_beta   90.19184024
_cell_angle_gamma   91.57065888
_symmetry_Int_Tables_number   1
_chemical_formula_structural   Li2Mn3Sb4P4W
_chemical_formula_sum   'Li2 Mn3 Sb4 P4 W1'
_cell_volume   365.84230738
_cell_formula_units_Z   1
loop_
 _symmetry_equiv_pos_site_id
 _symmetry_equiv_pos_as_xyz
  1  'x, y, z'
loop_
 _atom_site_type_symbol
 _atom_site_label
 _atom_site_symmetry_multiplicity
 _atom_site_fract_x
 _atom_site_fract_y
 _atom_site_fract_z
 _atom_site_occupancy
  Mn  Mn0  1  0.12500000  0.00000000  0.25000000  1
  Mn  Mn1  1  0.00000000  0.00000000  0.00000000  1
  Mn  Mn2  1  0.37500000  0.00000000  0.25000000  1
  W  W3  1  0.25000000  0.25000000  0.25000000  1
  Sb  Sb4  1  0.00000000  0.25000000  0.12500000  1
  Sb  Sb5  1  0.37352688  0.08485055  0.11181572  1
  Sb  Sb6  1  0.23455698  0.53702641  0.21260977  1
  Sb  Sb7  1  0.83560608  0.13837323  0.71778376  1
  P  P8  1  0.02489772  0.94454625  0.18972208  1
  P  P9  1  0.49869421  0.24379057  0.76237092  1
  P  P10  1  0.83485169  0.65509859  0.78558633  1
  P  P11  1  0.15506221  0.17039587  0.83816775  1
  Li  Li12  1  0.65817528  0.48828604  0.24545061  1
  Li  Li13  1  0.37343478  0.12402664  0.61106244  1
