# generated using pymatgen
data_Li2MnSb4Mo2P3
_symmetry_space_group_name_H-M   'P 1'
_cell_length_a   5.92325226
_cell_length_b   6.13389310
_cell_length_c   7.05658576
_cell_angle_alpha   96.51171459
_cell_angle_beta   93.05399094
_cell_angle_gamma   96.76220338
_symmetry_Int_Tables_number   1
_chemical_formula_structural   Li2MnSb4Mo2P3
_chemical_formula_sum   'Li2 Mn1 Sb4 Mo2 P3'
_cell_volume   252.38052159
_cell_formula_units_Z   1
loop_
 _symmetry_equiv_pos_site_id
 _symmetry_equiv_pos_as_xyz
  1  'x, y, z'
loop_
 _atom_site_type_symbol
 _atom_site_label
 _atom_site_symmetry_multiplicity
 _atom_site_fract_x
 _atom_site_fract_y
 _atom_site_fract_z
 _atom_site_occupancy
  Mn  Mn0  1  0.00000000  0.00000000  0.00000000  1
  Sb  Sb1  1  0.50000000  0.50000000  0.50000000  1
  Sb  Sb2  1  0.25000000  0.25000000  0.25000000  1
  Sb  Sb3  1  0.75000000  0.25000000  0.00000000  1
  Sb  Sb4  1  0.25000000  0.75000000  0.50000000  1
  P  P5  1  0.12101076  0.74816548  0.94895120  1
  P  P6  1  0.11688107  0.74246757  0.02525409  1
  P  P7  1  0.61610578  0.22035767  0.14153722  1
  Mo  Mo8  1  0.23209849  0.43704087  0.25454460  1
  Mo  Mo9  1  0.24539536  0.97115561  0.47334294  1
  Li  Li10  1  0.59447623  0.15625874  0.22974118  1
  Li  Li11  1  0.42649347  0.26997335  0.40181818  1
