# generated using pymatgen
data_Li2MnSb4P3
_symmetry_space_group_name_H-M   'P 1'
_cell_length_a   5.95586555
_cell_length_b   6.29076281
_cell_length_c   7.05007796
_cell_angle_alpha   96.07119418
_cell_angle_beta   93.02816961
_cell_angle_gamma   96.32991372
_symmetry_Int_Tables_number   1
_chemical_formula_structural   Li2MnSb4P3
_chemical_formula_sum   'Li2 Mn1 Sb4 P3'
_cell_volume   260.50566239
_cell_formula_units_Z   1
loop_
 _symmetry_equiv_pos_site_id
 _symmetry_equiv_pos_as_xyz
  1  'x, y, z'
loop_
 _atom_site_type_symbol
 _atom_site_label
 _atom_site_symmetry_multiplicity
 _atom_site_fract_x
 _atom_site_fract_y
 _atom_site_fract_z
 _atom_site_occupancy
  Mn  Mn0  1  0.00000000  0.00000000  0.00000000  1
  Sb  Sb1  1  0.50000000  0.50000000  0.50000000  1
  Sb  Sb2  1  0.50000000  0.50000000  0.00000000  1
  Sb  Sb3  1  0.50000000  0.00000000  0.50000000  1
  Sb  Sb4  1  0.00000000  0.50000000  0.50000000  1
  P  P5  1  0.03780768  0.30737529  0.64310795  1
  P  P6  1  0.31377803  0.70674310  0.90578583  1
  P  P7  1  0.82524130  0.52013098  0.97294426  1
  Li  Li8  1  0.13696089  0.58267761  0.21017370  1
  Li  Li9  1  0.01978394  0.99564829  0.22114373  1
