# generated using pymatgen
data_LiMn2Sb4P3
_symmetry_space_group_name_H-M   'P 1'
_cell_length_a   5.57695374
_cell_length_b   5.92302390
_cell_length_c   6.66464124
_cell_angle_alpha   95.90889392
_cell_angle_beta   92.57465766
_cell_angle_gamma   95.96311870
_symmetry_Int_Tables_number   1
_chemical_formula_structural   LiMn2Sb4P3
_chemical_formula_sum   'Li1 Mn2 Sb4 P3'
_cell_volume   217.45027515
_cell_formula_units_Z   1
loop_
 _symmetry_equiv_pos_site_id
 _symmetry_equiv_pos_as_xyz
  1  'x, y, z'
loop_
 _atom_site_type_symbol
 _atom_site_label
 _atom_site_symmetry_multiplicity
 _atom_site_fract_x
 _atom_site_fract_y
 _atom_site_fract_z
 _atom_site_occupancy
  Mn  Mn0  1  0.12500000  0.00000000  0.25000000  1
  Mn  Mn1  1  0.00000000  0.00000000  0.00000000  1
  Sb  Sb2  1  0.37500000  0.00000000  0.25000000  1
  Sb  Sb3  1  0.25000000  0.25000000  0.25000000  1
  Sb  Sb4  1  0.00000000  0.25000000  0.12500000  1
  Sb  Sb5  1  0.22776233  0.14584817  0.82027491  1
  P  P6  1  0.43836537  0.17535920  0.95520892  1
  P  P7  1  0.50814785  0.74688540  0.87858018  1
  P  P8  1  0.88823131  0.83905351  0.00485942  1
  Li  Li9  1  0.29967865  0.30444521  0.18290280  1
