# generated using pymatgen
data_Li2Ni2As6O7
_symmetry_space_group_name_H-M   'P 1'
_cell_length_a   8.01987800
_cell_length_b   7.99479450
_cell_length_c   9.22374961
_cell_angle_alpha   90.16890912
_cell_angle_beta   90.80361831
_cell_angle_gamma   90.19310823
_symmetry_Int_Tables_number   1
_chemical_formula_structural   Li2Ni2As6O7
_chemical_formula_sum   'Li2 Ni2 As6 O7'
_cell_volume   591.33752236
_cell_formula_units_Z   1
loop_
 _symmetry_equiv_pos_site_id
 _symmetry_equiv_pos_as_xyz
  1  'x, y, z'
loop_
 _atom_site_type_symbol
 _atom_site_label
 _atom_site_symmetry_multiplicity
 _atom_site_fract_x
 _atom_site_fract_y
 _atom_site_fract_z
 _atom_site_occupancy
  Ni  Ni0  1  0.00000000  0.00000000  0.00000000  1
  Ni  Ni1  1  0.50000000  0.50000000  0.50000000  1
  O  O2  1  0.50000000  0.50000000  0.00000000  1
  O  O3  1  0.50000000  0.00000000  0.50000000  1
  O  O4  1  0.00000000  0.50000000  0.50000000  1
  O  O5  1  0.86392500  0.67592787  0.90812508  1
  O  O6  1  0.85919401  0.22418213  0.81075277  1
  O  O7  1  0.40170438  0.28016035  0.70194396  1
  O  O8  1  0.77764924  0.52331593  0.05075071  1
  As  As9  1  0.92091505  0.99142270  0.22865142  1
  As  As10  1  0.45767989  0.83258597  0.38406828  1
  As  As11  1  0.47264404  0.50341867  0.87119280  1
  As  As12  1  0.77825654  0.09397777  0.89994870  1
  As  As13  1  0.88360273  0.97621840  0.30940177  1
  As  As14  1  0.08052854  0.83603525  0.09156967  1
  Li  Li15  1  0.39125550  0.26933859  0.53887798  1
  Li  Li16  1  0.68217260  0.60381434  0.92921466  1
