# generated using pymatgen
data_Li3TiI4(NO)5
_symmetry_space_group_name_H-M   'P 1'
_cell_length_a   8.09794586
_cell_length_b   7.81167180
_cell_length_c   7.49927024
_cell_angle_alpha   92.34477306
_cell_angle_beta   90.82897574
_cell_angle_gamma   92.71965290
_symmetry_Int_Tables_number   1
_chemical_formula_structural   Li3TiI4(NO)5
_chemical_formula_sum   'Li3 Ti1 I4 N5 O5'
_cell_volume   473.39747831
_cell_formula_units_Z   1
loop_
 _symmetry_equiv_pos_site_id
 _symmetry_equiv_pos_as_xyz
  1  'x, y, z'
loop_
 _atom_site_type_symbol
 _atom_site_label
 _atom_site_symmetry_multiplicity
 _atom_site_fract_x
 _atom_site_fract_y
 _atom_site_fract_z
 _atom_site_occupancy
  I  I0  1  0.12500000  0.00000000  0.25000000  1
  I  I1  1  0.00000000  0.00000000  0.00000000  1
  I  I2  1  0.37500000  0.00000000  0.25000000  1
  I  I3  1  0.25000000  0.25000000  0.25000000  1
  Li  Li4  1  0.00000000  0.25000000  0.12500000  1
  Li  Li5  1  0.45726844  0.54708883  0.82922524  1
  Li  Li6  1  0.53572866  0.04269392  0.99173955  1
  Ti  Ti7  1  0.72655414  0.74399622  0.55884251  1
  O  O8  1  0.79437844  0.79464270  0.24854236  1
  O  O9  1  0.09977214  0.28867747  0.91598020  1
  O  O10  1  0.59034778  0.68469538  0.29903526  1
  O  O11  1  0.53389441  0.13762855  0.87273769  1
  O  O12  1  0.62206161  0.27455635  0.22311828  1
  N  N13  1  0.98704214  0.60611911  0.39977657  1
  N  N14  1  0.60404282  0.31869193  0.53159560  1
  N  N15  1  0.72594784  0.26839393  0.30459043  1
  N  N16  1  0.59319020  0.97124313  0.36335780  1
  N  N17  1  0.45121566  0.56355587  0.09890945  1
