# generated using pymatgen
data_Li2MnMo2P3
_symmetry_space_group_name_H-M   'P 1'
_cell_length_a   5.22027946
_cell_length_b   5.48588414
_cell_length_c   6.85421119
_cell_angle_alpha   98.35056130
_cell_angle_beta   94.77193224
_cell_angle_gamma   98.79092900
_symmetry_Int_Tables_number   1
_chemical_formula_structural   Li2MnMo2P3
_chemical_formula_sum   'Li2 Mn1 Mo2 P3'
_cell_volume   190.80931832
_cell_formula_units_Z   1
loop_
 _symmetry_equiv_pos_site_id
 _symmetry_equiv_pos_as_xyz
  1  'x, y, z'
loop_
 _atom_site_type_symbol
 _atom_site_label
 _atom_site_symmetry_multiplicity
 _atom_site_fract_x
 _atom_site_fract_y
 _atom_site_fract_z
 _atom_site_occupancy
  Mn  Mn0  1  0.00000000  0.00000000  0.00000000  1
  P  P1  1  0.50000000  0.50000000  0.50000000  1
  P  P2  1  0.50000000  0.50000000  0.00000000  1
  P  P3  1  0.50000000  0.00000000  0.50000000  1
  Mo  Mo4  1  0.00000000  0.50000000  0.50000000  1
  Mo  Mo5  1  0.37202252  0.88400660  0.33460727  1
  Li  Li6  1  0.15147167  0.00403923  0.46706305  1
  Li  Li7  1  0.31008765  0.26925922  0.29409561  1
