# generated using pymatgen
data_Li2MnSb4P3N5
_symmetry_space_group_name_H-M   'P 1'
_cell_length_a   6.09975148
_cell_length_b   6.51277702
_cell_length_c   7.49788454
_cell_angle_alpha   95.18767226
_cell_angle_beta   94.03191024
_cell_angle_gamma   95.60989641
_symmetry_Int_Tables_number   1
_chemical_formula_structural   Li2MnSb4P3N5
_chemical_formula_sum   'Li2 Mn1 Sb4 P3 N5'
_cell_volume   294.27963247
_cell_formula_units_Z   1
loop_
 _symmetry_equiv_pos_site_id
 _symmetry_equiv_pos_as_xyz
  1  'x, y, z'
loop_
 _atom_site_type_symbol
 _atom_site_label
 _atom_site_symmetry_multiplicity
 _atom_site_fract_x
 _atom_site_fract_y
 _atom_site_fract_z
 _atom_site_occupancy
  Mn  Mn0  1  0.12500000  0.00000000  0.25000000  1
  Sb  Sb1  1  0.00000000  0.00000000  0.00000000  1
  Sb  Sb2  1  0.37500000  0.00000000  0.25000000  1
  Sb  Sb3  1  0.25000000  0.25000000  0.25000000  1
  Sb  Sb4  1  0.00000000  0.25000000  0.12500000  1
  P  P5  1  0.32609518  0.18744954  0.53462698  1
  P  P6  1  0.28325250  0.61251515  0.43084497  1
  P  P7  1  0.80706981  0.36659925  0.73139564  1
  Li  Li8  1  0.10365579  0.82099891  0.52765451  1
  Li  Li9  1  0.80269689  0.05032769  0.72292760  1
  N  N10  1  0.11894402  0.45265616  0.17182990  1
  N  N11  1  0.04194426  0.64741013  0.00778247  1
  N  N12  1  0.60334527  0.22601899  0.16116988  1
  N  N13  1  0.19008306  0.90861162  0.22500709  1
  N  N14  1  0.38334510  0.95707549  0.71167769  1
