# generated using pymatgen
data_LiAs3I2
_symmetry_space_group_name_H-M   'P 1'
_cell_length_a   7.68512013
_cell_length_b   7.77100318
_cell_length_c   8.03471521
_cell_angle_alpha   90.39230179
_cell_angle_beta   91.86645277
_cell_angle_gamma   90.44850570
_symmetry_Int_Tables_number   1
_chemical_formula_structural   LiAs3I2
_chemical_formula_sum   'Li2 As6 I4'
_cell_volume   479.56059629
_cell_formula_units_Z   2
loop_
 _symmetry_equiv_pos_site_id
 _symmetry_equiv_pos_as_xyz
  1  'x, y, z'
loop_
 _atom_site_type_symbol
 _atom_site_label
 _atom_site_symmetry_multiplicity
 _atom_site_fract_x
 _atom_site_fract_y
 _atom_site_fract_z
 _atom_site_occupancy
  I  I0  1  0.00000000  0.00000000  0.00000000  1
  I  I1  1  0.33300000  0.66700000  0.25000000  1
  I  I2  1  0.66700000  0.33300000  0.50000000  1
  I  I3  1  0.00000000  0.00000000  0.75000000  1
  As  As4  1  0.61719694  0.78605466  0.01061762  1
  As  As5  1  0.50985529  0.01650562  0.79843338  1
  As  As6  1  0.61960980  0.69550059  0.07265362  1
  As  As7  1  0.30530146  0.24522576  0.90971358  1
  As  As8  1  0.31782970  0.18225478  0.48611440  1
  As  As9  1  0.07672604  0.97746754  0.44776287  1
  Li  Li10  1  0.12147628  0.37886322  0.47873582  1
  Li  Li11  1  0.63857317  0.42090214  0.53892794  1
