# generated using pymatgen
data_Li2Mn3Sb4P3
_symmetry_space_group_name_H-M   'P 1'
_cell_length_a   6.72392242
_cell_length_b   7.28353009
_cell_length_c   7.18630351
_cell_angle_alpha   93.53823154
_cell_angle_beta   90.87048527
_cell_angle_gamma   93.56446699
_symmetry_Int_Tables_number   1
_chemical_formula_structural   Li2Mn3Sb4P3
_chemical_formula_sum   'Li2 Mn3 Sb4 P3'
_cell_volume   350.52687830
_cell_formula_units_Z   1
loop_
 _symmetry_equiv_pos_site_id
 _symmetry_equiv_pos_as_xyz
  1  'x, y, z'
loop_
 _atom_site_type_symbol
 _atom_site_label
 _atom_site_symmetry_multiplicity
 _atom_site_fract_x
 _atom_site_fract_y
 _atom_site_fract_z
 _atom_site_occupancy
  Mn  Mn0  1  0.12500000  0.12500000  0.12500000  1
  Mn  Mn1  1  0.50000000  0.50000000  0.50000000  1
  Mn  Mn2  1  0.25000000  0.25000000  0.25000000  1
  Sb  Sb3  1  0.75000000  0.75000000  0.75000000  1
  Sb  Sb4  1  0.84470785  0.72127288  0.27205104  1
  Sb  Sb5  1  0.67922579  0.35680908  0.42142171  1
  Sb  Sb6  1  0.62029011  0.57245802  0.60775109  1
  P  P7  1  0.69120207  0.40221170  0.83375492  1
  P  P8  1  0.98736545  0.28248608  0.66957041  1
  P  P9  1  0.63604728  0.80474994  0.40099332  1
  Li  Li10  1  0.33365011  0.63599160  0.48121935  1
  Li  Li11  1  0.66369496  0.22623073  0.25581985  1
