# generated using pymatgen
data_LiMnSb4P3N5
_symmetry_space_group_name_H-M   'P 1'
_cell_length_a   6.55885059
_cell_length_b   6.96291374
_cell_length_c   7.45427636
_cell_angle_alpha   93.38148948
_cell_angle_beta   92.74598332
_cell_angle_gamma   93.62785475
_symmetry_Int_Tables_number   1
_chemical_formula_structural   LiMnSb4P3N5
_chemical_formula_sum   'Li1 Mn1 Sb4 P3 N5'
_cell_volume   338.69756216
_cell_formula_units_Z   1
loop_
 _symmetry_equiv_pos_site_id
 _symmetry_equiv_pos_as_xyz
  1  'x, y, z'
loop_
 _atom_site_type_symbol
 _atom_site_label
 _atom_site_symmetry_multiplicity
 _atom_site_fract_x
 _atom_site_fract_y
 _atom_site_fract_z
 _atom_site_occupancy
  N  N0  1  0.00000000  0.00000000  0.00000000  1
  N  N1  1  0.50000000  0.50000000  0.50000000  1
  N  N2  1  0.50000000  0.50000000  0.00000000  1
  N  N3  1  0.50000000  0.00000000  0.50000000  1
  N  N4  1  0.00000000  0.50000000  0.50000000  1
  Mn  Mn5  1  0.50818480  0.34660442  0.05704379  1
  Sb  Sb6  1  0.42119853  0.68022224  0.27534524  1
  Sb  Sb7  1  0.66335468  0.99295702  0.19330656  1
  Sb  Sb8  1  0.19679777  0.03716330  0.14908581  1
  Sb  Sb9  1  0.19081039  0.62811120  0.18283097  1
  P  P10  1  0.77460159  0.01243757  0.30395187  1
  P  P11  1  0.73514411  0.35923572  0.54766222  1
  P  P12  1  0.53091845  0.15066793  0.63280057  1
  Li  Li13  1  0.01937390  0.66815211  0.59806438  1
