# generated using pymatgen
data_Li2MnSb4P2N
_symmetry_space_group_name_H-M   'P 1'
_cell_length_a   4.62016448
_cell_length_b   4.83715660
_cell_length_c   6.60260693
_cell_angle_alpha   100.54044968
_cell_angle_beta   97.66111635
_cell_angle_gamma   99.94107572
_symmetry_Int_Tables_number   1
_chemical_formula_structural   Li2MnSb4P2N
_chemical_formula_sum   'Li2 Mn1 Sb4 P2 N1'
_cell_volume   140.80329572
_cell_formula_units_Z   1
loop_
 _symmetry_equiv_pos_site_id
 _symmetry_equiv_pos_as_xyz
  1  'x, y, z'
loop_
 _atom_site_type_symbol
 _atom_site_label
 _atom_site_symmetry_multiplicity
 _atom_site_fract_x
 _atom_site_fract_y
 _atom_site_fract_z
 _atom_site_occupancy
  N  N0  1  0.00000000  0.00000000  0.00000000  1
  Mn  Mn1  1  0.50000000  0.50000000  0.50000000  1
  Sb  Sb2  1  0.25000000  0.25000000  0.25000000  1
  Sb  Sb3  1  0.75000000  0.25000000  0.00000000  1
  Sb  Sb4  1  0.25000000  0.75000000  0.50000000  1
  Sb  Sb5  1  0.91356034  0.34824397  0.91273053  1
  P  P6  1  0.09237141  0.12131865  0.45246424  1
  P  P7  1  0.21674130  0.77251608  0.20907000  1
  Li  Li8  1  0.92737667  0.22199265  0.98896837  1
  Li  Li9  1  0.77035863  0.93071296  0.65099945  1
