# generated using pymatgen
data_Li3Te6(IO)4
_symmetry_space_group_name_H-M   'P 1'
_cell_length_a   6.14533117
_cell_length_b   5.92338336
_cell_length_c   7.16174469
_cell_angle_alpha   99.68290610
_cell_angle_beta   102.69958650
_cell_angle_gamma   99.10476403
_symmetry_Int_Tables_number   1
_chemical_formula_structural   Li3Te6(IO)4
_chemical_formula_sum   'Li3 Te6 I4 O4'
_cell_volume   245.47506269
_cell_formula_units_Z   1
loop_
 _symmetry_equiv_pos_site_id
 _symmetry_equiv_pos_as_xyz
  1  'x, y, z'
loop_
 _atom_site_type_symbol
 _atom_site_label
 _atom_site_symmetry_multiplicity
 _atom_site_fract_x
 _atom_site_fract_y
 _atom_site_fract_z
 _atom_site_occupancy
  I  I0  1  0.12500000  0.12500000  0.12500000  1
  I  I1  1  0.50000000  0.50000000  0.50000000  1
  I  I2  1  0.25000000  0.25000000  0.25000000  1
  I  I3  1  0.75000000  0.75000000  0.75000000  1
  Li  Li4  1  0.10951537  0.37754167  0.94335805  1
  Li  Li5  1  0.63984388  0.98799228  0.38323664  1
  Li  Li6  1  0.27458268  0.55090245  0.76143735  1
  Te  Te7  1  0.93387058  0.88831736  0.66442739  1
  Te  Te8  1  0.03633598  0.44620185  0.49650519  1
  Te  Te9  1  0.65204384  0.18194079  0.92564690  1
  Te  Te10  1  0.36606479  0.74370202  0.94768132  1
  Te  Te11  1  0.27957164  0.64373592  0.78745762  1
  Te  Te12  1  0.05381088  0.98544780  0.11425951  1
  O  O13  1  0.73380752  0.42250773  0.21924754  1
  O  O14  1  0.42233815  0.98549848  0.76958844  1
  O  O15  1  0.50367492  0.83105418  0.50427826  1
  O  O16  1  0.43439366  0.45386147  0.19474227  1
