# generated using pymatgen
data_Li4Ti3P4N5O2
_symmetry_space_group_name_H-M   'P 1'
_cell_length_a   6.52549752
_cell_length_b   6.43936675
_cell_length_c   8.03148361
_cell_angle_alpha   96.70258250
_cell_angle_beta   96.87147827
_cell_angle_gamma   98.34553417
_symmetry_Int_Tables_number   1
_chemical_formula_structural   Li4Ti3P4N5O2
_chemical_formula_sum   'Li4 Ti3 P4 N5 O2'
_cell_volume   328.40860574
_cell_formula_units_Z   1
loop_
 _symmetry_equiv_pos_site_id
 _symmetry_equiv_pos_as_xyz
  1  'x, y, z'
loop_
 _atom_site_type_symbol
 _atom_site_label
 _atom_site_symmetry_multiplicity
 _atom_site_fract_x
 _atom_site_fract_y
 _atom_site_fract_z
 _atom_site_occupancy
  P  P0  1  0.12500000  0.00000000  0.25000000  1
  P  P1  1  0.00000000  0.00000000  0.00000000  1
  P  P2  1  0.37500000  0.00000000  0.25000000  1
  P  P3  1  0.25000000  0.25000000  0.25000000  1
  Li  Li4  1  0.00000000  0.25000000  0.12500000  1
  Li  Li5  1  0.28900242  0.78692102  0.71126784  1
  Li  Li6  1  0.74490867  0.42341406  0.46434076  1
  Li  Li7  1  0.47785642  0.97592575  0.17539618  1
  Ti  Ti8  1  0.21434949  0.54905857  0.09592938  1
  Ti  Ti9  1  0.05501438  0.56371160  0.71383188  1
  Ti  Ti10  1  0.83968921  0.75476790  0.44580353  1
  O  O11  1  0.33676987  0.32864075  0.48118579  1
  O  O12  1  0.08857209  0.36252416  0.43069959  1
  N  N13  1  0.27037094  0.04498275  0.73712161  1
  N  N14  1  0.89481541  0.95050228  0.87624666  1
  N  N15  1  0.73071733  0.09628519  0.56635838  1
  N  N16  1  0.13791583  0.23327448  0.14692862  1
  N  N17  1  0.71600450  0.03905913  0.39397934  1
