# generated using pymatgen
data_Li3(CuO)2
_symmetry_space_group_name_H-M   'P 1'
_cell_length_a   4.90356855
_cell_length_b   4.77388278
_cell_length_c   7.11502691
_cell_angle_alpha   100.82052563
_cell_angle_beta   102.98594917
_cell_angle_gamma   101.42227816
_symmetry_Int_Tables_number   1
_chemical_formula_structural   Li3(CuO)2
_chemical_formula_sum   'Li3 Cu2 O2'
_cell_volume   154.30796859
_cell_formula_units_Z   1
loop_
 _symmetry_equiv_pos_site_id
 _symmetry_equiv_pos_as_xyz
  1  'x, y, z'
loop_
 _atom_site_type_symbol
 _atom_site_label
 _atom_site_symmetry_multiplicity
 _atom_site_fract_x
 _atom_site_fract_y
 _atom_site_fract_z
 _atom_site_occupancy
  Li  Li0  1  0.00000000  0.00000000  0.00000000  1
  Li  Li1  1  0.50000000  0.50000000  0.50000000  1
  Li  Li2  1  0.50000000  0.50000000  0.00000000  1
  O  O3  1  0.50000000  0.00000000  0.50000000  1
  O  O4  1  0.00000000  0.50000000  0.50000000  1
  Cu  Cu5  1  0.60999660  0.68342533  0.03970871  1
  Cu  Cu6  1  0.38495677  0.36612355  0.84687707  1
