# generated using pymatgen
data_Li2Ti(I2F)2
_symmetry_space_group_name_H-M   'P 1'
_cell_length_a   8.28763670
_cell_length_b   8.04990691
_cell_length_c   7.71400371
_cell_angle_alpha   90.19441865
_cell_angle_beta   90.92498491
_cell_angle_gamma   90.22227244
_symmetry_Int_Tables_number   1
_chemical_formula_structural   Li2Ti(I2F)2
_chemical_formula_sum   'Li2 Ti1 I4 F2'
_cell_volume   514.56346497
_cell_formula_units_Z   1
loop_
 _symmetry_equiv_pos_site_id
 _symmetry_equiv_pos_as_xyz
  1  'x, y, z'
loop_
 _atom_site_type_symbol
 _atom_site_label
 _atom_site_symmetry_multiplicity
 _atom_site_fract_x
 _atom_site_fract_y
 _atom_site_fract_z
 _atom_site_occupancy
  I  I0  1  0.12500000  0.00000000  0.25000000  1
  I  I1  1  0.00000000  0.00000000  0.00000000  1
  I  I2  1  0.37500000  0.00000000  0.25000000  1
  I  I3  1  0.25000000  0.25000000  0.25000000  1
  Li  Li4  1  0.00000000  0.25000000  0.12500000  1
  Li  Li5  1  0.41709096  0.40454252  0.50405531  1
  F  F6  1  0.41686508  0.71440441  0.06653037  1
  F  F7  1  0.89613842  0.26126185  0.78363533  1
  Ti  Ti8  1  0.21332852  0.33037214  0.18674983  1
