# generated using pymatgen
data_LiMn(Sb2P)2
_symmetry_space_group_name_H-M   'P 1'
_cell_length_a   5.89661198
_cell_length_b   6.10979428
_cell_length_c   7.17233991
_cell_angle_alpha   94.92904146
_cell_angle_beta   94.89747905
_cell_angle_gamma   95.44492161
_symmetry_Int_Tables_number   1
_chemical_formula_structural   LiMn(Sb2P)2
_chemical_formula_sum   'Li1 Mn1 Sb4 P2'
_cell_volume   255.13929894
_cell_formula_units_Z   1
loop_
 _symmetry_equiv_pos_site_id
 _symmetry_equiv_pos_as_xyz
  1  'x, y, z'
loop_
 _atom_site_type_symbol
 _atom_site_label
 _atom_site_symmetry_multiplicity
 _atom_site_fract_x
 _atom_site_fract_y
 _atom_site_fract_z
 _atom_site_occupancy
  Mn  Mn0  1  0.12500000  0.12500000  0.12500000  1
  Sb  Sb1  1  0.50000000  0.50000000  0.50000000  1
  Sb  Sb2  1  0.25000000  0.25000000  0.25000000  1
  Sb  Sb3  1  0.75000000  0.75000000  0.75000000  1
  Sb  Sb4  1  0.91833856  0.93054305  0.99430511  1
  P  P5  1  0.77307702  0.73428373  0.74422737  1
  P  P6  1  0.23961610  0.25852160  0.27006399  1
  Li  Li7  1  0.18525113  0.41166602  0.24334413  1
