# generated using pymatgen
data_Li2Ti2(PBr)3
_symmetry_space_group_name_H-M   'P 1'
_cell_length_a   7.70430717
_cell_length_b   7.86469609
_cell_length_c   7.91237900
_cell_angle_alpha   91.01768972
_cell_angle_beta   92.02810132
_cell_angle_gamma   91.28225203
_symmetry_Int_Tables_number   1
_chemical_formula_structural   Li2Ti2(PBr)3
_chemical_formula_sum   'Li2 Ti2 P3 Br3'
_cell_volume   478.92425191
_cell_formula_units_Z   1
loop_
 _symmetry_equiv_pos_site_id
 _symmetry_equiv_pos_as_xyz
  1  'x, y, z'
loop_
 _atom_site_type_symbol
 _atom_site_label
 _atom_site_symmetry_multiplicity
 _atom_site_fract_x
 _atom_site_fract_y
 _atom_site_fract_z
 _atom_site_occupancy
  P  P0  1  0.00000000  0.00000000  0.00000000  1
  P  P1  1  0.50000000  0.50000000  0.50000000  1
  P  P2  1  0.50000000  0.50000000  0.00000000  1
  Li  Li3  1  0.50000000  0.00000000  0.50000000  1
  Li  Li4  1  0.00000000  0.50000000  0.50000000  1
  Ti  Ti5  1  0.54142545  0.75842845  0.31126165  1
  Ti  Ti6  1  0.04632099  0.07992614  0.26498023  1
  Br  Br7  1  0.02523988  0.25336652  0.46238304  1
  Br  Br8  1  0.06938976  0.00743622  0.40117305  1
  Br  Br9  1  0.58849339  0.51120740  0.96206668  1
