# generated using pymatgen
data_LiMn3Sb4P3
_symmetry_space_group_name_H-M   'P 1'
_cell_length_a   4.91150480
_cell_length_b   5.02360069
_cell_length_c   5.74148653
_cell_angle_alpha   92.44719618
_cell_angle_beta   91.07001173
_cell_angle_gamma   92.74559638
_symmetry_Int_Tables_number   1
_chemical_formula_structural   LiMn3Sb4P3
_chemical_formula_sum   'Li1 Mn3 Sb4 P3'
_cell_volume   141.34007729
_cell_formula_units_Z   1
loop_
 _symmetry_equiv_pos_site_id
 _symmetry_equiv_pos_as_xyz
  1  'x, y, z'
loop_
 _atom_site_type_symbol
 _atom_site_label
 _atom_site_symmetry_multiplicity
 _atom_site_fract_x
 _atom_site_fract_y
 _atom_site_fract_z
 _atom_site_occupancy
  Mn  Mn0  1  0.00000000  0.00000000  0.00000000  1
  Mn  Mn1  1  0.50000000  0.50000000  0.50000000  1
  Mn  Mn2  1  0.50000000  0.50000000  0.00000000  1
  Sb  Sb3  1  0.50000000  0.00000000  0.50000000  1
  Sb  Sb4  1  0.00000000  0.50000000  0.50000000  1
  Sb  Sb5  1  0.31460397  0.87814924  0.19237221  1
  Sb  Sb6  1  0.13093007  0.35661223  0.85157589  1
  P  P7  1  0.81027183  0.99908568  0.07131424  1
  P  P8  1  0.96396449  0.43103851  0.24258169  1
  P  P9  1  0.06123344  0.38703192  0.98379968  1
  Li  Li10  1  0.05955368  0.71587760  0.16771569  1
