# generated using pymatgen
data_Li3Lu(NiP3)2
_symmetry_space_group_name_H-M   'P 1'
_cell_length_a   6.62640005
_cell_length_b   6.24011816
_cell_length_c   8.26273388
_cell_angle_alpha   97.82714568
_cell_angle_beta   98.01561397
_cell_angle_gamma   97.83263834
_symmetry_Int_Tables_number   1
_chemical_formula_structural   Li3Lu(NiP3)2
_chemical_formula_sum   'Li3 Lu1 Ni2 P6'
_cell_volume   330.94521368
_cell_formula_units_Z   1
loop_
 _symmetry_equiv_pos_site_id
 _symmetry_equiv_pos_as_xyz
  1  'x, y, z'
loop_
 _atom_site_type_symbol
 _atom_site_label
 _atom_site_symmetry_multiplicity
 _atom_site_fract_x
 _atom_site_fract_y
 _atom_site_fract_z
 _atom_site_occupancy
  Ni  Ni0  1  0.00000000  0.00000000  0.00000000  1
  Ni  Ni1  1  0.50000000  0.50000000  0.50000000  1
  P  P2  1  0.50000000  0.50000000  0.00000000  1
  P  P3  1  0.50000000  0.00000000  0.50000000  1
  P  P4  1  0.00000000  0.50000000  0.50000000  1
  P  P5  1  0.17947341  0.78019881  0.80283739  1
  P  P6  1  0.27111476  0.85801484  0.54726602  1
  P  P7  1  0.74028557  0.07966815  0.78398032  1
  Lu  Lu8  1  0.88362093  0.28539033  0.44596548  1
  Li  Li9  1  0.47581964  0.54402693  0.26508041  1
  Li  Li10  1  0.85753987  0.77451014  0.59424708  1
  Li  Li11  1  0.93784387  0.72198170  0.98380801  1
