# generated using pymatgen
data_Li3TiI4N5
_symmetry_space_group_name_H-M   'P 1'
_cell_length_a   8.11721607
_cell_length_b   7.86066603
_cell_length_c   8.08061798
_cell_angle_alpha   91.83952674
_cell_angle_beta   90.65034995
_cell_angle_gamma   92.13362833
_symmetry_Int_Tables_number   1
_chemical_formula_structural   Li3TiI4N5
_chemical_formula_sum   'Li3 Ti1 I4 N5'
_cell_volume   514.93415579
_cell_formula_units_Z   1
loop_
 _symmetry_equiv_pos_site_id
 _symmetry_equiv_pos_as_xyz
  1  'x, y, z'
loop_
 _atom_site_type_symbol
 _atom_site_label
 _atom_site_symmetry_multiplicity
 _atom_site_fract_x
 _atom_site_fract_y
 _atom_site_fract_z
 _atom_site_occupancy
  I  I0  1  0.12500000  0.12500000  0.12500000  1
  I  I1  1  0.50000000  0.50000000  0.50000000  1
  I  I2  1  0.25000000  0.25000000  0.25000000  1
  I  I3  1  0.75000000  0.75000000  0.75000000  1
  Li  Li4  1  0.02363121  0.13208989  0.12105227  1
  Li  Li5  1  0.05458147  0.45066797  0.48131533  1
  Li  Li6  1  0.00057050  0.02051340  0.80007705  1
  Ti  Ti7  1  0.03584504  0.08877682  0.49948239  1
  N  N8  1  0.72317827  0.90944315  0.86166919  1
  N  N9  1  0.59934179  0.03713987  0.11894356  1
  N  N10  1  0.94745328  0.81351187  0.49085282  1
  N  N11  1  0.37547861  0.61657640  0.46764894  1
  N  N12  1  0.29588499  0.16450087  0.92344136  1
