# generated using pymatgen
data_Li2Ti(CuO)2
_symmetry_space_group_name_H-M   'P 1'
_cell_length_a   6.02878852
_cell_length_b   6.11382100
_cell_length_c   6.93117459
_cell_angle_alpha   96.22714471
_cell_angle_beta   99.00262761
_cell_angle_gamma   97.50080793
_symmetry_Int_Tables_number   1
_chemical_formula_structural   Li2Ti(CuO)2
_chemical_formula_sum   'Li2 Ti1 Cu2 O2'
_cell_volume   247.99258608
_cell_formula_units_Z   1
loop_
 _symmetry_equiv_pos_site_id
 _symmetry_equiv_pos_as_xyz
  1  'x, y, z'
loop_
 _atom_site_type_symbol
 _atom_site_label
 _atom_site_symmetry_multiplicity
 _atom_site_fract_x
 _atom_site_fract_y
 _atom_site_fract_z
 _atom_site_occupancy
  Li  Li0  1  0.00000000  0.00000000  0.00000000  1
  Li  Li1  1  0.50000000  0.50000000  0.50000000  1
  Cu  Cu2  1  0.25000000  0.25000000  0.25000000  1
  Cu  Cu3  1  0.75000000  0.25000000  0.00000000  1
  Ti  Ti4  1  0.25000000  0.75000000  0.50000000  1
  O  O5  1  0.61379252  0.12702436  0.68896604  1
  O  O6  1  0.85529351  0.25966503  0.05750707  1
