# generated using pymatgen
data_Li3(CuP4)2
_symmetry_space_group_name_H-M   'P 1'
_cell_length_a   6.84019210
_cell_length_b   6.97730986
_cell_length_c   8.07530626
_cell_angle_alpha   93.93527999
_cell_angle_beta   94.31319089
_cell_angle_gamma   93.54020156
_symmetry_Int_Tables_number   1
_chemical_formula_structural   Li3(CuP4)2
_chemical_formula_sum   'Li3 Cu2 P8'
_cell_volume   382.53734455
_cell_formula_units_Z   1
loop_
 _symmetry_equiv_pos_site_id
 _symmetry_equiv_pos_as_xyz
  1  'x, y, z'
loop_
 _atom_site_type_symbol
 _atom_site_label
 _atom_site_symmetry_multiplicity
 _atom_site_fract_x
 _atom_site_fract_y
 _atom_site_fract_z
 _atom_site_occupancy
  Li  Li0  1  0.12500000  0.00000000  0.25000000  1
  Li  Li1  1  0.00000000  0.00000000  0.00000000  1
  Li  Li2  1  0.37500000  0.00000000  0.25000000  1
  P  P3  1  0.25000000  0.25000000  0.25000000  1
  P  P4  1  0.00000000  0.25000000  0.12500000  1
  P  P5  1  0.65066569  0.25118375  0.03864834  1
  P  P6  1  0.67469291  0.82916943  0.95102316  1
  P  P7  1  0.04810854  0.78610911  0.40346577  1
  P  P8  1  0.84126199  0.70997469  0.51592921  1
  P  P9  1  0.13927503  0.31977258  0.27962807  1
  P  P10  1  0.46363447  0.40070492  0.48974912  1
  Cu  Cu11  1  0.42310845  0.16094063  0.13713417  1
  Cu  Cu12  1  0.44117638  0.00457244  0.10178516  1
