# generated using pymatgen
data_Li2Al3Cu2(P4O)2
_symmetry_space_group_name_H-M   'P 1'
_cell_length_a   7.88967446
_cell_length_b   7.50617465
_cell_length_c   7.43648105
_cell_angle_alpha   90.00000000
_cell_angle_beta   90.00000000
_cell_angle_gamma   90.00000000
_symmetry_Int_Tables_number   1
_chemical_formula_structural   Li2Al3Cu2(P4O)2
_chemical_formula_sum   'Li2 Al3 Cu2 P8 O2'
_cell_volume   440.39788529
_cell_formula_units_Z   1
loop_
 _symmetry_equiv_pos_site_id
 _symmetry_equiv_pos_as_xyz
  1  'x, y, z'
loop_
 _atom_site_type_symbol
 _atom_site_label
 _atom_site_symmetry_multiplicity
 _atom_site_fract_x
 _atom_site_fract_y
 _atom_site_fract_z
 _atom_site_occupancy
  O  O0  1  0.12500000  0.00000000  0.25000000  1
  O  O1  1  0.00000000  0.00000000  0.00000000  1
  P  P2  1  0.37500000  0.00000000  0.25000000  1
  P  P3  1  0.25000000  0.25000000  0.25000000  1
  P  P4  1  0.00000000  0.25000000  0.12500000  1
  P  P5  1  0.72567211  0.53978485  0.52300810  1
  P  P6  1  0.62879764  0.48107588  0.59284716  1
  P  P7  1  0.50339684  0.65695976  0.93038458  1
  P  P8  1  0.68997582  0.52957927  0.72386917  1
  P  P9  1  0.71754100  0.20165176  0.67480224  1
  Li  Li10  1  0.98820703  0.08284424  0.88754289  1
  Li  Li11  1  0.16639050  0.22834815  0.17330131  1
  Cu  Cu12  1  0.01171678  0.09047345  0.97709486  1
  Cu  Cu13  1  0.23341179  0.90471846  0.21597543  1
  Al  Al14  1  0.14779167  0.29546374  0.66643901  1
  Al  Al15  1  0.57329038  0.27310325  0.05236449  1
  Al  Al16  1  0.05437017  0.36039118  0.01160795  1
