# generated using pymatgen
data_Li3As6P6O7F2
_symmetry_space_group_name_H-M   'P 1'
_cell_length_a   8.35442563
_cell_length_b   8.14300950
_cell_length_c   8.95588413
_cell_angle_alpha   90.07128106
_cell_angle_beta   90.33913364
_cell_angle_gamma   90.08149329
_symmetry_Int_Tables_number   1
_chemical_formula_structural   Li3As6P6O7F2
_chemical_formula_sum   'Li3 As6 P6 O7 F2'
_cell_volume   609.25852810
_cell_formula_units_Z   1
loop_
 _symmetry_equiv_pos_site_id
 _symmetry_equiv_pos_as_xyz
  1  'x, y, z'
loop_
 _atom_site_type_symbol
 _atom_site_label
 _atom_site_symmetry_multiplicity
 _atom_site_fract_x
 _atom_site_fract_y
 _atom_site_fract_z
 _atom_site_occupancy
  P  P0  1  0.00000000  0.00000000  0.00000000  1
  P  P1  1  0.50000000  0.50000000  0.50000000  1
  P  P2  1  0.50000000  0.50000000  0.00000000  1
  P  P3  1  0.50000000  0.00000000  0.50000000  1
  P  P4  1  0.00000000  0.50000000  0.50000000  1
  P  P5  1  0.27645776  0.88315128  0.85744079  1
  Li  Li6  1  0.60015600  0.99953307  0.91327120  1
  Li  Li7  1  0.71116107  0.13616505  0.83477413  1
  Li  Li8  1  0.55352766  0.32059306  0.99782177  1
  F  F9  1  0.20717605  0.05964049  0.13465505  1
  F  F10  1  0.29938632  0.01116436  0.17385927  1
  As  As11  1  0.54875416  0.34757631  0.66972475  1
  As  As12  1  0.61518542  0.84379372  0.62447199  1
  As  As13  1  0.50836026  0.88221944  0.60622253  1
  As  As14  1  0.90721159  0.50284533  0.53484072  1
  As  As15  1  0.76947220  0.36075919  0.18657783  1
  As  As16  1  0.84835631  0.09601288  0.66651082  1
  O  O17  1  0.65907809  0.41968979  0.76279739  1
  O  O18  1  0.75667655  0.31880196  0.59299377  1
  O  O19  1  0.96916731  0.64843999  0.47435534  1
  O  O20  1  0.67687904  0.15186377  0.01801411  1
  O  O21  1  0.43931135  0.74228184  0.94199601  1
  O  O22  1  0.61159380  0.67158659  0.55843113  1
  O  O23  1  0.65994160  0.29959193  0.57899439  1
