# generated using pymatgen
data_LiCuAs3P4
_symmetry_space_group_name_H-M   'P 1'
_cell_length_a   5.96288099
_cell_length_b   5.79395378
_cell_length_c   7.83534221
_cell_angle_alpha   96.02565396
_cell_angle_beta   97.35082118
_cell_angle_gamma   95.47039046
_symmetry_Int_Tables_number   1
_chemical_formula_structural   LiCuAs3P4
_chemical_formula_sum   'Li2 Cu2 As6 P8'
_cell_volume   265.36413746
_cell_formula_units_Z   2
loop_
 _symmetry_equiv_pos_site_id
 _symmetry_equiv_pos_as_xyz
  1  'x, y, z'
loop_
 _atom_site_type_symbol
 _atom_site_label
 _atom_site_symmetry_multiplicity
 _atom_site_fract_x
 _atom_site_fract_y
 _atom_site_fract_z
 _atom_site_occupancy
  P  P0  1  0.12500000  0.00000000  0.25000000  1
  P  P1  1  0.00000000  0.00000000  0.00000000  1
  P  P2  1  0.37500000  0.00000000  0.25000000  1
  P  P3  1  0.25000000  0.25000000  0.25000000  1
  P  P4  1  0.00000000  0.25000000  0.12500000  1
  P  P5  1  0.04430321  0.13146669  0.43301636  1
  P  P6  1  0.23857723  0.63751628  0.11076521  1
  P  P7  1  0.57329132  0.86673460  0.48158080  1
  As  As8  1  0.34413255  0.88122926  0.84763983  1
  As  As9  1  0.13626809  0.28356224  0.97934122  1
  As  As10  1  0.05483545  0.23750801  0.22390332  1
  As  As11  1  0.85407057  0.97406855  0.44895101  1
  As  As12  1  0.85613279  0.27160102  0.74679347  1
  As  As13  1  0.88098946  0.50009021  0.42712846  1
  Li  Li14  1  0.08648572  0.87149128  0.43080424  1
  Li  Li15  1  0.43868108  0.76403506  0.72390155  1
  Cu  Cu16  1  0.48883897  0.22293611  0.50978596  1
  Cu  Cu17  1  0.25244320  0.87944831  0.19614330  1
