# generated using pymatgen
data_Li2TiP5(I2O)2
_symmetry_space_group_name_H-M   'P 1'
_cell_length_a   7.47700718
_cell_length_b   7.21392103
_cell_length_c   7.28858028
_cell_angle_alpha   91.43591284
_cell_angle_beta   92.89080348
_cell_angle_gamma   91.37939384
_symmetry_Int_Tables_number   1
_chemical_formula_structural   Li2TiP5(I2O)2
_chemical_formula_sum   'Li2 Ti1 P5 I4 O2'
_cell_volume   392.38539625
_cell_formula_units_Z   1
loop_
 _symmetry_equiv_pos_site_id
 _symmetry_equiv_pos_as_xyz
  1  'x, y, z'
loop_
 _atom_site_type_symbol
 _atom_site_label
 _atom_site_symmetry_multiplicity
 _atom_site_fract_x
 _atom_site_fract_y
 _atom_site_fract_z
 _atom_site_occupancy
  P  P0  1  0.00000000  0.00000000  0.00000000  1
  P  P1  1  0.50000000  0.50000000  0.50000000  1
  P  P2  1  0.25000000  0.25000000  0.25000000  1
  P  P3  1  0.75000000  0.25000000  0.00000000  1
  P  P4  1  0.25000000  0.75000000  0.50000000  1
  I  I5  1  0.32231591  0.27242369  0.16034160  1
  I  I6  1  0.55660315  0.64947316  0.79231199  1
  I  I7  1  0.48763890  0.22461394  0.14070708  1
  I  I8  1  0.21815690  0.29713766  0.55826495  1
  Li  Li9  1  0.72952073  0.37934442  0.44818299  1
  Li  Li10  1  0.88408017  0.51141640  0.82638916  1
  Ti  Ti11  1  0.92534101  0.02799934  0.34927401  1
  O  O12  1  0.48528962  0.32817079  0.31692404  1
  O  O13  1  0.71393855  0.56276886  0.51082803  1
