# generated using pymatgen
data_Li2Mn2Mo2P2N
_symmetry_space_group_name_H-M   'P 1'
_cell_length_a   4.49713840
_cell_length_b   4.79082893
_cell_length_c   6.52769541
_cell_angle_alpha   100.92292793
_cell_angle_beta   96.64846010
_cell_angle_gamma   100.85483612
_symmetry_Int_Tables_number   1
_chemical_formula_structural   Li2Mn2Mo2P2N
_chemical_formula_sum   'Li2 Mn2 Mo2 P2 N1'
_cell_volume   133.93723139
_cell_formula_units_Z   1
loop_
 _symmetry_equiv_pos_site_id
 _symmetry_equiv_pos_as_xyz
  1  'x, y, z'
loop_
 _atom_site_type_symbol
 _atom_site_label
 _atom_site_symmetry_multiplicity
 _atom_site_fract_x
 _atom_site_fract_y
 _atom_site_fract_z
 _atom_site_occupancy
  Mn  Mn0  1  0.00000000  0.00000000  0.00000000  1
  Mn  Mn1  1  0.50000000  0.50000000  0.50000000  1
  P  P2  1  0.50000000  0.50000000  0.00000000  1
  P  P3  1  0.50000000  0.00000000  0.50000000  1
  Mo  Mo4  1  0.00000000  0.50000000  0.50000000  1
  Mo  Mo5  1  0.25575890  0.49847429  0.93080011  1
  Li  Li6  1  0.81551336  0.10528688  0.29576456  1
  Li  Li7  1  0.91491236  0.48970485  0.12284409  1
  N  N8  1  0.01069139  0.78640769  0.63356548  1
