# generated using pymatgen
data_Li4LuNi2O7
_symmetry_space_group_name_H-M   'P 1'
_cell_length_a   8.01885106
_cell_length_b   7.79643016
_cell_length_c   9.38751972
_cell_angle_alpha   91.17062135
_cell_angle_beta   90.41386380
_cell_angle_gamma   91.35777905
_symmetry_Int_Tables_number   1
_chemical_formula_structural   Li4LuNi2O7
_chemical_formula_sum   'Li4 Lu1 Ni2 O7'
_cell_volume   586.58814574
_cell_formula_units_Z   1
loop_
 _symmetry_equiv_pos_site_id
 _symmetry_equiv_pos_as_xyz
  1  'x, y, z'
loop_
 _atom_site_type_symbol
 _atom_site_label
 _atom_site_symmetry_multiplicity
 _atom_site_fract_x
 _atom_site_fract_y
 _atom_site_fract_z
 _atom_site_occupancy
  Lu  Lu0  1  0.00000000  0.00000000  0.00000000  1
  Li  Li1  1  0.50000000  0.50000000  0.50000000  1
  Li  Li2  1  0.25000000  0.25000000  0.25000000  1
  Li  Li3  1  0.75000000  0.25000000  0.00000000  1
  Li  Li4  1  0.25000000  0.75000000  0.50000000  1
  Ni  Ni5  1  0.15758123  0.81850436  0.29780382  1
  Ni  Ni6  1  0.13437593  0.79012813  0.62368859  1
  O  O7  1  0.61912767  0.69281441  0.41152751  1
  O  O8  1  0.71923968  0.37381513  0.81060270  1
  O  O9  1  0.90180877  0.23836146  0.13659232  1
  O  O10  1  0.47002947  0.60730476  0.29247248  1
  O  O11  1  0.50343307  0.70016571  0.04222715  1
  O  O12  1  0.07850475  0.50160582  0.75963608  1
  O  O13  1  0.31354870  0.48429206  0.92314879  1
