# generated using pymatgen
data_LiMn2Sb4P3
_symmetry_space_group_name_H-M   'P 1'
_cell_length_a   4.65098840
_cell_length_b   4.86959581
_cell_length_c   6.10332907
_cell_angle_alpha   100.09781993
_cell_angle_beta   92.28952020
_cell_angle_gamma   100.28770715
_symmetry_Int_Tables_number   1
_chemical_formula_structural   LiMn2Sb4P3
_chemical_formula_sum   'Li1 Mn2 Sb4 P3'
_cell_volume   133.53894663
_cell_formula_units_Z   1
loop_
 _symmetry_equiv_pos_site_id
 _symmetry_equiv_pos_as_xyz
  1  'x, y, z'
loop_
 _atom_site_type_symbol
 _atom_site_label
 _atom_site_symmetry_multiplicity
 _atom_site_fract_x
 _atom_site_fract_y
 _atom_site_fract_z
 _atom_site_occupancy
  Mn  Mn0  1  0.12500000  0.00000000  0.25000000  1
  Mn  Mn1  1  0.00000000  0.00000000  0.00000000  1
  Sb  Sb2  1  0.37500000  0.00000000  0.25000000  1
  Sb  Sb3  1  0.25000000  0.25000000  0.25000000  1
  Sb  Sb4  1  0.00000000  0.25000000  0.12500000  1
  Sb  Sb5  1  0.13633161  0.30729303  0.21888030  1
  P  P6  1  0.73145933  0.00113844  0.80096774  1
  P  P7  1  0.77625913  0.38085794  0.23492070  1
  P  P8  1  0.04344678  0.86583282  0.08034241  1
  Li  Li9  1  0.99778675  0.21380673  0.60584741  1
