# generated using pymatgen
data_Li3LuNi2N5
_symmetry_space_group_name_H-M   'P 1'
_cell_length_a   7.89623558
_cell_length_b   7.59974783
_cell_length_c   8.33476773
_cell_angle_alpha   92.37463690
_cell_angle_beta   90.83953386
_cell_angle_gamma   92.75429133
_symmetry_Int_Tables_number   1
_chemical_formula_structural   Li3LuNi2N5
_chemical_formula_sum   'Li3 Lu1 Ni2 N5'
_cell_volume   499.08818282
_cell_formula_units_Z   1
loop_
 _symmetry_equiv_pos_site_id
 _symmetry_equiv_pos_as_xyz
  1  'x, y, z'
loop_
 _atom_site_type_symbol
 _atom_site_label
 _atom_site_symmetry_multiplicity
 _atom_site_fract_x
 _atom_site_fract_y
 _atom_site_fract_z
 _atom_site_occupancy
  Lu  Lu0  1  0.12500000  0.00000000  0.25000000  1
  Li  Li1  1  0.00000000  0.00000000  0.00000000  1
  Li  Li2  1  0.37500000  0.00000000  0.25000000  1
  Li  Li3  1  0.25000000  0.25000000  0.25000000  1
  Ni  Ni4  1  0.00000000  0.25000000  0.12500000  1
  Ni  Ni5  1  0.25676141  0.74578005  0.44985338  1
  N  N6  1  0.87408744  0.91109206  0.14948096  1
  N  N7  1  0.78317108  0.84365441  0.49287951  1
  N  N8  1  0.91786749  0.01994428  0.73313794  1
  N  N9  1  0.30008967  0.59570530  0.26349013  1
  N  N10  1  0.56161583  0.37509291  0.18128298  1
