# generated using pymatgen
data_LiMn2P2N
_symmetry_space_group_name_H-M   'P 1'
_cell_length_a   5.40667755
_cell_length_b   5.83158834
_cell_length_c   6.62410443
_cell_angle_alpha   97.69754435
_cell_angle_beta   94.89884680
_cell_angle_gamma   96.97226714
_symmetry_Int_Tables_number   1
_chemical_formula_structural   LiMn2P2N
_chemical_formula_sum   'Li1 Mn2 P2 N1'
_cell_volume   204.34223562
_cell_formula_units_Z   1
loop_
 _symmetry_equiv_pos_site_id
 _symmetry_equiv_pos_as_xyz
  1  'x, y, z'
loop_
 _atom_site_type_symbol
 _atom_site_label
 _atom_site_symmetry_multiplicity
 _atom_site_fract_x
 _atom_site_fract_y
 _atom_site_fract_z
 _atom_site_occupancy
  Mn  Mn0  1  0.12500000  0.12500000  0.12500000  1
  Mn  Mn1  1  0.50000000  0.50000000  0.50000000  1
  P  P2  1  0.25000000  0.25000000  0.25000000  1
  P  P3  1  0.75000000  0.75000000  0.75000000  1
  Li  Li4  1  0.02503727  0.54320736  0.56215933  1
  N  N5  1  0.49174149  0.19779568  0.42866490  1
