# generated using pymatgen
data_Li3LuCu2(NiP2)2
_symmetry_space_group_name_H-M   'P 1'
_cell_length_a   7.43956993
_cell_length_b   7.16063727
_cell_length_c   8.79126491
_cell_angle_alpha   92.96598656
_cell_angle_beta   91.42406749
_cell_angle_gamma   93.43876915
_symmetry_Int_Tables_number   1
_chemical_formula_structural   Li3LuCu2(NiP2)2
_chemical_formula_sum   'Li3 Lu1 Cu2 Ni2 P4'
_cell_volume   466.67571893
_cell_formula_units_Z   1
loop_
 _symmetry_equiv_pos_site_id
 _symmetry_equiv_pos_as_xyz
  1  'x, y, z'
loop_
 _atom_site_type_symbol
 _atom_site_label
 _atom_site_symmetry_multiplicity
 _atom_site_fract_x
 _atom_site_fract_y
 _atom_site_fract_z
 _atom_site_occupancy
  P  P0  1  0.00000000  0.00000000  0.00000000  1
  P  P1  1  0.50000000  0.50000000  0.50000000  1
  P  P2  1  0.25000000  0.25000000  0.25000000  1
  P  P3  1  0.75000000  0.25000000  0.00000000  1
  Lu  Lu4  1  0.25000000  0.75000000  0.50000000  1
  Li  Li5  1  0.56459777  0.86714438  0.58687422  1
  Li  Li6  1  0.74192661  0.26401371  0.88733374  1
  Li  Li7  1  0.65999406  0.42214309  0.46326341  1
  Cu  Cu8  1  0.89116525  0.78073586  0.90471568  1
  Cu  Cu9  1  0.85611070  0.53031874  0.63997891  1
  Ni  Ni10  1  0.49386217  0.80003971  0.62693367  1
  Ni  Ni11  1  0.65640428  0.27179385  0.41031931  1
