# generated using pymatgen
data_Li4ZrTi2P5F2
_symmetry_space_group_name_H-M   'P 1'
_cell_length_a   6.28362671
_cell_length_b   5.91800110
_cell_length_c   7.59706639
_cell_angle_alpha   98.19647321
_cell_angle_beta   101.06265432
_cell_angle_gamma   97.71621657
_symmetry_Int_Tables_number   1
_chemical_formula_structural   Li4ZrTi2P5F2
_chemical_formula_sum   'Li4 Zr1 Ti2 P5 F2'
_cell_volume   270.60143834
_cell_formula_units_Z   1
loop_
 _symmetry_equiv_pos_site_id
 _symmetry_equiv_pos_as_xyz
  1  'x, y, z'
loop_
 _atom_site_type_symbol
 _atom_site_label
 _atom_site_symmetry_multiplicity
 _atom_site_fract_x
 _atom_site_fract_y
 _atom_site_fract_z
 _atom_site_occupancy
  F  F0  1  0.12500000  0.00000000  0.25000000  1
  F  F1  1  0.00000000  0.00000000  0.00000000  1
  Ti  Ti2  1  0.37500000  0.00000000  0.25000000  1
  Ti  Ti3  1  0.25000000  0.25000000  0.25000000  1
  P  P4  1  0.00000000  0.25000000  0.12500000  1
  P  P5  1  0.32639048  0.50967066  0.07619436  1
  P  P6  1  0.94948345  0.61656277  0.95087558  1
  P  P7  1  0.69151938  0.64840642  0.82131110  1
  P  P8  1  0.92339393  0.12680552  0.36359354  1
  Li  Li9  1  0.05576905  0.84802677  0.36876751  1
  Li  Li10  1  0.20580764  0.01599852  0.78005414  1
  Li  Li11  1  0.99067488  0.01780067  0.83591644  1
  Li  Li12  1  0.92349980  0.54311039  0.59098343  1
  Zr  Zr13  1  0.74613480  0.65422606  0.47999736  1
