# generated using pymatgen
data_LiMn2Sb4P3
_symmetry_space_group_name_H-M   'P 1'
_cell_length_a   5.82340963
_cell_length_b   5.93526033
_cell_length_c   6.64831209
_cell_angle_alpha   97.60752400
_cell_angle_beta   92.64743009
_cell_angle_gamma   97.79684431
_symmetry_Int_Tables_number   1
_chemical_formula_structural   LiMn2Sb4P3
_chemical_formula_sum   'Li1 Mn2 Sb4 P3'
_cell_volume   225.17845518
_cell_formula_units_Z   1
loop_
 _symmetry_equiv_pos_site_id
 _symmetry_equiv_pos_as_xyz
  1  'x, y, z'
loop_
 _atom_site_type_symbol
 _atom_site_label
 _atom_site_symmetry_multiplicity
 _atom_site_fract_x
 _atom_site_fract_y
 _atom_site_fract_z
 _atom_site_occupancy
  Mn  Mn0  1  0.00000000  0.00000000  0.00000000  1
  Mn  Mn1  1  0.33300000  0.66700000  0.25000000  1
  Sb  Sb2  1  0.66700000  0.33300000  0.50000000  1
  Sb  Sb3  1  0.00000000  0.00000000  0.75000000  1
  Sb  Sb4  1  0.48756252  0.19066982  0.45935241  1
  Sb  Sb5  1  0.76903412  0.16596085  0.94287658  1
  P  P6  1  0.09721605  0.73218551  0.49170650  1
  P  P7  1  0.21636167  0.14132092  0.94992151  1
  P  P8  1  0.51494035  0.88090287  0.15962674  1
  Li  Li9  1  0.78081319  0.38070418  0.89867352  1
