# generated using pymatgen
data_Li2TiP7(I2O)2
_symmetry_space_group_name_H-M   'P 1'
_cell_length_a   8.18345872
_cell_length_b   8.20973392
_cell_length_c   7.56922439
_cell_angle_alpha   90.14684358
_cell_angle_beta   90.69863714
_cell_angle_gamma   90.16788142
_symmetry_Int_Tables_number   1
_chemical_formula_structural   Li2TiP7(I2O)2
_chemical_formula_sum   'Li2 Ti1 P7 I4 O2'
_cell_volume   508.48920765
_cell_formula_units_Z   1
loop_
 _symmetry_equiv_pos_site_id
 _symmetry_equiv_pos_as_xyz
  1  'x, y, z'
loop_
 _atom_site_type_symbol
 _atom_site_label
 _atom_site_symmetry_multiplicity
 _atom_site_fract_x
 _atom_site_fract_y
 _atom_site_fract_z
 _atom_site_occupancy
  I  I0  1  0.00000000  0.00000000  0.00000000  1
  I  I1  1  0.50000000  0.50000000  0.50000000  1
  I  I2  1  0.50000000  0.50000000  0.00000000  1
  I  I3  1  0.50000000  0.00000000  0.50000000  1
  P  P4  1  0.00000000  0.50000000  0.50000000  1
  P  P5  1  0.23752558  0.96723420  0.17499625  1
  P  P6  1  0.73508657  0.85687011  0.85841982  1
  P  P7  1  0.61038063  0.13978875  0.79779235  1
  P  P8  1  0.23087292  0.64874198  0.23608924  1
  P  P9  1  0.77097369  0.15477035  0.92295930  1
  P  P10  1  0.67874641  0.83483829  0.02445522  1
  Li  Li11  1  0.77665672  0.25901064  0.52658299  1
  Li  Li12  1  0.66191218  0.08080947  0.22903648  1
  Ti  Ti13  1  0.51927314  0.44998078  0.73808533  1
  O  O14  1  0.68544439  0.31422533  0.47040007  1
  O  O15  1  0.44429538  0.34003941  0.61488428  1
