# generated using pymatgen
data_Li2Mn2Sb4Mo2P3
_symmetry_space_group_name_H-M   'P 1'
_cell_length_a   5.79336074
_cell_length_b   6.21188905
_cell_length_c   6.74627379
_cell_angle_alpha   97.67886328
_cell_angle_beta   91.42910292
_cell_angle_gamma   97.67172963
_symmetry_Int_Tables_number   1
_chemical_formula_structural   Li2Mn2Sb4Mo2P3
_chemical_formula_sum   'Li2 Mn2 Sb4 Mo2 P3'
_cell_volume   238.22593115
_cell_formula_units_Z   1
loop_
 _symmetry_equiv_pos_site_id
 _symmetry_equiv_pos_as_xyz
  1  'x, y, z'
loop_
 _atom_site_type_symbol
 _atom_site_label
 _atom_site_symmetry_multiplicity
 _atom_site_fract_x
 _atom_site_fract_y
 _atom_site_fract_z
 _atom_site_occupancy
  Mn  Mn0  1  0.00000000  0.00000000  0.00000000  1
  Mn  Mn1  1  0.50000000  0.50000000  0.50000000  1
  Sb  Sb2  1  0.50000000  0.50000000  0.00000000  1
  Sb  Sb3  1  0.50000000  0.00000000  0.50000000  1
  Sb  Sb4  1  0.00000000  0.50000000  0.50000000  1
  Sb  Sb5  1  0.24015599  0.58236751  0.41580335  1
  P  P6  1  0.11401666  0.66885038  0.23507310  1
  P  P7  1  0.48353749  0.60031303  0.72163465  1
  P  P8  1  0.78998916  0.95103513  0.17054121  1
  Mo  Mo9  1  0.69966458  0.15484240  0.21976162  1
  Mo  Mo10  1  0.75566680  0.54158781  0.75749299  1
  Li  Li11  1  0.11742473  0.06206495  0.78297533  1
  Li  Li12  1  0.71793818  0.41347110  0.64438414  1
