# generated using pymatgen
data_LiMnSb2P
_symmetry_space_group_name_H-M   'P 1'
_cell_length_a   5.08928267
_cell_length_b   5.33306262
_cell_length_c   6.53696330
_cell_angle_alpha   100.06981480
_cell_angle_beta   96.96476637
_cell_angle_gamma   98.13312740
_symmetry_Int_Tables_number   1
_chemical_formula_structural   LiMnSb2P
_chemical_formula_sum   'Li2 Mn2 Sb4 P2'
_cell_volume   170.98165262
_cell_formula_units_Z   2
loop_
 _symmetry_equiv_pos_site_id
 _symmetry_equiv_pos_as_xyz
  1  'x, y, z'
loop_
 _atom_site_type_symbol
 _atom_site_label
 _atom_site_symmetry_multiplicity
 _atom_site_fract_x
 _atom_site_fract_y
 _atom_site_fract_z
 _atom_site_occupancy
  Mn  Mn0  1  0.12500000  0.12500000  0.12500000  1
  Mn  Mn1  1  0.50000000  0.50000000  0.50000000  1
  Sb  Sb2  1  0.25000000  0.25000000  0.25000000  1
  Sb  Sb3  1  0.75000000  0.75000000  0.75000000  1
  Sb  Sb4  1  0.78505395  0.81603311  0.58455695  1
  Sb  Sb5  1  0.57442630  0.29459374  0.33290228  1
  P  P6  1  0.08155641  0.15774201  0.74680987  1
  P  P7  1  0.78213284  0.43883680  0.68166476  1
  Li  Li8  1  0.78793805  0.75828961  0.45085562  1
  Li  Li9  1  0.04797122  0.63732709  0.21596206  1
