# generated using pymatgen
data_Li4Ti2SeO4
_symmetry_space_group_name_H-M   'P 1'
_cell_length_a   4.62640517
_cell_length_b   4.33396877
_cell_length_c   6.71097619
_cell_angle_alpha   104.80215653
_cell_angle_beta   109.27206959
_cell_angle_gamma   103.85519621
_symmetry_Int_Tables_number   1
_chemical_formula_structural   Li4Ti2SeO4
_chemical_formula_sum   'Li4 Ti2 Se1 O4'
_cell_volume   114.81520205
_cell_formula_units_Z   1
loop_
 _symmetry_equiv_pos_site_id
 _symmetry_equiv_pos_as_xyz
  1  'x, y, z'
loop_
 _atom_site_type_symbol
 _atom_site_label
 _atom_site_symmetry_multiplicity
 _atom_site_fract_x
 _atom_site_fract_y
 _atom_site_fract_z
 _atom_site_occupancy
  Li  Li0  1  0.12500000  0.12500000  0.12500000  1
  Li  Li1  1  0.50000000  0.50000000  0.50000000  1
  Li  Li2  1  0.25000000  0.25000000  0.25000000  1
  Li  Li3  1  0.75000000  0.75000000  0.75000000  1
  Se  Se4  1  0.71694660  0.29434155  0.88326766  1
  Ti  Ti5  1  0.99846607  0.29895603  0.36170997  1
  Ti  Ti6  1  0.33563347  0.69404739  0.69568579  1
  O  O7  1  0.26944106  0.14671417  0.77905617  1
  O  O8  1  0.71152293  0.93837803  0.77075359  1
  O  O9  1  0.92807832  0.39925941  0.24498728  1
  O  O10  1  0.99115981  0.86530220  0.12352049  1
