# generated using pymatgen
data_Li2Ni3Sb4P3
_symmetry_space_group_name_H-M   'P 1'
_cell_length_a   5.58789110
_cell_length_b   5.85025525
_cell_length_c   7.15598337
_cell_angle_alpha   95.43387777
_cell_angle_beta   95.60126651
_cell_angle_gamma   95.91759426
_symmetry_Int_Tables_number   1
_chemical_formula_structural   Li2Ni3Sb4P3
_chemical_formula_sum   'Li2 Ni3 Sb4 P3'
_cell_volume   230.27532323
_cell_formula_units_Z   1
loop_
 _symmetry_equiv_pos_site_id
 _symmetry_equiv_pos_as_xyz
  1  'x, y, z'
loop_
 _atom_site_type_symbol
 _atom_site_label
 _atom_site_symmetry_multiplicity
 _atom_site_fract_x
 _atom_site_fract_y
 _atom_site_fract_z
 _atom_site_occupancy
  Sb  Sb0  1  0.12500000  0.12500000  0.12500000  1
  Sb  Sb1  1  0.50000000  0.50000000  0.50000000  1
  Sb  Sb2  1  0.25000000  0.25000000  0.25000000  1
  Sb  Sb3  1  0.75000000  0.75000000  0.75000000  1
  P  P4  1  0.99062381  0.93633575  0.04801267  1
  P  P5  1  0.50337593  0.37229448  0.50479515  1
  P  P6  1  0.01400174  0.40789645  0.09951792  1
  Li  Li7  1  0.91659785  0.88676570  0.28465570  1
  Li  Li8  1  0.84796641  0.50962682  0.62230592  1
  Ni  Ni9  1  0.69454650  0.15953098  0.05983558  1
  Ni  Ni10  1  0.90808064  0.45481114  0.02453242  1
  Ni  Ni11  1  0.37483752  0.21622676  0.56931881  1
