# generated using pymatgen
data_Li3Ni2As6P4O7
_symmetry_space_group_name_H-M   'P 1'
_cell_length_a   8.03954068
_cell_length_b   7.85086964
_cell_length_c   9.38229821
_cell_angle_alpha   90.94585480
_cell_angle_beta   90.44077509
_cell_angle_gamma   91.09667583
_symmetry_Int_Tables_number   1
_chemical_formula_structural   Li3Ni2As6P4O7
_chemical_formula_sum   'Li3 Ni2 As6 P4 O7'
_cell_volume   591.97798894
_cell_formula_units_Z   1
loop_
 _symmetry_equiv_pos_site_id
 _symmetry_equiv_pos_as_xyz
  1  'x, y, z'
loop_
 _atom_site_type_symbol
 _atom_site_label
 _atom_site_symmetry_multiplicity
 _atom_site_fract_x
 _atom_site_fract_y
 _atom_site_fract_z
 _atom_site_occupancy
  P  P0  1  0.00000000  0.00000000  0.00000000  1
  P  P1  1  0.50000000  0.50000000  0.50000000  1
  P  P2  1  0.50000000  0.50000000  0.00000000  1
  P  P3  1  0.50000000  0.00000000  0.50000000  1
  Li  Li4  1  0.00000000  0.50000000  0.50000000  1
  Li  Li5  1  0.64255357  0.14288797  0.21757542  1
  Li  Li6  1  0.76863720  0.51005144  0.90834035  1
  Ni  Ni7  1  0.91848931  0.40602110  0.44557496  1
  Ni  Ni8  1  0.92348140  0.56531390  0.46581273  1
  As  As9  1  0.22889313  0.78396715  0.83235850  1
  As  As10  1  0.40294493  0.44041912  0.86760837  1
  As  As11  1  0.66853513  0.36334071  0.23519437  1
  As  As12  1  0.40916078  0.87612974  0.08618591  1
  As  As13  1  0.56952324  0.86549383  0.45296121  1
  As  As14  1  0.46540144  0.72046016  0.54205977  1
  O  O15  1  0.42050983  0.44902119  0.87009744  1
  O  O16  1  0.17456963  0.63709463  0.67494228  1
  O  O17  1  0.93909120  0.90350747  0.67180436  1
  O  O18  1  0.98671517  0.65047829  0.81880372  1
  O  O19  1  0.69360149  0.88893314  0.72659901  1
  O  O20  1  0.44118417  0.75972117  0.67319187  1
  O  O21  1  0.89888813  0.60219027  0.98409192  1
