# generated using pymatgen
data_Li3Ti2Cu2(PN)5
_symmetry_space_group_name_H-M   'P 1'
_cell_length_a   7.61652843
_cell_length_b   7.48284462
_cell_length_c   8.31363900
_cell_angle_alpha   91.84495851
_cell_angle_beta   91.16170311
_cell_angle_gamma   92.13800700
_symmetry_Int_Tables_number   1
_chemical_formula_structural   Li3Ti2Cu2(PN)5
_chemical_formula_sum   'Li3 Ti2 Cu2 P5 N5'
_cell_volume   473.13700738
_cell_formula_units_Z   1
loop_
 _symmetry_equiv_pos_site_id
 _symmetry_equiv_pos_as_xyz
  1  'x, y, z'
loop_
 _atom_site_type_symbol
 _atom_site_label
 _atom_site_symmetry_multiplicity
 _atom_site_fract_x
 _atom_site_fract_y
 _atom_site_fract_z
 _atom_site_occupancy
  P  P0  1  0.12500000  0.00000000  0.25000000  1
  P  P1  1  0.00000000  0.00000000  0.00000000  1
  P  P2  1  0.37500000  0.00000000  0.25000000  1
  P  P3  1  0.25000000  0.25000000  0.25000000  1
  P  P4  1  0.00000000  0.25000000  0.12500000  1
  Li  Li5  1  0.05883373  0.47526716  0.74276199  1
  Li  Li6  1  0.22547419  0.11286466  0.54164495  1
  Li  Li7  1  0.05794357  0.38845106  0.19027310  1
  Cu  Cu8  1  0.87403773  0.37054627  0.74809064  1
  Cu  Cu9  1  0.66674223  0.49737381  0.22685860  1
  Ti  Ti10  1  0.90000537  0.94617182  0.61933707  1
  Ti  Ti11  1  0.47316899  0.81094469  0.96314718  1
  N  N12  1  0.14871355  0.30223232  0.41653051  1
  N  N13  1  0.44934780  0.75192373  0.26753618  1
  N  N14  1  0.20774205  0.21603288  0.78291625  1
  N  N15  1  0.21662347  0.10614752  0.82695485  1
  N  N16  1  0.97074864  0.97843223  0.55226400  1
