# generated using pymatgen
data_Li3TiSbO2
_symmetry_space_group_name_H-M   'P 1'
_cell_length_a   8.29667755
_cell_length_b   7.72428365
_cell_length_c   9.60030264
_cell_angle_alpha   90.00000000
_cell_angle_beta   90.00000000
_cell_angle_gamma   90.00000000
_symmetry_Int_Tables_number   1
_chemical_formula_structural   Li3TiSbO2
_chemical_formula_sum   'Li3 Ti1 Sb1 O2'
_cell_volume   615.24394687
_cell_formula_units_Z   1
loop_
 _symmetry_equiv_pos_site_id
 _symmetry_equiv_pos_as_xyz
  1  'x, y, z'
loop_
 _atom_site_type_symbol
 _atom_site_label
 _atom_site_symmetry_multiplicity
 _atom_site_fract_x
 _atom_site_fract_y
 _atom_site_fract_z
 _atom_site_occupancy
  Li  Li0  1  0.12500000  0.12500000  0.12500000  1
  Li  Li1  1  0.50000000  0.50000000  0.50000000  1
  Li  Li2  1  0.25000000  0.25000000  0.25000000  1
  Sb  Sb3  1  0.75000000  0.75000000  0.75000000  1
  Ti  Ti4  1  0.41653912  0.53896392  0.10970285  1
  O  O5  1  0.18767401  0.22944067  0.59427369  1
  O  O6  1  0.09821271  0.38814398  0.83195725  1
