# generated using pymatgen
data_Li2Ti2As2O3
_symmetry_space_group_name_H-M   'P 1'
_cell_length_a   5.74293275
_cell_length_b   5.46453247
_cell_length_c   5.48405924
_cell_angle_alpha   90.87647070
_cell_angle_beta   87.99990990
_cell_angle_gamma   87.68994530
_symmetry_Int_Tables_number   1
_chemical_formula_structural   Li2Ti2As2O3
_chemical_formula_sum   'Li2 Ti2 As2 O3'
_cell_volume   171.83450242
_cell_formula_units_Z   1
loop_
 _symmetry_equiv_pos_site_id
 _symmetry_equiv_pos_as_xyz
  1  'x, y, z'
loop_
 _atom_site_type_symbol
 _atom_site_label
 _atom_site_symmetry_multiplicity
 _atom_site_fract_x
 _atom_site_fract_y
 _atom_site_fract_z
 _atom_site_occupancy
  Ti  Ti0  1  0.00000000  0.00000000  0.00000000  1
  Ti  Ti1  1  0.50000000  0.50000000  0.50000000  1
  O  O2  1  0.25000000  0.25000000  0.25000000  1
  O  O3  1  0.75000000  0.25000000  0.00000000  1
  O  O4  1  0.25000000  0.75000000  0.50000000  1
  As  As5  1  0.83566558  0.91743705  0.34064676  1
  As  As6  1  0.49409682  0.50435522  0.55910622  1
  Li  Li7  1  0.01609499  0.15354787  0.73849851  1
  Li  Li8  1  0.71445476  0.93431376  0.53632323  1
