# generated using pymatgen
data_Li5La5Al3(PS)3
_symmetry_space_group_name_H-M   'P 1'
_cell_length_a   9.74714250
_cell_length_b   10.43694573
_cell_length_c   8.55055568
_cell_angle_alpha   90.00000000
_cell_angle_beta   90.00000000
_cell_angle_gamma   90.00000000
_symmetry_Int_Tables_number   1
_chemical_formula_structural   Li5La5Al3(PS)3
_chemical_formula_sum   'Li5 La5 Al3 P3 S3'
_cell_volume   869.85142651
_cell_formula_units_Z   1
loop_
 _symmetry_equiv_pos_site_id
 _symmetry_equiv_pos_as_xyz
  1  'x, y, z'
loop_
 _atom_site_type_symbol
 _atom_site_label
 _atom_site_symmetry_multiplicity
 _atom_site_fract_x
 _atom_site_fract_y
 _atom_site_fract_z
 _atom_site_occupancy
  Al  Al0  1  0.00000000  0.00000000  0.00000000  1
  Al  Al1  1  0.50000000  0.50000000  0.50000000  1
  Al  Al2  1  0.50000000  0.50000000  0.00000000  1
  S  S3  1  0.50000000  0.00000000  0.50000000  1
  S  S4  1  0.00000000  0.50000000  0.50000000  1
  S  S5  1  0.43173254  0.07420868  0.86598235  1
  La  La6  1  0.21954388  0.82937628  0.62957231  1
  La  La7  1  0.22495310  0.04134932  0.49292414  1
  La  La8  1  0.66142978  0.20451539  0.93837110  1
  La  La9  1  0.55227742  0.08029356  0.24873549  1
  La  La10  1  0.26775076  0.35226969  0.86968343  1
  P  P11  1  0.56219419  0.78258829  0.14193140  1
  P  P12  1  0.23945358  0.36750626  0.07098584  1
  P  P13  1  0.32294217  0.28881365  0.61636079  1
  Li  Li14  1  0.34482688  0.65583284  0.82826115  1
  Li  Li15  1  0.09616602  0.95616375  0.68714009  1
  Li  Li16  1  0.04501822  0.39692639  0.81848539  1
  Li  Li17  1  0.75676139  0.76360774  0.82697618  1
  Li  Li18  1  0.13703906  0.63518959  0.11315883  1
