# generated using pymatgen
data_Li6Ti2Cr2NO2
_symmetry_space_group_name_H-M   'P 1'
_cell_length_a   5.44322256
_cell_length_b   4.74386319
_cell_length_c   8.06604209
_cell_angle_alpha   98.33741403
_cell_angle_beta   99.13806854
_cell_angle_gamma   97.50038783
_symmetry_Int_Tables_number   1
_chemical_formula_structural   Li6Ti2Cr2NO2
_chemical_formula_sum   'Li6 Ti2 Cr2 N1 O2'
_cell_volume   200.93425021
_cell_formula_units_Z   1
loop_
 _symmetry_equiv_pos_site_id
 _symmetry_equiv_pos_as_xyz
  1  'x, y, z'
loop_
 _atom_site_type_symbol
 _atom_site_label
 _atom_site_symmetry_multiplicity
 _atom_site_fract_x
 _atom_site_fract_y
 _atom_site_fract_z
 _atom_site_occupancy
  O  O0  1  0.00000000  0.00000000  0.00000000  1
  O  O1  1  0.50000000  0.50000000  0.50000000  1
  Ti  Ti2  1  0.25000000  0.25000000  0.25000000  1
  Ti  Ti3  1  0.75000000  0.25000000  0.00000000  1
  Li  Li4  1  0.25000000  0.75000000  0.50000000  1
  Li  Li5  1  0.61804780  0.11578742  0.52476114  1
  Li  Li6  1  0.30492523  0.20004525  0.97000011  1
  Li  Li7  1  0.74051034  0.08873102  0.35455237  1
  Li  Li8  1  0.49496610  0.70789388  0.80201841  1
  Li  Li9  1  0.89601489  0.94359363  0.72354967  1
  N  N10  1  0.33923545  0.00852075  0.83986709  1
  Cr  Cr11  1  0.72458076  0.60005673  0.66725613  1
  Cr  Cr12  1  0.92531136  0.09053648  0.35168066  1
