# generated using pymatgen
data_Li3ZrTi2(As2P)3
_symmetry_space_group_name_H-M   'P 1'
_cell_length_a   5.67956072
_cell_length_b   5.28228354
_cell_length_c   7.37078561
_cell_angle_alpha   99.53280598
_cell_angle_beta   102.97028245
_cell_angle_gamma   98.96419248
_symmetry_Int_Tables_number   1
_chemical_formula_structural   Li3ZrTi2(As2P)3
_chemical_formula_sum   'Li3 Zr1 Ti2 As6 P3'
_cell_volume   208.18476044
_cell_formula_units_Z   1
loop_
 _symmetry_equiv_pos_site_id
 _symmetry_equiv_pos_as_xyz
  1  'x, y, z'
loop_
 _atom_site_type_symbol
 _atom_site_label
 _atom_site_symmetry_multiplicity
 _atom_site_fract_x
 _atom_site_fract_y
 _atom_site_fract_z
 _atom_site_occupancy
  Ti  Ti0  1  0.00000000  0.00000000  0.00000000  1
  Ti  Ti1  1  0.50000000  0.50000000  0.50000000  1
  P  P2  1  0.25000000  0.25000000  0.25000000  1
  P  P3  1  0.75000000  0.25000000  0.00000000  1
  P  P4  1  0.25000000  0.75000000  0.50000000  1
  As  As5  1  0.52346463  0.53547814  0.17145631  1
  As  As6  1  0.17733352  0.93143367  0.16594051  1
  As  As7  1  0.45488651  0.18533905  0.39745495  1
  As  As8  1  0.76132754  0.58879600  0.56076059  1
  As  As9  1  0.45398542  0.30934078  0.72693584  1
  As  As10  1  0.53540425  0.82065691  0.53811947  1
  Li  Li11  1  0.15286356  0.55752416  0.70700205  1
  Li  Li12  1  0.66271047  0.10135860  0.95126360  1
  Li  Li13  1  0.20246381  0.96222280  0.36427270  1
  Zr  Zr14  1  0.26762242  0.19104345  0.51451386  1
