# generated using pymatgen
data_Li2MnSb4P3
_symmetry_space_group_name_H-M   'P 1'
_cell_length_a   5.18263624
_cell_length_b   5.33483878
_cell_length_c   6.74755040
_cell_angle_alpha   99.38954803
_cell_angle_beta   93.91284371
_cell_angle_gamma   99.68238209
_symmetry_Int_Tables_number   1
_chemical_formula_structural   Li2MnSb4P3
_chemical_formula_sum   'Li2 Mn1 Sb4 P3'
_cell_volume   180.55825913
_cell_formula_units_Z   1
loop_
 _symmetry_equiv_pos_site_id
 _symmetry_equiv_pos_as_xyz
  1  'x, y, z'
loop_
 _atom_site_type_symbol
 _atom_site_label
 _atom_site_symmetry_multiplicity
 _atom_site_fract_x
 _atom_site_fract_y
 _atom_site_fract_z
 _atom_site_occupancy
  Mn  Mn0  1  0.00000000  0.00000000  0.00000000  1
  Sb  Sb1  1  0.33300000  0.66700000  0.25000000  1
  Sb  Sb2  1  0.66700000  0.33300000  0.50000000  1
  Sb  Sb3  1  0.00000000  0.00000000  0.75000000  1
  Sb  Sb4  1  0.10184011  0.37800895  0.74847698  1
  P  P5  1  0.33799624  0.03660586  0.98152709  1
  P  P6  1  0.45699374  0.24865735  0.80851400  1
  P  P7  1  0.51578633  0.58339026  0.89302159  1
  Li  Li8  1  0.85545076  0.10418062  0.77355518  1
  Li  Li9  1  0.62941809  0.15135327  0.01837926  1
