# generated using pymatgen
data_Li3Ti2(O2F)2
_symmetry_space_group_name_H-M   'P 1'
_cell_length_a   5.51160162
_cell_length_b   5.13665203
_cell_length_c   6.93093140
_cell_angle_alpha   100.71784614
_cell_angle_beta   104.40772980
_cell_angle_gamma   100.06192820
_symmetry_Int_Tables_number   1
_chemical_formula_structural   Li3Ti2(O2F)2
_chemical_formula_sum   'Li3 Ti2 O4 F2'
_cell_volume   181.63164933
_cell_formula_units_Z   1
loop_
 _symmetry_equiv_pos_site_id
 _symmetry_equiv_pos_as_xyz
  1  'x, y, z'
loop_
 _atom_site_type_symbol
 _atom_site_label
 _atom_site_symmetry_multiplicity
 _atom_site_fract_x
 _atom_site_fract_y
 _atom_site_fract_z
 _atom_site_occupancy
  Li  Li0  1  0.00000000  0.00000000  0.00000000  1
  Li  Li1  1  0.33300000  0.66700000  0.25000000  1
  Li  Li2  1  0.66700000  0.33300000  0.50000000  1
  F  F3  1  0.00000000  0.00000000  0.75000000  1
  F  F4  1  0.22822066  0.22769640  0.36010975  1
  Ti  Ti5  1  0.20294685  0.57900112  0.38690241  1
  Ti  Ti6  1  0.68211733  0.30377194  0.02652153  1
  O  O7  1  0.11642619  0.78859544  0.02292078  1
  O  O8  1  0.20249190  0.17784528  0.70033661  1
  O  O9  1  0.61753987  0.14688913  0.72858219  1
  O  O10  1  0.50722878  0.73719913  0.33332399  1
