# generated using pymatgen
data_Li3Ni2As6I4O5
_symmetry_space_group_name_H-M   'P 1'
_cell_length_a   8.54512068
_cell_length_b   8.41187516
_cell_length_c   8.64571235
_cell_angle_alpha   90.00000000
_cell_angle_beta   90.00000000
_cell_angle_gamma   90.00000000
_symmetry_Int_Tables_number   1
_chemical_formula_structural   Li3Ni2As6I4O5
_chemical_formula_sum   'Li3 Ni2 As6 I4 O5'
_cell_volume   621.45802691
_cell_formula_units_Z   1
loop_
 _symmetry_equiv_pos_site_id
 _symmetry_equiv_pos_as_xyz
  1  'x, y, z'
loop_
 _atom_site_type_symbol
 _atom_site_label
 _atom_site_symmetry_multiplicity
 _atom_site_fract_x
 _atom_site_fract_y
 _atom_site_fract_z
 _atom_site_occupancy
  I  I0  1  0.00000000  0.00000000  0.00000000  1
  I  I1  1  0.50000000  0.50000000  0.50000000  1
  I  I2  1  0.25000000  0.25000000  0.25000000  1
  I  I3  1  0.75000000  0.25000000  0.00000000  1
  Li  Li4  1  0.25000000  0.75000000  0.50000000  1
  Li  Li5  1  0.92519149  0.17068055  0.01527377  1
  Li  Li6  1  0.60370242  0.21572034  0.13539461  1
  Ni  Ni7  1  0.19331454  0.20971312  0.53078042  1
  Ni  Ni8  1  0.93958727  0.57631634  0.09421514  1
  As  As9  1  0.70889399  0.11932064  0.18441681  1
  As  As10  1  0.75300212  0.43799151  0.06225704  1
  As  As11  1  0.88566968  0.38893118  0.25431089  1
  As  As12  1  0.19185386  0.51685055  0.50808491  1
  As  As13  1  0.75030977  0.04818224  0.04600785  1
  As  As14  1  0.23448300  0.06947244  0.45653570  1
  O  O15  1  0.53906552  0.35587355  0.96136362  1
  O  O16  1  0.48492990  0.11181053  0.86680269  1
  O  O17  1  0.73814590  0.75487334  0.42017729  1
  O  O18  1  0.43397875  0.28535743  0.94784763  1
  O  O19  1  0.53443516  0.78277839  0.08112428  1
