# generated using pymatgen
data_Li2I4N5(ClO)2
_symmetry_space_group_name_H-M   'P 1'
_cell_length_a   8.00901970
_cell_length_b   7.76068198
_cell_length_c   8.48855791
_cell_angle_alpha   93.42464115
_cell_angle_beta   94.56133665
_cell_angle_gamma   93.49974765
_symmetry_Int_Tables_number   1
_chemical_formula_structural   Li2I4N5(ClO)2
_chemical_formula_sum   'Li2 I4 N5 Cl2 O2'
_cell_volume   523.85097652
_cell_formula_units_Z   1
loop_
 _symmetry_equiv_pos_site_id
 _symmetry_equiv_pos_as_xyz
  1  'x, y, z'
loop_
 _atom_site_type_symbol
 _atom_site_label
 _atom_site_symmetry_multiplicity
 _atom_site_fract_x
 _atom_site_fract_y
 _atom_site_fract_z
 _atom_site_occupancy
  I  I0  1  0.12500000  0.00000000  0.25000000  1
  I  I1  1  0.00000000  0.00000000  0.00000000  1
  I  I2  1  0.37500000  0.00000000  0.25000000  1
  I  I3  1  0.25000000  0.25000000  0.25000000  1
  Li  Li4  1  0.00000000  0.25000000  0.12500000  1
  Li  Li5  1  0.81617937  0.68466792  0.85385813  1
  Cl  Cl6  1  0.71168779  0.05697260  0.24895816  1
  Cl  Cl7  1  0.06795161  0.30784864  0.13772956  1
  O  O8  1  0.29258062  0.54052543  0.47121794  1
  O  O9  1  0.50969630  0.54961993  0.38927254  1
  N  N10  1  0.19592653  0.06275869  0.21298730  1
  N  N11  1  0.65380241  0.29581309  0.96656508  1
  N  N12  1  0.09410883  0.20232511  0.45516321  1
  N  N13  1  0.38253719  0.33762779  0.52412607  1
  N  N14  1  0.05693974  0.23278243  0.02543969  1
