# generated using pymatgen
data_LiMn2Sb4P2N
_symmetry_space_group_name_H-M   'P 1'
_cell_length_a   5.58485822
_cell_length_b   5.90402782
_cell_length_c   6.54878195
_cell_angle_alpha   95.02765792
_cell_angle_beta   92.31279939
_cell_angle_gamma   94.90871967
_symmetry_Int_Tables_number   1
_chemical_formula_structural   LiMn2Sb4P2N
_chemical_formula_sum   'Li1 Mn2 Sb4 P2 N1'
_cell_volume   214.06502491
_cell_formula_units_Z   1
loop_
 _symmetry_equiv_pos_site_id
 _symmetry_equiv_pos_as_xyz
  1  'x, y, z'
loop_
 _atom_site_type_symbol
 _atom_site_label
 _atom_site_symmetry_multiplicity
 _atom_site_fract_x
 _atom_site_fract_y
 _atom_site_fract_z
 _atom_site_occupancy
  N  N0  1  0.12500000  0.00000000  0.25000000  1
  Mn  Mn1  1  0.00000000  0.00000000  0.00000000  1
  Mn  Mn2  1  0.37500000  0.00000000  0.25000000  1
  Sb  Sb3  1  0.25000000  0.25000000  0.25000000  1
  Sb  Sb4  1  0.00000000  0.25000000  0.12500000  1
  Sb  Sb5  1  0.59180800  0.49129067  0.01393479  1
  Sb  Sb6  1  0.59472536  0.09996719  0.17502377  1
  P  P7  1  0.39222590  0.31338102  0.55161856  1
  P  P8  1  0.52958733  0.68657807  0.50152483  1
  Li  Li9  1  0.56765782  0.75277657  0.88791906  1
