# generated using pymatgen
data_LiCuAs3O
_symmetry_space_group_name_H-M   'P 1'
_cell_length_a   7.71602614
_cell_length_b   7.78612042
_cell_length_c   7.97688269
_cell_angle_alpha   90.37905586
_cell_angle_beta   91.80343264
_cell_angle_gamma   90.43336206
_symmetry_Int_Tables_number   1
_chemical_formula_structural   LiCuAs3O
_chemical_formula_sum   'Li2 Cu2 As6 O2'
_cell_volume   478.97209128
_cell_formula_units_Z   2
loop_
 _symmetry_equiv_pos_site_id
 _symmetry_equiv_pos_as_xyz
  1  'x, y, z'
loop_
 _atom_site_type_symbol
 _atom_site_label
 _atom_site_symmetry_multiplicity
 _atom_site_fract_x
 _atom_site_fract_y
 _atom_site_fract_z
 _atom_site_occupancy
  O  O0  1  0.00000000  0.00000000  0.00000000  1
  O  O1  1  0.50000000  0.50000000  0.50000000  1
  As  As2  1  0.25000000  0.25000000  0.25000000  1
  As  As3  1  0.75000000  0.25000000  0.00000000  1
  As  As4  1  0.25000000  0.75000000  0.50000000  1
  As  As5  1  0.47971151  0.50020001  0.27102351  1
  As  As6  1  0.20038874  0.91640329  0.31258411  1
  As  As7  1  0.80289117  0.45244108  0.81283856  1
  Li  Li8  1  0.40876809  0.23419218  0.99015974  1
  Li  Li9  1  0.98971064  0.82022625  0.11212844  1
  Cu  Cu10  1  0.34469443  0.44175129  0.87119744  1
  Cu  Cu11  1  0.35875542  0.93640907  0.40382529  1
