# generated using pymatgen
data_Li2Mn2Sb4P3
_symmetry_space_group_name_H-M   'P 1'
_cell_length_a   5.01953520
_cell_length_b   5.37667975
_cell_length_c   6.77770107
_cell_angle_alpha   98.71449198
_cell_angle_beta   95.21951976
_cell_angle_gamma   99.20742183
_symmetry_Int_Tables_number   1
_chemical_formula_structural   Li2Mn2Sb4P3
_chemical_formula_sum   'Li2 Mn2 Sb4 P3'
_cell_volume   177.22956481
_cell_formula_units_Z   1
loop_
 _symmetry_equiv_pos_site_id
 _symmetry_equiv_pos_as_xyz
  1  'x, y, z'
loop_
 _atom_site_type_symbol
 _atom_site_label
 _atom_site_symmetry_multiplicity
 _atom_site_fract_x
 _atom_site_fract_y
 _atom_site_fract_z
 _atom_site_occupancy
  Mn  Mn0  1  0.12500000  0.00000000  0.25000000  1
  Mn  Mn1  1  0.00000000  0.00000000  0.00000000  1
  Sb  Sb2  1  0.37500000  0.00000000  0.25000000  1
  Sb  Sb3  1  0.25000000  0.25000000  0.25000000  1
  Sb  Sb4  1  0.00000000  0.25000000  0.12500000  1
  Sb  Sb5  1  0.58691921  0.46203222  0.73600158  1
  P  P6  1  0.65464180  0.20264080  0.69916374  1
  P  P7  1  0.01400475  0.20216172  0.28898684  1
  P  P8  1  0.74109497  0.06223976  0.73375389  1
  Li  Li9  1  0.39323230  0.26680177  0.46875117  1
  Li  Li10  1  0.06848434  0.72727123  0.55263591  1
