# generated using pymatgen
data_Li2Ti2As6SeF3
_symmetry_space_group_name_H-M   'P 1'
_cell_length_a   5.63548059
_cell_length_b   5.50743502
_cell_length_c   7.38474614
_cell_angle_alpha   100.44346035
_cell_angle_beta   104.17097883
_cell_angle_gamma   99.83643687
_symmetry_Int_Tables_number   1
_chemical_formula_structural   Li2Ti2As6SeF3
_chemical_formula_sum   'Li2 Ti2 As6 Se1 F3'
_cell_volume   212.90518776
_cell_formula_units_Z   1
loop_
 _symmetry_equiv_pos_site_id
 _symmetry_equiv_pos_as_xyz
  1  'x, y, z'
loop_
 _atom_site_type_symbol
 _atom_site_label
 _atom_site_symmetry_multiplicity
 _atom_site_fract_x
 _atom_site_fract_y
 _atom_site_fract_z
 _atom_site_occupancy
  Li  Li0  1  0.00000000  0.00000000  0.00000000  1
  Li  Li1  1  0.50000000  0.50000000  0.50000000  1
  Se  Se2  1  0.25000000  0.25000000  0.25000000  1
  F  F3  1  0.75000000  0.25000000  0.00000000  1
  F  F4  1  0.25000000  0.75000000  0.50000000  1
  F  F5  1  0.49895157  0.04869076  0.47109207  1
  Ti  Ti6  1  0.29856450  0.99419807  0.31426730  1
  Ti  Ti7  1  0.12243779  0.29861311  0.00854443  1
  As  As8  1  0.55673595  0.93580734  0.16064555  1
  As  As9  1  0.41126204  0.25347281  0.21751307  1
  As  As10  1  0.18775012  0.62648616  0.54687995  1
  As  As11  1  0.49131735  0.89381835  0.34407174  1
  As  As12  1  0.72495755  0.89984278  0.29857284  1
  As  As13  1  0.10694776  0.04524703  0.69045736  1
