# generated using pymatgen
data_LiMnSb4P3
_symmetry_space_group_name_H-M   'P 1'
_cell_length_a   5.78007364
_cell_length_b   6.19773966
_cell_length_c   6.82613382
_cell_angle_alpha   94.27508948
_cell_angle_beta   93.08400752
_cell_angle_gamma   94.71698752
_symmetry_Int_Tables_number   1
_chemical_formula_structural   LiMnSb4P3
_chemical_formula_sum   'Li1 Mn1 Sb4 P3'
_cell_volume   242.58669023
_cell_formula_units_Z   1
loop_
 _symmetry_equiv_pos_site_id
 _symmetry_equiv_pos_as_xyz
  1  'x, y, z'
loop_
 _atom_site_type_symbol
 _atom_site_label
 _atom_site_symmetry_multiplicity
 _atom_site_fract_x
 _atom_site_fract_y
 _atom_site_fract_z
 _atom_site_occupancy
  Mn  Mn0  1  0.12500000  0.12500000  0.12500000  1
  Sb  Sb1  1  0.50000000  0.50000000  0.50000000  1
  Sb  Sb2  1  0.25000000  0.25000000  0.25000000  1
  Sb  Sb3  1  0.75000000  0.75000000  0.75000000  1
  Sb  Sb4  1  0.18007400  0.76034029  0.30596548  1
  P  P5  1  0.32851576  0.95580535  0.56406930  1
  P  P6  1  0.18567142  0.66740582  0.29182505  1
  P  P7  1  0.67467869  0.96231165  0.33724121  1
  Li  Li8  1  0.54254259  0.05135816  0.00097752  1
