# generated using pymatgen
data_Li3LuNi2As6N5
_symmetry_space_group_name_H-M   'P 1'
_cell_length_a   7.43970140
_cell_length_b   7.16265224
_cell_length_c   8.78983692
_cell_angle_alpha   92.95610861
_cell_angle_beta   91.42755183
_cell_angle_gamma   93.42728560
_symmetry_Int_Tables_number   1
_chemical_formula_structural   Li3LuNi2As6N5
_chemical_formula_sum   'Li3 Lu1 Ni2 As6 N5'
_cell_volume   466.74871646
_cell_formula_units_Z   1
loop_
 _symmetry_equiv_pos_site_id
 _symmetry_equiv_pos_as_xyz
  1  'x, y, z'
loop_
 _atom_site_type_symbol
 _atom_site_label
 _atom_site_symmetry_multiplicity
 _atom_site_fract_x
 _atom_site_fract_y
 _atom_site_fract_z
 _atom_site_occupancy
  Lu  Lu0  1  0.00000000  0.00000000  0.00000000  1
  Li  Li1  1  0.50000000  0.50000000  0.50000000  1
  Li  Li2  1  0.25000000  0.25000000  0.25000000  1
  Li  Li3  1  0.75000000  0.25000000  0.00000000  1
  Ni  Ni4  1  0.25000000  0.75000000  0.50000000  1
  Ni  Ni5  1  0.59085991  0.76150018  0.70461593  1
  As  As6  1  0.94784284  0.62678198  0.84900594  1
  As  As7  1  0.20795449  0.47742216  0.45494713  1
  As  As8  1  0.66986320  0.80066193  0.16219013  1
  As  As9  1  0.51775414  0.93753457  0.45961949  1
  As  As10  1  0.61447525  0.22614690  0.46561524  1
  As  As11  1  0.12241825  0.69691133  0.18295821  1
  N  N12  1  0.31052050  0.16008764  0.56244597  1
  N  N13  1  0.73509266  0.93080039  0.17472832  1
  N  N14  1  0.41738943  0.32493965  0.12590739  1
  N  N15  1  0.54595747  0.17908641  0.59973030  1
  N  N16  1  0.36049593  0.73998640  0.55761867  1
