# generated using pymatgen
data_LiMn2Sb4P3
_symmetry_space_group_name_H-M   'P 1'
_cell_length_a   5.80488764
_cell_length_b   6.20194961
_cell_length_c   6.72140747
_cell_angle_alpha   96.65059923
_cell_angle_beta   91.54339480
_cell_angle_gamma   96.62213503
_symmetry_Int_Tables_number   1
_chemical_formula_structural   LiMn2Sb4P3
_chemical_formula_sum   'Li1 Mn2 Sb4 P3'
_cell_volume   238.55052692
_cell_formula_units_Z   1
loop_
 _symmetry_equiv_pos_site_id
 _symmetry_equiv_pos_as_xyz
  1  'x, y, z'
loop_
 _atom_site_type_symbol
 _atom_site_label
 _atom_site_symmetry_multiplicity
 _atom_site_fract_x
 _atom_site_fract_y
 _atom_site_fract_z
 _atom_site_occupancy
  Mn  Mn0  1  0.12500000  0.00000000  0.25000000  1
  Mn  Mn1  1  0.00000000  0.00000000  0.00000000  1
  Sb  Sb2  1  0.37500000  0.00000000  0.25000000  1
  Sb  Sb3  1  0.25000000  0.25000000  0.25000000  1
  Sb  Sb4  1  0.00000000  0.25000000  0.12500000  1
  Sb  Sb5  1  0.07716409  0.66255378  0.04408810  1
  P  P6  1  0.21426209  0.70338636  0.50997304  1
  P  P7  1  0.49654842  0.86135832  0.00656086  1
  P  P8  1  0.18816211  0.78167604  0.65036501  1
  Li  Li9  1  0.85057013  0.44485673  0.55722959  1
