# generated using pymatgen
data_Li3TiNi2(As3I2)2
_symmetry_space_group_name_H-M   'P 1'
_cell_length_a   8.26538312
_cell_length_b   8.11558078
_cell_length_c   7.85530896
_cell_angle_alpha   91.06967241
_cell_angle_beta   90.67816881
_cell_angle_gamma   91.23955897
_symmetry_Int_Tables_number   1
_chemical_formula_structural   Li3TiNi2(As3I2)2
_chemical_formula_sum   'Li3 Ti1 Ni2 As6 I4'
_cell_volume   526.66683647
_cell_formula_units_Z   1
loop_
 _symmetry_equiv_pos_site_id
 _symmetry_equiv_pos_as_xyz
  1  'x, y, z'
loop_
 _atom_site_type_symbol
 _atom_site_label
 _atom_site_symmetry_multiplicity
 _atom_site_fract_x
 _atom_site_fract_y
 _atom_site_fract_z
 _atom_site_occupancy
  I  I0  1  0.00000000  0.00000000  0.00000000  1
  I  I1  1  0.50000000  0.50000000  0.50000000  1
  I  I2  1  0.25000000  0.25000000  0.25000000  1
  I  I3  1  0.75000000  0.25000000  0.00000000  1
  Li  Li4  1  0.25000000  0.75000000  0.50000000  1
  Li  Li5  1  0.58591075  0.67393344  0.22704048  1
  Li  Li6  1  0.89260940  0.78205148  0.51766389  1
  Ni  Ni7  1  0.36161084  0.18491584  0.80410948  1
  Ni  Ni8  1  0.46170697  0.44380755  0.66490972  1
  Ti  Ti9  1  0.82018838  0.96386262  0.13388152  1
  As  As10  1  0.49064763  0.84653906  0.02356911  1
  As  As11  1  0.96362215  0.34681769  0.17626138  1
  As  As12  1  0.20830845  0.28374826  0.26436257  1
  As  As13  1  0.71585139  0.64688390  0.15442808  1
  As  As14  1  0.32212327  0.07301561  0.12371115  1
  As  As15  1  0.92796019  0.06224097  0.04751131  1
