# generated using pymatgen
data_LiSe3Br2(OF)2
_symmetry_space_group_name_H-M   'P 1'
_cell_length_a   7.96954943
_cell_length_b   8.30593589
_cell_length_c   7.79393260
_cell_angle_alpha   90.15257115
_cell_angle_beta   90.72588718
_cell_angle_gamma   90.17442956
_symmetry_Int_Tables_number   1
_chemical_formula_structural   LiSe3Br2(OF)2
_chemical_formula_sum   'Li1 Se3 Br2 O2 F2'
_cell_volume   515.87031444
_cell_formula_units_Z   1
loop_
 _symmetry_equiv_pos_site_id
 _symmetry_equiv_pos_as_xyz
  1  'x, y, z'
loop_
 _atom_site_type_symbol
 _atom_site_label
 _atom_site_symmetry_multiplicity
 _atom_site_fract_x
 _atom_site_fract_y
 _atom_site_fract_z
 _atom_site_occupancy
  Li  Li0  1  0.12500000  0.00000000  0.25000000  1
  Br  Br1  1  0.00000000  0.00000000  0.00000000  1
  Br  Br2  1  0.37500000  0.00000000  0.25000000  1
  Se  Se3  1  0.25000000  0.25000000  0.25000000  1
  Se  Se4  1  0.00000000  0.25000000  0.12500000  1
  Se  Se5  1  0.72237991  0.41600423  0.50243060  1
  F  F6  1  0.06090027  0.67050315  0.52433112  1
  F  F7  1  0.04152481  0.32593828  0.76304902  1
  O  O8  1  0.63876568  0.45606113  0.13417311  1
  O  O9  1  0.07611295  0.69488874  0.34184099  1
