# generated using pymatgen
data_Li2MnMo2P3
_symmetry_space_group_name_H-M   'P 1'
_cell_length_a   5.82326376
_cell_length_b   6.28667543
_cell_length_c   7.04705314
_cell_angle_alpha   95.80899161
_cell_angle_beta   93.81042051
_cell_angle_gamma   96.18368963
_symmetry_Int_Tables_number   1
_chemical_formula_structural   Li2MnMo2P3
_chemical_formula_sum   'Li2 Mn1 Mo2 P3'
_cell_volume   254.38557790
_cell_formula_units_Z   1
loop_
 _symmetry_equiv_pos_site_id
 _symmetry_equiv_pos_as_xyz
  1  'x, y, z'
loop_
 _atom_site_type_symbol
 _atom_site_label
 _atom_site_symmetry_multiplicity
 _atom_site_fract_x
 _atom_site_fract_y
 _atom_site_fract_z
 _atom_site_occupancy
  Mn  Mn0  1  0.12500000  0.12500000  0.12500000  1
  P  P1  1  0.50000000  0.50000000  0.50000000  1
  P  P2  1  0.25000000  0.25000000  0.25000000  1
  P  P3  1  0.75000000  0.75000000  0.75000000  1
  Mo  Mo4  1  0.54607774  0.50307761  0.26645210  1
  Mo  Mo5  1  0.30201635  0.96485396  0.57042220  1
  Li  Li6  1  0.89709239  0.99329618  0.99413607  1
  Li  Li7  1  0.39774031  0.81645757  0.80430146  1
