# generated using pymatgen
data_Li2Sb4P3
_symmetry_space_group_name_H-M   'P 1'
_cell_length_a   7.05670939
_cell_length_b   7.02588862
_cell_length_c   7.34189268
_cell_angle_alpha   94.59531156
_cell_angle_beta   91.35053926
_cell_angle_gamma   94.76846672
_symmetry_Int_Tables_number   1
_chemical_formula_structural   Li2Sb4P3
_chemical_formula_sum   'Li2 Sb4 P3'
_cell_volume   361.41503035
_cell_formula_units_Z   1
loop_
 _symmetry_equiv_pos_site_id
 _symmetry_equiv_pos_as_xyz
  1  'x, y, z'
loop_
 _atom_site_type_symbol
 _atom_site_label
 _atom_site_symmetry_multiplicity
 _atom_site_fract_x
 _atom_site_fract_y
 _atom_site_fract_z
 _atom_site_occupancy
  Sb  Sb0  1  0.12500000  0.12500000  0.12500000  1
  Sb  Sb1  1  0.50000000  0.50000000  0.50000000  1
  Sb  Sb2  1  0.25000000  0.25000000  0.25000000  1
  Sb  Sb3  1  0.75000000  0.75000000  0.75000000  1
  P  P4  1  0.55764677  0.86442938  0.33041204  1
  P  P5  1  0.56448663  0.49049772  0.42157280  1
  P  P6  1  0.83445485  0.55651070  0.67524556  1
  Li  Li7  1  0.88361743  0.94396035  0.73719946  1
  Li  Li8  1  0.52234276  0.08160388  0.03876125  1
