# generated using pymatgen
data_Li2LaSe7N
_symmetry_space_group_name_H-M   'P 1'
_cell_length_a   6.61059772
_cell_length_b   6.22997507
_cell_length_c   6.25785808
_cell_angle_alpha   98.73843225
_cell_angle_beta   97.67652759
_cell_angle_gamma   93.39674494
_symmetry_Int_Tables_number   1
_chemical_formula_structural   Li2LaSe7N
_chemical_formula_sum   'Li2 La1 Se7 N1'
_cell_volume   251.61450979
_cell_formula_units_Z   1
loop_
 _symmetry_equiv_pos_site_id
 _symmetry_equiv_pos_as_xyz
  1  'x, y, z'
loop_
 _atom_site_type_symbol
 _atom_site_label
 _atom_site_symmetry_multiplicity
 _atom_site_fract_x
 _atom_site_fract_y
 _atom_site_fract_z
 _atom_site_occupancy
  Se  Se0  1  0.00000000  0.00000000  0.00000000  1
  Se  Se1  1  0.33300000  0.66700000  0.25000000  1
  Se  Se2  1  0.66700000  0.33300000  0.50000000  1
  Se  Se3  1  0.00000000  0.00000000  0.75000000  1
  Se  Se4  1  0.90397656  0.76719547  0.25105008  1
  Se  Se5  1  0.59092435  0.45215906  0.76518410  1
  Se  Se6  1  0.95897951  0.13826196  0.67365429  1
  La  La7  1  0.41294488  0.35295644  0.05704242  1
  Li  Li8  1  0.85642398  0.74246690  0.47893097  1
  Li  Li9  1  0.62250318  0.18151225  0.57468965  1
  N  N10  1  0.99784597  0.90100172  0.83699423  1
