# generated using pymatgen
data_Li2TiP4(SeS2)2
_symmetry_space_group_name_H-M   'P 1'
_cell_length_a   8.31376587
_cell_length_b   7.18675546
_cell_length_c   8.38884079
_cell_angle_alpha   90.00000000
_cell_angle_beta   90.00000000
_cell_angle_gamma   90.00000000
_symmetry_Int_Tables_number   1
_chemical_formula_structural   Li2TiP4(SeS2)2
_chemical_formula_sum   'Li2 Ti1 P4 Se2 S4'
_cell_volume   501.22486763
_cell_formula_units_Z   1
loop_
 _symmetry_equiv_pos_site_id
 _symmetry_equiv_pos_as_xyz
  1  'x, y, z'
loop_
 _atom_site_type_symbol
 _atom_site_label
 _atom_site_symmetry_multiplicity
 _atom_site_fract_x
 _atom_site_fract_y
 _atom_site_fract_z
 _atom_site_occupancy
  Ti  Ti0  1  0.12500000  0.00000000  0.25000000  1
  S  S1  1  0.00000000  0.00000000  0.00000000  1
  S  S2  1  0.37500000  0.00000000  0.25000000  1
  S  S3  1  0.25000000  0.25000000  0.25000000  1
  S  S4  1  0.00000000  0.25000000  0.12500000  1
  Se  Se5  1  0.84742042  0.35297610  0.79374695  1
  Se  Se6  1  0.50444706  0.58954911  0.65951088  1
  P  P7  1  0.16482343  0.94961898  0.66912136  1
  P  P8  1  0.69374790  0.44349776  0.11404121  1
  P  P9  1  0.23195636  0.78814994  0.86711593  1
  P  P10  1  0.78648746  0.08907856  0.79731273  1
  Li  Li11  1  0.53925815  0.45215245  0.41225661  1
  Li  Li12  1  0.07606958  0.75197594  0.05770613  1
