# generated using pymatgen
data_LiMn2Sb4P2N
_symmetry_space_group_name_H-M   'P 1'
_cell_length_a   6.07176497
_cell_length_b   6.51793865
_cell_length_c   6.76266495
_cell_angle_alpha   94.47922228
_cell_angle_beta   91.89777744
_cell_angle_gamma   94.24711001
_symmetry_Int_Tables_number   1
_chemical_formula_structural   LiMn2Sb4P2N
_chemical_formula_sum   'Li1 Mn2 Sb4 P2 N1'
_cell_volume   265.88122538
_cell_formula_units_Z   1
loop_
 _symmetry_equiv_pos_site_id
 _symmetry_equiv_pos_as_xyz
  1  'x, y, z'
loop_
 _atom_site_type_symbol
 _atom_site_label
 _atom_site_symmetry_multiplicity
 _atom_site_fract_x
 _atom_site_fract_y
 _atom_site_fract_z
 _atom_site_occupancy
  N  N0  1  0.00000000  0.00000000  0.00000000  1
  Mn  Mn1  1  0.50000000  0.50000000  0.50000000  1
  Mn  Mn2  1  0.25000000  0.25000000  0.25000000  1
  Sb  Sb3  1  0.75000000  0.25000000  0.00000000  1
  Sb  Sb4  1  0.25000000  0.75000000  0.50000000  1
  Sb  Sb5  1  0.91786953  0.71992748  0.56316803  1
  Sb  Sb6  1  0.51955349  0.88579159  0.22805194  1
  P  P7  1  0.01417072  0.89787962  0.93152004  1
  P  P8  1  0.30167817  0.07820895  0.44973974  1
  Li  Li9  1  0.53914461  0.57443089  0.46914141  1
