# generated using pymatgen
data_Li3Cu2As6(P4O)2
_symmetry_space_group_name_H-M   'P 1'
_cell_length_a   7.26538738
_cell_length_b   7.42189885
_cell_length_c   8.33841153
_cell_angle_alpha   92.87053453
_cell_angle_beta   94.64526695
_cell_angle_gamma   92.75739728
_symmetry_Int_Tables_number   1
_chemical_formula_structural   Li3Cu2As6(P4O)2
_chemical_formula_sum   'Li3 Cu2 As6 P8 O2'
_cell_volume   446.97771826
_cell_formula_units_Z   1
loop_
 _symmetry_equiv_pos_site_id
 _symmetry_equiv_pos_as_xyz
  1  'x, y, z'
loop_
 _atom_site_type_symbol
 _atom_site_label
 _atom_site_symmetry_multiplicity
 _atom_site_fract_x
 _atom_site_fract_y
 _atom_site_fract_z
 _atom_site_occupancy
  P  P0  1  0.00000000  0.00000000  0.00000000  1
  P  P1  1  0.50000000  0.50000000  0.50000000  1
  P  P2  1  0.25000000  0.25000000  0.25000000  1
  P  P3  1  0.75000000  0.25000000  0.00000000  1
  P  P4  1  0.25000000  0.75000000  0.50000000  1
  P  P5  1  0.18895461  0.00118229  0.01033347  1
  P  P6  1  0.19612195  0.99202302  0.28012909  1
  P  P7  1  0.46685887  0.68493411  0.07788870  1
  Li  Li8  1  0.00639828  0.48395829  0.05064676  1
  Li  Li9  1  0.65690372  0.74516788  0.35875155  1
  Li  Li10  1  0.76031821  0.37789825  0.32857905  1
  Cu  Cu11  1  0.48903594  0.10009460  0.36205641  1
  Cu  Cu12  1  0.33049636  0.19702893  0.32512246  1
  As  As13  1  0.39562345  0.25971548  0.73186063  1
  As  As14  1  0.23382476  0.57568762  0.09041998  1
  As  As15  1  0.46563187  0.11296717  0.45154704  1
  As  As16  1  0.55337955  0.58511228  0.65359101  1
  As  As17  1  0.29588443  0.90745728  0.11798424  1
  As  As18  1  0.62704557  0.85282569  0.14634014  1
  O  O19  1  0.77252771  0.61788127  0.98316691  1
  O  O20  1  0.25057375  0.05814874  0.69332508  1
