# generated using pymatgen
data_Li2Sb4P3
_symmetry_space_group_name_H-M   'P 1'
_cell_length_a   6.03895181
_cell_length_b   6.06337902
_cell_length_c   7.09658254
_cell_angle_alpha   97.08248964
_cell_angle_beta   94.22171827
_cell_angle_gamma   97.59071205
_symmetry_Int_Tables_number   1
_chemical_formula_structural   Li2Sb4P3
_chemical_formula_sum   'Li2 Sb4 P3'
_cell_volume   254.53940719
_cell_formula_units_Z   1
loop_
 _symmetry_equiv_pos_site_id
 _symmetry_equiv_pos_as_xyz
  1  'x, y, z'
loop_
 _atom_site_type_symbol
 _atom_site_label
 _atom_site_symmetry_multiplicity
 _atom_site_fract_x
 _atom_site_fract_y
 _atom_site_fract_z
 _atom_site_occupancy
  Sb  Sb0  1  0.12500000  0.12500000  0.12500000  1
  Sb  Sb1  1  0.50000000  0.50000000  0.50000000  1
  Sb  Sb2  1  0.25000000  0.25000000  0.25000000  1
  Sb  Sb3  1  0.75000000  0.75000000  0.75000000  1
  P  P4  1  0.91118484  0.94069954  0.46377790  1
  P  P5  1  0.03306016  0.70037358  0.36792037  1
  P  P6  1  0.26044719  0.84784146  0.01287430  1
  Li  Li7  1  0.25712174  0.12625534  0.97624692  1
  Li  Li8  1  0.39296520  0.30340087  0.45690799  1
