# generated using pymatgen
data_Li2MnSb4P3
_symmetry_space_group_name_H-M   'P 1'
_cell_length_a   6.12394219
_cell_length_b   6.37425947
_cell_length_c   7.23335764
_cell_angle_alpha   95.26131489
_cell_angle_beta   94.35849806
_cell_angle_gamma   95.77669596
_symmetry_Int_Tables_number   1
_chemical_formula_structural   Li2MnSb4P3
_chemical_formula_sum   'Li2 Mn1 Sb4 P3'
_cell_volume   278.70397984
_cell_formula_units_Z   1
loop_
 _symmetry_equiv_pos_site_id
 _symmetry_equiv_pos_as_xyz
  1  'x, y, z'
loop_
 _atom_site_type_symbol
 _atom_site_label
 _atom_site_symmetry_multiplicity
 _atom_site_fract_x
 _atom_site_fract_y
 _atom_site_fract_z
 _atom_site_occupancy
  Mn  Mn0  1  0.00000000  0.00000000  0.00000000  1
  Sb  Sb1  1  0.33300000  0.66700000  0.25000000  1
  Sb  Sb2  1  0.66700000  0.33300000  0.50000000  1
  Sb  Sb3  1  0.00000000  0.00000000  0.75000000  1
  Sb  Sb4  1  0.58056448  0.36946462  0.78575549  1
  P  P5  1  0.20449062  0.00244917  0.64114136  1
  P  P6  1  0.37954352  0.39182859  0.77909533  1
  P  P7  1  0.82125590  0.50469171  0.25202251  1
  Li  Li8  1  0.60795138  0.60947770  0.89814956  1
  Li  Li9  1  0.56543667  0.90718668  0.69440638  1
