# generated using pymatgen
data_Li2Mn2Sb4P3
_symmetry_space_group_name_H-M   'P 1'
_cell_length_a   6.13482285
_cell_length_b   6.61681579
_cell_length_c   6.99083069
_cell_angle_alpha   95.65602058
_cell_angle_beta   91.91962713
_cell_angle_gamma   95.77150670
_symmetry_Int_Tables_number   1
_chemical_formula_structural   Li2Mn2Sb4P3
_chemical_formula_sum   'Li2 Mn2 Sb4 P3'
_cell_volume   280.69548187
_cell_formula_units_Z   1
loop_
 _symmetry_equiv_pos_site_id
 _symmetry_equiv_pos_as_xyz
  1  'x, y, z'
loop_
 _atom_site_type_symbol
 _atom_site_label
 _atom_site_symmetry_multiplicity
 _atom_site_fract_x
 _atom_site_fract_y
 _atom_site_fract_z
 _atom_site_occupancy
  Mn  Mn0  1  0.00000000  0.00000000  0.00000000  1
  Mn  Mn1  1  0.50000000  0.50000000  0.50000000  1
  Sb  Sb2  1  0.50000000  0.50000000  0.00000000  1
  Sb  Sb3  1  0.50000000  0.00000000  0.50000000  1
  Sb  Sb4  1  0.00000000  0.50000000  0.50000000  1
  Sb  Sb5  1  0.57987183  0.94453192  0.59116767  1
  P  P6  1  0.63618401  0.67728016  0.10532378  1
  P  P7  1  0.83681484  0.11141314  0.08929085  1
  P  P8  1  0.58809232  0.73970525  0.11178895  1
  Li  Li9  1  0.47699644  0.59047714  0.38358470  1
  Li  Li10  1  0.70992804  0.95517075  0.96456186  1
