# generated using pymatgen
data_Li2MnSb4P3
_symmetry_space_group_name_H-M   'P 1'
_cell_length_a   4.63035146
_cell_length_b   4.61532248
_cell_length_c   5.67612886
_cell_angle_alpha   98.06963784
_cell_angle_beta   93.29064115
_cell_angle_gamma   96.67201237
_symmetry_Int_Tables_number   1
_chemical_formula_structural   Li2MnSb4P3
_chemical_formula_sum   'Li2 Mn1 Sb4 P3'
_cell_volume   118.95201946
_cell_formula_units_Z   1
loop_
 _symmetry_equiv_pos_site_id
 _symmetry_equiv_pos_as_xyz
  1  'x, y, z'
loop_
 _atom_site_type_symbol
 _atom_site_label
 _atom_site_symmetry_multiplicity
 _atom_site_fract_x
 _atom_site_fract_y
 _atom_site_fract_z
 _atom_site_occupancy
  Mn  Mn0  1  0.12500000  0.00000000  0.25000000  1
  Sb  Sb1  1  0.00000000  0.00000000  0.00000000  1
  Sb  Sb2  1  0.37500000  0.00000000  0.25000000  1
  Sb  Sb3  1  0.25000000  0.25000000  0.25000000  1
  Sb  Sb4  1  0.00000000  0.25000000  0.12500000  1
  P  P5  1  0.24461433  0.54038092  0.52651175  1
  P  P6  1  0.21498163  0.50387529  0.80799913  1
  P  P7  1  0.33872126  0.51220260  0.20478132  1
  Li  Li8  1  0.74787087  0.22078433  0.60872463  1
  Li  Li9  1  0.75261453  0.50607475  0.10022040  1
