# generated using pymatgen
data_Li4Ni2As6O5
_symmetry_space_group_name_H-M   'P 1'
_cell_length_a   7.85493965
_cell_length_b   7.79652692
_cell_length_c   9.15428721
_cell_angle_alpha   92.12768583
_cell_angle_beta   92.71656612
_cell_angle_gamma   92.00154785
_symmetry_Int_Tables_number   1
_chemical_formula_structural   Li4Ni2As6O5
_chemical_formula_sum   'Li4 Ni2 As6 O5'
_cell_volume   559.22581237
_cell_formula_units_Z   1
loop_
 _symmetry_equiv_pos_site_id
 _symmetry_equiv_pos_as_xyz
  1  'x, y, z'
loop_
 _atom_site_type_symbol
 _atom_site_label
 _atom_site_symmetry_multiplicity
 _atom_site_fract_x
 _atom_site_fract_y
 _atom_site_fract_z
 _atom_site_occupancy
  Li  Li0  1  0.00000000  0.00000000  0.00000000  1
  Li  Li1  1  0.50000000  0.50000000  0.50000000  1
  Li  Li2  1  0.50000000  0.50000000  0.00000000  1
  Li  Li3  1  0.50000000  0.00000000  0.50000000  1
  Ni  Ni4  1  0.00000000  0.50000000  0.50000000  1
  Ni  Ni5  1  0.15969601  0.84684572  0.68792149  1
  As  As6  1  0.36839180  0.67481812  0.02729659  1
  As  As7  1  0.67828868  0.64862113  0.25943914  1
  As  As8  1  0.38975351  0.38257910  0.02949526  1
  As  As9  1  0.36206894  0.98128342  0.62412754  1
  As  As10  1  0.01069245  0.52797352  0.63581024  1
  As  As11  1  0.00422948  0.56261776  0.04758326  1
  O  O12  1  0.74446767  0.09669512  0.07038041  1
  O  O13  1  0.70291090  0.87092360  0.61031129  1
  O  O14  1  0.48300030  0.83403479  0.43421593  1
  O  O15  1  0.39461568  0.45714334  0.58867830  1
  O  O16  1  0.74231282  0.81273396  0.73339202  1
