# generated using pymatgen
data_LiMnSb4P3N
_symmetry_space_group_name_H-M   'P 1'
_cell_length_a   4.73020360
_cell_length_b   4.95563480
_cell_length_c   6.24710028
_cell_angle_alpha   97.88173156
_cell_angle_beta   95.40452644
_cell_angle_gamma   97.44433418
_symmetry_Int_Tables_number   1
_chemical_formula_structural   LiMnSb4P3N
_chemical_formula_sum   'Li1 Mn1 Sb4 P3 N1'
_cell_volume   142.89587235
_cell_formula_units_Z   1
loop_
 _symmetry_equiv_pos_site_id
 _symmetry_equiv_pos_as_xyz
  1  'x, y, z'
loop_
 _atom_site_type_symbol
 _atom_site_label
 _atom_site_symmetry_multiplicity
 _atom_site_fract_x
 _atom_site_fract_y
 _atom_site_fract_z
 _atom_site_occupancy
  N  N0  1  0.00000000  0.00000000  0.00000000  1
  Mn  Mn1  1  0.50000000  0.50000000  0.50000000  1
  Sb  Sb2  1  0.25000000  0.25000000  0.25000000  1
  Sb  Sb3  1  0.75000000  0.25000000  0.00000000  1
  Sb  Sb4  1  0.25000000  0.75000000  0.50000000  1
  Sb  Sb5  1  0.13987563  0.43652638  0.71967050  1
  P  P6  1  0.34011847  0.46735158  0.21052541  1
  P  P7  1  0.89767269  0.83370893  0.67439970  1
  P  P8  1  0.50384848  0.01979837  0.03870273  1
  Li  Li9  1  0.80096766  0.31921013  0.85747550  1
