# generated using pymatgen
data_Li3Ti(CuO)2
_symmetry_space_group_name_H-M   'P 1'
_cell_length_a   7.72947488
_cell_length_b   7.68551919
_cell_length_c   7.59266531
_cell_angle_alpha   92.08635436
_cell_angle_beta   93.20926922
_cell_angle_gamma   91.99440720
_symmetry_Int_Tables_number   1
_chemical_formula_structural   Li3Ti(CuO)2
_chemical_formula_sum   'Li3 Ti1 Cu2 O2'
_cell_volume   449.72973680
_cell_formula_units_Z   1
loop_
 _symmetry_equiv_pos_site_id
 _symmetry_equiv_pos_as_xyz
  1  'x, y, z'
loop_
 _atom_site_type_symbol
 _atom_site_label
 _atom_site_symmetry_multiplicity
 _atom_site_fract_x
 _atom_site_fract_y
 _atom_site_fract_z
 _atom_site_occupancy
  Li  Li0  1  0.00000000  0.00000000  0.00000000  1
  Li  Li1  1  0.50000000  0.50000000  0.50000000  1
  Li  Li2  1  0.50000000  0.50000000  0.00000000  1
  Cu  Cu3  1  0.50000000  0.00000000  0.50000000  1
  Cu  Cu4  1  0.00000000  0.50000000  0.50000000  1
  Ti  Ti5  1  0.83879092  0.33169215  0.93481958  1
  O  O6  1  0.93025099  0.48455594  0.32131808  1
  O  O7  1  0.66716254  0.59222792  0.67609449  1
