# generated using pymatgen
data_Li3Ti(P2O)2
_symmetry_space_group_name_H-M   'P 1'
_cell_length_a   5.89347561
_cell_length_b   5.63298403
_cell_length_c   5.31676216
_cell_angle_alpha   90.90173320
_cell_angle_beta   91.20405394
_cell_angle_gamma   88.96127523
_symmetry_Int_Tables_number   1
_chemical_formula_structural   Li3Ti(P2O)2
_chemical_formula_sum   'Li3 Ti1 P4 O2'
_cell_volume   176.41630165
_cell_formula_units_Z   1
loop_
 _symmetry_equiv_pos_site_id
 _symmetry_equiv_pos_as_xyz
  1  'x, y, z'
loop_
 _atom_site_type_symbol
 _atom_site_label
 _atom_site_symmetry_multiplicity
 _atom_site_fract_x
 _atom_site_fract_y
 _atom_site_fract_z
 _atom_site_occupancy
  P  P0  1  0.00000000  0.00000000  0.00000000  1
  P  P1  1  0.50000000  0.50000000  0.50000000  1
  P  P2  1  0.50000000  0.50000000  0.00000000  1
  P  P3  1  0.50000000  0.00000000  0.50000000  1
  Li  Li4  1  0.00000000  0.50000000  0.50000000  1
  Li  Li5  1  0.35726279  0.67462887  0.00854838  1
  Li  Li6  1  0.27883026  0.28673223  0.83783475  1
  Ti  Ti7  1  0.27424753  0.33513242  0.97467579  1
  O  O8  1  0.36414602  0.85497264  0.32719993  1
  O  O9  1  0.63968034  0.25238996  0.90417438  1
