# generated using pymatgen
data_Li3Ti2Cu2P3S2
_symmetry_space_group_name_H-M   'P 1'
_cell_length_a   5.27835890
_cell_length_b   5.25299120
_cell_length_c   6.62882248
_cell_angle_alpha   98.52473094
_cell_angle_beta   102.30769684
_cell_angle_gamma   100.17396101
_symmetry_Int_Tables_number   1
_chemical_formula_structural   Li3Ti2Cu2P3S2
_chemical_formula_sum   'Li3 Ti2 Cu2 P3 S2'
_cell_volume   173.41702739
_cell_formula_units_Z   1
loop_
 _symmetry_equiv_pos_site_id
 _symmetry_equiv_pos_as_xyz
  1  'x, y, z'
loop_
 _atom_site_type_symbol
 _atom_site_label
 _atom_site_symmetry_multiplicity
 _atom_site_fract_x
 _atom_site_fract_y
 _atom_site_fract_z
 _atom_site_occupancy
  P  P0  1  0.00000000  0.00000000  0.00000000  1
  P  P1  1  0.50000000  0.50000000  0.50000000  1
  P  P2  1  0.25000000  0.25000000  0.25000000  1
  Li  Li3  1  0.75000000  0.25000000  0.00000000  1
  Li  Li4  1  0.25000000  0.75000000  0.50000000  1
  Li  Li5  1  0.75988479  0.26402544  0.58960140  1
  Cu  Cu6  1  0.08852249  0.01009458  0.29387477  1
  Cu  Cu7  1  0.66903497  0.88047040  0.57086984  1
  S  S8  1  0.79851458  0.46288679  0.34445819  1
  S  S9  1  0.67393099  0.56309708  0.70613654  1
  Ti  Ti10  1  0.00263951  0.98386544  0.64837372  1
  Ti  Ti11  1  0.70454743  0.19819111  0.38385630  1
