# generated using pymatgen
data_Li3Ni2P4N5
_symmetry_space_group_name_H-M   'P 1'
_cell_length_a   7.44752136
_cell_length_b   7.28251294
_cell_length_c   8.70489338
_cell_angle_alpha   92.36851905
_cell_angle_beta   91.63481784
_cell_angle_gamma   92.74418750
_symmetry_Int_Tables_number   1
_chemical_formula_structural   Li3Ni2P4N5
_chemical_formula_sum   'Li3 Ni2 P4 N5'
_cell_volume   470.95994723
_cell_formula_units_Z   1
loop_
 _symmetry_equiv_pos_site_id
 _symmetry_equiv_pos_as_xyz
  1  'x, y, z'
loop_
 _atom_site_type_symbol
 _atom_site_label
 _atom_site_symmetry_multiplicity
 _atom_site_fract_x
 _atom_site_fract_y
 _atom_site_fract_z
 _atom_site_occupancy
  P  P0  1  0.00000000  0.00000000  0.00000000  1
  P  P1  1  0.50000000  0.50000000  0.50000000  1
  P  P2  1  0.50000000  0.50000000  0.00000000  1
  P  P3  1  0.50000000  0.00000000  0.50000000  1
  Li  Li4  1  0.00000000  0.50000000  0.50000000  1
  Li  Li5  1  0.27171358  0.95405622  0.82608054  1
  Li  Li6  1  0.67016369  0.29402794  0.22016859  1
  Ni  Ni7  1  0.80161772  0.42171109  0.32944808  1
  Ni  Ni8  1  0.61508126  0.64221559  0.13972432  1
  N  N9  1  0.92131560  0.11404182  0.59273743  1
  N  N10  1  0.35580777  0.97349704  0.28437666  1
  N  N11  1  0.49722207  0.51955063  0.46253176  1
  N  N12  1  0.78000072  0.68957887  0.71013329  1
  N  N13  1  0.51202572  0.47769495  0.77102268  1
