# generated using pymatgen
data_Li4Te6P3I4O3
_symmetry_space_group_name_H-M   'P 1'
_cell_length_a   8.18699545
_cell_length_b   8.47659288
_cell_length_c   7.02364350
_cell_angle_alpha   90.00000000
_cell_angle_beta   90.00000000
_cell_angle_gamma   90.00000000
_symmetry_Int_Tables_number   1
_chemical_formula_structural   Li4Te6P3I4O3
_chemical_formula_sum   'Li4 Te6 P3 I4 O3'
_cell_volume   487.42559876
_cell_formula_units_Z   1
loop_
 _symmetry_equiv_pos_site_id
 _symmetry_equiv_pos_as_xyz
  1  'x, y, z'
loop_
 _atom_site_type_symbol
 _atom_site_label
 _atom_site_symmetry_multiplicity
 _atom_site_fract_x
 _atom_site_fract_y
 _atom_site_fract_z
 _atom_site_occupancy
  P  P0  1  0.12500000  0.00000000  0.25000000  1
  P  P1  1  0.00000000  0.00000000  0.00000000  1
  P  P2  1  0.37500000  0.00000000  0.25000000  1
  I  I3  1  0.25000000  0.25000000  0.25000000  1
  I  I4  1  0.00000000  0.25000000  0.12500000  1
  I  I5  1  0.09724113  0.62016990  0.07336388  1
  I  I6  1  0.60127879  0.14087742  0.33988322  1
  Li  Li7  1  0.79137606  0.24581834  0.55367193  1
  Li  Li8  1  0.71225010  0.29711623  0.63494078  1
  Li  Li9  1  0.97348319  0.39899748  0.05150315  1
  Li  Li10  1  0.00210330  0.23429013  0.31617638  1
  Te  Te11  1  0.32749859  0.38354878  0.28864661  1
  Te  Te12  1  0.31586939  0.51934046  0.91780768  1
  Te  Te13  1  0.27526035  0.02313180  0.08112115  1
  Te  Te14  1  0.67742804  0.74420233  0.05428091  1
  Te  Te15  1  0.57243519  0.55004737  0.46259341  1
  Te  Te16  1  0.52149554  0.25190825  0.49494350  1
  O  O17  1  0.62635290  0.90504730  0.20124051  1
  O  O18  1  0.70307067  0.84296563  0.10880835  1
  O  O19  1  0.38935516  0.51770799  0.38595111  1
