# generated using pymatgen
data_Li3LuCu2(NiAs3)2
_symmetry_space_group_name_H-M   'P 1'
_cell_length_a   8.01089567
_cell_length_b   7.85434767
_cell_length_c   9.32363402
_cell_angle_alpha   90.85786155
_cell_angle_beta   90.56004536
_cell_angle_gamma   90.99404710
_symmetry_Int_Tables_number   1
_chemical_formula_structural   Li3LuCu2(NiAs3)2
_chemical_formula_sum   'Li3 Lu1 Cu2 Ni2 As6'
_cell_volume   586.46283153
_cell_formula_units_Z   1
loop_
 _symmetry_equiv_pos_site_id
 _symmetry_equiv_pos_as_xyz
  1  'x, y, z'
loop_
 _atom_site_type_symbol
 _atom_site_label
 _atom_site_symmetry_multiplicity
 _atom_site_fract_x
 _atom_site_fract_y
 _atom_site_fract_z
 _atom_site_occupancy
  Lu  Lu0  1  0.12500000  0.00000000  0.25000000  1
  Li  Li1  1  0.00000000  0.00000000  0.00000000  1
  Li  Li2  1  0.37500000  0.00000000  0.25000000  1
  Li  Li3  1  0.25000000  0.25000000  0.25000000  1
  Cu  Cu4  1  0.00000000  0.25000000  0.12500000  1
  Cu  Cu5  1  0.07160635  0.10033410  0.10624275  1
  Ni  Ni6  1  0.02959927  0.87358552  0.68756139  1
  Ni  Ni7  1  0.29963067  0.35544092  0.05099861  1
  As  As8  1  0.00644294  0.49510756  0.95654852  1
  As  As9  1  0.26633678  0.30337405  0.50708559  1
  As  As10  1  0.69432146  0.54279918  0.55373957  1
  As  As11  1  0.17832872  0.66043757  0.85612235  1
  As  As12  1  0.41238991  0.70586380  0.93825581  1
  As  As13  1  0.64266651  0.07081432  0.50226196  1
