# generated using pymatgen
data_Li2Mn2(NiP)3
_symmetry_space_group_name_H-M   'P 1'
_cell_length_a   4.85569157
_cell_length_b   4.94424886
_cell_length_c   6.94323943
_cell_angle_alpha   97.28035920
_cell_angle_beta   97.34051164
_cell_angle_gamma   97.86217450
_symmetry_Int_Tables_number   1
_chemical_formula_structural   Li2Mn2(NiP)3
_chemical_formula_sum   'Li2 Mn2 Ni3 P3'
_cell_volume   161.99772185
_cell_formula_units_Z   1
loop_
 _symmetry_equiv_pos_site_id
 _symmetry_equiv_pos_as_xyz
  1  'x, y, z'
loop_
 _atom_site_type_symbol
 _atom_site_label
 _atom_site_symmetry_multiplicity
 _atom_site_fract_x
 _atom_site_fract_y
 _atom_site_fract_z
 _atom_site_occupancy
  Mn  Mn0  1  0.00000000  0.00000000  0.00000000  1
  Mn  Mn1  1  0.50000000  0.50000000  0.50000000  1
  P  P2  1  0.50000000  0.50000000  0.00000000  1
  P  P3  1  0.50000000  0.00000000  0.50000000  1
  P  P4  1  0.00000000  0.50000000  0.50000000  1
  Li  Li5  1  0.81115996  0.95498628  0.98905119  1
  Li  Li6  1  0.43348727  0.23208554  0.17106709  1
  Ni  Ni7  1  0.53259084  0.20150386  0.80226073  1
  Ni  Ni8  1  0.24405871  0.93576686  0.80142335  1
  Ni  Ni9  1  0.21836744  0.91150679  0.29269129  1
