# generated using pymatgen
data_Li4Ti3Cu2(NiO2)2
_symmetry_space_group_name_H-M   'P 1'
_cell_length_a   7.03656020
_cell_length_b   7.10747495
_cell_length_c   8.48299246
_cell_angle_alpha   94.66016779
_cell_angle_beta   96.31195253
_cell_angle_gamma   95.99721084
_symmetry_Int_Tables_number   1
_chemical_formula_structural   Li4Ti3Cu2(NiO2)2
_chemical_formula_sum   'Li4 Ti3 Cu2 Ni2 O4'
_cell_volume   417.52379621
_cell_formula_units_Z   1
loop_
 _symmetry_equiv_pos_site_id
 _symmetry_equiv_pos_as_xyz
  1  'x, y, z'
loop_
 _atom_site_type_symbol
 _atom_site_label
 _atom_site_symmetry_multiplicity
 _atom_site_fract_x
 _atom_site_fract_y
 _atom_site_fract_z
 _atom_site_occupancy
  Li  Li0  1  0.12500000  0.00000000  0.25000000  1
  Li  Li1  1  0.00000000  0.00000000  0.00000000  1
  Li  Li2  1  0.37500000  0.00000000  0.25000000  1
  Li  Li3  1  0.25000000  0.25000000  0.25000000  1
  Cu  Cu4  1  0.00000000  0.25000000  0.12500000  1
  Cu  Cu5  1  0.12947930  0.10676367  0.89508625  1
  Ni  Ni6  1  0.59704245  0.54776014  0.91782663  1
  Ni  Ni7  1  0.27776859  0.13010044  0.61763417  1
  Ti  Ti8  1  0.39467626  0.79944708  0.77355530  1
  Ti  Ti9  1  0.95610726  0.08553361  0.67784303  1
  Ti  Ti10  1  0.63954191  0.98784960  0.18728392  1
  O  O11  1  0.57988371  0.69963793  0.30671787  1
  O  O12  1  0.06299815  0.46340946  0.59119033  1
  O  O13  1  0.86063918  0.49881832  0.89420767  1
  O  O14  1  0.81141238  0.92754261  0.10706157  1
