# generated using pymatgen
data_LiMn2Sb4Mo2P3
_symmetry_space_group_name_H-M   'P 1'
_cell_length_a   5.93532809
_cell_length_b   6.33876004
_cell_length_c   6.84757576
_cell_angle_alpha   94.30207523
_cell_angle_beta   92.44985756
_cell_angle_gamma   94.38593816
_symmetry_Int_Tables_number   1
_chemical_formula_structural   LiMn2Sb4Mo2P3
_chemical_formula_sum   'Li1 Mn2 Sb4 Mo2 P3'
_cell_volume   255.84085732
_cell_formula_units_Z   1
loop_
 _symmetry_equiv_pos_site_id
 _symmetry_equiv_pos_as_xyz
  1  'x, y, z'
loop_
 _atom_site_type_symbol
 _atom_site_label
 _atom_site_symmetry_multiplicity
 _atom_site_fract_x
 _atom_site_fract_y
 _atom_site_fract_z
 _atom_site_occupancy
  Mn  Mn0  1  0.00000000  0.00000000  0.00000000  1
  Mn  Mn1  1  0.50000000  0.50000000  0.50000000  1
  Sb  Sb2  1  0.50000000  0.50000000  0.00000000  1
  Sb  Sb3  1  0.50000000  0.00000000  0.50000000  1
  Sb  Sb4  1  0.00000000  0.50000000  0.50000000  1
  Sb  Sb5  1  0.11415353  0.46693971  0.10262964  1
  P  P6  1  0.61288958  0.24883495  0.82497640  1
  P  P7  1  0.74143100  0.42294525  0.49748419  1
  P  P8  1  0.25420936  0.91431251  0.79875923  1
  Mo  Mo9  1  0.13889282  0.79881903  0.70869479  1
  Mo  Mo10  1  0.76059262  0.81370181  0.90968057  1
  Li  Li11  1  0.65886150  0.25044087  0.34283783  1
