# generated using pymatgen
data_Li3Ti(I2O)2
_symmetry_space_group_name_H-M   'P 1'
_cell_length_a   5.87861871
_cell_length_b   5.61742381
_cell_length_c   5.30734935
_cell_angle_alpha   90.90622371
_cell_angle_beta   91.21004996
_cell_angle_gamma   88.95610252
_symmetry_Int_Tables_number   1
_chemical_formula_structural   Li3Ti(I2O)2
_chemical_formula_sum   'Li3 Ti1 I4 O2'
_cell_volume   175.17392359
_cell_formula_units_Z   1
loop_
 _symmetry_equiv_pos_site_id
 _symmetry_equiv_pos_as_xyz
  1  'x, y, z'
loop_
 _atom_site_type_symbol
 _atom_site_label
 _atom_site_symmetry_multiplicity
 _atom_site_fract_x
 _atom_site_fract_y
 _atom_site_fract_z
 _atom_site_occupancy
  I  I0  1  0.00000000  0.00000000  0.00000000  1
  I  I1  1  0.50000000  0.50000000  0.50000000  1
  I  I2  1  0.50000000  0.50000000  0.00000000  1
  I  I3  1  0.50000000  0.00000000  0.50000000  1
  Li  Li4  1  0.00000000  0.50000000  0.50000000  1
  Li  Li5  1  0.36457350  0.94685177  0.73690639  1
  Li  Li6  1  0.60091453  0.00770622  0.19695942  1
  Ti  Ti7  1  0.32292552  0.73682683  0.70886946  1
  O  O8  1  0.48524450  0.98446570  0.66223713  1
  O  O9  1  0.50496166  0.56651558  0.09613615  1
