# generated using pymatgen
data_Li2TiI4Br3O2
_symmetry_space_group_name_H-M   'P 1'
_cell_length_a   7.84680175
_cell_length_b   7.92806119
_cell_length_c   7.40599414
_cell_angle_alpha   90.85321018
_cell_angle_beta   91.62129944
_cell_angle_gamma   91.07834898
_symmetry_Int_Tables_number   1
_chemical_formula_structural   Li2TiI4Br3O2
_chemical_formula_sum   'Li2 Ti1 I4 Br3 O2'
_cell_volume   460.40549429
_cell_formula_units_Z   1
loop_
 _symmetry_equiv_pos_site_id
 _symmetry_equiv_pos_as_xyz
  1  'x, y, z'
loop_
 _atom_site_type_symbol
 _atom_site_label
 _atom_site_symmetry_multiplicity
 _atom_site_fract_x
 _atom_site_fract_y
 _atom_site_fract_z
 _atom_site_occupancy
  I  I0  1  0.12500000  0.00000000  0.25000000  1
  I  I1  1  0.00000000  0.00000000  0.00000000  1
  I  I2  1  0.37500000  0.00000000  0.25000000  1
  I  I3  1  0.25000000  0.25000000  0.25000000  1
  Li  Li4  1  0.00000000  0.25000000  0.12500000  1
  Li  Li5  1  0.89995715  0.48516603  0.66438878  1
  Br  Br6  1  0.45174469  0.95944865  0.52213798  1
  Br  Br7  1  0.21380105  0.05395912  0.39780757  1
  Br  Br8  1  0.57510688  0.70533324  0.06010573  1
  Ti  Ti9  1  0.67179308  0.66147464  0.15160217  1
  O  O10  1  0.40741791  0.80449545  0.76861073  1
  O  O11  1  0.53665134  0.30188481  0.99906416  1
