# generated using pymatgen
data_Li3Ni2As6O5
_symmetry_space_group_name_H-M   'P 1'
_cell_length_a   8.41731744
_cell_length_b   8.27868330
_cell_length_c   9.19998347
_cell_angle_alpha   90.00000000
_cell_angle_beta   90.00000000
_cell_angle_gamma   90.00000000
_symmetry_Int_Tables_number   1
_chemical_formula_structural   Li3Ni2As6O5
_chemical_formula_sum   'Li3 Ni2 As6 O5'
_cell_volume   641.09445694
_cell_formula_units_Z   1
loop_
 _symmetry_equiv_pos_site_id
 _symmetry_equiv_pos_as_xyz
  1  'x, y, z'
loop_
 _atom_site_type_symbol
 _atom_site_label
 _atom_site_symmetry_multiplicity
 _atom_site_fract_x
 _atom_site_fract_y
 _atom_site_fract_z
 _atom_site_occupancy
  Li  Li0  1  0.12500000  0.12500000  0.12500000  1
  Li  Li1  1  0.50000000  0.50000000  0.50000000  1
  Li  Li2  1  0.25000000  0.25000000  0.25000000  1
  Ni  Ni3  1  0.75000000  0.75000000  0.75000000  1
  Ni  Ni4  1  0.96018035  0.85563588  0.54288071  1
  As  As5  1  0.83479953  0.00014151  0.73465152  1
  As  As6  1  0.34492425  0.22856339  0.16341246  1
  As  As7  1  0.15585609  0.28039175  0.74621067  1
  As  As8  1  0.63571759  0.79019992  0.13347265  1
  As  As9  1  0.59798696  0.43812735  0.04145645  1
  As  As10  1  0.63636132  0.09800301  0.99123203  1
  O  O11  1  0.58385170  0.62948292  0.94238225  1
  O  O12  1  0.23477094  0.68514185  0.68305543  1
  O  O13  1  0.52815492  0.79480433  0.35682164  1
  O  O14  1  0.86975543  0.40829791  0.79085039  1
  O  O15  1  0.53941230  0.59039444  0.40293268  1
