# generated using pymatgen
data_LiMo2P3
_symmetry_space_group_name_H-M   'P 1'
_cell_length_a   5.17859012
_cell_length_b   5.46301795
_cell_length_c   6.38493817
_cell_angle_alpha   98.94602168
_cell_angle_beta   91.81956836
_cell_angle_gamma   98.85328883
_symmetry_Int_Tables_number   1
_chemical_formula_structural   LiMo2P3
_chemical_formula_sum   'Li1 Mo2 P3'
_cell_volume   176.02407957
_cell_formula_units_Z   1
loop_
 _symmetry_equiv_pos_site_id
 _symmetry_equiv_pos_as_xyz
  1  'x, y, z'
loop_
 _atom_site_type_symbol
 _atom_site_label
 _atom_site_symmetry_multiplicity
 _atom_site_fract_x
 _atom_site_fract_y
 _atom_site_fract_z
 _atom_site_occupancy
  P  P0  1  0.00000000  0.00000000  0.00000000  1
  P  P1  1  0.50000000  0.50000000  0.50000000  1
  P  P2  1  0.25000000  0.25000000  0.25000000  1
  Mo  Mo3  1  0.75000000  0.25000000  0.00000000  1
  Mo  Mo4  1  0.25000000  0.75000000  0.50000000  1
  Li  Li5  1  0.15701161  0.52126140  0.74690364  1
