# generated using pymatgen
data_Li(MnP)2
_symmetry_space_group_name_H-M   'P 1'
_cell_length_a   4.89903880
_cell_length_b   5.26550585
_cell_length_c   6.19194295
_cell_angle_alpha   97.70503519
_cell_angle_beta   96.57479031
_cell_angle_gamma   96.48637972
_symmetry_Int_Tables_number   1
_chemical_formula_structural   Li(MnP)2
_chemical_formula_sum   'Li1 Mn2 P2'
_cell_volume   155.90225366
_cell_formula_units_Z   1
loop_
 _symmetry_equiv_pos_site_id
 _symmetry_equiv_pos_as_xyz
  1  'x, y, z'
loop_
 _atom_site_type_symbol
 _atom_site_label
 _atom_site_symmetry_multiplicity
 _atom_site_fract_x
 _atom_site_fract_y
 _atom_site_fract_z
 _atom_site_occupancy
  Mn  Mn0  1  0.00000000  0.00000000  0.00000000  1
  Mn  Mn1  1  0.50000000  0.50000000  0.50000000  1
  P  P2  1  0.50000000  0.50000000  0.00000000  1
  P  P3  1  0.50000000  0.00000000  0.50000000  1
  Li  Li4  1  0.00000000  0.50000000  0.50000000  1
