# generated using pymatgen
data_Li2P8I5N5Cl2
_symmetry_space_group_name_H-M   'P 1'
_cell_length_a   5.91613730
_cell_length_b   5.51803784
_cell_length_c   7.99892253
_cell_angle_alpha   98.44444033
_cell_angle_beta   99.52414387
_cell_angle_gamma   97.80990832
_symmetry_Int_Tables_number   1
_chemical_formula_structural   Li2P8I5N5Cl2
_chemical_formula_sum   'Li2 P8 I5 N5 Cl2'
_cell_volume   251.27952031
_cell_formula_units_Z   1
loop_
 _symmetry_equiv_pos_site_id
 _symmetry_equiv_pos_as_xyz
  1  'x, y, z'
loop_
 _atom_site_type_symbol
 _atom_site_label
 _atom_site_symmetry_multiplicity
 _atom_site_fract_x
 _atom_site_fract_y
 _atom_site_fract_z
 _atom_site_occupancy
  Cl  Cl0  1  0.00000000  0.00000000  0.00000000  1
  Cl  Cl1  1  0.50000000  0.50000000  0.50000000  1
  I  I2  1  0.50000000  0.50000000  0.00000000  1
  I  I3  1  0.50000000  0.00000000  0.50000000  1
  I  I4  1  0.00000000  0.50000000  0.50000000  1
  I  I5  1  0.17953767  0.22513327  0.76321990  1
  I  I6  1  0.73872126  0.87358736  0.52998412  1
  P  P7  1  0.42279265  0.21042073  0.87714574  1
  P  P8  1  0.58253947  0.53197761  0.88538355  1
  P  P9  1  0.33087215  0.69834806  0.29149137  1
  P  P10  1  0.83077486  0.02304728  0.36724121  1
  P  P11  1  0.62496796  0.65295741  0.33089221  1
  P  P12  1  0.51844192  0.16111910  0.53464772  1
  P  P13  1  0.13996547  0.52393942  0.28190231  1
  P  P14  1  0.16293591  0.31631997  0.63590280  1
  Li  Li15  1  0.67891599  0.94388741  0.48328605  1
  Li  Li16  1  0.06828520  0.87359021  0.08583761  1
  N  N17  1  0.78138946  0.55587015  0.98861972  1
  N  N18  1  0.78403745  0.46848174  0.44579107  1
  N  N19  1  0.62370149  0.92780496  0.82917789  1
  N  N20  1  0.31937148  0.17885572  0.47447146  1
  N  N21  1  0.16997683  0.11491391  0.55910438  1
