# generated using pymatgen
data_LiSb4Mo2P3
_symmetry_space_group_name_H-M   'P 1'
_cell_length_a   5.47106284
_cell_length_b   5.74984059
_cell_length_c   6.49448118
_cell_angle_alpha   95.00435960
_cell_angle_beta   92.31256964
_cell_angle_gamma   94.92884337
_symmetry_Int_Tables_number   1
_chemical_formula_structural   LiSb4Mo2P3
_chemical_formula_sum   'Li1 Sb4 Mo2 P3'
_cell_volume   202.53456806
_cell_formula_units_Z   1
loop_
 _symmetry_equiv_pos_site_id
 _symmetry_equiv_pos_as_xyz
  1  'x, y, z'
loop_
 _atom_site_type_symbol
 _atom_site_label
 _atom_site_symmetry_multiplicity
 _atom_site_fract_x
 _atom_site_fract_y
 _atom_site_fract_z
 _atom_site_occupancy
  Sb  Sb0  1  0.00000000  0.00000000  0.00000000  1
  Sb  Sb1  1  0.50000000  0.50000000  0.50000000  1
  Sb  Sb2  1  0.25000000  0.25000000  0.25000000  1
  Sb  Sb3  1  0.75000000  0.25000000  0.00000000  1
  P  P4  1  0.25000000  0.75000000  0.50000000  1
  P  P5  1  0.61203249  0.05221082  0.29219097  1
  P  P6  1  0.68555203  0.34746046  0.22956037  1
  Mo  Mo7  1  0.09106919  0.97533425  0.76125104  1
  Mo  Mo8  1  0.74720659  0.53456090  0.01102222  1
  Li  Li9  1  0.74841851  0.94995763  0.96366087  1
