# generated using pymatgen
data_LiMn2Sb4P3
_symmetry_space_group_name_H-M   'P 1'
_cell_length_a   5.24231949
_cell_length_b   5.54515508
_cell_length_c   6.33255946
_cell_angle_alpha   98.21993808
_cell_angle_beta   91.37173054
_cell_angle_gamma   98.31305296
_symmetry_Int_Tables_number   1
_chemical_formula_structural   LiMn2Sb4P3
_chemical_formula_sum   'Li1 Mn2 Sb4 P3'
_cell_volume   180.09153588
_cell_formula_units_Z   1
loop_
 _symmetry_equiv_pos_site_id
 _symmetry_equiv_pos_as_xyz
  1  'x, y, z'
loop_
 _atom_site_type_symbol
 _atom_site_label
 _atom_site_symmetry_multiplicity
 _atom_site_fract_x
 _atom_site_fract_y
 _atom_site_fract_z
 _atom_site_occupancy
  Mn  Mn0  1  0.12500000  0.00000000  0.25000000  1
  Mn  Mn1  1  0.00000000  0.00000000  0.00000000  1
  Sb  Sb2  1  0.37500000  0.00000000  0.25000000  1
  Sb  Sb3  1  0.25000000  0.25000000  0.25000000  1
  Sb  Sb4  1  0.00000000  0.25000000  0.12500000  1
  Sb  Sb5  1  0.45561105  0.13143188  0.10067186  1
  P  P6  1  0.96115356  0.76893109  0.73196115  1
  P  P7  1  0.84035168  0.11422800  0.27919572  1
  P  P8  1  0.24462669  0.56333175  0.15686036  1
  Li  Li9  1  0.33100317  0.52195517  0.78384146  1
