# generated using pymatgen
data_Li2TiCu2P5F2
_symmetry_space_group_name_H-M   'P 1'
_cell_length_a   7.35667383
_cell_length_b   7.25404297
_cell_length_c   7.40787618
_cell_angle_alpha   90.49414715
_cell_angle_beta   91.50016860
_cell_angle_gamma   89.99434693
_symmetry_Int_Tables_number   1
_chemical_formula_structural   Li2TiCu2P5F2
_chemical_formula_sum   'Li2 Ti1 Cu2 P5 F2'
_cell_volume   395.17576614
_cell_formula_units_Z   1
loop_
 _symmetry_equiv_pos_site_id
 _symmetry_equiv_pos_as_xyz
  1  'x, y, z'
loop_
 _atom_site_type_symbol
 _atom_site_label
 _atom_site_symmetry_multiplicity
 _atom_site_fract_x
 _atom_site_fract_y
 _atom_site_fract_z
 _atom_site_occupancy
  P  P0  1  0.00000000  0.00000000  0.00000000  1
  P  P1  1  0.50000000  0.50000000  0.50000000  1
  P  P2  1  0.50000000  0.50000000  0.00000000  1
  P  P3  1  0.50000000  0.00000000  0.50000000  1
  P  P4  1  0.00000000  0.50000000  0.50000000  1
  Li  Li5  1  0.69891676  0.47470359  0.84069513  1
  Li  Li6  1  0.93193815  0.11342102  0.64630862  1
  Cu  Cu7  1  0.30609033  0.16664757  0.48392110  1
  Cu  Cu8  1  0.46254039  0.17099236  0.72588984  1
  F  F9  1  0.90259380  0.56524214  0.79948125  1
  F  F10  1  0.86547379  0.21952985  0.52410510  1
  Ti  Ti11  1  0.47137448  0.70692211  0.10648596  1
