# generated using pymatgen
data_Li2TiP3(OF)2
_symmetry_space_group_name_H-M   'P 1'
_cell_length_a   8.40111483
_cell_length_b   8.12381543
_cell_length_c   7.62264974
_cell_angle_alpha   90.17595980
_cell_angle_beta   90.83716328
_cell_angle_gamma   90.20116904
_symmetry_Int_Tables_number   1
_chemical_formula_structural   Li2TiP3(OF)2
_chemical_formula_sum   'Li2 Ti1 P3 O2 F2'
_cell_volume   520.17775750
_cell_formula_units_Z   1
loop_
 _symmetry_equiv_pos_site_id
 _symmetry_equiv_pos_as_xyz
  1  'x, y, z'
loop_
 _atom_site_type_symbol
 _atom_site_label
 _atom_site_symmetry_multiplicity
 _atom_site_fract_x
 _atom_site_fract_y
 _atom_site_fract_z
 _atom_site_occupancy
  P  P0  1  0.12500000  0.00000000  0.25000000  1
  P  P1  1  0.00000000  0.00000000  0.00000000  1
  P  P2  1  0.37500000  0.00000000  0.25000000  1
  Li  Li3  1  0.25000000  0.25000000  0.25000000  1
  Li  Li4  1  0.00000000  0.25000000  0.12500000  1
  F  F5  1  0.52205537  0.70801176  0.76134512  1
  F  F6  1  0.20612863  0.32403545  0.23276381  1
  Ti  Ti7  1  0.08847375  0.98344188  0.74337696  1
  O  O8  1  0.42282037  0.07587484  0.73244908  1
  O  O9  1  0.29760339  0.03241475  0.11413460  1
