# generated using pymatgen
data_Li2Mn2(SbP)3
_symmetry_space_group_name_H-M   'P 1'
_cell_length_a   5.55438203
_cell_length_b   5.94705670
_cell_length_c   6.73028918
_cell_angle_alpha   97.47899018
_cell_angle_beta   92.69438297
_cell_angle_gamma   97.61279142
_symmetry_Int_Tables_number   1
_chemical_formula_structural   Li2Mn2(SbP)3
_chemical_formula_sum   'Li2 Mn2 Sb3 P3'
_cell_volume   218.01482207
_cell_formula_units_Z   1
loop_
 _symmetry_equiv_pos_site_id
 _symmetry_equiv_pos_as_xyz
  1  'x, y, z'
loop_
 _atom_site_type_symbol
 _atom_site_label
 _atom_site_symmetry_multiplicity
 _atom_site_fract_x
 _atom_site_fract_y
 _atom_site_fract_z
 _atom_site_occupancy
  Mn  Mn0  1  0.00000000  0.00000000  0.00000000  1
  Mn  Mn1  1  0.33300000  0.66700000  0.25000000  1
  Sb  Sb2  1  0.66700000  0.33300000  0.50000000  1
  Sb  Sb3  1  0.00000000  0.00000000  0.75000000  1
  Sb  Sb4  1  0.94187270  0.94354127  0.32922910  1
  P  P5  1  0.38733309  0.66385614  0.32031963  1
  P  P6  1  0.18059157  0.67070711  0.65855758  1
  P  P7  1  0.90409719  0.00320027  0.86952917  1
  Li  Li8  1  0.62026988  0.61542896  0.24831577  1
  Li  Li9  1  0.05733338  0.79343418  0.52981489  1
