# generated using pymatgen
data_LiMnSb4P3
_symmetry_space_group_name_H-M   'P 1'
_cell_length_a   5.78634374
_cell_length_b   6.19887629
_cell_length_c   6.79680204
_cell_angle_alpha   94.03079882
_cell_angle_beta   92.93964402
_cell_angle_gamma   94.47697155
_symmetry_Int_Tables_number   1
_chemical_formula_structural   LiMnSb4P3
_chemical_formula_sum   'Li1 Mn1 Sb4 P3'
_cell_volume   242.05289337
_cell_formula_units_Z   1
loop_
 _symmetry_equiv_pos_site_id
 _symmetry_equiv_pos_as_xyz
  1  'x, y, z'
loop_
 _atom_site_type_symbol
 _atom_site_label
 _atom_site_symmetry_multiplicity
 _atom_site_fract_x
 _atom_site_fract_y
 _atom_site_fract_z
 _atom_site_occupancy
  Mn  Mn0  1  0.00000000  0.00000000  0.00000000  1
  Sb  Sb1  1  0.33300000  0.66700000  0.25000000  1
  Sb  Sb2  1  0.66700000  0.33300000  0.50000000  1
  Sb  Sb3  1  0.00000000  0.00000000  0.75000000  1
  Sb  Sb4  1  0.67263339  0.05631191  0.33532601  1
  P  P5  1  0.68494038  0.24035760  0.27696414  1
  P  P6  1  0.35134380  0.76680343  0.59591398  1
  P  P7  1  0.26614009  0.07011409  0.07755687  1
  Li  Li8  1  0.76469198  0.27225185  0.41482962  1
