# generated using pymatgen
data_Li2Mn2Sb4P3
_symmetry_space_group_name_H-M   'P 1'
_cell_length_a   6.45236922
_cell_length_b   6.98605879
_cell_length_c   7.03362245
_cell_angle_alpha   93.49530337
_cell_angle_beta   92.26253367
_cell_angle_gamma   93.25965966
_symmetry_Int_Tables_number   1
_chemical_formula_structural   Li2Mn2Sb4P3
_chemical_formula_sum   'Li2 Mn2 Sb4 P3'
_cell_volume   315.65669489
_cell_formula_units_Z   1
loop_
 _symmetry_equiv_pos_site_id
 _symmetry_equiv_pos_as_xyz
  1  'x, y, z'
loop_
 _atom_site_type_symbol
 _atom_site_label
 _atom_site_symmetry_multiplicity
 _atom_site_fract_x
 _atom_site_fract_y
 _atom_site_fract_z
 _atom_site_occupancy
  Mn  Mn0  1  0.00000000  0.00000000  0.00000000  1
  Mn  Mn1  1  0.50000000  0.50000000  0.50000000  1
  Sb  Sb2  1  0.50000000  0.50000000  0.00000000  1
  Sb  Sb3  1  0.50000000  0.00000000  0.50000000  1
  Sb  Sb4  1  0.00000000  0.50000000  0.50000000  1
  Sb  Sb5  1  0.39582357  0.11341172  0.34474920  1
  P  P6  1  0.04006230  0.19000073  0.81740679  1
  P  P7  1  0.27566466  0.09827156  0.43302355  1
  P  P8  1  0.68781854  0.63494041  0.23780556  1
  Li  Li9  1  0.87952209  0.49573920  0.68470247  1
  Li  Li10  1  0.24391223  0.60594343  0.68855620  1
