# generated using pymatgen
data_LiMn2Sb4P3
_symmetry_space_group_name_H-M   'P 1'
_cell_length_a   6.40347105
_cell_length_b   6.89831733
_cell_length_c   7.13898048
_cell_angle_alpha   92.44291118
_cell_angle_beta   92.54562985
_cell_angle_gamma   92.62624660
_symmetry_Int_Tables_number   1
_chemical_formula_structural   LiMn2Sb4P3
_chemical_formula_sum   'Li1 Mn2 Sb4 P3'
_cell_volume   314.39407314
_cell_formula_units_Z   1
loop_
 _symmetry_equiv_pos_site_id
 _symmetry_equiv_pos_as_xyz
  1  'x, y, z'
loop_
 _atom_site_type_symbol
 _atom_site_label
 _atom_site_symmetry_multiplicity
 _atom_site_fract_x
 _atom_site_fract_y
 _atom_site_fract_z
 _atom_site_occupancy
  Mn  Mn0  1  0.00000000  0.00000000  0.00000000  1
  Mn  Mn1  1  0.50000000  0.50000000  0.50000000  1
  Sb  Sb2  1  0.25000000  0.25000000  0.25000000  1
  Sb  Sb3  1  0.75000000  0.25000000  0.00000000  1
  Sb  Sb4  1  0.25000000  0.75000000  0.50000000  1
  Sb  Sb5  1  0.37163726  0.62665039  0.55955646  1
  P  P6  1  0.63269844  0.38498469  0.92031436  1
  P  P7  1  0.98454232  0.49642497  0.28406582  1
  P  P8  1  0.92768831  0.36948315  0.18491334  1
  Li  Li9  1  0.94355033  0.34008489  0.06651730  1
