# generated using pymatgen
data_Li3Te6As6I4O5
_symmetry_space_group_name_H-M   'P 1'
_cell_length_a   8.43700575
_cell_length_b   8.57212266
_cell_length_c   8.59035295
_cell_angle_alpha   90.00000000
_cell_angle_beta   90.00000000
_cell_angle_gamma   90.00000000
_symmetry_Int_Tables_number   1
_chemical_formula_structural   Li3Te6As6I4O5
_chemical_formula_sum   'Li3 Te6 As6 I4 O5'
_cell_volume   621.28050978
_cell_formula_units_Z   1
loop_
 _symmetry_equiv_pos_site_id
 _symmetry_equiv_pos_as_xyz
  1  'x, y, z'
loop_
 _atom_site_type_symbol
 _atom_site_label
 _atom_site_symmetry_multiplicity
 _atom_site_fract_x
 _atom_site_fract_y
 _atom_site_fract_z
 _atom_site_occupancy
  I  I0  1  0.00000000  0.00000000  0.00000000  1
  I  I1  1  0.50000000  0.50000000  0.50000000  1
  I  I2  1  0.25000000  0.25000000  0.25000000  1
  I  I3  1  0.75000000  0.25000000  0.00000000  1
  Li  Li4  1  0.25000000  0.75000000  0.50000000  1
  Li  Li5  1  0.12326522  0.67778849  0.93782711  1
  Li  Li6  1  0.64292831  0.25031152  0.43366906  1
  Te  Te7  1  0.34770286  0.19327887  0.55424275  1
  Te  Te8  1  0.58304361  0.61754112  0.45350935  1
  Te  Te9  1  0.37161085  0.77732822  0.99581555  1
  Te  Te10  1  0.82326028  0.75932785  0.84422466  1
  Te  Te11  1  0.31394966  0.43970448  0.79312828  1
  Te  Te12  1  0.98120976  0.88853151  0.64657719  1
  As  As13  1  0.94923710  0.60288333  0.92463443  1
  As  As14  1  0.42602661  0.57051349  0.90034922  1
  As  As15  1  0.30701000  0.20368815  0.09839987  1
  As  As16  1  0.50230974  0.73099806  0.63290469  1
  As  As17  1  0.44657950  0.08827795  0.54907187  1
  As  As18  1  0.14737791  0.72786432  0.84888103  1
  O  O19  1  0.22240267  0.11235344  0.35598513  1
  O  O20  1  0.62458123  0.87319212  0.02711147  1
  O  O21  1  0.40403888  0.21708758  0.02475616  1
  O  O22  1  0.77817028  0.70706938  0.26895454  1
  O  O23  1  0.24198485  0.08124018  0.11924832  1
