# generated using pymatgen
data_LiMn3SbMo2P3
_symmetry_space_group_name_H-M   'P 1'
_cell_length_a   5.41463964
_cell_length_b   5.68377592
_cell_length_c   6.16086810
_cell_angle_alpha   98.14625263
_cell_angle_beta   89.74314411
_cell_angle_gamma   97.67669185
_symmetry_Int_Tables_number   1
_chemical_formula_structural   LiMn3SbMo2P3
_chemical_formula_sum   'Li1 Mn3 Sb1 Mo2 P3'
_cell_volume   185.98889026
_cell_formula_units_Z   1
loop_
 _symmetry_equiv_pos_site_id
 _symmetry_equiv_pos_as_xyz
  1  'x, y, z'
loop_
 _atom_site_type_symbol
 _atom_site_label
 _atom_site_symmetry_multiplicity
 _atom_site_fract_x
 _atom_site_fract_y
 _atom_site_fract_z
 _atom_site_occupancy
  Mn  Mn0  1  0.00000000  0.00000000  0.00000000  1
  Mn  Mn1  1  0.50000000  0.50000000  0.50000000  1
  Mn  Mn2  1  0.25000000  0.25000000  0.25000000  1
  Sb  Sb3  1  0.75000000  0.25000000  0.00000000  1
  P  P4  1  0.25000000  0.75000000  0.50000000  1
  P  P5  1  0.92758949  0.41519743  0.31981035  1
  P  P6  1  0.28225819  0.39378149  0.07024304  1
  Mo  Mo7  1  0.76911483  0.70375016  0.12288015  1
  Mo  Mo8  1  0.38725660  0.77988601  0.87834991  1
  Li  Li9  1  0.28819585  0.65688708  0.02901870  1
