# generated using pymatgen
data_Li3TiTe2Mo3
_symmetry_space_group_name_H-M   'P 1'
_cell_length_a   8.73454990
_cell_length_b   7.87983073
_cell_length_c   7.89220978
_cell_angle_alpha   90.00000000
_cell_angle_beta   90.00000000
_cell_angle_gamma   90.00000000
_symmetry_Int_Tables_number   1
_chemical_formula_structural   Li3TiTe2Mo3
_chemical_formula_sum   'Li3 Ti1 Te2 Mo3'
_cell_volume   543.19534455
_cell_formula_units_Z   1
loop_
 _symmetry_equiv_pos_site_id
 _symmetry_equiv_pos_as_xyz
  1  'x, y, z'
loop_
 _atom_site_type_symbol
 _atom_site_label
 _atom_site_symmetry_multiplicity
 _atom_site_fract_x
 _atom_site_fract_y
 _atom_site_fract_z
 _atom_site_occupancy
  Mo  Mo0  1  0.00000000  0.00000000  0.00000000  1
  Mo  Mo1  1  0.50000000  0.50000000  0.50000000  1
  Mo  Mo2  1  0.25000000  0.25000000  0.25000000  1
  Li  Li3  1  0.75000000  0.25000000  0.00000000  1
  Li  Li4  1  0.25000000  0.75000000  0.50000000  1
  Li  Li5  1  0.48388967  0.47756431  0.39348572  1
  Te  Te6  1  0.56187751  0.84417087  0.57377880  1
  Te  Te7  1  0.33070855  0.19312008  0.47573786  1
  Ti  Ti8  1  0.56834505  0.86101733  0.40858001  1
