# generated using pymatgen
data_LiSb4Mo2P3
_symmetry_space_group_name_H-M   'P 1'
_cell_length_a   6.19735859
_cell_length_b   6.56985911
_cell_length_c   6.68980953
_cell_angle_alpha   92.94335438
_cell_angle_beta   90.54854291
_cell_angle_gamma   92.69277538
_symmetry_Int_Tables_number   1
_chemical_formula_structural   LiSb4Mo2P3
_chemical_formula_sum   'Li1 Sb4 Mo2 P3'
_cell_volume   271.70145819
_cell_formula_units_Z   1
loop_
 _symmetry_equiv_pos_site_id
 _symmetry_equiv_pos_as_xyz
  1  'x, y, z'
loop_
 _atom_site_type_symbol
 _atom_site_label
 _atom_site_symmetry_multiplicity
 _atom_site_fract_x
 _atom_site_fract_y
 _atom_site_fract_z
 _atom_site_occupancy
  Sb  Sb0  1  0.00000000  0.00000000  0.00000000  1
  Sb  Sb1  1  0.33300000  0.66700000  0.25000000  1
  Sb  Sb2  1  0.66700000  0.33300000  0.50000000  1
  Sb  Sb3  1  0.00000000  0.00000000  0.75000000  1
  P  P4  1  0.45351278  0.88117276  0.69872337  1
  P  P5  1  0.36744301  0.36416925  0.62219508  1
  P  P6  1  0.65898599  0.26426032  0.39983010  1
  Mo  Mo7  1  0.61615075  0.59857660  0.66809445  1
  Mo  Mo8  1  0.60632173  0.33632795  0.68980090  1
  Li  Li9  1  0.59076143  0.24861959  0.51120974  1
