# generated using pymatgen
data_LiTiP3O
_symmetry_space_group_name_H-M   'P 1'
_cell_length_a   7.29067491
_cell_length_b   7.21703376
_cell_length_c   7.50659398
_cell_angle_alpha   94.09620341
_cell_angle_beta   95.94964515
_cell_angle_gamma   95.25449169
_symmetry_Int_Tables_number   1
_chemical_formula_structural   LiTiP3O
_chemical_formula_sum   'Li2 Ti2 P6 O2'
_cell_volume   389.88842312
_cell_formula_units_Z   2
loop_
 _symmetry_equiv_pos_site_id
 _symmetry_equiv_pos_as_xyz
  1  'x, y, z'
loop_
 _atom_site_type_symbol
 _atom_site_label
 _atom_site_symmetry_multiplicity
 _atom_site_fract_x
 _atom_site_fract_y
 _atom_site_fract_z
 _atom_site_occupancy
  P  P0  1  0.12500000  0.12500000  0.12500000  1
  P  P1  1  0.50000000  0.50000000  0.50000000  1
  P  P2  1  0.25000000  0.25000000  0.25000000  1
  P  P3  1  0.75000000  0.75000000  0.75000000  1
  P  P4  1  0.67550038  0.53177921  0.22262797  1
  P  P5  1  0.21135616  0.62772544  0.54119551  1
  Li  Li6  1  0.77908274  0.80100583  0.58846201  1
  Li  Li7  1  0.79519430  0.41161075  0.33609201  1
  Ti  Ti8  1  0.09388993  0.01213837  0.47594727  1
  Ti  Ti9  1  0.81086662  0.14560488  0.99207401  1
  O  O10  1  0.41532802  0.74856955  0.15133316  1
  O  O11  1  0.17152976  0.50264142  0.09585885  1
