# generated using pymatgen
data_Li2Mn2Mo2P3
_symmetry_space_group_name_H-M   'P 1'
_cell_length_a   6.02675848
_cell_length_b   6.01931782
_cell_length_c   7.04126203
_cell_angle_alpha   97.18949577
_cell_angle_beta   92.23200428
_cell_angle_gamma   97.30731521
_symmetry_Int_Tables_number   1
_chemical_formula_structural   Li2Mn2Mo2P3
_chemical_formula_sum   'Li2 Mn2 Mo2 P3'
_cell_volume   250.97811624
_cell_formula_units_Z   1
loop_
 _symmetry_equiv_pos_site_id
 _symmetry_equiv_pos_as_xyz
  1  'x, y, z'
loop_
 _atom_site_type_symbol
 _atom_site_label
 _atom_site_symmetry_multiplicity
 _atom_site_fract_x
 _atom_site_fract_y
 _atom_site_fract_z
 _atom_site_occupancy
  Mn  Mn0  1  0.00000000  0.00000000  0.00000000  1
  Mn  Mn1  1  0.50000000  0.50000000  0.50000000  1
  P  P2  1  0.25000000  0.25000000  0.25000000  1
  P  P3  1  0.75000000  0.25000000  0.00000000  1
  P  P4  1  0.25000000  0.75000000  0.50000000  1
  Mo  Mo5  1  0.78704274  0.78243455  0.85408513  1
  Mo  Mo6  1  0.38148230  0.35309005  0.77157940  1
  Li  Li7  1  0.09457778  0.43315168  0.07025479  1
  Li  Li8  1  0.08828164  0.48554671  0.53082443  1
