# generated using pymatgen
data_Li3LuCu2(NiP3)2
_symmetry_space_group_name_H-M   'P 1'
_cell_length_a   7.74549091
_cell_length_b   7.77368358
_cell_length_c   8.70201212
_cell_angle_alpha   91.88113048
_cell_angle_beta   90.66505861
_cell_angle_gamma   92.18188363
_symmetry_Int_Tables_number   1
_chemical_formula_structural   Li3LuCu2(NiP3)2
_chemical_formula_sum   'Li3 Lu1 Cu2 Ni2 P6'
_cell_volume   523.25141820
_cell_formula_units_Z   1
loop_
 _symmetry_equiv_pos_site_id
 _symmetry_equiv_pos_as_xyz
  1  'x, y, z'
loop_
 _atom_site_type_symbol
 _atom_site_label
 _atom_site_symmetry_multiplicity
 _atom_site_fract_x
 _atom_site_fract_y
 _atom_site_fract_z
 _atom_site_occupancy
  P  P0  1  0.00000000  0.00000000  0.00000000  1
  P  P1  1  0.50000000  0.50000000  0.50000000  1
  P  P2  1  0.25000000  0.25000000  0.25000000  1
  P  P3  1  0.75000000  0.25000000  0.00000000  1
  P  P4  1  0.25000000  0.75000000  0.50000000  1
  P  P5  1  0.18692605  0.57417553  0.26666425  1
  Lu  Lu6  1  0.86985169  0.82509793  0.73845535  1
  Li  Li7  1  0.81054244  0.68872150  0.95558826  1
  Li  Li8  1  0.14284653  0.17161090  0.11555945  1
  Li  Li9  1  0.20449414  0.06626491  0.63368494  1
  Cu  Cu10  1  0.12824562  0.40229594  0.46485906  1
  Cu  Cu11  1  0.81703047  0.62735276  0.56355277  1
  Ni  Ni12  1  0.75298801  0.81515525  0.54496008  1
  Ni  Ni13  1  0.42969800  0.35912688  0.56027299  1
