# generated using pymatgen
data_Li2Ti2P3(OF)2
_symmetry_space_group_name_H-M   'P 1'
_cell_length_a   8.26377012
_cell_length_b   7.63615981
_cell_length_c   7.86268269
_cell_angle_alpha   90.07117152
_cell_angle_beta   90.33861246
_cell_angle_gamma   90.08136805
_symmetry_Int_Tables_number   1
_chemical_formula_structural   Li2Ti2P3(OF)2
_chemical_formula_sum   'Li2 Ti2 P3 O2 F2'
_cell_volume   496.15300224
_cell_formula_units_Z   1
loop_
 _symmetry_equiv_pos_site_id
 _symmetry_equiv_pos_as_xyz
  1  'x, y, z'
loop_
 _atom_site_type_symbol
 _atom_site_label
 _atom_site_symmetry_multiplicity
 _atom_site_fract_x
 _atom_site_fract_y
 _atom_site_fract_z
 _atom_site_occupancy
  P  P0  1  0.00000000  0.00000000  0.00000000  1
  P  P1  1  0.50000000  0.50000000  0.50000000  1
  P  P2  1  0.25000000  0.25000000  0.25000000  1
  Li  Li3  1  0.75000000  0.25000000  0.00000000  1
  Li  Li4  1  0.25000000  0.75000000  0.50000000  1
  F  F5  1  0.03815579  0.82144247  0.82305964  1
  F  F6  1  0.73356873  0.75660503  0.44206436  1
  Ti  Ti7  1  0.12259567  0.62568024  0.83663416  1
  Ti  Ti8  1  0.84982360  0.53102481  0.06756146  1
  O  O9  1  0.56122356  0.78507486  0.81639470  1
  O  O10  1  0.34643552  0.39383902  0.01404669  1
