# generated using pymatgen
data_Li3Ti2Se(O2F)2
_symmetry_space_group_name_H-M   'P 1'
_cell_length_a   7.16209523
_cell_length_b   6.83863657
_cell_length_c   7.54779644
_cell_angle_alpha   95.47805973
_cell_angle_beta   97.49404327
_cell_angle_gamma   95.16324554
_symmetry_Int_Tables_number   1
_chemical_formula_structural   Li3Ti2Se(O2F)2
_chemical_formula_sum   'Li3 Ti2 Se1 O4 F2'
_cell_volume   362.88070228
_cell_formula_units_Z   1
loop_
 _symmetry_equiv_pos_site_id
 _symmetry_equiv_pos_as_xyz
  1  'x, y, z'
loop_
 _atom_site_type_symbol
 _atom_site_label
 _atom_site_symmetry_multiplicity
 _atom_site_fract_x
 _atom_site_fract_y
 _atom_site_fract_z
 _atom_site_occupancy
  Li  Li0  1  0.00000000  0.00000000  0.00000000  1
  Li  Li1  1  0.50000000  0.50000000  0.50000000  1
  Li  Li2  1  0.50000000  0.50000000  0.00000000  1
  Se  Se3  1  0.50000000  0.00000000  0.50000000  1
  F  F4  1  0.00000000  0.50000000  0.50000000  1
  F  F5  1  0.25871216  0.19953130  0.27825690  1
  Ti  Ti6  1  0.94536576  0.80386657  0.61331074  1
  Ti  Ti7  1  0.74408460  0.44134021  0.79596635  1
  O  O8  1  0.86993931  0.74497431  0.26612709  1
  O  O9  1  0.37509575  0.85157867  0.58311740  1
  O  O10  1  0.17208420  0.00296624  0.34148931  1
  O  O11  1  0.87764547  0.48203452  0.93477140  1
