# generated using pymatgen
data_Li2Mn2Sb4P3N5
_symmetry_space_group_name_H-M   'P 1'
_cell_length_a   7.39025215
_cell_length_b   7.99761805
_cell_length_c   7.72580201
_cell_angle_alpha   90.78778861
_cell_angle_beta   90.93320840
_cell_angle_gamma   90.89660071
_symmetry_Int_Tables_number   1
_chemical_formula_structural   Li2Mn2Sb4P3N5
_chemical_formula_sum   'Li2 Mn2 Sb4 P3 N5'
_cell_volume   456.46774405
_cell_formula_units_Z   1
loop_
 _symmetry_equiv_pos_site_id
 _symmetry_equiv_pos_as_xyz
  1  'x, y, z'
loop_
 _atom_site_type_symbol
 _atom_site_label
 _atom_site_symmetry_multiplicity
 _atom_site_fract_x
 _atom_site_fract_y
 _atom_site_fract_z
 _atom_site_occupancy
  N  N0  1  0.00000000  0.00000000  0.00000000  1
  N  N1  1  0.50000000  0.50000000  0.50000000  1
  N  N2  1  0.25000000  0.25000000  0.25000000  1
  N  N3  1  0.75000000  0.25000000  0.00000000  1
  N  N4  1  0.25000000  0.75000000  0.50000000  1
  Mn  Mn5  1  0.67850021  0.61863952  0.99943130  1
  Mn  Mn6  1  0.47491646  0.94175259  0.52944334  1
  Sb  Sb7  1  0.03490553  0.68649459  0.43410729  1
  Sb  Sb8  1  0.82222804  0.16791757  0.47718408  1
  Sb  Sb9  1  0.20640048  0.37176777  0.90208050  1
  Sb  Sb10  1  0.72837981  0.53827591  0.19739134  1
  P  P11  1  0.05613902  0.70372013  0.45507360  1
  P  P12  1  0.03992360  0.22030421  0.93637652  1
  P  P13  1  0.17620979  0.22341884  0.87830885  1
  Li  Li14  1  0.06322984  0.85376313  0.35740678  1
  Li  Li15  1  0.36778141  0.94908369  0.34928167  1
