# generated using pymatgen
data_LiMnSb4P3N
_symmetry_space_group_name_H-M   'P 1'
_cell_length_a   5.02480038
_cell_length_b   5.29582189
_cell_length_c   6.36714940
_cell_angle_alpha   97.84128468
_cell_angle_beta   95.01059786
_cell_angle_gamma   97.56295318
_symmetry_Int_Tables_number   1
_chemical_formula_structural   LiMnSb4P3N
_chemical_formula_sum   'Li1 Mn1 Sb4 P3 N1'
_cell_volume   165.42910094
_cell_formula_units_Z   1
loop_
 _symmetry_equiv_pos_site_id
 _symmetry_equiv_pos_as_xyz
  1  'x, y, z'
loop_
 _atom_site_type_symbol
 _atom_site_label
 _atom_site_symmetry_multiplicity
 _atom_site_fract_x
 _atom_site_fract_y
 _atom_site_fract_z
 _atom_site_occupancy
  N  N0  1  0.12500000  0.00000000  0.25000000  1
  Mn  Mn1  1  0.00000000  0.00000000  0.00000000  1
  Sb  Sb2  1  0.37500000  0.00000000  0.25000000  1
  Sb  Sb3  1  0.25000000  0.25000000  0.25000000  1
  Sb  Sb4  1  0.00000000  0.25000000  0.12500000  1
  Sb  Sb5  1  0.28688955  0.97173509  0.39099913  1
  P  P6  1  0.19410228  0.24338156  0.71507019  1
  P  P7  1  0.25275166  0.04637040  0.43302264  1
  P  P8  1  0.84874416  0.81203648  0.40889762  1
  Li  Li9  1  0.32796833  0.67057612  0.92671278  1
