# generated using pymatgen
data_Li4TiP4SeS4
_symmetry_space_group_name_H-M   'P 1'
_cell_length_a   6.61767887
_cell_length_b   5.70672334
_cell_length_c   7.38511277
_cell_angle_alpha   89.48682903
_cell_angle_beta   90.71080810
_cell_angle_gamma   89.02585695
_symmetry_Int_Tables_number   1
_chemical_formula_structural   Li4TiP4SeS4
_chemical_formula_sum   'Li4 Ti1 P4 Se1 S4'
_cell_volume   278.82723129
_cell_formula_units_Z   1
loop_
 _symmetry_equiv_pos_site_id
 _symmetry_equiv_pos_as_xyz
  1  'x, y, z'
loop_
 _atom_site_type_symbol
 _atom_site_label
 _atom_site_symmetry_multiplicity
 _atom_site_fract_x
 _atom_site_fract_y
 _atom_site_fract_z
 _atom_site_occupancy
  S  S0  1  0.12500000  0.00000000  0.25000000  1
  S  S1  1  0.00000000  0.00000000  0.00000000  1
  S  S2  1  0.37500000  0.00000000  0.25000000  1
  S  S3  1  0.25000000  0.25000000  0.25000000  1
  Se  Se4  1  0.00000000  0.25000000  0.12500000  1
  Ti  Ti5  1  0.35276012  0.89661943  0.88509284  1
  P  P6  1  0.56648392  0.20642134  0.70564903  1
  P  P7  1  0.65795004  0.73790671  0.39103599  1
  P  P8  1  0.72873230  0.10850788  0.88556024  1
  P  P9  1  0.20646208  0.58442784  0.21334052  1
  Li  Li10  1  0.19259685  0.25821984  0.18877507  1
  Li  Li11  1  0.30363101  0.65137226  0.94604607  1
  Li  Li12  1  0.18159042  0.85755998  0.40584337  1
  Li  Li13  1  0.08844683  0.36898839  0.79780535  1
