# generated using pymatgen
data_Li4Ni2As6N5O7
_symmetry_space_group_name_H-M   'P 1'
_cell_length_a   6.32674176
_cell_length_b   5.97741203
_cell_length_c   7.87199304
_cell_angle_alpha   97.81402379
_cell_angle_beta   92.76258553
_cell_angle_gamma   99.06332165
_symmetry_Int_Tables_number   1
_chemical_formula_structural   Li4Ni2As6N5O7
_chemical_formula_sum   'Li4 Ni2 As6 N5 O7'
_cell_volume   290.51460658
_cell_formula_units_Z   1
loop_
 _symmetry_equiv_pos_site_id
 _symmetry_equiv_pos_as_xyz
  1  'x, y, z'
loop_
 _atom_site_type_symbol
 _atom_site_label
 _atom_site_symmetry_multiplicity
 _atom_site_fract_x
 _atom_site_fract_y
 _atom_site_fract_z
 _atom_site_occupancy
  Li  Li0  1  0.00000000  0.00000000  0.00000000  1
  Li  Li1  1  0.50000000  0.50000000  0.50000000  1
  Li  Li2  1  0.50000000  0.50000000  0.00000000  1
  Li  Li3  1  0.50000000  0.00000000  0.50000000  1
  Ni  Ni4  1  0.00000000  0.50000000  0.50000000  1
  Ni  Ni5  1  0.10236054  0.13721801  0.21903341  1
  As  As6  1  0.58552393  0.24472386  0.99759874  1
  As  As7  1  0.37599319  0.43216289  0.90281035  1
  As  As8  1  0.46789935  0.52420314  0.23089982  1
  As  As9  1  0.44335933  0.38435530  0.65938981  1
  As  As10  1  0.45330688  0.49112724  0.28403271  1
  As  As11  1  0.87302266  0.18654620  0.98450354  1
  O  O12  1  0.75645401  0.94755878  0.18538789  1
  O  O13  1  0.11513132  0.34515823  0.41578115  1
  O  O14  1  0.34759528  0.46996865  0.37920478  1
  O  O15  1  0.04035834  0.00707621  0.02199988  1
  O  O16  1  0.28545576  0.67211313  0.47504086  1
  O  O17  1  0.86846381  0.45877407  0.55974653  1
  O  O18  1  0.48854842  0.81464023  0.20878682  1
  N  N19  1  0.75597229  0.80473563  0.87787892  1
  N  N20  1  0.13927625  0.25580118  0.75127323  1
  N  N21  1  0.76919389  0.78898333  0.06607250  1
  N  N22  1  0.25112402  0.88351359  0.78181417  1
  N  N23  1  0.56423265  0.56281167  0.92436810  1
