# generated using pymatgen
data_Li3TiNi2P4N5
_symmetry_space_group_name_H-M   'P 1'
_cell_length_a   7.64904584
_cell_length_b   7.30788359
_cell_length_c   8.61906074
_cell_angle_alpha   92.97321345
_cell_angle_beta   91.05115580
_cell_angle_gamma   93.44856767
_symmetry_Int_Tables_number   1
_chemical_formula_structural   Li3TiNi2P4N5
_chemical_formula_sum   'Li3 Ti1 Ni2 P4 N5'
_cell_volume   480.16000410
_cell_formula_units_Z   1
loop_
 _symmetry_equiv_pos_site_id
 _symmetry_equiv_pos_as_xyz
  1  'x, y, z'
loop_
 _atom_site_type_symbol
 _atom_site_label
 _atom_site_symmetry_multiplicity
 _atom_site_fract_x
 _atom_site_fract_y
 _atom_site_fract_z
 _atom_site_occupancy
  P  P0  1  0.12500000  0.00000000  0.25000000  1
  P  P1  1  0.00000000  0.00000000  0.00000000  1
  P  P2  1  0.37500000  0.00000000  0.25000000  1
  P  P3  1  0.25000000  0.25000000  0.25000000  1
  Li  Li4  1  0.00000000  0.25000000  0.12500000  1
  Li  Li5  1  0.14392985  0.51404522  0.25236094  1
  Li  Li6  1  0.38396811  0.49813155  0.64389921  1
  Ni  Ni7  1  0.84845867  0.67621075  0.31678082  1
  Ni  Ni8  1  0.12043492  0.01227962  0.56477773  1
  Ti  Ti9  1  0.51766258  0.72607787  0.34400793  1
  N  N10  1  0.09178437  0.50961723  0.85689488  1
  N  N11  1  0.14267369  0.89451773  0.83922480  1
  N  N12  1  0.08933854  0.39259729  0.93359330  1
  N  N13  1  0.19381224  0.27433054  0.89349475  1
  N  N14  1  0.84420163  0.31710667  0.07929711  1
