# generated using pymatgen
data_Li2MnSb4P3
_symmetry_space_group_name_H-M   'P 1'
_cell_length_a   6.05888927
_cell_length_b   6.18588645
_cell_length_c   6.98591145
_cell_angle_alpha   97.02326582
_cell_angle_beta   91.72067501
_cell_angle_gamma   97.07433849
_symmetry_Int_Tables_number   1
_chemical_formula_structural   Li2MnSb4P3
_chemical_formula_sum   'Li2 Mn1 Sb4 P3'
_cell_volume   257.61594062
_cell_formula_units_Z   1
loop_
 _symmetry_equiv_pos_site_id
 _symmetry_equiv_pos_as_xyz
  1  'x, y, z'
loop_
 _atom_site_type_symbol
 _atom_site_label
 _atom_site_symmetry_multiplicity
 _atom_site_fract_x
 _atom_site_fract_y
 _atom_site_fract_z
 _atom_site_occupancy
  Mn  Mn0  1  0.12500000  0.00000000  0.25000000  1
  Sb  Sb1  1  0.00000000  0.00000000  0.00000000  1
  Sb  Sb2  1  0.37500000  0.00000000  0.25000000  1
  Sb  Sb3  1  0.25000000  0.25000000  0.25000000  1
  Sb  Sb4  1  0.00000000  0.25000000  0.12500000  1
  P  P5  1  0.97515728  0.95229673  0.11525181  1
  P  P6  1  0.04223025  0.60960146  0.78188532  1
  P  P7  1  0.53569585  0.85494576  0.38335054  1
  Li  Li8  1  0.74157588  0.76301780  0.30864925  1
  Li  Li9  1  0.23739550  0.05888842  0.38000185  1
