# generated using pymatgen
data_Li4Ti3N5
_symmetry_space_group_name_H-M   'P 1'
_cell_length_a   6.19111481
_cell_length_b   6.21343518
_cell_length_c   7.72304240
_cell_angle_alpha   97.88416429
_cell_angle_beta   98.94890794
_cell_angle_gamma   99.92666553
_symmetry_Int_Tables_number   1
_chemical_formula_structural   Li4Ti3N5
_chemical_formula_sum   'Li4 Ti3 N5'
_cell_volume   284.94593430
_cell_formula_units_Z   1
loop_
 _symmetry_equiv_pos_site_id
 _symmetry_equiv_pos_as_xyz
  1  'x, y, z'
loop_
 _atom_site_type_symbol
 _atom_site_label
 _atom_site_symmetry_multiplicity
 _atom_site_fract_x
 _atom_site_fract_y
 _atom_site_fract_z
 _atom_site_occupancy
  Li  Li0  1  0.00000000  0.00000000  0.00000000  1
  Li  Li1  1  0.50000000  0.50000000  0.50000000  1
  Li  Li2  1  0.25000000  0.25000000  0.25000000  1
  Li  Li3  1  0.75000000  0.25000000  0.00000000  1
  Ti  Ti4  1  0.25000000  0.75000000  0.50000000  1
  Ti  Ti5  1  0.24796630  0.54914238  0.02702955  1
  Ti  Ti6  1  0.64372892  0.06046583  0.85676530  1
  N  N7  1  0.36914591  0.62522277  0.86859800  1
  N  N8  1  0.92648360  0.57339883  0.72333496  1
  N  N9  1  0.14499241  0.56013817  0.88441547  1
  N  N10  1  0.37025542  0.95739446  0.10680500  1
  N  N11  1  0.38797548  0.13655295  0.47761382  1
