# generated using pymatgen
data_Li5ZrP4SeCl2
_symmetry_space_group_name_H-M   'P 1'
_cell_length_a   5.21516079
_cell_length_b   4.85028466
_cell_length_c   7.39124727
_cell_angle_alpha   104.88965040
_cell_angle_beta   108.39114464
_cell_angle_gamma   104.21714517
_symmetry_Int_Tables_number   1
_chemical_formula_structural   Li5ZrP4SeCl2
_chemical_formula_sum   'Li5 Zr1 P4 Se1 Cl2'
_cell_volume   160.20894314
_cell_formula_units_Z   1
loop_
 _symmetry_equiv_pos_site_id
 _symmetry_equiv_pos_as_xyz
  1  'x, y, z'
loop_
 _atom_site_type_symbol
 _atom_site_label
 _atom_site_symmetry_multiplicity
 _atom_site_fract_x
 _atom_site_fract_y
 _atom_site_fract_z
 _atom_site_occupancy
  P  P0  1  0.00000000  0.00000000  0.00000000  1
  P  P1  1  0.50000000  0.50000000  0.50000000  1
  P  P2  1  0.50000000  0.50000000  0.00000000  1
  P  P3  1  0.50000000  0.00000000  0.50000000  1
  Li  Li4  1  0.00000000  0.50000000  0.50000000  1
  Li  Li5  1  0.06018126  0.56787671  0.27317103  1
  Li  Li6  1  0.71532647  0.01121732  0.50251360  1
  Li  Li7  1  0.09305677  0.38304911  0.02139006  1
  Li  Li8  1  0.33960693  0.76636806  0.70009384  1
  Se  Se9  1  0.58825002  0.35372264  0.70822356  1
  Cl  Cl10  1  0.94297659  0.47615202  0.13530389  1
  Cl  Cl11  1  0.95840574  0.03855591  0.52304969  1
  Zr  Zr12  1  0.76043031  0.19053314  0.90609146  1
