# generated using pymatgen
data_Li3LuTi(PI)4
_symmetry_space_group_name_H-M   'P 1'
_cell_length_a   7.70147234
_cell_length_b   7.43502665
_cell_length_c   8.21254418
_cell_angle_alpha   92.11720286
_cell_angle_beta   91.17142284
_cell_angle_gamma   92.45410388
_symmetry_Int_Tables_number   1
_chemical_formula_structural   Li3LuTi(PI)4
_chemical_formula_sum   'Li3 Lu1 Ti1 P4 I4'
_cell_volume   469.38934504
_cell_formula_units_Z   1
loop_
 _symmetry_equiv_pos_site_id
 _symmetry_equiv_pos_as_xyz
  1  'x, y, z'
loop_
 _atom_site_type_symbol
 _atom_site_label
 _atom_site_symmetry_multiplicity
 _atom_site_fract_x
 _atom_site_fract_y
 _atom_site_fract_z
 _atom_site_occupancy
  P  P0  1  0.00000000  0.00000000  0.00000000  1
  P  P1  1  0.50000000  0.50000000  0.50000000  1
  P  P2  1  0.25000000  0.25000000  0.25000000  1
  P  P3  1  0.75000000  0.25000000  0.00000000  1
  I  I4  1  0.25000000  0.75000000  0.50000000  1
  I  I5  1  0.04394766  0.24376632  0.01621993  1
  I  I6  1  0.17610990  0.58856866  0.28912414  1
  I  I7  1  0.85025576  0.23020074  0.39141221  1
  Lu  Lu8  1  0.71929917  0.21870620  0.70716441  1
  Li  Li9  1  0.90305916  0.44219475  0.88897851  1
  Li  Li10  1  0.99916951  0.82837096  0.28943344  1
  Li  Li11  1  0.80375817  0.49870812  0.47850674  1
  Ti  Ti12  1  0.72212318  0.27030596  0.32761303  1
