# generated using pymatgen
data_Li2MnSb4P3N5
_symmetry_space_group_name_H-M   'P 1'
_cell_length_a   6.95914911
_cell_length_b   7.48389940
_cell_length_c   7.78721923
_cell_angle_alpha   92.11165609
_cell_angle_beta   92.50145175
_cell_angle_gamma   92.40332535
_symmetry_Int_Tables_number   1
_chemical_formula_structural   Li2MnSb4P3N5
_chemical_formula_sum   'Li2 Mn1 Sb4 P3 N5'
_cell_volume   404.52373289
_cell_formula_units_Z   1
loop_
 _symmetry_equiv_pos_site_id
 _symmetry_equiv_pos_as_xyz
  1  'x, y, z'
loop_
 _atom_site_type_symbol
 _atom_site_label
 _atom_site_symmetry_multiplicity
 _atom_site_fract_x
 _atom_site_fract_y
 _atom_site_fract_z
 _atom_site_occupancy
  N  N0  1  0.00000000  0.00000000  0.00000000  1
  N  N1  1  0.50000000  0.50000000  0.50000000  1
  N  N2  1  0.50000000  0.50000000  0.00000000  1
  N  N3  1  0.50000000  0.00000000  0.50000000  1
  N  N4  1  0.00000000  0.50000000  0.50000000  1
  Mn  Mn5  1  0.26550082  0.59576831  0.01729107  1
  Sb  Sb6  1  0.85274992  0.40278661  0.25665188  1
  Sb  Sb7  1  0.24769476  0.56420671  0.33634856  1
  Sb  Sb8  1  0.19995719  0.39996403  0.80882941  1
  Sb  Sb9  1  0.99995395  0.33682745  0.84110987  1
  P  P10  1  0.83035144  0.53081456  0.63198204  1
  P  P11  1  0.84897840  0.59241305  0.40421080  1
  P  P12  1  0.54877002  0.35077782  0.99152097  1
  Li  Li13  1  0.09348377  0.21769143  0.80967802  1
  Li  Li14  1  0.03216435  0.51859453  0.83360698  1
