# generated using pymatgen
data_Li3TiNi2P3O2
_symmetry_space_group_name_H-M   'P 1'
_cell_length_a   6.69550950
_cell_length_b   6.33173897
_cell_length_c   7.73140307
_cell_angle_alpha   94.93311098
_cell_angle_beta   94.55107095
_cell_angle_gamma   94.81360886
_symmetry_Int_Tables_number   1
_chemical_formula_structural   Li3TiNi2P3O2
_chemical_formula_sum   'Li3 Ti1 Ni2 P3 O2'
_cell_volume   324.16158865
_cell_formula_units_Z   1
loop_
 _symmetry_equiv_pos_site_id
 _symmetry_equiv_pos_as_xyz
  1  'x, y, z'
loop_
 _atom_site_type_symbol
 _atom_site_label
 _atom_site_symmetry_multiplicity
 _atom_site_fract_x
 _atom_site_fract_y
 _atom_site_fract_z
 _atom_site_occupancy
  P  P0  1  0.12500000  0.00000000  0.25000000  1
  P  P1  1  0.00000000  0.00000000  0.00000000  1
  P  P2  1  0.37500000  0.00000000  0.25000000  1
  Li  Li3  1  0.25000000  0.25000000  0.25000000  1
  Li  Li4  1  0.00000000  0.25000000  0.12500000  1
  Li  Li5  1  0.86244927  0.15617906  0.69442555  1
  Ni  Ni6  1  0.63795416  0.06502275  0.15510338  1
  Ni  Ni7  1  0.68738238  0.19268999  0.62265625  1
  Ti  Ti8  1  0.67421276  0.32503439  0.18858473  1
  O  O9  1  0.27957946  0.07974998  0.23869980  1
  O  O10  1  0.06368160  0.04585495  0.75337453  1
