# generated using pymatgen
data_Li4LaN
_symmetry_space_group_name_H-M   'P 1'
_cell_length_a   6.03279297
_cell_length_b   6.67177768
_cell_length_c   6.56947668
_cell_angle_alpha   102.76307532
_cell_angle_beta   101.21209126
_cell_angle_gamma   94.96117728
_symmetry_Int_Tables_number   1
_chemical_formula_structural   Li4LaN
_chemical_formula_sum   'Li4 La1 N1'
_cell_volume   250.63663466
_cell_formula_units_Z   1
loop_
 _symmetry_equiv_pos_site_id
 _symmetry_equiv_pos_as_xyz
  1  'x, y, z'
loop_
 _atom_site_type_symbol
 _atom_site_label
 _atom_site_symmetry_multiplicity
 _atom_site_fract_x
 _atom_site_fract_y
 _atom_site_fract_z
 _atom_site_occupancy
  La  La0  1  0.00000000  0.00000000  0.00000000  1
  Li  Li1  1  0.33300000  0.66700000  0.25000000  1
  Li  Li2  1  0.66700000  0.33300000  0.50000000  1
  Li  Li3  1  0.00000000  0.00000000  0.75000000  1
  Li  Li4  1  0.88864486  0.80965740  0.04338823  1
  N  N5  1  0.90181730  0.25732911  0.91282764  1
