# generated using pymatgen
data_LiNiAs3(PI)2
_symmetry_space_group_name_H-M   'P 1'
_cell_length_a   7.76525541
_cell_length_b   7.61556073
_cell_length_c   8.00270265
_cell_angle_alpha   91.33796403
_cell_angle_beta   91.32863216
_cell_angle_gamma   91.54864906
_symmetry_Int_Tables_number   1
_chemical_formula_structural   LiNiAs3(PI)2
_chemical_formula_sum   'Li2 Ni2 As6 P4 I4'
_cell_volume   472.81783331
_cell_formula_units_Z   2
loop_
 _symmetry_equiv_pos_site_id
 _symmetry_equiv_pos_as_xyz
  1  'x, y, z'
loop_
 _atom_site_type_symbol
 _atom_site_label
 _atom_site_symmetry_multiplicity
 _atom_site_fract_x
 _atom_site_fract_y
 _atom_site_fract_z
 _atom_site_occupancy
  I  I0  1  0.00000000  0.00000000  0.00000000  1
  I  I1  1  0.50000000  0.50000000  0.50000000  1
  I  I2  1  0.50000000  0.50000000  0.00000000  1
  I  I3  1  0.50000000  0.00000000  0.50000000  1
  P  P4  1  0.00000000  0.50000000  0.50000000  1
  P  P5  1  0.77395324  0.92738591  0.30795297  1
  P  P6  1  0.63633007  0.44223561  0.44395989  1
  P  P7  1  0.65557316  0.11887430  0.94728784  1
  Li  Li8  1  0.55672318  0.02575984  0.89518558  1
  Li  Li9  1  0.66635154  0.62653068  0.91458369  1
  Ni  Ni10  1  0.39751402  0.34224560  0.18767647  1
  Ni  Ni11  1  0.02223783  0.70943606  0.60485243  1
  As  As12  1  0.21761306  0.32544810  0.26470247  1
  As  As13  1  0.36974143  0.14574254  0.57345403  1
  As  As14  1  0.73695834  0.88547174  0.91493946  1
  As  As15  1  0.73358592  0.56347188  0.13908428  1
  As  As16  1  0.84885708  0.47564531  0.59276162  1
  As  As17  1  0.47567487  0.64074101  0.20624400  1
