# generated using pymatgen
data_Li2Ti2Cu2O
_symmetry_space_group_name_H-M   'P 1'
_cell_length_a   6.75800461
_cell_length_b   6.82336171
_cell_length_c   7.12158410
_cell_angle_alpha   94.23171919
_cell_angle_beta   96.53629934
_cell_angle_gamma   95.41187417
_symmetry_Int_Tables_number   1
_chemical_formula_structural   Li2Ti2Cu2O
_chemical_formula_sum   'Li2 Ti2 Cu2 O1'
_cell_volume   323.61553302
_cell_formula_units_Z   1
loop_
 _symmetry_equiv_pos_site_id
 _symmetry_equiv_pos_as_xyz
  1  'x, y, z'
loop_
 _atom_site_type_symbol
 _atom_site_label
 _atom_site_symmetry_multiplicity
 _atom_site_fract_x
 _atom_site_fract_y
 _atom_site_fract_z
 _atom_site_occupancy
  Li  Li0  1  0.12500000  0.12500000  0.12500000  1
  Li  Li1  1  0.50000000  0.50000000  0.50000000  1
  Cu  Cu2  1  0.25000000  0.25000000  0.25000000  1
  Cu  Cu3  1  0.75000000  0.75000000  0.75000000  1
  Ti  Ti4  1  0.48040072  0.51175197  0.12388395  1
  Ti  Ti5  1  0.80506584  0.66003146  0.16105116  1
  O  O6  1  0.86351121  0.41119626  0.90143499  1
