# generated using pymatgen
data_LiMnSb4Mo2P3
_symmetry_space_group_name_H-M   'P 1'
_cell_length_a   5.34868857
_cell_length_b   5.71729022
_cell_length_c   6.66433593
_cell_angle_alpha   94.62093185
_cell_angle_beta   94.72706090
_cell_angle_gamma   94.92870819
_symmetry_Int_Tables_number   1
_chemical_formula_structural   LiMnSb4Mo2P3
_chemical_formula_sum   'Li1 Mn1 Sb4 Mo2 P3'
_cell_volume   201.56139362
_cell_formula_units_Z   1
loop_
 _symmetry_equiv_pos_site_id
 _symmetry_equiv_pos_as_xyz
  1  'x, y, z'
loop_
 _atom_site_type_symbol
 _atom_site_label
 _atom_site_symmetry_multiplicity
 _atom_site_fract_x
 _atom_site_fract_y
 _atom_site_fract_z
 _atom_site_occupancy
  Mn  Mn0  1  0.12500000  0.00000000  0.25000000  1
  Sb  Sb1  1  0.00000000  0.00000000  0.00000000  1
  Sb  Sb2  1  0.37500000  0.00000000  0.25000000  1
  Sb  Sb3  1  0.25000000  0.25000000  0.25000000  1
  Sb  Sb4  1  0.00000000  0.25000000  0.12500000  1
  P  P5  1  0.27600077  0.66628955  0.17036630  1
  P  P6  1  0.24710111  0.54231435  0.75639771  1
  P  P7  1  0.05470101  0.74609316  0.19168511  1
  Mo  Mo8  1  0.96712320  0.20036663  0.09588181  1
  Mo  Mo9  1  0.58695157  0.73189349  0.09108012  1
  Li  Li10  1  0.77927105  0.41696744  0.58501103  1
