# generated using pymatgen
data_Li3Ti(IO)4
_symmetry_space_group_name_H-M   'P 1'
_cell_length_a   8.87687184
_cell_length_b   8.75761409
_cell_length_c   7.20693757
_cell_angle_alpha   90.00000000
_cell_angle_beta   90.00000000
_cell_angle_gamma   90.00000000
_symmetry_Int_Tables_number   1
_chemical_formula_structural   Li3Ti(IO)4
_chemical_formula_sum   'Li3 Ti1 I4 O4'
_cell_volume   560.26889682
_cell_formula_units_Z   1
loop_
 _symmetry_equiv_pos_site_id
 _symmetry_equiv_pos_as_xyz
  1  'x, y, z'
loop_
 _atom_site_type_symbol
 _atom_site_label
 _atom_site_symmetry_multiplicity
 _atom_site_fract_x
 _atom_site_fract_y
 _atom_site_fract_z
 _atom_site_occupancy
  I  I0  1  0.00000000  0.00000000  0.00000000  1
  I  I1  1  0.33300000  0.66700000  0.25000000  1
  I  I2  1  0.66700000  0.33300000  0.50000000  1
  I  I3  1  0.00000000  0.00000000  0.75000000  1
  Li  Li4  1  0.35530493  0.33727405  0.05815837  1
  Li  Li5  1  0.55339893  0.56886736  0.67646648  1
  Li  Li6  1  0.19783619  0.79646963  0.00934160  1
  Ti  Ti7  1  0.41041814  0.29538204  0.06771891  1
  O  O8  1  0.97898341  0.04999964  0.34605458  1
  O  O9  1  0.41242611  0.20067968  0.89631900  1
  O  O10  1  0.22447858  0.05013138  0.09510711  1
  O  O11  1  0.36390714  0.48051517  0.72183284  1
