# generated using pymatgen
data_Li2Mn2P2N
_symmetry_space_group_name_H-M   'P 1'
_cell_length_a   5.21758696
_cell_length_b   5.57018941
_cell_length_c   6.23995204
_cell_angle_alpha   98.36981478
_cell_angle_beta   93.91025946
_cell_angle_gamma   97.13960719
_symmetry_Int_Tables_number   1
_chemical_formula_structural   Li2Mn2P2N
_chemical_formula_sum   'Li2 Mn2 P2 N1'
_cell_volume   177.33964849
_cell_formula_units_Z   1
loop_
 _symmetry_equiv_pos_site_id
 _symmetry_equiv_pos_as_xyz
  1  'x, y, z'
loop_
 _atom_site_type_symbol
 _atom_site_label
 _atom_site_symmetry_multiplicity
 _atom_site_fract_x
 _atom_site_fract_y
 _atom_site_fract_z
 _atom_site_occupancy
  Mn  Mn0  1  0.12500000  0.12500000  0.12500000  1
  Mn  Mn1  1  0.50000000  0.50000000  0.50000000  1
  P  P2  1  0.25000000  0.25000000  0.25000000  1
  P  P3  1  0.75000000  0.75000000  0.75000000  1
  Li  Li4  1  0.51587233  0.24528145  0.28413848  1
  Li  Li5  1  0.26684721  0.30654605  0.26290681  1
  N  N6  1  0.24489637  0.62131367  0.49820576  1
