# generated using pymatgen
data_Li2Ti(P3I2)2
_symmetry_space_group_name_H-M   'P 1'
_cell_length_a   8.20342548
_cell_length_b   8.01482459
_cell_length_c   7.55986285
_cell_angle_alpha   90.20719241
_cell_angle_beta   90.98575856
_cell_angle_gamma   90.23687625
_symmetry_Int_Tables_number   1
_chemical_formula_structural   Li2Ti(P3I2)2
_chemical_formula_sum   'Li2 Ti1 P6 I4'
_cell_volume   496.97235562
_cell_formula_units_Z   1
loop_
 _symmetry_equiv_pos_site_id
 _symmetry_equiv_pos_as_xyz
  1  'x, y, z'
loop_
 _atom_site_type_symbol
 _atom_site_label
 _atom_site_symmetry_multiplicity
 _atom_site_fract_x
 _atom_site_fract_y
 _atom_site_fract_z
 _atom_site_occupancy
  P  P0  1  0.00000000  0.00000000  0.00000000  1
  P  P1  1  0.33300000  0.66700000  0.25000000  1
  P  P2  1  0.66700000  0.33300000  0.50000000  1
  P  P3  1  0.00000000  0.00000000  0.75000000  1
  P  P4  1  0.01564876  0.59954628  0.85006133  1
  P  P5  1  0.90369725  0.03942125  0.57159685  1
  I  I6  1  0.52806922  0.29612965  0.13194159  1
  I  I7  1  0.33028751  0.11936852  0.45163312  1
  I  I8  1  0.14392102  0.87553029  0.88170020  1
  I  I9  1  0.59751962  0.96327013  0.08939293  1
  Li  Li10  1  0.24137871  0.20730544  0.70532468  1
  Li  Li11  1  0.73949555  0.77059890  0.34668023  1
  Ti  Ti12  1  0.53704628  0.17326470  0.48131373  1
