# generated using pymatgen
data_Li2TiCu2P4F2
_symmetry_space_group_name_H-M   'P 1'
_cell_length_a   6.86352142
_cell_length_b   6.68582276
_cell_length_c   7.19074439
_cell_angle_alpha   91.50449528
_cell_angle_beta   93.05775306
_cell_angle_gamma   91.01546050
_symmetry_Int_Tables_number   1
_chemical_formula_structural   Li2TiCu2P4F2
_chemical_formula_sum   'Li2 Ti1 Cu2 P4 F2'
_cell_volume   329.32712551
_cell_formula_units_Z   1
loop_
 _symmetry_equiv_pos_site_id
 _symmetry_equiv_pos_as_xyz
  1  'x, y, z'
loop_
 _atom_site_type_symbol
 _atom_site_label
 _atom_site_symmetry_multiplicity
 _atom_site_fract_x
 _atom_site_fract_y
 _atom_site_fract_z
 _atom_site_occupancy
  P  P0  1  0.00000000  0.00000000  0.00000000  1
  P  P1  1  0.50000000  0.50000000  0.50000000  1
  P  P2  1  0.25000000  0.25000000  0.25000000  1
  P  P3  1  0.75000000  0.25000000  0.00000000  1
  Li  Li4  1  0.25000000  0.75000000  0.50000000  1
  Li  Li5  1  0.42897172  0.01224306  0.03681511  1
  Cu  Cu6  1  0.99739203  0.22895141  0.11149013  1
  Cu  Cu7  1  0.59715112  0.43390476  0.35045915  1
  F  F8  1  0.04198916  0.20857124  0.43133248  1
  F  F9  1  0.36921255  0.99750594  0.94339421  1
  Ti  Ti10  1  0.30219910  0.30199611  0.29800619  1
