# generated using pymatgen
data_Li2Mn2Sb4P3
_symmetry_space_group_name_H-M   'P 1'
_cell_length_a   6.11640509
_cell_length_b   6.65520164
_cell_length_c   7.49974149
_cell_angle_alpha   95.38732982
_cell_angle_beta   93.47168607
_cell_angle_gamma   95.72617488
_symmetry_Int_Tables_number   1
_chemical_formula_structural   Li2Mn2Sb4P3
_chemical_formula_sum   'Li2 Mn2 Sb4 P3'
_cell_volume   301.66436302
_cell_formula_units_Z   1
loop_
 _symmetry_equiv_pos_site_id
 _symmetry_equiv_pos_as_xyz
  1  'x, y, z'
loop_
 _atom_site_type_symbol
 _atom_site_label
 _atom_site_symmetry_multiplicity
 _atom_site_fract_x
 _atom_site_fract_y
 _atom_site_fract_z
 _atom_site_occupancy
  Mn  Mn0  1  0.00000000  0.00000000  0.00000000  1
  Mn  Mn1  1  0.50000000  0.50000000  0.50000000  1
  Sb  Sb2  1  0.25000000  0.25000000  0.25000000  1
  Sb  Sb3  1  0.75000000  0.25000000  0.00000000  1
  Sb  Sb4  1  0.25000000  0.75000000  0.50000000  1
  Sb  Sb5  1  0.03559434  0.29584291  0.54557036  1
  P  P6  1  0.79057109  0.57649756  0.70254814  1
  P  P7  1  0.79112204  0.42543688  0.81788642  1
  P  P8  1  0.28950408  0.07975793  0.30329054  1
  Li  Li9  1  0.24241224  0.50331587  0.97188485  1
  Li  Li10  1  0.40655936  0.22280479  0.81094371  1
