# generated using pymatgen
data_Li3TiCu2(NiI2)2
_symmetry_space_group_name_H-M   'P 1'
_cell_length_a   7.77109297
_cell_length_b   7.55310873
_cell_length_c   8.40927135
_cell_angle_alpha   92.15788787
_cell_angle_beta   91.14224358
_cell_angle_gamma   92.50145788
_symmetry_Int_Tables_number   1
_chemical_formula_structural   Li3TiCu2(NiI2)2
_chemical_formula_sum   'Li3 Ti1 Cu2 Ni2 I4'
_cell_volume   492.65469489
_cell_formula_units_Z   1
loop_
 _symmetry_equiv_pos_site_id
 _symmetry_equiv_pos_as_xyz
  1  'x, y, z'
loop_
 _atom_site_type_symbol
 _atom_site_label
 _atom_site_symmetry_multiplicity
 _atom_site_fract_x
 _atom_site_fract_y
 _atom_site_fract_z
 _atom_site_occupancy
  I  I0  1  0.00000000  0.00000000  0.00000000  1
  I  I1  1  0.50000000  0.50000000  0.50000000  1
  I  I2  1  0.50000000  0.50000000  0.00000000  1
  I  I3  1  0.50000000  0.00000000  0.50000000  1
  Li  Li4  1  0.00000000  0.50000000  0.50000000  1
  Li  Li5  1  0.97033767  0.92009232  0.52354909  1
  Li  Li6  1  0.47082609  0.45061555  0.21291951  1
  Cu  Cu7  1  0.42784316  0.55014591  0.83979966  1
  Cu  Cu8  1  0.90438082  0.26990102  0.49285044  1
  Ni  Ni9  1  0.49826817  0.97362521  0.99871192  1
  Ni  Ni10  1  0.66513793  0.80120940  0.51145931  1
  Ti  Ti11  1  0.33099313  0.92531698  0.61028231  1
