# generated using pymatgen
data_Li3Zn2P4N5O4
_symmetry_space_group_name_H-M   'P 1'
_cell_length_a   7.99409833
_cell_length_b   8.03452569
_cell_length_c   8.08092698
_cell_angle_alpha   91.80671832
_cell_angle_beta   90.63875079
_cell_angle_gamma   92.09557453
_symmetry_Int_Tables_number   1
_chemical_formula_structural   Li3Zn2P4N5O4
_chemical_formula_sum   'Li3 Zn2 P4 N5 O4'
_cell_volume   518.38386708
_cell_formula_units_Z   1
loop_
 _symmetry_equiv_pos_site_id
 _symmetry_equiv_pos_as_xyz
  1  'x, y, z'
loop_
 _atom_site_type_symbol
 _atom_site_label
 _atom_site_symmetry_multiplicity
 _atom_site_fract_x
 _atom_site_fract_y
 _atom_site_fract_z
 _atom_site_occupancy
  P  P0  1  0.00000000  0.00000000  0.00000000  1
  P  P1  1  0.50000000  0.50000000  0.50000000  1
  P  P2  1  0.50000000  0.50000000  0.00000000  1
  P  P3  1  0.50000000  0.00000000  0.50000000  1
  Li  Li4  1  0.00000000  0.50000000  0.50000000  1
  Li  Li5  1  0.49923452  0.66721926  0.65656814  1
  Li  Li6  1  0.28003271  0.91792270  0.09955572  1
  Zn  Zn7  1  0.26092390  0.96762088  0.04766308  1
  Zn  Zn8  1  0.55090975  0.99211125  0.81479300  1
  O  O9  1  0.09718710  0.40900399  0.07819061  1
  O  O10  1  0.78132667  0.29843094  0.12491530  1
  O  O11  1  0.75798609  0.77302403  0.17795424  1
  O  O12  1  0.21845656  0.68367822  0.41366575  1
  N  N13  1  0.12279731  0.47813565  0.25508417  1
  N  N14  1  0.36467219  0.44947062  0.60726886  1
  N  N15  1  0.68642370  0.63584831  0.09288617  1
  N  N16  1  0.19411654  0.61535061  0.97000373  1
  N  N17  1  0.23192048  0.37082705  0.35667385  1
