# generated using pymatgen
data_Li2Sb4Mo2P3N
_symmetry_space_group_name_H-M   'P 1'
_cell_length_a   4.60847260
_cell_length_b   4.92159938
_cell_length_c   6.59104196
_cell_angle_alpha   99.20728033
_cell_angle_beta   96.85165799
_cell_angle_gamma   99.49293310
_symmetry_Int_Tables_number   1
_chemical_formula_structural   Li2Sb4Mo2P3N
_chemical_formula_sum   'Li2 Sb4 Mo2 P3 N1'
_cell_volume   143.90622015
_cell_formula_units_Z   1
loop_
 _symmetry_equiv_pos_site_id
 _symmetry_equiv_pos_as_xyz
  1  'x, y, z'
loop_
 _atom_site_type_symbol
 _atom_site_label
 _atom_site_symmetry_multiplicity
 _atom_site_fract_x
 _atom_site_fract_y
 _atom_site_fract_z
 _atom_site_occupancy
  N  N0  1  0.00000000  0.00000000  0.00000000  1
  Sb  Sb1  1  0.50000000  0.50000000  0.50000000  1
  Sb  Sb2  1  0.50000000  0.50000000  0.00000000  1
  Sb  Sb3  1  0.50000000  0.00000000  0.50000000  1
  Sb  Sb4  1  0.00000000  0.50000000  0.50000000  1
  P  P5  1  0.56621579  0.92662745  0.52615928  1
  P  P6  1  0.89789611  0.18518885  0.40046171  1
  P  P7  1  0.81503664  0.30415928  0.80356360  1
  Mo  Mo8  1  0.90545667  0.17774613  0.51961438  1
  Mo  Mo9  1  0.74183050  0.83826382  0.51395027  1
  Li  Li10  1  0.34053304  0.44206749  0.25563960  1
  Li  Li11  1  0.74401773  0.35272735  0.24794858  1
