# generated using pymatgen
data_Li2Lu(CuAs3)2
_symmetry_space_group_name_H-M   'P 1'
_cell_length_a   7.99116744
_cell_length_b   7.42795631
_cell_length_c   8.60175880
_cell_angle_alpha   91.31053272
_cell_angle_beta   92.18693873
_cell_angle_gamma   91.50533162
_symmetry_Int_Tables_number   1
_chemical_formula_structural   Li2Lu(CuAs3)2
_chemical_formula_sum   'Li2 Lu1 Cu2 As6'
_cell_volume   509.88991561
_cell_formula_units_Z   1
loop_
 _symmetry_equiv_pos_site_id
 _symmetry_equiv_pos_as_xyz
  1  'x, y, z'
loop_
 _atom_site_type_symbol
 _atom_site_label
 _atom_site_symmetry_multiplicity
 _atom_site_fract_x
 _atom_site_fract_y
 _atom_site_fract_z
 _atom_site_occupancy
  Lu  Lu0  1  0.00000000  0.00000000  0.00000000  1
  Li  Li1  1  0.50000000  0.50000000  0.50000000  1
  Li  Li2  1  0.50000000  0.50000000  0.00000000  1
  Cu  Cu3  1  0.50000000  0.00000000  0.50000000  1
  Cu  Cu4  1  0.00000000  0.50000000  0.50000000  1
  As  As5  1  0.05086813  0.27575836  0.18704292  1
  As  As6  1  0.37457984  0.87838993  0.54980269  1
  As  As7  1  0.24943187  0.54187123  0.47739381  1
  As  As8  1  0.47708856  0.42854642  0.60449913  1
  As  As9  1  0.51171873  0.90864035  0.23368491  1
  As  As10  1  0.87117944  0.45200091  0.96270346  1
