# generated using pymatgen
data_LiMn2Sb4P3
_symmetry_space_group_name_H-M   'P 1'
_cell_length_a   6.93397379
_cell_length_b   7.11898512
_cell_length_c   7.37158906
_cell_angle_alpha   91.19189192
_cell_angle_beta   91.60211430
_cell_angle_gamma   91.48355425
_symmetry_Int_Tables_number   1
_chemical_formula_structural   LiMn2Sb4P3
_chemical_formula_sum   'Li1 Mn2 Sb4 P3'
_cell_volume   363.53414950
_cell_formula_units_Z   1
loop_
 _symmetry_equiv_pos_site_id
 _symmetry_equiv_pos_as_xyz
  1  'x, y, z'
loop_
 _atom_site_type_symbol
 _atom_site_label
 _atom_site_symmetry_multiplicity
 _atom_site_fract_x
 _atom_site_fract_y
 _atom_site_fract_z
 _atom_site_occupancy
  Mn  Mn0  1  0.12500000  0.12500000  0.12500000  1
  Mn  Mn1  1  0.50000000  0.50000000  0.50000000  1
  Sb  Sb2  1  0.25000000  0.25000000  0.25000000  1
  Sb  Sb3  1  0.75000000  0.75000000  0.75000000  1
  Sb  Sb4  1  0.22780176  0.54385339  0.00147398  1
  Sb  Sb5  1  0.94243541  0.67570478  0.66904301  1
  P  P6  1  0.89246537  0.39231962  0.34604801  1
  P  P7  1  0.59796320  0.24784780  0.23129175  1
  P  P8  1  0.35339134  0.47755697  0.38955443  1
  Li  Li9  1  0.65443493  0.02848083  0.46922740  1
