# generated using pymatgen
data_Li3Lu(NiP2)2
_symmetry_space_group_name_H-M   'P 1'
_cell_length_a   7.80612544
_cell_length_b   7.58397770
_cell_length_c   7.95747579
_cell_angle_alpha   91.58012217
_cell_angle_beta   91.14608430
_cell_angle_gamma   91.83053467
_symmetry_Int_Tables_number   1
_chemical_formula_structural   Li3Lu(NiP2)2
_chemical_formula_sum   'Li3 Lu1 Ni2 P4'
_cell_volume   470.57207921
_cell_formula_units_Z   1
loop_
 _symmetry_equiv_pos_site_id
 _symmetry_equiv_pos_as_xyz
  1  'x, y, z'
loop_
 _atom_site_type_symbol
 _atom_site_label
 _atom_site_symmetry_multiplicity
 _atom_site_fract_x
 _atom_site_fract_y
 _atom_site_fract_z
 _atom_site_occupancy
  P  P0  1  0.12500000  0.00000000  0.25000000  1
  P  P1  1  0.00000000  0.00000000  0.00000000  1
  P  P2  1  0.37500000  0.00000000  0.25000000  1
  P  P3  1  0.25000000  0.25000000  0.25000000  1
  Lu  Lu4  1  0.00000000  0.25000000  0.12500000  1
  Li  Li5  1  0.55388354  0.67654064  0.82829182  1
  Li  Li6  1  0.88376488  0.34340417  0.05763295  1
  Li  Li7  1  0.29680527  0.48553412  0.03127071  1
  Ni  Ni8  1  0.65418306  0.64234063  0.44962725  1
  Ni  Ni9  1  0.29513905  0.41559051  0.03438052  1
