# generated using pymatgen
data_Li2Ti2Cu2P5
_symmetry_space_group_name_H-M   'P 1'
_cell_length_a   7.77013307
_cell_length_b   7.71554933
_cell_length_c   7.87633517
_cell_angle_alpha   90.35286465
_cell_angle_beta   91.67882286
_cell_angle_gamma   90.40341852
_symmetry_Int_Tables_number   1
_chemical_formula_structural   Li2Ti2Cu2P5
_chemical_formula_sum   'Li2 Ti2 Cu2 P5'
_cell_volume   471.96899477
_cell_formula_units_Z   1
loop_
 _symmetry_equiv_pos_site_id
 _symmetry_equiv_pos_as_xyz
  1  'x, y, z'
loop_
 _atom_site_type_symbol
 _atom_site_label
 _atom_site_symmetry_multiplicity
 _atom_site_fract_x
 _atom_site_fract_y
 _atom_site_fract_z
 _atom_site_occupancy
  P  P0  1  0.12500000  0.00000000  0.25000000  1
  P  P1  1  0.00000000  0.00000000  0.00000000  1
  P  P2  1  0.37500000  0.00000000  0.25000000  1
  P  P3  1  0.25000000  0.25000000  0.25000000  1
  P  P4  1  0.00000000  0.25000000  0.12500000  1
  Li  Li5  1  0.21425259  0.06705592  0.53715995  1
  Li  Li6  1  0.72823340  0.15735081  0.51552142  1
  Cu  Cu7  1  0.08322146  0.95878447  0.83918120  1
  Cu  Cu8  1  0.61782526  0.81687634  0.61398406  1
  Ti  Ti9  1  0.93800248  0.34959066  0.14112069  1
  Ti  Ti10  1  0.20401926  0.95485232  0.20039676  1
