# generated using pymatgen
data_Li2SbMo2P3
_symmetry_space_group_name_H-M   'P 1'
_cell_length_a   3.93331994
_cell_length_b   4.06810133
_cell_length_c   5.91030975
_cell_angle_alpha   104.06727193
_cell_angle_beta   93.65526014
_cell_angle_gamma   104.10093264
_symmetry_Int_Tables_number   1
_chemical_formula_structural   Li2SbMo2P3
_chemical_formula_sum   'Li2 Sb1 Mo2 P3'
_cell_volume   88.20811147
_cell_formula_units_Z   1
loop_
 _symmetry_equiv_pos_site_id
 _symmetry_equiv_pos_as_xyz
  1  'x, y, z'
loop_
 _atom_site_type_symbol
 _atom_site_label
 _atom_site_symmetry_multiplicity
 _atom_site_fract_x
 _atom_site_fract_y
 _atom_site_fract_z
 _atom_site_occupancy
  Sb  Sb0  1  0.12500000  0.12500000  0.12500000  1
  P  P1  1  0.50000000  0.50000000  0.50000000  1
  P  P2  1  0.25000000  0.25000000  0.25000000  1
  P  P3  1  0.75000000  0.75000000  0.75000000  1
  Mo  Mo4  1  0.41404476  0.61212812  0.89054242  1
  Mo  Mo5  1  0.67228179  0.40638964  0.54275964  1
  Li  Li6  1  0.56807181  0.37599852  0.19909567  1
  Li  Li7  1  0.86213077  0.11800006  0.83161198  1
