# generated using pymatgen
data_LiMn2Sb4Mo2P3
_symmetry_space_group_name_H-M   'P 1'
_cell_length_a   5.15175558
_cell_length_b   5.43533946
_cell_length_c   6.31593065
_cell_angle_alpha   98.43847578
_cell_angle_beta   91.69570159
_cell_angle_gamma   98.57252513
_symmetry_Int_Tables_number   1
_chemical_formula_structural   LiMn2Sb4Mo2P3
_chemical_formula_sum   'Li1 Mn2 Sb4 Mo2 P3'
_cell_volume   172.74707720
_cell_formula_units_Z   1
loop_
 _symmetry_equiv_pos_site_id
 _symmetry_equiv_pos_as_xyz
  1  'x, y, z'
loop_
 _atom_site_type_symbol
 _atom_site_label
 _atom_site_symmetry_multiplicity
 _atom_site_fract_x
 _atom_site_fract_y
 _atom_site_fract_z
 _atom_site_occupancy
  Mn  Mn0  1  0.00000000  0.00000000  0.00000000  1
  Mn  Mn1  1  0.50000000  0.50000000  0.50000000  1
  Sb  Sb2  1  0.25000000  0.25000000  0.25000000  1
  Sb  Sb3  1  0.75000000  0.25000000  0.00000000  1
  Sb  Sb4  1  0.25000000  0.75000000  0.50000000  1
  Sb  Sb5  1  0.40660998  0.35211961  0.00997395  1
  P  P6  1  0.20396200  0.79264051  0.81633699  1
  P  P7  1  0.48991104  0.50835560  0.66141589  1
  P  P8  1  0.93191841  0.95309430  0.55055016  1
  Mo  Mo9  1  0.02599118  0.51925406  0.35653762  1
  Mo  Mo10  1  0.36121306  0.70951835  0.26666361  1
  Li  Li11  1  0.60616276  0.39527434  0.75639270  1
