# generated using pymatgen
data_LiMn2Sb4P3
_symmetry_space_group_name_H-M   'P 1'
_cell_length_a   6.25969125
_cell_length_b   6.70038305
_cell_length_c   6.83340726
_cell_angle_alpha   91.65375808
_cell_angle_beta   91.53863420
_cell_angle_gamma   91.93491421
_symmetry_Int_Tables_number   1
_chemical_formula_structural   LiMn2Sb4P3
_chemical_formula_sum   'Li1 Mn2 Sb4 P3'
_cell_volume   286.21520374
_cell_formula_units_Z   1
loop_
 _symmetry_equiv_pos_site_id
 _symmetry_equiv_pos_as_xyz
  1  'x, y, z'
loop_
 _atom_site_type_symbol
 _atom_site_label
 _atom_site_symmetry_multiplicity
 _atom_site_fract_x
 _atom_site_fract_y
 _atom_site_fract_z
 _atom_site_occupancy
  Mn  Mn0  1  0.00000000  0.00000000  0.00000000  1
  Mn  Mn1  1  0.33300000  0.66700000  0.25000000  1
  Sb  Sb2  1  0.66700000  0.33300000  0.50000000  1
  Sb  Sb3  1  0.00000000  0.00000000  0.75000000  1
  Sb  Sb4  1  0.32135235  0.58733543  0.78921241  1
  Sb  Sb5  1  0.28844630  0.62236135  0.53420963  1
  P  P6  1  0.11328609  0.70318669  0.16220836  1
  P  P7  1  0.04844717  0.25395118  0.02150430  1
  P  P8  1  0.75327023  0.11638151  0.64100726  1
  Li  Li9  1  0.17946404  0.89983066  0.65681963  1
