# generated using pymatgen
data_Li2MnMo2P3N
_symmetry_space_group_name_H-M   'P 1'
_cell_length_a   3.47177805
_cell_length_b   3.59946222
_cell_length_c   5.89024426
_cell_angle_alpha   104.51491315
_cell_angle_beta   96.92476601
_cell_angle_gamma   104.42657330
_symmetry_Int_Tables_number   1
_chemical_formula_structural   Li2MnMo2P3N
_chemical_formula_sum   'Li2 Mn1 Mo2 P3 N1'
_cell_volume   67.68382805
_cell_formula_units_Z   1
loop_
 _symmetry_equiv_pos_site_id
 _symmetry_equiv_pos_as_xyz
  1  'x, y, z'
loop_
 _atom_site_type_symbol
 _atom_site_label
 _atom_site_symmetry_multiplicity
 _atom_site_fract_x
 _atom_site_fract_y
 _atom_site_fract_z
 _atom_site_occupancy
  N  N0  1  0.12500000  0.00000000  0.25000000  1
  Mn  Mn1  1  0.00000000  0.00000000  0.00000000  1
  P  P2  1  0.37500000  0.00000000  0.25000000  1
  P  P3  1  0.25000000  0.25000000  0.25000000  1
  P  P4  1  0.00000000  0.25000000  0.12500000  1
  Mo  Mo5  1  0.95886194  0.99496542  0.73891563  1
  Mo  Mo6  1  0.47115082  0.83927511  0.31171344  1
  Li  Li7  1  0.10096942  0.65406706  0.26996301  1
  Li  Li8  1  0.10409288  0.68035250  0.89515965  1
