# generated using pymatgen
data_Li2Mn3(SbP)4
_symmetry_space_group_name_H-M   'P 1'
_cell_length_a   7.57736925
_cell_length_b   8.26034177
_cell_length_c   7.54707920
_cell_angle_alpha   90.00000000
_cell_angle_beta   90.00000000
_cell_angle_gamma   90.00000000
_symmetry_Int_Tables_number   1
_chemical_formula_structural   Li2Mn3(SbP)4
_chemical_formula_sum   'Li2 Mn3 Sb4 P4'
_cell_volume   472.38421297
_cell_formula_units_Z   1
loop_
 _symmetry_equiv_pos_site_id
 _symmetry_equiv_pos_as_xyz
  1  'x, y, z'
loop_
 _atom_site_type_symbol
 _atom_site_label
 _atom_site_symmetry_multiplicity
 _atom_site_fract_x
 _atom_site_fract_y
 _atom_site_fract_z
 _atom_site_occupancy
  Mn  Mn0  1  0.00000000  0.00000000  0.00000000  1
  Mn  Mn1  1  0.50000000  0.50000000  0.50000000  1
  Mn  Mn2  1  0.50000000  0.50000000  0.00000000  1
  Sb  Sb3  1  0.50000000  0.00000000  0.50000000  1
  Sb  Sb4  1  0.00000000  0.50000000  0.50000000  1
  Sb  Sb5  1  0.42571831  0.54604795  0.41931678  1
  Sb  Sb6  1  0.80375866  0.26416831  0.41519548  1
  P  P7  1  0.79270827  0.58813487  0.17768953  1
  P  P8  1  0.75920875  0.67634734  0.94608888  1
  P  P9  1  0.82681292  0.37948844  0.02994758  1
  P  P10  1  0.65938922  0.71162346  0.59673893  1
  Li  Li11  1  0.18835919  0.35519741  0.34801703  1
  Li  Li12  1  0.99217996  0.03580400  0.31935036  1
