# generated using pymatgen
data_Li2Mn3Sb4P3
_symmetry_space_group_name_H-M   'P 1'
_cell_length_a   4.88272128
_cell_length_b   5.20542886
_cell_length_c   6.61571882
_cell_angle_alpha   99.91274948
_cell_angle_beta   94.48731746
_cell_angle_gamma   100.27154037
_symmetry_Int_Tables_number   1
_chemical_formula_structural   Li2Mn3Sb4P3
_chemical_formula_sum   'Li2 Mn3 Sb4 P3'
_cell_volume   161.95200602
_cell_formula_units_Z   1
loop_
 _symmetry_equiv_pos_site_id
 _symmetry_equiv_pos_as_xyz
  1  'x, y, z'
loop_
 _atom_site_type_symbol
 _atom_site_label
 _atom_site_symmetry_multiplicity
 _atom_site_fract_x
 _atom_site_fract_y
 _atom_site_fract_z
 _atom_site_occupancy
  Mn  Mn0  1  0.00000000  0.00000000  0.00000000  1
  Mn  Mn1  1  0.50000000  0.50000000  0.50000000  1
  Mn  Mn2  1  0.25000000  0.25000000  0.25000000  1
  Sb  Sb3  1  0.75000000  0.25000000  0.00000000  1
  Sb  Sb4  1  0.25000000  0.75000000  0.50000000  1
  Sb  Sb5  1  0.76603816  0.67478964  0.16189270  1
  Sb  Sb6  1  0.87258971  0.75753614  0.37557483  1
  P  P7  1  0.38745389  0.90153048  0.41435576  1
  P  P8  1  0.21286710  0.52130393  0.02182210  1
  P  P9  1  0.31244229  0.65123010  0.13351293  1
  Li  Li10  1  0.63444739  0.06401234  0.56712674  1
  Li  Li11  1  0.64110880  0.89811654  0.25506942  1
