# generated using pymatgen
data_Li2TiP3O2
_symmetry_space_group_name_H-M   'P 1'
_cell_length_a   7.90286937
_cell_length_b   7.75199368
_cell_length_c   7.08802059
_cell_angle_alpha   90.32346609
_cell_angle_beta   91.14690515
_cell_angle_gamma   90.10688842
_symmetry_Int_Tables_number   1
_chemical_formula_structural   Li2TiP3O2
_chemical_formula_sum   'Li2 Ti1 P3 O2'
_cell_volume   434.13859657
_cell_formula_units_Z   1
loop_
 _symmetry_equiv_pos_site_id
 _symmetry_equiv_pos_as_xyz
  1  'x, y, z'
loop_
 _atom_site_type_symbol
 _atom_site_label
 _atom_site_symmetry_multiplicity
 _atom_site_fract_x
 _atom_site_fract_y
 _atom_site_fract_z
 _atom_site_occupancy
  P  P0  1  0.12500000  0.12500000  0.12500000  1
  P  P1  1  0.50000000  0.50000000  0.50000000  1
  P  P2  1  0.25000000  0.25000000  0.25000000  1
  Li  Li3  1  0.75000000  0.75000000  0.75000000  1
  Li  Li4  1  0.91174821  0.05228576  0.18803494  1
  Ti  Ti5  1  0.82869340  0.89161344  0.12248607  1
  O  O6  1  0.45793453  0.02496066  0.92764793  1
  O  O7  1  0.98432129  0.19690597  0.63198911  1
