# generated using pymatgen
data_LiMn2(Sb2P)2
_symmetry_space_group_name_H-M   'P 1'
_cell_length_a   6.28238559
_cell_length_b   6.52552364
_cell_length_c   7.05206515
_cell_angle_alpha   94.96754908
_cell_angle_beta   93.04826556
_cell_angle_gamma   94.63802686
_symmetry_Int_Tables_number   1
_chemical_formula_structural   LiMn2(Sb2P)2
_chemical_formula_sum   'Li1 Mn2 Sb4 P2'
_cell_volume   286.54871214
_cell_formula_units_Z   1
loop_
 _symmetry_equiv_pos_site_id
 _symmetry_equiv_pos_as_xyz
  1  'x, y, z'
loop_
 _atom_site_type_symbol
 _atom_site_label
 _atom_site_symmetry_multiplicity
 _atom_site_fract_x
 _atom_site_fract_y
 _atom_site_fract_z
 _atom_site_occupancy
  Mn  Mn0  1  0.00000000  0.00000000  0.00000000  1
  Mn  Mn1  1  0.33300000  0.66700000  0.25000000  1
  Sb  Sb2  1  0.66700000  0.33300000  0.50000000  1
  Sb  Sb3  1  0.00000000  0.00000000  0.75000000  1
  Sb  Sb4  1  0.08148566  0.90742558  0.56519383  1
  Sb  Sb5  1  0.42854262  0.30056048  0.91959979  1
  P  P6  1  0.07854464  0.73316574  0.39246366  1
  P  P7  1  0.62646956  0.62141617  0.43241145  1
  Li  Li8  1  0.30000638  0.19431275  0.68343076  1
