# generated using pymatgen
data_Li2MnSb4P3
_symmetry_space_group_name_H-M   'P 1'
_cell_length_a   5.66249087
_cell_length_b   6.07618326
_cell_length_c   6.79098201
_cell_angle_alpha   97.61531660
_cell_angle_beta   92.39987536
_cell_angle_gamma   97.74508229
_symmetry_Int_Tables_number   1
_chemical_formula_structural   Li2MnSb4P3
_chemical_formula_sum   'Li2 Mn1 Sb4 P3'
_cell_volume   229.05448321
_cell_formula_units_Z   1
loop_
 _symmetry_equiv_pos_site_id
 _symmetry_equiv_pos_as_xyz
  1  'x, y, z'
loop_
 _atom_site_type_symbol
 _atom_site_label
 _atom_site_symmetry_multiplicity
 _atom_site_fract_x
 _atom_site_fract_y
 _atom_site_fract_z
 _atom_site_occupancy
  Mn  Mn0  1  0.12500000  0.00000000  0.25000000  1
  Sb  Sb1  1  0.00000000  0.00000000  0.00000000  1
  Sb  Sb2  1  0.37500000  0.00000000  0.25000000  1
  Sb  Sb3  1  0.25000000  0.25000000  0.25000000  1
  Sb  Sb4  1  0.00000000  0.25000000  0.12500000  1
  P  P5  1  0.26604899  0.88204833  0.53228083  1
  P  P6  1  0.98201747  0.24903130  0.64763960  1
  P  P7  1  0.25692018  0.11924832  0.00005245  1
  Li  Li8  1  0.66516466  0.94056602  0.94175045  1
  Li  Li9  1  0.99991934  0.16502250  0.12835893  1
