# generated using pymatgen
data_Li2La5Si3P2S3
_symmetry_space_group_name_H-M   'P 1'
_cell_length_a   6.96333432
_cell_length_b   6.94251196
_cell_length_c   7.48317585
_cell_angle_alpha   91.68254071
_cell_angle_beta   93.15883398
_cell_angle_gamma   94.95385424
_symmetry_Int_Tables_number   1
_chemical_formula_structural   Li2La5Si3P2S3
_chemical_formula_sum   'Li2 La5 Si3 P2 S3'
_cell_volume   359.64873205
_cell_formula_units_Z   1
loop_
 _symmetry_equiv_pos_site_id
 _symmetry_equiv_pos_as_xyz
  1  'x, y, z'
loop_
 _atom_site_type_symbol
 _atom_site_label
 _atom_site_symmetry_multiplicity
 _atom_site_fract_x
 _atom_site_fract_y
 _atom_site_fract_z
 _atom_site_occupancy
  Si  Si0  1  0.00000000  0.00000000  0.00000000  1
  Si  Si1  1  0.50000000  0.50000000  0.50000000  1
  Si  Si2  1  0.50000000  0.50000000  0.00000000  1
  S  S3  1  0.50000000  0.00000000  0.50000000  1
  S  S4  1  0.00000000  0.50000000  0.50000000  1
  S  S5  1  0.71420259  0.64547391  0.21316917  1
  La  La6  1  0.23740282  0.45215190  0.24217410  1
  La  La7  1  0.71699255  0.84003552  0.88940068  1
  La  La8  1  0.64367589  0.53153371  0.06367050  1
  La  La9  1  0.35956544  0.56074480  0.09389677  1
  La  La10  1  0.72022882  0.80365535  0.08801154  1
  P  P11  1  0.83404631  0.68121879  0.11463085  1
  P  P12  1  0.02710594  0.67822182  0.24784703  1
  Li  Li13  1  0.52233398  0.65194965  0.79545178  1
  Li  Li14  1  0.10742519  0.15677388  0.98566459  1
