# generated using pymatgen
data_Li2TiCu2(SeO)2
_symmetry_space_group_name_H-M   'P 1'
_cell_length_a   6.76608630
_cell_length_b   6.84819169
_cell_length_c   6.84856393
_cell_angle_alpha   95.86605621
_cell_angle_beta   98.26203191
_cell_angle_gamma   97.53570936
_symmetry_Int_Tables_number   1
_chemical_formula_structural   Li2TiCu2(SeO)2
_chemical_formula_sum   'Li2 Ti1 Cu2 Se2 O2'
_cell_volume   308.94674796
_cell_formula_units_Z   1
loop_
 _symmetry_equiv_pos_site_id
 _symmetry_equiv_pos_as_xyz
  1  'x, y, z'
loop_
 _atom_site_type_symbol
 _atom_site_label
 _atom_site_symmetry_multiplicity
 _atom_site_fract_x
 _atom_site_fract_y
 _atom_site_fract_z
 _atom_site_occupancy
  Li  Li0  1  0.00000000  0.00000000  0.00000000  1
  Li  Li1  1  0.50000000  0.50000000  0.50000000  1
  Cu  Cu2  1  0.25000000  0.25000000  0.25000000  1
  Cu  Cu3  1  0.75000000  0.25000000  0.00000000  1
  Se  Se4  1  0.25000000  0.75000000  0.50000000  1
  Se  Se5  1  0.72330828  0.00958220  0.43454585  1
  Ti  Ti6  1  0.03258651  0.63509570  0.94603662  1
  O  O7  1  0.87995123  0.32292247  0.25336579  1
  O  O8  1  0.25063899  0.07133718  0.38012146  1
