# generated using pymatgen
data_LiMn3Sb4Mo2P3
_symmetry_space_group_name_H-M   'P 1'
_cell_length_a   5.32162333
_cell_length_b   5.70742218
_cell_length_c   6.84608240
_cell_angle_alpha   96.03622161
_cell_angle_beta   94.97693305
_cell_angle_gamma   96.64447804
_symmetry_Int_Tables_number   1
_chemical_formula_structural   LiMn3Sb4Mo2P3
_chemical_formula_sum   'Li1 Mn3 Sb4 Mo2 P3'
_cell_volume   204.36001929
_cell_formula_units_Z   1
loop_
 _symmetry_equiv_pos_site_id
 _symmetry_equiv_pos_as_xyz
  1  'x, y, z'
loop_
 _atom_site_type_symbol
 _atom_site_label
 _atom_site_symmetry_multiplicity
 _atom_site_fract_x
 _atom_site_fract_y
 _atom_site_fract_z
 _atom_site_occupancy
  Mn  Mn0  1  0.00000000  0.00000000  0.00000000  1
  Mn  Mn1  1  0.50000000  0.50000000  0.50000000  1
  Mn  Mn2  1  0.50000000  0.50000000  0.00000000  1
  Sb  Sb3  1  0.50000000  0.00000000  0.50000000  1
  Sb  Sb4  1  0.00000000  0.50000000  0.50000000  1
  Sb  Sb5  1  0.24836051  0.69929051  0.24618277  1
  Sb  Sb6  1  0.76578504  0.61115897  0.48463993  1
  P  P7  1  0.33918917  0.79527581  0.27771988  1
  P  P8  1  0.95047563  0.95323734  0.41577859  1
  P  P9  1  0.07561107  0.07561424  0.90135148  1
  Mo  Mo10  1  0.16663421  0.76381886  0.61467934  1
  Mo  Mo11  1  0.64818439  0.21283284  0.84283764  1
  Li  Li12  1  0.31244310  0.26579542  0.77028831  1
