# generated using pymatgen
data_Li2Ti(PI)4
_symmetry_space_group_name_H-M   'P 1'
_cell_length_a   7.36320034
_cell_length_b   7.25767695
_cell_length_c   7.53197858
_cell_angle_alpha   91.15615287
_cell_angle_beta   91.33983924
_cell_angle_gamma   90.83507793
_symmetry_Int_Tables_number   1
_chemical_formula_structural   Li2Ti(PI)4
_chemical_formula_sum   'Li2 Ti1 P4 I4'
_cell_volume   402.26934252
_cell_formula_units_Z   1
loop_
 _symmetry_equiv_pos_site_id
 _symmetry_equiv_pos_as_xyz
  1  'x, y, z'
loop_
 _atom_site_type_symbol
 _atom_site_label
 _atom_site_symmetry_multiplicity
 _atom_site_fract_x
 _atom_site_fract_y
 _atom_site_fract_z
 _atom_site_occupancy
  I  I0  1  0.00000000  0.00000000  0.00000000  1
  I  I1  1  0.50000000  0.50000000  0.50000000  1
  I  I2  1  0.50000000  0.50000000  0.00000000  1
  I  I3  1  0.50000000  0.00000000  0.50000000  1
  P  P4  1  0.00000000  0.50000000  0.50000000  1
  P  P5  1  0.31560625  0.29388488  0.96766375  1
  P  P6  1  0.69605585  0.87833397  0.16227023  1
  P  P7  1  0.92907046  0.57260205  0.10281073  1
  Li  Li8  1  0.46305067  0.57899257  0.72399319  1
  Li  Li9  1  0.92227386  0.78533803  0.34221095  1
  Ti  Ti10  1  0.82150532  0.98198435  0.12220767  1
