# generated using pymatgen
data_Li4LuNi2P4N5
_symmetry_space_group_name_H-M   'P 1'
_cell_length_a   7.43249497
_cell_length_b   7.05219556
_cell_length_c   8.86811598
_cell_angle_alpha   93.49759716
_cell_angle_beta   91.23654746
_cell_angle_gamma   94.05678930
_symmetry_Int_Tables_number   1
_chemical_formula_structural   Li4LuNi2P4N5
_chemical_formula_sum   'Li4 Lu1 Ni2 P4 N5'
_cell_volume   462.64105756
_cell_formula_units_Z   1
loop_
 _symmetry_equiv_pos_site_id
 _symmetry_equiv_pos_as_xyz
  1  'x, y, z'
loop_
 _atom_site_type_symbol
 _atom_site_label
 _atom_site_symmetry_multiplicity
 _atom_site_fract_x
 _atom_site_fract_y
 _atom_site_fract_z
 _atom_site_occupancy
  P  P0  1  0.00000000  0.00000000  0.00000000  1
  P  P1  1  0.50000000  0.50000000  0.50000000  1
  P  P2  1  0.50000000  0.50000000  0.00000000  1
  P  P3  1  0.50000000  0.00000000  0.50000000  1
  Lu  Lu4  1  0.00000000  0.50000000  0.50000000  1
  Li  Li5  1  0.31969764  0.04803105  0.88228117  1
  Li  Li6  1  0.36399222  0.21709237  0.03891533  1
  Li  Li7  1  0.74080459  0.74713017  0.40975663  1
  Li  Li8  1  0.38484425  0.49452326  0.16915912  1
  Ni  Ni9  1  0.03031379  0.15804844  0.86713062  1
  Ni  Ni10  1  0.91971192  0.67835699  0.75391272  1
  N  N11  1  0.36718069  0.59469883  0.45676921  1
  N  N12  1  0.83630086  0.06218564  0.41074970  1
  N  N13  1  0.65218142  0.24917814  0.30211335  1
  N  N14  1  0.85450375  0.12660598  0.85823928  1
  N  N15  1  0.99590896  0.46040466  0.30562121  1
