# generated using pymatgen
data_Li2Mn(Sb2P)2
_symmetry_space_group_name_H-M   'P 1'
_cell_length_a   4.34809043
_cell_length_b   4.53747218
_cell_length_c   6.46308364
_cell_angle_alpha   101.67230834
_cell_angle_beta   98.78532935
_cell_angle_gamma   100.59613034
_symmetry_Int_Tables_number   1
_chemical_formula_structural   Li2Mn(Sb2P)2
_chemical_formula_sum   'Li2 Mn1 Sb4 P2'
_cell_volume   120.33303786
_cell_formula_units_Z   1
loop_
 _symmetry_equiv_pos_site_id
 _symmetry_equiv_pos_as_xyz
  1  'x, y, z'
loop_
 _atom_site_type_symbol
 _atom_site_label
 _atom_site_symmetry_multiplicity
 _atom_site_fract_x
 _atom_site_fract_y
 _atom_site_fract_z
 _atom_site_occupancy
  Mn  Mn0  1  0.12500000  0.12500000  0.12500000  1
  Sb  Sb1  1  0.50000000  0.50000000  0.50000000  1
  Sb  Sb2  1  0.25000000  0.25000000  0.25000000  1
  Sb  Sb3  1  0.75000000  0.75000000  0.75000000  1
  Sb  Sb4  1  0.31150681  0.39026897  0.25703941  1
  P  P5  1  0.46708057  0.99558995  0.51673659  1
  P  P6  1  0.47467699  0.06941422  0.97131126  1
  Li  Li7  1  0.23196640  0.97283174  0.38112151  1
  Li  Li8  1  0.18207450  0.24571004  0.02540566  1
