# generated using pymatgen
data_Li3TiCu2I4N5
_symmetry_space_group_name_H-M   'P 1'
_cell_length_a   6.99172633
_cell_length_b   6.97619688
_cell_length_c   7.55132760
_cell_angle_alpha   95.54351897
_cell_angle_beta   96.32745793
_cell_angle_gamma   96.98412338
_symmetry_Int_Tables_number   1
_chemical_formula_structural   Li3TiCu2I4N5
_chemical_formula_sum   'Li3 Ti1 Cu2 I4 N5'
_cell_volume   361.09499012
_cell_formula_units_Z   1
loop_
 _symmetry_equiv_pos_site_id
 _symmetry_equiv_pos_as_xyz
  1  'x, y, z'
loop_
 _atom_site_type_symbol
 _atom_site_label
 _atom_site_symmetry_multiplicity
 _atom_site_fract_x
 _atom_site_fract_y
 _atom_site_fract_z
 _atom_site_occupancy
  I  I0  1  0.00000000  0.00000000  0.00000000  1
  I  I1  1  0.50000000  0.50000000  0.50000000  1
  I  I2  1  0.50000000  0.50000000  0.00000000  1
  I  I3  1  0.50000000  0.00000000  0.50000000  1
  Li  Li4  1  0.00000000  0.50000000  0.50000000  1
  Li  Li5  1  0.02570622  0.92336270  0.98730127  1
  Li  Li6  1  0.20946251  0.95350798  0.78444602  1
  Cu  Cu7  1  0.89626058  0.53421724  0.84228592  1
  Cu  Cu8  1  0.64456366  0.50594108  0.58584327  1
  Ti  Ti9  1  0.15156125  0.23766358  0.27011128  1
  N  N10  1  0.88997908  0.54520162  0.10783450  1
  N  N11  1  0.85072455  0.90203061  0.52462286  1
  N  N12  1  0.80164921  0.64316774  0.38364425  1
  N  N13  1  0.48548264  0.57832631  0.62122305  1
  N  N14  1  0.49852701  0.73583321  0.91343461  1
