# generated using pymatgen
data_Li4Ti3(CuO)2
_symmetry_space_group_name_H-M   'P 1'
_cell_length_a   4.97861899
_cell_length_b   5.39419101
_cell_length_c   6.60461229
_cell_angle_alpha   102.16866511
_cell_angle_beta   106.48181781
_cell_angle_gamma   105.65996195
_symmetry_Int_Tables_number   1
_chemical_formula_structural   Li4Ti3(CuO)2
_chemical_formula_sum   'Li4 Ti3 Cu2 O2'
_cell_volume   155.63525212
_cell_formula_units_Z   1
loop_
 _symmetry_equiv_pos_site_id
 _symmetry_equiv_pos_as_xyz
  1  'x, y, z'
loop_
 _atom_site_type_symbol
 _atom_site_label
 _atom_site_symmetry_multiplicity
 _atom_site_fract_x
 _atom_site_fract_y
 _atom_site_fract_z
 _atom_site_occupancy
  Li  Li0  1  0.00000000  0.00000000  0.00000000  1
  Li  Li1  1  0.50000000  0.50000000  0.50000000  1
  Li  Li2  1  0.50000000  0.50000000  0.00000000  1
  Li  Li3  1  0.50000000  0.00000000  0.50000000  1
  Cu  Cu4  1  0.00000000  0.50000000  0.50000000  1
  Cu  Cu5  1  0.51443476  0.39807417  0.81858880  1
  Ti  Ti6  1  0.69226214  0.93119406  0.34505669  1
  Ti  Ti7  1  0.97842266  0.21718776  0.07575479  1
  Ti  Ti8  1  0.71608333  0.32605807  0.91985290  1
  O  O9  1  0.82075747  0.35552176  0.09579297  1
  O  O10  1  0.21943341  0.86781049  0.04966908  1
