# generated using pymatgen
data_Li2LuP3N5O2
_symmetry_space_group_name_H-M   'P 1'
_cell_length_a   7.73070292
_cell_length_b   7.40122849
_cell_length_c   8.30151874
_cell_angle_alpha   92.45200524
_cell_angle_beta   91.11248352
_cell_angle_gamma   92.84310288
_symmetry_Int_Tables_number   1
_chemical_formula_structural   Li2LuP3N5O2
_chemical_formula_sum   'Li2 Lu1 P3 N5 O2'
_cell_volume   473.85607082
_cell_formula_units_Z   1
loop_
 _symmetry_equiv_pos_site_id
 _symmetry_equiv_pos_as_xyz
  1  'x, y, z'
loop_
 _atom_site_type_symbol
 _atom_site_label
 _atom_site_symmetry_multiplicity
 _atom_site_fract_x
 _atom_site_fract_y
 _atom_site_fract_z
 _atom_site_occupancy
  P  P0  1  0.00000000  0.00000000  0.00000000  1
  P  P1  1  0.50000000  0.50000000  0.50000000  1
  P  P2  1  0.50000000  0.50000000  0.00000000  1
  Lu  Lu3  1  0.50000000  0.00000000  0.50000000  1
  Li  Li4  1  0.00000000  0.50000000  0.50000000  1
  Li  Li5  1  0.57242036  0.39019380  0.06805513  1
  O  O6  1  0.57213632  0.84292167  0.31992569  1
  O  O7  1  0.26803280  0.04609921  0.55586155  1
  N  N8  1  0.47032795  0.04002262  0.17974571  1
  N  N9  1  0.90875187  0.52659704  0.60187119  1
  N  N10  1  0.51930263  0.90025060  0.11556640  1
  N  N11  1  0.72789020  0.48332215  0.22514831  1
  N  N12  1  0.94072946  0.11411597  0.98879770  1
