# generated using pymatgen
data_Li3TiO4
_symmetry_space_group_name_H-M   'P 1'
_cell_length_a   7.00788391
_cell_length_b   6.76159899
_cell_length_c   7.60727951
_cell_angle_alpha   97.72468206
_cell_angle_beta   99.86264482
_cell_angle_gamma   97.26673111
_symmetry_Int_Tables_number   1
_chemical_formula_structural   Li3TiO4
_chemical_formula_sum   'Li3 Ti1 O4'
_cell_volume   347.76584533
_cell_formula_units_Z   1
loop_
 _symmetry_equiv_pos_site_id
 _symmetry_equiv_pos_as_xyz
  1  'x, y, z'
loop_
 _atom_site_type_symbol
 _atom_site_label
 _atom_site_symmetry_multiplicity
 _atom_site_fract_x
 _atom_site_fract_y
 _atom_site_fract_z
 _atom_site_occupancy
  O  O0  1  0.00000000  0.00000000  0.00000000  1
  O  O1  1  0.50000000  0.50000000  0.50000000  1
  O  O2  1  0.25000000  0.25000000  0.25000000  1
  O  O3  1  0.75000000  0.25000000  0.00000000  1
  Ti  Ti4  1  0.25000000  0.75000000  0.50000000  1
  Li  Li5  1  0.04253385  0.98938177  0.08026152  1
  Li  Li6  1  0.16595093  0.04877288  0.29372433  1
  Li  Li7  1  0.57712361  0.83768927  0.62700555  1
