# generated using pymatgen
data_Li3Ti2Cu2P7O2
_symmetry_space_group_name_H-M   'P 1'
_cell_length_a   7.30875831
_cell_length_b   7.25581107
_cell_length_c   7.69608937
_cell_angle_alpha   94.25639718
_cell_angle_beta   95.98613899
_cell_angle_gamma   94.98799854
_symmetry_Int_Tables_number   1
_chemical_formula_structural   Li3Ti2Cu2P7O2
_chemical_formula_sum   'Li3 Ti2 Cu2 P7 O2'
_cell_volume   402.93714881
_cell_formula_units_Z   1
loop_
 _symmetry_equiv_pos_site_id
 _symmetry_equiv_pos_as_xyz
  1  'x, y, z'
loop_
 _atom_site_type_symbol
 _atom_site_label
 _atom_site_symmetry_multiplicity
 _atom_site_fract_x
 _atom_site_fract_y
 _atom_site_fract_z
 _atom_site_occupancy
  P  P0  1  0.12500000  0.00000000  0.25000000  1
  P  P1  1  0.00000000  0.00000000  0.00000000  1
  P  P2  1  0.37500000  0.00000000  0.25000000  1
  P  P3  1  0.25000000  0.25000000  0.25000000  1
  P  P4  1  0.00000000  0.25000000  0.12500000  1
  P  P5  1  0.95912408  0.86911391  0.22017136  1
  P  P6  1  0.81653826  0.01926513  0.43657849  1
  Li  Li7  1  0.59891396  0.88080590  0.14978150  1
  Li  Li8  1  0.52693657  0.84079349  0.96359076  1
  Li  Li9  1  0.17929199  0.74258864  0.65718237  1
  Cu  Cu10  1  0.95625191  0.76071446  0.50634251  1
  Cu  Cu11  1  0.54972697  0.22938214  0.78636781  1
  Ti  Ti12  1  0.39836234  0.50760710  0.54170042  1
  Ti  Ti13  1  0.99482795  0.08875152  0.73161065  1
  O  O14  1  0.26925013  0.63367338  0.94502302  1
  O  O15  1  0.11541565  0.44160821  0.29341554  1
