# generated using pymatgen
data_LiMn3(SbP)4
_symmetry_space_group_name_H-M   'P 1'
_cell_length_a   7.18263808
_cell_length_b   7.78680655
_cell_length_c   7.28278276
_cell_angle_alpha   90.07474364
_cell_angle_beta   90.26460552
_cell_angle_gamma   90.20265562
_symmetry_Int_Tables_number   1
_chemical_formula_structural   LiMn3(SbP)4
_chemical_formula_sum   'Li1 Mn3 Sb4 P4'
_cell_volume   407.31743341
_cell_formula_units_Z   1
loop_
 _symmetry_equiv_pos_site_id
 _symmetry_equiv_pos_as_xyz
  1  'x, y, z'
loop_
 _atom_site_type_symbol
 _atom_site_label
 _atom_site_symmetry_multiplicity
 _atom_site_fract_x
 _atom_site_fract_y
 _atom_site_fract_z
 _atom_site_occupancy
  Mn  Mn0  1  0.00000000  0.00000000  0.00000000  1
  Mn  Mn1  1  0.50000000  0.50000000  0.50000000  1
  Mn  Mn2  1  0.50000000  0.50000000  0.00000000  1
  Sb  Sb3  1  0.50000000  0.00000000  0.50000000  1
  Sb  Sb4  1  0.00000000  0.50000000  0.50000000  1
  Sb  Sb5  1  0.72812142  0.21490972  0.15956527  1
  Sb  Sb6  1  0.79597514  0.95450917  0.57033202  1
  P  P7  1  0.52177720  0.65537115  0.48087445  1
  P  P8  1  0.45396426  0.86075047  0.29411718  1
  P  P9  1  0.20733568  0.55870745  0.59226836  1
  P  P10  1  0.19937101  0.91660400  0.12938406  1
  Li  Li11  1  0.53741734  0.20342338  0.66817081  1
