# generated using pymatgen
data_Li3P8O2F3
_symmetry_space_group_name_H-M   'P 1'
_cell_length_a   6.94180571
_cell_length_b   7.03077977
_cell_length_c   7.64507717
_cell_angle_alpha   95.41522891
_cell_angle_beta   97.18609874
_cell_angle_gamma   95.09087931
_symmetry_Int_Tables_number   1
_chemical_formula_structural   Li3P8O2F3
_chemical_formula_sum   'Li3 P8 O2 F3'
_cell_volume   366.63056578
_cell_formula_units_Z   1
loop_
 _symmetry_equiv_pos_site_id
 _symmetry_equiv_pos_as_xyz
  1  'x, y, z'
loop_
 _atom_site_type_symbol
 _atom_site_label
 _atom_site_symmetry_multiplicity
 _atom_site_fract_x
 _atom_site_fract_y
 _atom_site_fract_z
 _atom_site_occupancy
  P  P0  1  0.12500000  0.00000000  0.25000000  1
  P  P1  1  0.00000000  0.00000000  0.00000000  1
  P  P2  1  0.37500000  0.00000000  0.25000000  1
  P  P3  1  0.25000000  0.25000000  0.25000000  1
  P  P4  1  0.00000000  0.25000000  0.12500000  1
  P  P5  1  0.13438988  0.92777445  0.32695573  1
  P  P6  1  0.27835791  0.13011789  0.86705786  1
  P  P7  1  0.59014705  0.30705049  0.03514751  1
  Li  Li8  1  0.59021962  0.05761258  0.37856778  1
  Li  Li9  1  0.50518479  0.42195782  0.61290449  1
  Li  Li10  1  0.42256575  0.21755997  0.91322495  1
  F  F11  1  0.19422811  0.45728745  0.38485330  1
  F  F12  1  0.53424094  0.12311215  0.54847115  1
  F  F13  1  0.97452680  0.48422054  0.56947735  1
  O  O14  1  0.20864031  0.13844504  0.69832038  1
  O  O15  1  0.52457734  0.73339543  0.64931959  1
