# generated using pymatgen
data_LiTi2P6F2
_symmetry_space_group_name_H-M   'P 1'
_cell_length_a   7.36384797
_cell_length_b   7.17606872
_cell_length_c   7.68249567
_cell_angle_alpha   90.75851550
_cell_angle_beta   93.60878640
_cell_angle_gamma   90.86718576
_symmetry_Int_Tables_number   1
_chemical_formula_structural   LiTi2P6F2
_chemical_formula_sum   'Li1 Ti2 P6 F2'
_cell_volume   405.07742573
_cell_formula_units_Z   1
loop_
 _symmetry_equiv_pos_site_id
 _symmetry_equiv_pos_as_xyz
  1  'x, y, z'
loop_
 _atom_site_type_symbol
 _atom_site_label
 _atom_site_symmetry_multiplicity
 _atom_site_fract_x
 _atom_site_fract_y
 _atom_site_fract_z
 _atom_site_occupancy
  P  P0  1  0.12500000  0.00000000  0.25000000  1
  P  P1  1  0.00000000  0.00000000  0.00000000  1
  P  P2  1  0.37500000  0.00000000  0.25000000  1
  P  P3  1  0.25000000  0.25000000  0.25000000  1
  P  P4  1  0.00000000  0.25000000  0.12500000  1
  P  P5  1  0.83026281  0.12216728  0.85702404  1
  Li  Li6  1  0.24058104  0.17041515  0.73189457  1
  F  F7  1  0.08398465  0.86273249  0.48828988  1
  F  F8  1  0.19395968  0.34011895  0.15734474  1
  Ti  Ti9  1  0.64605037  0.17144224  0.60070909  1
  Ti  Ti10  1  0.98355314  0.35043683  0.65542327  1
