# generated using pymatgen
data_Li2TiCu2(As3I2)2
_symmetry_space_group_name_H-M   'P 1'
_cell_length_a   8.29551555
_cell_length_b   8.27388607
_cell_length_c   8.13488498
_cell_angle_alpha   90.15832178
_cell_angle_beta   90.75324694
_cell_angle_gamma   90.18100407
_symmetry_Int_Tables_number   1
_chemical_formula_structural   Li2TiCu2(As3I2)2
_chemical_formula_sum   'Li2 Ti1 Cu2 As6 I4'
_cell_volume   558.29395770
_cell_formula_units_Z   1
loop_
 _symmetry_equiv_pos_site_id
 _symmetry_equiv_pos_as_xyz
  1  'x, y, z'
loop_
 _atom_site_type_symbol
 _atom_site_label
 _atom_site_symmetry_multiplicity
 _atom_site_fract_x
 _atom_site_fract_y
 _atom_site_fract_z
 _atom_site_occupancy
  I  I0  1  0.12500000  0.00000000  0.25000000  1
  I  I1  1  0.00000000  0.00000000  0.00000000  1
  I  I2  1  0.37500000  0.00000000  0.25000000  1
  I  I3  1  0.25000000  0.25000000  0.25000000  1
  Li  Li4  1  0.00000000  0.25000000  0.12500000  1
  Li  Li5  1  0.21078069  0.00463489  0.38185230  1
  Cu  Cu6  1  0.82774846  0.74410838  0.02862274  1
  Cu  Cu7  1  0.73867004  0.47738830  0.42207888  1
  Ti  Ti8  1  0.98526231  0.80515016  0.61459417  1
  As  As9  1  0.17089640  0.23394336  0.94335225  1
  As  As10  1  0.78052578  0.98324801  0.29494463  1
  As  As11  1  0.01167883  0.10720673  0.74853049  1
  As  As12  1  0.00144026  0.94590285  0.29552821  1
  As  As13  1  0.29711425  0.78336732  0.54097021  1
  As  As14  1  0.09147549  0.16944424  0.98319926  1
