# generated using pymatgen
data_LiLuAs6P4F2
_symmetry_space_group_name_H-M   'P 1'
_cell_length_a   6.47194295
_cell_length_b   6.37995051
_cell_length_c   7.57723843
_cell_angle_alpha   91.71043699
_cell_angle_beta   95.22494911
_cell_angle_gamma   91.90644113
_symmetry_Int_Tables_number   1
_chemical_formula_structural   LiLuAs6P4F2
_chemical_formula_sum   'Li1 Lu1 As6 P4 F2'
_cell_volume   311.22686870
_cell_formula_units_Z   1
loop_
 _symmetry_equiv_pos_site_id
 _symmetry_equiv_pos_as_xyz
  1  'x, y, z'
loop_
 _atom_site_type_symbol
 _atom_site_label
 _atom_site_symmetry_multiplicity
 _atom_site_fract_x
 _atom_site_fract_y
 _atom_site_fract_z
 _atom_site_occupancy
  P  P0  1  0.12500000  0.00000000  0.25000000  1
  P  P1  1  0.00000000  0.00000000  0.00000000  1
  P  P2  1  0.37500000  0.00000000  0.25000000  1
  P  P3  1  0.25000000  0.25000000  0.25000000  1
  Lu  Lu4  1  0.00000000  0.25000000  0.12500000  1
  Li  Li5  1  0.90903396  0.35495222  0.26156504  1
  F  F6  1  0.19795865  0.68261412  0.41042307  1
  F  F7  1  0.03331379  0.56981581  0.67765129  1
  As  As8  1  0.57825513  0.77127258  0.34836855  1
  As  As9  1  0.56509710  0.12803108  0.18809646  1
  As  As10  1  0.18020859  0.97445360  0.24813028  1
  As  As11  1  0.50141908  0.31609568  0.33014098  1
  As  As12  1  0.16916374  0.13558102  0.98888408  1
  As  As13  1  0.88814474  0.14992065  0.59680682  1
