# generated using pymatgen
data_Li2P6O7F2
_symmetry_space_group_name_H-M   'P 1'
_cell_length_a   8.37320497
_cell_length_b   8.13014143
_cell_length_c   8.63536498
_cell_angle_alpha   90.10425258
_cell_angle_beta   90.49600211
_cell_angle_gamma   90.11918854
_symmetry_Int_Tables_number   1
_chemical_formula_structural   Li2P6O7F2
_chemical_formula_sum   'Li2 P6 O7 F2'
_cell_volume   587.83112079
_cell_formula_units_Z   1
loop_
 _symmetry_equiv_pos_site_id
 _symmetry_equiv_pos_as_xyz
  1  'x, y, z'
loop_
 _atom_site_type_symbol
 _atom_site_label
 _atom_site_symmetry_multiplicity
 _atom_site_fract_x
 _atom_site_fract_y
 _atom_site_fract_z
 _atom_site_occupancy
  P  P0  1  0.00000000  0.00000000  0.00000000  1
  P  P1  1  0.50000000  0.50000000  0.50000000  1
  P  P2  1  0.50000000  0.50000000  0.00000000  1
  P  P3  1  0.50000000  0.00000000  0.50000000  1
  P  P4  1  0.00000000  0.50000000  0.50000000  1
  P  P5  1  0.39334047  0.67397278  0.98052451  1
  Li  Li6  1  0.06145007  0.07474869  0.65681163  1
  Li  Li7  1  0.94767657  0.44616741  0.87125091  1
  F  F8  1  0.16426895  0.71181609  0.98447279  1
  F  F9  1  0.41859462  0.75134912  0.44255812  1
  O  O10  1  0.97466152  0.78346970  0.38070267  1
  O  O11  1  0.04108467  0.44706012  0.94858061  1
  O  O12  1  0.47124583  0.14776564  0.49304046  1
  O  O13  1  0.88819924  0.67086176  0.38049197  1
  O  O14  1  0.59758485  0.87930948  0.68445823  1
  O  O15  1  0.34155447  0.48757105  0.04746939  1
  O  O16  1  0.76545396  0.46166811  0.16195713  1
