# generated using pymatgen
data_LiAs3F
_symmetry_space_group_name_H-M   'P 1'
_cell_length_a   7.97817063
_cell_length_b   7.75674099
_cell_length_c   8.66652048
_cell_angle_alpha   91.12787482
_cell_angle_beta   90.96457135
_cell_angle_gamma   91.30606405
_symmetry_Int_Tables_number   1
_chemical_formula_structural   LiAs3F
_chemical_formula_sum   'Li2 As6 F2'
_cell_volume   536.00081963
_cell_formula_units_Z   2
loop_
 _symmetry_equiv_pos_site_id
 _symmetry_equiv_pos_as_xyz
  1  'x, y, z'
loop_
 _atom_site_type_symbol
 _atom_site_label
 _atom_site_symmetry_multiplicity
 _atom_site_fract_x
 _atom_site_fract_y
 _atom_site_fract_z
 _atom_site_occupancy
  Li  Li0  1  0.00000000  0.00000000  0.00000000  1
  Li  Li1  1  0.50000000  0.50000000  0.50000000  1
  F  F2  1  0.50000000  0.50000000  0.00000000  1
  F  F3  1  0.50000000  0.00000000  0.50000000  1
  As  As4  1  0.00000000  0.50000000  0.50000000  1
  As  As5  1  0.26977883  0.08889607  0.92039906  1
  As  As6  1  0.49070022  0.35114095  0.55247918  1
  As  As7  1  0.66507011  0.79321678  0.90671178  1
  As  As8  1  0.90837070  0.05006064  0.86093975  1
  As  As9  1  0.44080228  0.50144662  0.19508304  1
