# generated using pymatgen
data_Li2MnSb4Mo2P3
_symmetry_space_group_name_H-M   'P 1'
_cell_length_a   5.28460409
_cell_length_b   5.30239296
_cell_length_c   6.55497090
_cell_angle_alpha   100.77679682
_cell_angle_beta   91.73425638
_cell_angle_gamma   100.72898922
_symmetry_Int_Tables_number   1
_chemical_formula_structural   Li2MnSb4Mo2P3
_chemical_formula_sum   'Li2 Mn1 Sb4 Mo2 P3'
_cell_volume   176.87998873
_cell_formula_units_Z   1
loop_
 _symmetry_equiv_pos_site_id
 _symmetry_equiv_pos_as_xyz
  1  'x, y, z'
loop_
 _atom_site_type_symbol
 _atom_site_label
 _atom_site_symmetry_multiplicity
 _atom_site_fract_x
 _atom_site_fract_y
 _atom_site_fract_z
 _atom_site_occupancy
  Mn  Mn0  1  0.12500000  0.00000000  0.25000000  1
  Sb  Sb1  1  0.00000000  0.00000000  0.00000000  1
  Sb  Sb2  1  0.37500000  0.00000000  0.25000000  1
  Sb  Sb3  1  0.25000000  0.25000000  0.25000000  1
  Sb  Sb4  1  0.00000000  0.25000000  0.12500000  1
  P  P5  1  0.73128824  0.48297056  0.13673822  1
  P  P6  1  0.25334512  0.95386559  0.75107008  1
  P  P7  1  0.57271920  0.02005716  0.09582190  1
  Mo  Mo8  1  0.10267206  0.49839995  0.54266492  1
  Mo  Mo9  1  0.93096552  0.09232128  0.86851806  1
  Li  Li10  1  0.01832206  0.53506461  0.31593115  1
  Li  Li11  1  0.42734444  0.35860444  0.40777545  1
