# generated using pymatgen
data_LiTiP2S
_symmetry_space_group_name_H-M   'P 1'
_cell_length_a   6.83687708
_cell_length_b   6.42636968
_cell_length_c   7.22323359
_cell_angle_alpha   92.70226645
_cell_angle_beta   94.79619099
_cell_angle_gamma   92.55304452
_symmetry_Int_Tables_number   1
_chemical_formula_structural   LiTiP2S
_chemical_formula_sum   'Li2 Ti2 P4 S2'
_cell_volume   315.52422263
_cell_formula_units_Z   2
loop_
 _symmetry_equiv_pos_site_id
 _symmetry_equiv_pos_as_xyz
  1  'x, y, z'
loop_
 _atom_site_type_symbol
 _atom_site_label
 _atom_site_symmetry_multiplicity
 _atom_site_fract_x
 _atom_site_fract_y
 _atom_site_fract_z
 _atom_site_occupancy
  P  P0  1  0.12500000  0.12500000  0.12500000  1
  P  P1  1  0.50000000  0.50000000  0.50000000  1
  P  P2  1  0.25000000  0.25000000  0.25000000  1
  P  P3  1  0.75000000  0.75000000  0.75000000  1
  Li  Li4  1  0.58200875  0.62065933  0.42863069  1
  Li  Li5  1  0.36502073  0.16313656  0.66460245  1
  S  S6  1  0.33555240  0.17273783  0.88937455  1
  S  S7  1  0.40344520  0.97605002  0.72829042  1
  Ti  Ti8  1  0.25665828  0.91852818  0.62008195  1
  Ti  Ti9  1  0.64892676  0.46331379  0.98526793  1
