# generated using pymatgen
data_LiCuAs3P2
_symmetry_space_group_name_H-M   'P 1'
_cell_length_a   7.51489323
_cell_length_b   7.44977734
_cell_length_c   8.18828211
_cell_angle_alpha   91.25959889
_cell_angle_beta   91.79577392
_cell_angle_gamma   91.45588849
_symmetry_Int_Tables_number   1
_chemical_formula_structural   LiCuAs3P2
_chemical_formula_sum   'Li2 Cu2 As6 P4'
_cell_volume   457.92299823
_cell_formula_units_Z   2
loop_
 _symmetry_equiv_pos_site_id
 _symmetry_equiv_pos_as_xyz
  1  'x, y, z'
loop_
 _atom_site_type_symbol
 _atom_site_label
 _atom_site_symmetry_multiplicity
 _atom_site_fract_x
 _atom_site_fract_y
 _atom_site_fract_z
 _atom_site_occupancy
  P  P0  1  0.00000000  0.00000000  0.00000000  1
  P  P1  1  0.33300000  0.66700000  0.25000000  1
  P  P2  1  0.66700000  0.33300000  0.50000000  1
  P  P3  1  0.00000000  0.00000000  0.75000000  1
  As  As4  1  0.70887734  0.60872025  0.19569893  1
  As  As5  1  0.21985630  0.90524619  0.64719328  1
  As  As6  1  0.22270405  0.44008453  0.46946119  1
  As  As7  1  0.13330944  0.36445611  0.80557460  1
  As  As8  1  0.49144388  0.16563453  0.47671244  1
  As  As9  1  0.49026707  0.23120149  0.23951822  1
  Li  Li10  1  0.04318821  0.85017511  0.51252685  1
  Li  Li11  1  0.38304717  0.66658179  0.47313654  1
  Cu  Cu12  1  0.20787192  0.40841919  0.08595616  1
  Cu  Cu13  1  0.91120770  0.77959498  0.42465287  1
