# generated using pymatgen
data_LiMn2Sb4P3
_symmetry_space_group_name_H-M   'P 1'
_cell_length_a   5.55161299
_cell_length_b   5.97500701
_cell_length_c   6.98788825
_cell_angle_alpha   94.29658776
_cell_angle_beta   95.27797591
_cell_angle_gamma   95.01578746
_symmetry_Int_Tables_number   1
_chemical_formula_structural   LiMn2Sb4P3
_chemical_formula_sum   'Li1 Mn2 Sb4 P3'
_cell_volume   229.12251695
_cell_formula_units_Z   1
loop_
 _symmetry_equiv_pos_site_id
 _symmetry_equiv_pos_as_xyz
  1  'x, y, z'
loop_
 _atom_site_type_symbol
 _atom_site_label
 _atom_site_symmetry_multiplicity
 _atom_site_fract_x
 _atom_site_fract_y
 _atom_site_fract_z
 _atom_site_occupancy
  Mn  Mn0  1  0.12500000  0.12500000  0.12500000  1
  Mn  Mn1  1  0.50000000  0.50000000  0.50000000  1
  Sb  Sb2  1  0.25000000  0.25000000  0.25000000  1
  Sb  Sb3  1  0.75000000  0.75000000  0.75000000  1
  Sb  Sb4  1  0.37923511  0.49901993  0.48513312  1
  Sb  Sb5  1  0.34173598  0.78520363  0.76224511  1
  P  P6  1  0.99485351  0.58044809  0.30916395  1
  P  P7  1  0.85468052  0.32897498  0.52982577  1
  P  P8  1  0.20958741  0.10199694  0.00067770  1
  Li  Li9  1  0.25141677  0.39506593  0.16982279  1
