# generated using pymatgen
data_LiCuNiAs3P2
_symmetry_space_group_name_H-M   'P 1'
_cell_length_a   7.13740715
_cell_length_b   7.04191816
_cell_length_c   7.94780512
_cell_angle_alpha   91.60344053
_cell_angle_beta   91.71169575
_cell_angle_gamma   91.43183704
_symmetry_Int_Tables_number   1
_chemical_formula_structural   LiCuNiAs3P2
_chemical_formula_sum   'Li2 Cu2 Ni2 As6 P4'
_cell_volume   398.99700799
_cell_formula_units_Z   2
loop_
 _symmetry_equiv_pos_site_id
 _symmetry_equiv_pos_as_xyz
  1  'x, y, z'
loop_
 _atom_site_type_symbol
 _atom_site_label
 _atom_site_symmetry_multiplicity
 _atom_site_fract_x
 _atom_site_fract_y
 _atom_site_fract_z
 _atom_site_occupancy
  P  P0  1  0.00000000  0.00000000  0.00000000  1
  P  P1  1  0.50000000  0.50000000  0.50000000  1
  P  P2  1  0.25000000  0.25000000  0.25000000  1
  P  P3  1  0.75000000  0.25000000  0.00000000  1
  Li  Li4  1  0.25000000  0.75000000  0.50000000  1
  Li  Li5  1  0.19563726  0.16871075  0.43011580  1
  Cu  Cu6  1  0.63872644  0.77736106  0.40479989  1
  Cu  Cu7  1  0.40190865  0.12390016  0.46427497  1
  Ni  Ni8  1  0.82000364  0.88820376  0.91796981  1
  Ni  Ni9  1  0.84770219  0.50299372  0.62993998  1
  As  As10  1  0.31327089  0.60965036  0.02647068  1
  As  As11  1  0.29958160  0.71118462  0.79868314  1
  As  As12  1  0.41391825  0.25025137  0.60610420  1
  As  As13  1  0.34665871  0.85863865  0.01218017  1
  As  As14  1  0.20688353  0.39227172  0.10279934  1
  As  As15  1  0.85072660  0.24899824  0.86325737  1
