# generated using pymatgen
data_Li2Mn2Sb4P3
_symmetry_space_group_name_H-M   'P 1'
_cell_length_a   6.96380323
_cell_length_b   7.40355895
_cell_length_c   7.50801141
_cell_angle_alpha   91.85806627
_cell_angle_beta   92.20105118
_cell_angle_gamma   92.11470883
_symmetry_Int_Tables_number   1
_chemical_formula_structural   Li2Mn2Sb4P3
_chemical_formula_sum   'Li2 Mn2 Sb4 P3'
_cell_volume   386.31895250
_cell_formula_units_Z   1
loop_
 _symmetry_equiv_pos_site_id
 _symmetry_equiv_pos_as_xyz
  1  'x, y, z'
loop_
 _atom_site_type_symbol
 _atom_site_label
 _atom_site_symmetry_multiplicity
 _atom_site_fract_x
 _atom_site_fract_y
 _atom_site_fract_z
 _atom_site_occupancy
  Mn  Mn0  1  0.00000000  0.00000000  0.00000000  1
  Mn  Mn1  1  0.50000000  0.50000000  0.50000000  1
  Sb  Sb2  1  0.25000000  0.25000000  0.25000000  1
  Sb  Sb3  1  0.75000000  0.25000000  0.00000000  1
  Sb  Sb4  1  0.25000000  0.75000000  0.50000000  1
  Sb  Sb5  1  0.34633927  0.30542361  0.86845324  1
  P  P6  1  0.58286831  0.84764601  0.53399879  1
  P  P7  1  0.45373846  0.22438723  0.64647262  1
  P  P8  1  0.57133432  0.87659839  0.05337787  1
  Li  Li9  1  0.88149151  0.99363352  0.37637348  1
  Li  Li10  1  0.97603752  0.03227753  0.54997708  1
