# generated using pymatgen
data_LiSb4P3
_symmetry_space_group_name_H-M   'P 1'
_cell_length_a   4.84463007
_cell_length_b   4.72515549
_cell_length_c   5.89042197
_cell_angle_alpha   96.47196793
_cell_angle_beta   91.07826699
_cell_angle_gamma   95.96872948
_symmetry_Int_Tables_number   1
_chemical_formula_structural   LiSb4P3
_chemical_formula_sum   'Li1 Sb4 P3'
_cell_volume   133.19204841
_cell_formula_units_Z   1
loop_
 _symmetry_equiv_pos_site_id
 _symmetry_equiv_pos_as_xyz
  1  'x, y, z'
loop_
 _atom_site_type_symbol
 _atom_site_label
 _atom_site_symmetry_multiplicity
 _atom_site_fract_x
 _atom_site_fract_y
 _atom_site_fract_z
 _atom_site_occupancy
  Sb  Sb0  1  0.12500000  0.12500000  0.12500000  1
  Sb  Sb1  1  0.50000000  0.50000000  0.50000000  1
  Sb  Sb2  1  0.25000000  0.25000000  0.25000000  1
  Sb  Sb3  1  0.75000000  0.75000000  0.75000000  1
  P  P4  1  0.78727772  0.58937877  0.70120172  1
  P  P5  1  0.04728776  0.26667538  0.90831941  1
  P  P6  1  0.13611951  0.65279404  0.02300281  1
  Li  Li7  1  0.76465811  0.87116290  0.68889545  1
