# generated using pymatgen
data_Li2MnSb4Mo2P3
_symmetry_space_group_name_H-M   'P 1'
_cell_length_a   5.55012827
_cell_length_b   5.86536238
_cell_length_c   6.98183624
_cell_angle_alpha   97.04199520
_cell_angle_beta   94.34186807
_cell_angle_gamma   97.45760189
_symmetry_Int_Tables_number   1
_chemical_formula_structural   Li2MnSb4Mo2P3
_chemical_formula_sum   'Li2 Mn1 Sb4 Mo2 P3'
_cell_volume   222.68927246
_cell_formula_units_Z   1
loop_
 _symmetry_equiv_pos_site_id
 _symmetry_equiv_pos_as_xyz
  1  'x, y, z'
loop_
 _atom_site_type_symbol
 _atom_site_label
 _atom_site_symmetry_multiplicity
 _atom_site_fract_x
 _atom_site_fract_y
 _atom_site_fract_z
 _atom_site_occupancy
  Mn  Mn0  1  0.00000000  0.00000000  0.00000000  1
  Sb  Sb1  1  0.50000000  0.50000000  0.50000000  1
  Sb  Sb2  1  0.50000000  0.50000000  0.00000000  1
  Sb  Sb3  1  0.50000000  0.00000000  0.50000000  1
  Sb  Sb4  1  0.00000000  0.50000000  0.50000000  1
  P  P5  1  0.79514370  0.94419673  0.16991448  1
  P  P6  1  0.02898670  0.68608140  0.03348158  1
  P  P7  1  0.08854957  0.82890278  0.16481655  1
  Mo  Mo8  1  0.88546238  0.87965261  0.09248649  1
  Mo  Mo9  1  0.96354869  0.58037454  0.72724601  1
  Li  Li10  1  0.37737371  0.24149009  0.43108971  1
  Li  Li11  1  0.17462101  0.92221755  0.38170234  1
