# generated using pymatgen
data_Li2Mn2Sb4P2N
_symmetry_space_group_name_H-M   'P 1'
_cell_length_a   6.67806015
_cell_length_b   7.02012354
_cell_length_c   7.34206924
_cell_angle_alpha   93.38423220
_cell_angle_beta   93.58510953
_cell_angle_gamma   92.82457328
_symmetry_Int_Tables_number   1
_chemical_formula_structural   Li2Mn2Sb4P2N
_chemical_formula_sum   'Li2 Mn2 Sb4 P2 N1'
_cell_volume   342.44444843
_cell_formula_units_Z   1
loop_
 _symmetry_equiv_pos_site_id
 _symmetry_equiv_pos_as_xyz
  1  'x, y, z'
loop_
 _atom_site_type_symbol
 _atom_site_label
 _atom_site_symmetry_multiplicity
 _atom_site_fract_x
 _atom_site_fract_y
 _atom_site_fract_z
 _atom_site_occupancy
  N  N0  1  0.00000000  0.00000000  0.00000000  1
  Mn  Mn1  1  0.50000000  0.50000000  0.50000000  1
  Mn  Mn2  1  0.25000000  0.25000000  0.25000000  1
  Sb  Sb3  1  0.75000000  0.25000000  0.00000000  1
  Sb  Sb4  1  0.25000000  0.75000000  0.50000000  1
  Sb  Sb5  1  0.81334779  0.02644917  0.09207661  1
  Sb  Sb6  1  0.46406107  0.89233687  0.51488621  1
  P  P7  1  0.64638838  0.80347485  0.88986360  1
  P  P8  1  0.31966838  0.36677522  0.11960040  1
  Li  Li9  1  0.47982622  0.34391955  0.75675463  1
  Li  Li10  1  0.07843897  0.91885342  0.97121997  1
