# generated using pymatgen
data_Li3Lu(P3O)2
_symmetry_space_group_name_H-M   'P 1'
_cell_length_a   7.73627258
_cell_length_b   7.85141979
_cell_length_c   8.62837132
_cell_angle_alpha   91.39684647
_cell_angle_beta   90.89723523
_cell_angle_gamma   91.61865126
_symmetry_Int_Tables_number   1
_chemical_formula_structural   Li3Lu(P3O)2
_chemical_formula_sum   'Li3 Lu1 P6 O2'
_cell_volume   523.65862456
_cell_formula_units_Z   1
loop_
 _symmetry_equiv_pos_site_id
 _symmetry_equiv_pos_as_xyz
  1  'x, y, z'
loop_
 _atom_site_type_symbol
 _atom_site_label
 _atom_site_symmetry_multiplicity
 _atom_site_fract_x
 _atom_site_fract_y
 _atom_site_fract_z
 _atom_site_occupancy
  P  P0  1  0.12500000  0.00000000  0.25000000  1
  P  P1  1  0.00000000  0.00000000  0.00000000  1
  P  P2  1  0.37500000  0.00000000  0.25000000  1
  P  P3  1  0.25000000  0.25000000  0.25000000  1
  P  P4  1  0.00000000  0.25000000  0.12500000  1
  P  P5  1  0.54572525  0.10909448  0.65110006  1
  Lu  Lu6  1  0.02426520  0.95299606  0.11744330  1
  Li  Li7  1  0.76361403  0.98145049  0.70173862  1
  Li  Li8  1  0.35987432  0.38941690  0.95842202  1
  Li  Li9  1  0.97021446  0.95040005  0.64831586  1
  O  O10  1  0.44191964  0.75379179  0.43349241  1
  O  O11  1  0.47661471  0.83148731  0.87827384  1
