# generated using pymatgen
data_Li2LuCu2F3
_symmetry_space_group_name_H-M   'P 1'
_cell_length_a   7.57658647
_cell_length_b   7.43481873
_cell_length_c   8.65550174
_cell_angle_alpha   92.25034143
_cell_angle_beta   92.41392896
_cell_angle_gamma   92.38285219
_symmetry_Int_Tables_number   1
_chemical_formula_structural   Li2LuCu2F3
_chemical_formula_sum   'Li2 Lu1 Cu2 F3'
_cell_volume   486.30423725
_cell_formula_units_Z   1
loop_
 _symmetry_equiv_pos_site_id
 _symmetry_equiv_pos_as_xyz
  1  'x, y, z'
loop_
 _atom_site_type_symbol
 _atom_site_label
 _atom_site_symmetry_multiplicity
 _atom_site_fract_x
 _atom_site_fract_y
 _atom_site_fract_z
 _atom_site_occupancy
  Lu  Lu0  1  0.00000000  0.00000000  0.00000000  1
  Li  Li1  1  0.50000000  0.50000000  0.50000000  1
  Li  Li2  1  0.50000000  0.50000000  0.00000000  1
  Cu  Cu3  1  0.50000000  0.00000000  0.50000000  1
  Cu  Cu4  1  0.00000000  0.50000000  0.50000000  1
  F  F5  1  0.69744452  0.83775237  0.93350714  1
  F  F6  1  0.87437837  0.43891802  0.80074702  1
  F  F7  1  0.38989944  0.37181233  0.91778376  1
