# generated using pymatgen
data_Li2Mn2Sb4P3
_symmetry_space_group_name_H-M   'P 1'
_cell_length_a   4.76003132
_cell_length_b   5.03765361
_cell_length_c   6.36955998
_cell_angle_alpha   101.59867471
_cell_angle_beta   92.98614669
_cell_angle_gamma   101.70314480
_symmetry_Int_Tables_number   1
_chemical_formula_structural   Li2Mn2Sb4P3
_chemical_formula_sum   'Li2 Mn2 Sb4 P3'
_cell_volume   145.82050199
_cell_formula_units_Z   1
loop_
 _symmetry_equiv_pos_site_id
 _symmetry_equiv_pos_as_xyz
  1  'x, y, z'
loop_
 _atom_site_type_symbol
 _atom_site_label
 _atom_site_symmetry_multiplicity
 _atom_site_fract_x
 _atom_site_fract_y
 _atom_site_fract_z
 _atom_site_occupancy
  Mn  Mn0  1  0.00000000  0.00000000  0.00000000  1
  Mn  Mn1  1  0.50000000  0.50000000  0.50000000  1
  Sb  Sb2  1  0.25000000  0.25000000  0.25000000  1
  Sb  Sb3  1  0.75000000  0.25000000  0.00000000  1
  Sb  Sb4  1  0.25000000  0.75000000  0.50000000  1
  Sb  Sb5  1  0.78403190  0.03360096  0.49623300  1
  P  P6  1  0.64269041  0.71728986  0.05941348  1
  P  P7  1  0.39791435  0.50795648  0.95004115  1
  P  P8  1  0.09194379  0.42902569  0.82051919  1
  Li  Li9  1  0.25658378  0.71052903  0.75658360  1
  Li  Li10  1  0.04967327  0.47700442  0.90081430  1
