# generated using pymatgen
data_LiMn2(Sb2P)2
_symmetry_space_group_name_H-M   'P 1'
_cell_length_a   5.96163901
_cell_length_b   6.27068576
_cell_length_c   6.84506748
_cell_angle_alpha   96.91139884
_cell_angle_beta   93.47943076
_cell_angle_gamma   96.91902667
_symmetry_Int_Tables_number   1
_chemical_formula_structural   LiMn2(Sb2P)2
_chemical_formula_sum   'Li1 Mn2 Sb4 P2'
_cell_volume   251.44853815
_cell_formula_units_Z   1
loop_
 _symmetry_equiv_pos_site_id
 _symmetry_equiv_pos_as_xyz
  1  'x, y, z'
loop_
 _atom_site_type_symbol
 _atom_site_label
 _atom_site_symmetry_multiplicity
 _atom_site_fract_x
 _atom_site_fract_y
 _atom_site_fract_z
 _atom_site_occupancy
  Mn  Mn0  1  0.12500000  0.12500000  0.12500000  1
  Mn  Mn1  1  0.50000000  0.50000000  0.50000000  1
  Sb  Sb2  1  0.25000000  0.25000000  0.25000000  1
  Sb  Sb3  1  0.75000000  0.75000000  0.75000000  1
  Sb  Sb4  1  0.65822587  0.12422479  0.94028386  1
  Sb  Sb5  1  0.19966741  0.67107859  0.86325824  1
  P  P6  1  0.72181647  0.11509788  0.46257711  1
  P  P7  1  0.92121167  0.29088128  0.90416881  1
  Li  Li8  1  0.83418185  0.53426867  0.95468423  1
