# generated using pymatgen
data_Li2Mn4Sb4P3
_symmetry_space_group_name_H-M   'P 1'
_cell_length_a   5.26259592
_cell_length_b   5.64457157
_cell_length_c   6.80725801
_cell_angle_alpha   98.15029257
_cell_angle_beta   94.35896801
_cell_angle_gamma   98.53852602
_symmetry_Int_Tables_number   1
_chemical_formula_structural   Li2Mn4Sb4P3
_chemical_formula_sum   'Li2 Mn4 Sb4 P3'
_cell_volume   196.97399480
_cell_formula_units_Z   1
loop_
 _symmetry_equiv_pos_site_id
 _symmetry_equiv_pos_as_xyz
  1  'x, y, z'
loop_
 _atom_site_type_symbol
 _atom_site_label
 _atom_site_symmetry_multiplicity
 _atom_site_fract_x
 _atom_site_fract_y
 _atom_site_fract_z
 _atom_site_occupancy
  Mn  Mn0  1  0.12500000  0.12500000  0.12500000  1
  Mn  Mn1  1  0.50000000  0.50000000  0.50000000  1
  Mn  Mn2  1  0.25000000  0.25000000  0.25000000  1
  Mn  Mn3  1  0.75000000  0.75000000  0.75000000  1
  Sb  Sb4  1  0.41146233  0.35954742  0.53252761  1
  Sb  Sb5  1  0.29133531  0.05741616  0.10638346  1
  Sb  Sb6  1  0.48122734  0.04190624  0.65290070  1
  Sb  Sb7  1  0.00641598  0.12821141  0.78158035  1
  P  P8  1  0.91721244  0.34072484  0.06586623  1
  P  P9  1  0.50937987  0.99526385  0.64323636  1
  P  P10  1  0.74589470  0.18455053  0.65433052  1
  Li  Li11  1  0.44534637  0.51375559  0.58443856  1
  Li  Li12  1  0.07065022  0.51113044  0.46600934  1
