# generated using pymatgen
data_LiCuAs3P2F
_symmetry_space_group_name_H-M   'P 1'
_cell_length_a   7.10794020
_cell_length_b   7.07957845
_cell_length_c   7.68899272
_cell_angle_alpha   91.09473621
_cell_angle_beta   92.75358905
_cell_angle_gamma   90.82973446
_symmetry_Int_Tables_number   1
_chemical_formula_structural   LiCuAs3P2F
_chemical_formula_sum   'Li2 Cu2 As6 P4 F2'
_cell_volume   386.35627030
_cell_formula_units_Z   2
loop_
 _symmetry_equiv_pos_site_id
 _symmetry_equiv_pos_as_xyz
  1  'x, y, z'
loop_
 _atom_site_type_symbol
 _atom_site_label
 _atom_site_symmetry_multiplicity
 _atom_site_fract_x
 _atom_site_fract_y
 _atom_site_fract_z
 _atom_site_occupancy
  F  F0  1  0.00000000  0.00000000  0.00000000  1
  F  F1  1  0.50000000  0.50000000  0.50000000  1
  P  P2  1  0.25000000  0.25000000  0.25000000  1
  P  P3  1  0.75000000  0.25000000  0.00000000  1
  P  P4  1  0.25000000  0.75000000  0.50000000  1
  P  P5  1  0.18951696  0.37469125  0.13355314  1
  As  As6  1  0.66621188  0.77140806  0.56399313  1
  As  As7  1  0.94769894  0.24407630  0.20793238  1
  As  As8  1  0.10435638  0.02109152  0.45029085  1
  As  As9  1  0.45635291  0.01357766  0.21699377  1
  As  As10  1  0.20662350  0.52613838  0.05375007  1
  As  As11  1  0.10743118  0.70174731  0.17639380  1
  Li  Li12  1  0.36521341  0.33170253  0.64564743  1
  Li  Li13  1  0.51246429  0.69963516  0.05887761  1
  Cu  Cu14  1  0.39388983  0.46819971  0.41500644  1
  Cu  Cu15  1  0.87296677  0.44921911  0.37343097  1
