# generated using pymatgen
data_Li2Mn2Sb4P2N
_symmetry_space_group_name_H-M   'P 1'
_cell_length_a   5.89218590
_cell_length_b   6.06117900
_cell_length_c   7.00981018
_cell_angle_alpha   97.06332686
_cell_angle_beta   95.18743756
_cell_angle_gamma   96.84727472
_symmetry_Int_Tables_number   1
_chemical_formula_structural   Li2Mn2Sb4P2N
_chemical_formula_sum   'Li2 Mn2 Sb4 P2 N1'
_cell_volume   245.26698058
_cell_formula_units_Z   1
loop_
 _symmetry_equiv_pos_site_id
 _symmetry_equiv_pos_as_xyz
  1  'x, y, z'
loop_
 _atom_site_type_symbol
 _atom_site_label
 _atom_site_symmetry_multiplicity
 _atom_site_fract_x
 _atom_site_fract_y
 _atom_site_fract_z
 _atom_site_occupancy
  Mn  Mn0  1  0.12500000  0.00000000  0.25000000  1
  Mn  Mn1  1  0.00000000  0.00000000  0.00000000  1
  Sb  Sb2  1  0.37500000  0.00000000  0.25000000  1
  Sb  Sb3  1  0.25000000  0.25000000  0.25000000  1
  Sb  Sb4  1  0.00000000  0.25000000  0.12500000  1
  Sb  Sb5  1  0.85783357  0.28934615  0.56238076  1
  P  P6  1  0.51652020  0.62795508  0.68199978  1
  P  P7  1  0.64565622  0.28006719  0.12596632  1
  Li  Li8  1  0.28311162  0.45145017  0.55488962  1
  Li  Li9  1  0.70537552  0.54893233  0.43070016  1
  N  N10  1  0.42132860  0.64273587  0.11113566  1
