# generated using pymatgen
data_Li2Mn2Sb2P3
_symmetry_space_group_name_H-M   'P 1'
_cell_length_a   4.74870745
_cell_length_b   4.96620271
_cell_length_c   6.00196692
_cell_angle_alpha   102.31658754
_cell_angle_beta   90.66134990
_cell_angle_gamma   101.98611863
_symmetry_Int_Tables_number   1
_chemical_formula_structural   Li2Mn2Sb2P3
_chemical_formula_sum   'Li2 Mn2 Sb2 P3'
_cell_volume   135.04077510
_cell_formula_units_Z   1
loop_
 _symmetry_equiv_pos_site_id
 _symmetry_equiv_pos_as_xyz
  1  'x, y, z'
loop_
 _atom_site_type_symbol
 _atom_site_label
 _atom_site_symmetry_multiplicity
 _atom_site_fract_x
 _atom_site_fract_y
 _atom_site_fract_z
 _atom_site_occupancy
  Mn  Mn0  1  0.12500000  0.12500000  0.12500000  1
  Mn  Mn1  1  0.50000000  0.50000000  0.50000000  1
  Sb  Sb2  1  0.25000000  0.25000000  0.25000000  1
  Sb  Sb3  1  0.75000000  0.75000000  0.75000000  1
  P  P4  1  0.49005136  0.82385072  0.80904529  1
  P  P5  1  0.47658947  0.79244071  0.90814481  1
  P  P6  1  0.66171292  0.97005855  0.90335894  1
  Li  Li7  1  0.11495597  0.14025028  0.86226168  1
  Li  Li8  1  0.34971633  0.55864082  0.90098433  1
