# generated using pymatgen
data_LiMn2Sb4P3
_symmetry_space_group_name_H-M   'P 1'
_cell_length_a   4.89890688
_cell_length_b   5.18091274
_cell_length_c   6.34789861
_cell_angle_alpha   100.33678723
_cell_angle_beta   92.54111466
_cell_angle_gamma   100.46389002
_symmetry_Int_Tables_number   1
_chemical_formula_structural   LiMn2Sb4P3
_chemical_formula_sum   'Li1 Mn2 Sb4 P3'
_cell_volume   155.37046553
_cell_formula_units_Z   1
loop_
 _symmetry_equiv_pos_site_id
 _symmetry_equiv_pos_as_xyz
  1  'x, y, z'
loop_
 _atom_site_type_symbol
 _atom_site_label
 _atom_site_symmetry_multiplicity
 _atom_site_fract_x
 _atom_site_fract_y
 _atom_site_fract_z
 _atom_site_occupancy
  Mn  Mn0  1  0.00000000  0.00000000  0.00000000  1
  Mn  Mn1  1  0.33300000  0.66700000  0.25000000  1
  Sb  Sb2  1  0.66700000  0.33300000  0.50000000  1
  Sb  Sb3  1  0.00000000  0.00000000  0.75000000  1
  Sb  Sb4  1  0.86510767  0.48334106  0.76277206  1
  Sb  Sb5  1  0.30814019  0.80082865  0.48485187  1
  P  P6  1  0.48485157  0.83795733  0.10686730  1
  P  P7  1  0.78874916  0.91085781  0.31968179  1
  P  P8  1  0.52584300  0.70339628  0.99509888  1
  Li  Li9  1  0.94606677  0.33715621  0.12929230  1
