# generated using pymatgen
data_LiNi3(MoP)2
_symmetry_space_group_name_H-M   'P 1'
_cell_length_a   4.49248256
_cell_length_b   4.59965046
_cell_length_c   6.12474036
_cell_angle_alpha   99.00677116
_cell_angle_beta   95.25661924
_cell_angle_gamma   98.44850468
_symmetry_Int_Tables_number   1
_chemical_formula_structural   LiNi3(MoP)2
_chemical_formula_sum   'Li1 Ni3 Mo2 P2'
_cell_volume   122.78985451
_cell_formula_units_Z   1
loop_
 _symmetry_equiv_pos_site_id
 _symmetry_equiv_pos_as_xyz
  1  'x, y, z'
loop_
 _atom_site_type_symbol
 _atom_site_label
 _atom_site_symmetry_multiplicity
 _atom_site_fract_x
 _atom_site_fract_y
 _atom_site_fract_z
 _atom_site_occupancy
  P  P0  1  0.00000000  0.00000000  0.00000000  1
  P  P1  1  0.33300000  0.66700000  0.25000000  1
  Mo  Mo2  1  0.66700000  0.33300000  0.50000000  1
  Mo  Mo3  1  0.00000000  0.00000000  0.75000000  1
  Li  Li4  1  0.41056069  0.59375826  0.53377468  1
  Ni  Ni5  1  0.32402807  0.93261890  0.88061397  1
  Ni  Ni6  1  0.64326980  0.48380044  0.20700765  1
  Ni  Ni7  1  0.08328637  0.85069204  0.29078854  1
