# generated using pymatgen
data_Li2Mn(SbP)3
_symmetry_space_group_name_H-M   'P 1'
_cell_length_a   5.86914704
_cell_length_b   6.18058286
_cell_length_c   7.10316851
_cell_angle_alpha   94.92903408
_cell_angle_beta   94.31003825
_cell_angle_gamma   95.33538303
_symmetry_Int_Tables_number   1
_chemical_formula_structural   Li2Mn(SbP)3
_chemical_formula_sum   'Li2 Mn1 Sb3 P3'
_cell_volume   254.70119852
_cell_formula_units_Z   1
loop_
 _symmetry_equiv_pos_site_id
 _symmetry_equiv_pos_as_xyz
  1  'x, y, z'
loop_
 _atom_site_type_symbol
 _atom_site_label
 _atom_site_symmetry_multiplicity
 _atom_site_fract_x
 _atom_site_fract_y
 _atom_site_fract_z
 _atom_site_occupancy
  Mn  Mn0  1  0.00000000  0.00000000  0.00000000  1
  Sb  Sb1  1  0.50000000  0.50000000  0.50000000  1
  Sb  Sb2  1  0.50000000  0.50000000  0.00000000  1
  Sb  Sb3  1  0.50000000  0.00000000  0.50000000  1
  P  P4  1  0.00000000  0.50000000  0.50000000  1
  P  P5  1  0.32543954  0.13281408  0.19880806  1
  P  P6  1  0.68143619  0.62394669  0.26514006  1
  Li  Li7  1  0.66098748  0.35597705  0.81597191  1
  Li  Li8  1  0.93287086  0.81678632  0.06528681  1
