# generated using pymatgen
data_LiMn2Sb4P3N
_symmetry_space_group_name_H-M   'P 1'
_cell_length_a   5.37780221
_cell_length_b   5.54267692
_cell_length_c   6.26886848
_cell_angle_alpha   98.07974266
_cell_angle_beta   93.56895420
_cell_angle_gamma   97.46483944
_symmetry_Int_Tables_number   1
_chemical_formula_structural   LiMn2Sb4P3N
_chemical_formula_sum   'Li1 Mn2 Sb4 P3 N1'
_cell_volume   182.81804213
_cell_formula_units_Z   1
loop_
 _symmetry_equiv_pos_site_id
 _symmetry_equiv_pos_as_xyz
  1  'x, y, z'
loop_
 _atom_site_type_symbol
 _atom_site_label
 _atom_site_symmetry_multiplicity
 _atom_site_fract_x
 _atom_site_fract_y
 _atom_site_fract_z
 _atom_site_occupancy
  N  N0  1  0.12500000  0.00000000  0.25000000  1
  Mn  Mn1  1  0.00000000  0.00000000  0.00000000  1
  Mn  Mn2  1  0.37500000  0.00000000  0.25000000  1
  Sb  Sb3  1  0.25000000  0.25000000  0.25000000  1
  Sb  Sb4  1  0.00000000  0.25000000  0.12500000  1
  Sb  Sb5  1  0.74487167  0.07058349  0.27822925  1
  Sb  Sb6  1  0.89387665  0.38841077  0.21621184  1
  P  P7  1  0.45128780  0.61256076  0.75842909  1
  P  P8  1  0.84979662  0.45766918  0.02705018  1
  P  P9  1  0.60551715  0.01701317  0.65770434  1
  Li  Li10  1  0.90621447  0.01944361  0.74134474  1
