# generated using pymatgen
data_LiMnSb4(MoP)2
_symmetry_space_group_name_H-M   'P 1'
_cell_length_a   5.35297276
_cell_length_b   5.71995735
_cell_length_c   6.49052311
_cell_angle_alpha   95.33614263
_cell_angle_beta   94.06607804
_cell_angle_gamma   95.20696405
_symmetry_Int_Tables_number   1
_chemical_formula_structural   LiMnSb4(MoP)2
_chemical_formula_sum   'Li1 Mn1 Sb4 Mo2 P2'
_cell_volume   196.42213642
_cell_formula_units_Z   1
loop_
 _symmetry_equiv_pos_site_id
 _symmetry_equiv_pos_as_xyz
  1  'x, y, z'
loop_
 _atom_site_type_symbol
 _atom_site_label
 _atom_site_symmetry_multiplicity
 _atom_site_fract_x
 _atom_site_fract_y
 _atom_site_fract_z
 _atom_site_occupancy
  Mn  Mn0  1  0.12500000  0.00000000  0.25000000  1
  Sb  Sb1  1  0.00000000  0.00000000  0.00000000  1
  Sb  Sb2  1  0.37500000  0.00000000  0.25000000  1
  Sb  Sb3  1  0.25000000  0.25000000  0.25000000  1
  Sb  Sb4  1  0.00000000  0.25000000  0.12500000  1
  P  P5  1  0.49462327  0.67442703  0.44257455  1
  P  P6  1  0.59579736  0.11169446  0.79510438  1
  Mo  Mo7  1  0.13434435  0.66446095  0.72854531  1
  Mo  Mo8  1  0.35052313  0.15864572  0.85878312  1
  Li  Li9  1  0.43074282  0.84625737  0.03182871  1
