# generated using pymatgen
data_Li2Mn2Sb4P3
_symmetry_space_group_name_H-M   'P 1'
_cell_length_a   5.47717119
_cell_length_b   5.66467344
_cell_length_c   6.89357815
_cell_angle_alpha   98.07412367
_cell_angle_beta   93.77762794
_cell_angle_gamma   98.38344251
_symmetry_Int_Tables_number   1
_chemical_formula_structural   Li2Mn2Sb4P3
_chemical_formula_sum   'Li2 Mn2 Sb4 P3'
_cell_volume   208.68396143
_cell_formula_units_Z   1
loop_
 _symmetry_equiv_pos_site_id
 _symmetry_equiv_pos_as_xyz
  1  'x, y, z'
loop_
 _atom_site_type_symbol
 _atom_site_label
 _atom_site_symmetry_multiplicity
 _atom_site_fract_x
 _atom_site_fract_y
 _atom_site_fract_z
 _atom_site_occupancy
  Mn  Mn0  1  0.00000000  0.00000000  0.00000000  1
  Mn  Mn1  1  0.50000000  0.50000000  0.50000000  1
  Sb  Sb2  1  0.25000000  0.25000000  0.25000000  1
  Sb  Sb3  1  0.75000000  0.25000000  0.00000000  1
  Sb  Sb4  1  0.25000000  0.75000000  0.50000000  1
  Sb  Sb5  1  0.99882675  0.22702590  0.47973575  1
  P  P6  1  0.04134037  0.70328621  0.99490931  1
  P  P7  1  0.86946127  0.60373535  0.01079263  1
  P  P8  1  0.33213040  0.38385776  0.36217281  1
  Li  Li9  1  0.99910989  0.39855315  0.92555100  1
  Li  Li10  1  0.81179044  0.90672742  0.65899274  1
