# generated using pymatgen
data_LiMn2Sb4Mo2P3
_symmetry_space_group_name_H-M   'P 1'
_cell_length_a   5.84916245
_cell_length_b   5.92346755
_cell_length_c   6.92328173
_cell_angle_alpha   95.91003338
_cell_angle_beta   93.89260664
_cell_angle_gamma   96.25470245
_symmetry_Int_Tables_number   1
_chemical_formula_structural   LiMn2Sb4Mo2P3
_chemical_formula_sum   'Li1 Mn2 Sb4 Mo2 P3'
_cell_volume   236.41767681
_cell_formula_units_Z   1
loop_
 _symmetry_equiv_pos_site_id
 _symmetry_equiv_pos_as_xyz
  1  'x, y, z'
loop_
 _atom_site_type_symbol
 _atom_site_label
 _atom_site_symmetry_multiplicity
 _atom_site_fract_x
 _atom_site_fract_y
 _atom_site_fract_z
 _atom_site_occupancy
  Mn  Mn0  1  0.00000000  0.00000000  0.00000000  1
  Mn  Mn1  1  0.50000000  0.50000000  0.50000000  1
  Sb  Sb2  1  0.50000000  0.50000000  0.00000000  1
  Sb  Sb3  1  0.50000000  0.00000000  0.50000000  1
  Sb  Sb4  1  0.00000000  0.50000000  0.50000000  1
  Sb  Sb5  1  0.78982879  0.25472104  0.52143981  1
  P  P6  1  0.01414583  0.49077457  0.51631617  1
  P  P7  1  0.24494830  0.18796911  0.13407800  1
  P  P8  1  0.29092375  0.99066660  0.18114512  1
  Mo  Mo9  1  0.42559962  0.35768751  0.66973008  1
  Mo  Mo10  1  0.14650363  0.65250527  0.91286554  1
  Li  Li11  1  0.97787223  0.73391313  0.65144463  1
