# generated using pymatgen
data_Li2LuCu2P4O
_symmetry_space_group_name_H-M   'P 1'
_cell_length_a   7.58308693
_cell_length_b   7.41442072
_cell_length_c   7.71626572
_cell_angle_alpha   91.07212213
_cell_angle_beta   91.57444954
_cell_angle_gamma   91.23902295
_symmetry_Int_Tables_number   1
_chemical_formula_structural   Li2LuCu2P4O
_chemical_formula_sum   'Li2 Lu1 Cu2 P4 O1'
_cell_volume   433.49475474
_cell_formula_units_Z   1
loop_
 _symmetry_equiv_pos_site_id
 _symmetry_equiv_pos_as_xyz
  1  'x, y, z'
loop_
 _atom_site_type_symbol
 _atom_site_label
 _atom_site_symmetry_multiplicity
 _atom_site_fract_x
 _atom_site_fract_y
 _atom_site_fract_z
 _atom_site_occupancy
  P  P0  1  0.12500000  0.00000000  0.25000000  1
  P  P1  1  0.00000000  0.00000000  0.00000000  1
  P  P2  1  0.37500000  0.00000000  0.25000000  1
  P  P3  1  0.25000000  0.25000000  0.25000000  1
  Lu  Lu4  1  0.00000000  0.25000000  0.12500000  1
  Li  Li5  1  0.03755061  0.81700222  0.88636917  1
  Li  Li6  1  0.87916320  0.61361082  0.30610540  1
  Cu  Cu7  1  0.21035494  0.63546762  0.01112127  1
  Cu  Cu8  1  0.53010358  0.78608055  0.63525925  1
  O  O9  1  0.19846378  0.79085931  0.96448392  1
