# generated using pymatgen
data_Li2Mn2Sb4Mo2P3
_symmetry_space_group_name_H-M   'P 1'
_cell_length_a   6.41335062
_cell_length_b   6.93398481
_cell_length_c   7.09706637
_cell_angle_alpha   94.57101237
_cell_angle_beta   91.53923178
_cell_angle_gamma   94.66265265
_symmetry_Int_Tables_number   1
_chemical_formula_structural   Li2Mn2Sb4Mo2P3
_chemical_formula_sum   'Li2 Mn2 Sb4 Mo2 P3'
_cell_volume   313.38548515
_cell_formula_units_Z   1
loop_
 _symmetry_equiv_pos_site_id
 _symmetry_equiv_pos_as_xyz
  1  'x, y, z'
loop_
 _atom_site_type_symbol
 _atom_site_label
 _atom_site_symmetry_multiplicity
 _atom_site_fract_x
 _atom_site_fract_y
 _atom_site_fract_z
 _atom_site_occupancy
  Mn  Mn0  1  0.00000000  0.00000000  0.00000000  1
  Mn  Mn1  1  0.50000000  0.50000000  0.50000000  1
  Sb  Sb2  1  0.50000000  0.50000000  0.00000000  1
  Sb  Sb3  1  0.50000000  0.00000000  0.50000000  1
  Sb  Sb4  1  0.00000000  0.50000000  0.50000000  1
  Sb  Sb5  1  0.98886119  0.44750524  0.79650361  1
  P  P6  1  0.01788635  0.48585027  0.02622721  1
  P  P7  1  0.86284762  0.36019219  0.51503837  1
  P  P8  1  0.01078240  0.24182265  0.74957497  1
  Mo  Mo9  1  0.75892373  0.66895756  0.36961842  1
  Mo  Mo10  1  0.00183108  0.57957992  0.60400540  1
  Li  Li11  1  0.11033739  0.32987475  0.39834161  1
  Li  Li12  1  0.51781275  0.10438512  0.87473028  1
