# generated using pymatgen
data_Li2MnSb4P3
_symmetry_space_group_name_H-M   'P 1'
_cell_length_a   3.66806999
_cell_length_b   3.91308467
_cell_length_c   6.79760284
_cell_angle_alpha   100.73517233
_cell_angle_beta   101.54654208
_cell_angle_gamma   102.05497672
_symmetry_Int_Tables_number   1
_chemical_formula_structural   Li2MnSb4P3
_chemical_formula_sum   'Li2 Mn1 Sb4 P3'
_cell_volume   90.79942389
_cell_formula_units_Z   1
loop_
 _symmetry_equiv_pos_site_id
 _symmetry_equiv_pos_as_xyz
  1  'x, y, z'
loop_
 _atom_site_type_symbol
 _atom_site_label
 _atom_site_symmetry_multiplicity
 _atom_site_fract_x
 _atom_site_fract_y
 _atom_site_fract_z
 _atom_site_occupancy
  Mn  Mn0  1  0.12500000  0.12500000  0.12500000  1
  Sb  Sb1  1  0.50000000  0.50000000  0.50000000  1
  Sb  Sb2  1  0.25000000  0.25000000  0.25000000  1
  Sb  Sb3  1  0.75000000  0.75000000  0.75000000  1
  Sb  Sb4  1  0.55984703  0.40982447  0.98137928  1
  P  P5  1  0.60427950  0.03651426  0.55142787  1
  P  P6  1  0.02103800  0.97932933  0.78400515  1
  P  P7  1  0.33585941  0.47951355  0.99018233  1
  Li  Li8  1  0.18074877  0.37268068  0.61642188  1
  Li  Li9  1  0.32007122  0.63957650  0.18317430  1
