# generated using pymatgen
data_Li2Sb4P3N
_symmetry_space_group_name_H-M   'P 1'
_cell_length_a   6.61675571
_cell_length_b   7.03830693
_cell_length_c   6.89590590
_cell_angle_alpha   94.14545153
_cell_angle_beta   91.50543764
_cell_angle_gamma   93.69043778
_symmetry_Int_Tables_number   1
_chemical_formula_structural   Li2Sb4P3N
_chemical_formula_sum   'Li2 Sb4 P3 N1'
_cell_volume   319.48883907
_cell_formula_units_Z   1
loop_
 _symmetry_equiv_pos_site_id
 _symmetry_equiv_pos_as_xyz
  1  'x, y, z'
loop_
 _atom_site_type_symbol
 _atom_site_label
 _atom_site_symmetry_multiplicity
 _atom_site_fract_x
 _atom_site_fract_y
 _atom_site_fract_z
 _atom_site_occupancy
  N  N0  1  0.12500000  0.12500000  0.12500000  1
  Sb  Sb1  1  0.50000000  0.50000000  0.50000000  1
  Sb  Sb2  1  0.25000000  0.25000000  0.25000000  1
  Sb  Sb3  1  0.75000000  0.75000000  0.75000000  1
  Sb  Sb4  1  0.62857212  0.90893107  0.00218006  1
  P  P5  1  0.33308785  0.67602169  0.34021240  1
  P  P6  1  0.06765730  0.44899793  0.50686610  1
  P  P7  1  0.99361061  0.68914454  0.58063346  1
  Li  Li8  1  0.69236638  0.48566001  0.80942579  1
  Li  Li9  1  0.19344054  0.38270681  0.82367730  1
