# generated using pymatgen
data_Li2Mn2Sb4Mo2P3
_symmetry_space_group_name_H-M   'P 1'
_cell_length_a   5.33614172
_cell_length_b   5.67675312
_cell_length_c   6.52913039
_cell_angle_alpha   99.73137086
_cell_angle_beta   91.73126902
_cell_angle_gamma   99.71121395
_symmetry_Int_Tables_number   1
_chemical_formula_structural   Li2Mn2Sb4Mo2P3
_chemical_formula_sum   'Li2 Mn2 Sb4 Mo2 P3'
_cell_volume   191.78963712
_cell_formula_units_Z   1
loop_
 _symmetry_equiv_pos_site_id
 _symmetry_equiv_pos_as_xyz
  1  'x, y, z'
loop_
 _atom_site_type_symbol
 _atom_site_label
 _atom_site_symmetry_multiplicity
 _atom_site_fract_x
 _atom_site_fract_y
 _atom_site_fract_z
 _atom_site_occupancy
  Mn  Mn0  1  0.00000000  0.00000000  0.00000000  1
  Mn  Mn1  1  0.50000000  0.50000000  0.50000000  1
  Sb  Sb2  1  0.25000000  0.25000000  0.25000000  1
  Sb  Sb3  1  0.75000000  0.25000000  0.00000000  1
  Sb  Sb4  1  0.25000000  0.75000000  0.50000000  1
  Sb  Sb5  1  0.89596234  0.34715885  0.53164958  1
  P  P6  1  0.83465357  0.44614074  0.25509903  1
  P  P7  1  0.42206281  0.30843280  0.30075493  1
  P  P8  1  0.82426702  0.28694228  0.01279200  1
  Mo  Mo9  1  0.31165895  0.88061384  0.46089040  1
  Mo  Mo10  1  0.28040950  0.72523531  0.27081566  1
  Li  Li11  1  0.76401707  0.91303864  0.21938603  1
  Li  Li12  1  0.50849405  0.41500546  0.41153960  1
