# generated using pymatgen
data_LiMn2Sb4P2N
_symmetry_space_group_name_H-M   'P 1'
_cell_length_a   6.15637892
_cell_length_b   6.63262991
_cell_length_c   6.85041715
_cell_angle_alpha   93.02196259
_cell_angle_beta   93.38414545
_cell_angle_gamma   92.49860743
_symmetry_Int_Tables_number   1
_chemical_formula_structural   LiMn2Sb4P2N
_chemical_formula_sum   'Li1 Mn2 Sb4 P2 N1'
_cell_volume   278.54063972
_cell_formula_units_Z   1
loop_
 _symmetry_equiv_pos_site_id
 _symmetry_equiv_pos_as_xyz
  1  'x, y, z'
loop_
 _atom_site_type_symbol
 _atom_site_label
 _atom_site_symmetry_multiplicity
 _atom_site_fract_x
 _atom_site_fract_y
 _atom_site_fract_z
 _atom_site_occupancy
  N  N0  1  0.00000000  0.00000000  0.00000000  1
  Mn  Mn1  1  0.50000000  0.50000000  0.50000000  1
  Mn  Mn2  1  0.25000000  0.25000000  0.25000000  1
  Sb  Sb3  1  0.75000000  0.25000000  0.00000000  1
  Sb  Sb4  1  0.25000000  0.75000000  0.50000000  1
  Sb  Sb5  1  0.59391096  0.84929103  0.39368300  1
  Sb  Sb6  1  0.03186919  0.16825280  0.42899433  1
  P  P7  1  0.01515114  0.20891079  0.73370799  1
  P  P8  1  0.78788771  0.60397748  0.63278798  1
  Li  Li9  1  0.98481037  0.83657610  0.74028199  1
