# generated using pymatgen
data_Li3Ti(IO)4
_symmetry_space_group_name_H-M   'P 1'
_cell_length_a   8.42738980
_cell_length_b   8.22689734
_cell_length_c   7.72388704
_cell_angle_alpha   91.08843275
_cell_angle_beta   90.38480668
_cell_angle_gamma   91.26245023
_symmetry_Int_Tables_number   1
_chemical_formula_structural   Li3Ti(IO)4
_chemical_formula_sum   'Li3 Ti1 I4 O4'
_cell_volume   535.26668193
_cell_formula_units_Z   1
loop_
 _symmetry_equiv_pos_site_id
 _symmetry_equiv_pos_as_xyz
  1  'x, y, z'
loop_
 _atom_site_type_symbol
 _atom_site_label
 _atom_site_symmetry_multiplicity
 _atom_site_fract_x
 _atom_site_fract_y
 _atom_site_fract_z
 _atom_site_occupancy
  I  I0  1  0.00000000  0.00000000  0.00000000  1
  I  I1  1  0.50000000  0.50000000  0.50000000  1
  I  I2  1  0.50000000  0.50000000  0.00000000  1
  I  I3  1  0.50000000  0.00000000  0.50000000  1
  Li  Li4  1  0.00000000  0.50000000  0.50000000  1
  Li  Li5  1  0.59545603  0.31809591  0.25345089  1
  Li  Li6  1  0.93704247  0.73006562  0.28451965  1
  Ti  Ti7  1  0.85037861  0.68761847  0.04772421  1
  O  O8  1  0.34547641  0.05999351  0.24012930  1
  O  O9  1  0.53621435  0.57370015  0.47099410  1
  O  O10  1  0.54087609  0.56645407  0.02567070  1
  O  O11  1  0.82553337  0.84547766  0.86980928  1
