# generated using pymatgen
data_LiTi2Nb2I4O3
_symmetry_space_group_name_H-M   'P 1'
_cell_length_a   6.82039565
_cell_length_b   6.60332698
_cell_length_c   7.29282229
_cell_angle_alpha   93.99313963
_cell_angle_beta   96.59541671
_cell_angle_gamma   93.83074249
_symmetry_Int_Tables_number   1
_chemical_formula_structural   LiTi2Nb2I4O3
_chemical_formula_sum   'Li1 Ti2 Nb2 I4 O3'
_cell_volume   324.55455792
_cell_formula_units_Z   1
loop_
 _symmetry_equiv_pos_site_id
 _symmetry_equiv_pos_as_xyz
  1  'x, y, z'
loop_
 _atom_site_type_symbol
 _atom_site_label
 _atom_site_symmetry_multiplicity
 _atom_site_fract_x
 _atom_site_fract_y
 _atom_site_fract_z
 _atom_site_occupancy
  I  I0  1  0.00000000  0.00000000  0.00000000  1
  I  I1  1  0.50000000  0.50000000  0.50000000  1
  I  I2  1  0.25000000  0.25000000  0.25000000  1
  I  I3  1  0.75000000  0.25000000  0.00000000  1
  Li  Li4  1  0.25000000  0.75000000  0.50000000  1
  Nb  Nb5  1  0.63638204  0.06812997  0.67238492  1
  Nb  Nb6  1  0.35989973  0.28313718  0.47680669  1
  Ti  Ti7  1  0.50780563  0.24035248  0.26464797  1
  Ti  Ti8  1  0.59711912  0.48764850  0.22488137  1
  O  O9  1  0.36009510  0.18181372  0.13539041  1
  O  O10  1  0.71388583  0.35737118  0.96101598  1
  O  O11  1  0.67169328  0.47418737  0.89795455  1
