# generated using pymatgen
data_Li3LuCu2Ni2P5
_symmetry_space_group_name_H-M   'P 1'
_cell_length_a   7.87903382
_cell_length_b   8.08594132
_cell_length_c   8.31673572
_cell_angle_alpha   90.70815206
_cell_angle_beta   90.60098471
_cell_angle_gamma   90.82004815
_symmetry_Int_Tables_number   1
_chemical_formula_structural   Li3LuCu2Ni2P5
_chemical_formula_sum   'Li3 Lu1 Cu2 Ni2 P5'
_cell_volume   529.72940560
_cell_formula_units_Z   1
loop_
 _symmetry_equiv_pos_site_id
 _symmetry_equiv_pos_as_xyz
  1  'x, y, z'
loop_
 _atom_site_type_symbol
 _atom_site_label
 _atom_site_symmetry_multiplicity
 _atom_site_fract_x
 _atom_site_fract_y
 _atom_site_fract_z
 _atom_site_occupancy
  P  P0  1  0.00000000  0.00000000  0.00000000  1
  P  P1  1  0.50000000  0.50000000  0.50000000  1
  P  P2  1  0.25000000  0.25000000  0.25000000  1
  P  P3  1  0.75000000  0.25000000  0.00000000  1
  P  P4  1  0.25000000  0.75000000  0.50000000  1
  Lu  Lu5  1  0.10735706  0.52657613  0.26247347  1
  Li  Li6  1  0.86452113  0.68527873  0.88971622  1
  Li  Li7  1  0.15396209  0.07700542  0.32874128  1
  Li  Li8  1  0.81829448  0.11957491  0.35336957  1
  Cu  Cu9  1  0.90216730  0.99495966  0.12981730  1
  Cu  Cu10  1  0.16411522  0.29152229  0.36615870  1
  Ni  Ni11  1  0.45162999  0.22464301  0.28865340  1
  Ni  Ni12  1  0.25315689  0.04392064  0.96156753  1
