# generated using pymatgen
data_Li2TiP2
_symmetry_space_group_name_H-M   'P 1'
_cell_length_a   4.13381852
_cell_length_b   4.23084488
_cell_length_c   7.11655230
_cell_angle_alpha   104.94598085
_cell_angle_beta   98.52503146
_cell_angle_gamma   105.97517176
_symmetry_Int_Tables_number   1
_chemical_formula_structural   Li2TiP2
_chemical_formula_sum   'Li2 Ti1 P2'
_cell_volume   112.34439215
_cell_formula_units_Z   1
loop_
 _symmetry_equiv_pos_site_id
 _symmetry_equiv_pos_as_xyz
  1  'x, y, z'
loop_
 _atom_site_type_symbol
 _atom_site_label
 _atom_site_symmetry_multiplicity
 _atom_site_fract_x
 _atom_site_fract_y
 _atom_site_fract_z
 _atom_site_occupancy
  Ti  Ti0  1  0.00000000  0.00000000  0.00000000  1
  P  P1  1  0.50000000  0.50000000  0.50000000  1
  P  P2  1  0.50000000  0.50000000  0.00000000  1
  Li  Li3  1  0.50000000  0.00000000  0.50000000  1
  Li  Li4  1  0.00000000  0.50000000  0.50000000  1
