# generated using pymatgen
data_Li2TiI4(O2F)2
_symmetry_space_group_name_H-M   'P 1'
_cell_length_a   8.69506286
_cell_length_b   8.50044364
_cell_length_c   7.49651322
_cell_angle_alpha   90.06880663
_cell_angle_beta   90.32736106
_cell_angle_gamma   90.07866435
_symmetry_Int_Tables_number   1
_chemical_formula_structural   Li2TiI4(O2F)2
_chemical_formula_sum   'Li2 Ti1 I4 O4 F2'
_cell_volume   554.07150240
_cell_formula_units_Z   1
loop_
 _symmetry_equiv_pos_site_id
 _symmetry_equiv_pos_as_xyz
  1  'x, y, z'
loop_
 _atom_site_type_symbol
 _atom_site_label
 _atom_site_symmetry_multiplicity
 _atom_site_fract_x
 _atom_site_fract_y
 _atom_site_fract_z
 _atom_site_occupancy
  I  I0  1  0.12500000  0.00000000  0.25000000  1
  I  I1  1  0.00000000  0.00000000  0.00000000  1
  I  I2  1  0.37500000  0.00000000  0.25000000  1
  I  I3  1  0.25000000  0.25000000  0.25000000  1
  Li  Li4  1  0.00000000  0.25000000  0.12500000  1
  Li  Li5  1  0.89004545  0.92439120  0.65817825  1
  F  F6  1  0.42127817  0.90437563  0.10109361  1
  F  F7  1  0.41419425  0.27872038  0.02762921  1
  Ti  Ti8  1  0.07060436  0.64713360  0.99785668  1
  O  O9  1  0.08198710  0.26003882  0.17247613  1
  O  O10  1  0.70928054  0.17421227  0.67796426  1
  O  O11  1  0.53983310  0.72360818  0.62122845  1
  O  O12  1  0.97449177  0.28004851  0.16469006  1
