# generated using pymatgen
data_Li3TiAs6(OF)3
_symmetry_space_group_name_H-M   'P 1'
_cell_length_a   6.59830252
_cell_length_b   6.37589940
_cell_length_c   7.68299573
_cell_angle_alpha   96.77029219
_cell_angle_beta   98.26760551
_cell_angle_gamma   96.59096548
_symmetry_Int_Tables_number   1
_chemical_formula_structural   Li3TiAs6(OF)3
_chemical_formula_sum   'Li3 Ti1 As6 O3 F3'
_cell_volume   314.76798684
_cell_formula_units_Z   1
loop_
 _symmetry_equiv_pos_site_id
 _symmetry_equiv_pos_as_xyz
  1  'x, y, z'
loop_
 _atom_site_type_symbol
 _atom_site_label
 _atom_site_symmetry_multiplicity
 _atom_site_fract_x
 _atom_site_fract_y
 _atom_site_fract_z
 _atom_site_occupancy
  Li  Li0  1  0.00000000  0.00000000  0.00000000  1
  Li  Li1  1  0.50000000  0.50000000  0.50000000  1
  Li  Li2  1  0.50000000  0.50000000  0.00000000  1
  F  F3  1  0.50000000  0.00000000  0.50000000  1
  F  F4  1  0.00000000  0.50000000  0.50000000  1
  F  F5  1  0.97278341  0.10258339  0.76634227  1
  Ti  Ti6  1  0.28665485  0.78646039  0.17865009  1
  As  As7  1  0.22185876  0.93631639  0.37799296  1
  As  As8  1  0.01665360  0.96766029  0.33002296  1
  As  As9  1  0.16618409  0.20005010  0.75833939  1
  As  As10  1  0.92250104  0.77952773  0.87126396  1
  As  As11  1  0.73399354  0.78947313  0.92895069  1
  As  As12  1  0.06883173  0.31577211  0.46783560  1
  O  O13  1  0.01102873  0.40884057  0.72864324  1
  O  O14  1  0.46641174  0.42470160  0.44928060  1
  O  O15  1  0.76040228  0.49330495  0.95894314  1
