# generated using pymatgen
data_Li2P2O
_symmetry_space_group_name_H-M   'P 1'
_cell_length_a   8.15286189
_cell_length_b   8.36378355
_cell_length_c   8.93131222
_cell_angle_alpha   90.00000000
_cell_angle_beta   90.00000000
_cell_angle_gamma   90.00000000
_symmetry_Int_Tables_number   1
_chemical_formula_structural   Li2P2O
_chemical_formula_sum   'Li4 P4 O2'
_cell_volume   609.01521402
_cell_formula_units_Z   2
loop_
 _symmetry_equiv_pos_site_id
 _symmetry_equiv_pos_as_xyz
  1  'x, y, z'
loop_
 _atom_site_type_symbol
 _atom_site_label
 _atom_site_symmetry_multiplicity
 _atom_site_fract_x
 _atom_site_fract_y
 _atom_site_fract_z
 _atom_site_occupancy
  P  P0  1  0.00000000  0.00000000  0.00000000  1
  P  P1  1  0.50000000  0.50000000  0.50000000  1
  P  P2  1  0.50000000  0.50000000  0.00000000  1
  P  P3  1  0.50000000  0.00000000  0.50000000  1
  Li  Li4  1  0.00000000  0.50000000  0.50000000  1
  Li  Li5  1  0.84655903  0.39291199  0.33517379  1
  Li  Li6  1  0.45633233  0.76123618  0.73857940  1
  Li  Li7  1  0.22901180  0.86277232  0.68231584  1
  O  O8  1  0.23504717  0.10360594  0.07723346  1
  O  O9  1  0.27711514  0.45696773  0.38335201  1
