# generated using pymatgen
data_Li4Ti(SI2)2
_symmetry_space_group_name_H-M   'P 1'
_cell_length_a   5.26496510
_cell_length_b   4.85253267
_cell_length_c   7.31378555
_cell_angle_alpha   99.53728054
_cell_angle_beta   99.88384007
_cell_angle_gamma   98.77936488
_symmetry_Int_Tables_number   1
_chemical_formula_structural   Li4Ti(SI2)2
_chemical_formula_sum   'Li4 Ti1 S2 I4'
_cell_volume   178.35711754
_cell_formula_units_Z   1
loop_
 _symmetry_equiv_pos_site_id
 _symmetry_equiv_pos_as_xyz
  1  'x, y, z'
loop_
 _atom_site_type_symbol
 _atom_site_label
 _atom_site_symmetry_multiplicity
 _atom_site_fract_x
 _atom_site_fract_y
 _atom_site_fract_z
 _atom_site_occupancy
  S  S0  1  0.00000000  0.00000000  0.00000000  1
  S  S1  1  0.33300000  0.66700000  0.25000000  1
  Ti  Ti2  1  0.66700000  0.33300000  0.50000000  1
  I  I3  1  0.00000000  0.00000000  0.75000000  1
  I  I4  1  0.66135763  0.57951884  0.48096193  1
  I  I5  1  0.99688620  0.86467314  0.38175438  1
  I  I6  1  0.18834755  0.06933420  0.95367216  1
  Li  Li7  1  0.28902125  0.40378379  0.25975740  1
  Li  Li8  1  0.10795503  0.90062405  0.98689331  1
  Li  Li9  1  0.45502631  0.60201956  0.18089979  1
  Li  Li10  1  0.18077072  0.27630938  0.81631871  1
