# generated using pymatgen
data_LiLuAs6F3
_symmetry_space_group_name_H-M   'P 1'
_cell_length_a   7.16267852
_cell_length_b   6.94123613
_cell_length_c   8.16137391
_cell_angle_alpha   91.42145221
_cell_angle_beta   92.49481606
_cell_angle_gamma   91.64119788
_symmetry_Int_Tables_number   1
_chemical_formula_structural   LiLuAs6F3
_chemical_formula_sum   'Li1 Lu1 As6 F3'
_cell_volume   405.07709004
_cell_formula_units_Z   1
loop_
 _symmetry_equiv_pos_site_id
 _symmetry_equiv_pos_as_xyz
  1  'x, y, z'
loop_
 _atom_site_type_symbol
 _atom_site_label
 _atom_site_symmetry_multiplicity
 _atom_site_fract_x
 _atom_site_fract_y
 _atom_site_fract_z
 _atom_site_occupancy
  Lu  Lu0  1  0.00000000  0.00000000  0.00000000  1
  Li  Li1  1  0.50000000  0.50000000  0.50000000  1
  F  F2  1  0.25000000  0.25000000  0.25000000  1
  F  F3  1  0.75000000  0.25000000  0.00000000  1
  F  F4  1  0.25000000  0.75000000  0.50000000  1
  As  As5  1  0.09978711  0.98881368  0.47696672  1
  As  As6  1  0.43889745  0.36984748  0.07567576  1
  As  As7  1  0.51287080  0.89956083  0.75549533  1
  As  As8  1  0.64344690  0.81073730  0.16171209  1
  As  As9  1  0.19494773  0.98479765  0.10296326  1
  As  As10  1  0.40432283  0.07240860  0.01217459  1
