# generated using pymatgen
data_Li3TiSb4(P2O)2
_symmetry_space_group_name_H-M   'P 1'
_cell_length_a   5.90808299
_cell_length_b   6.36730624
_cell_length_c   6.93936116
_cell_angle_alpha   100.85871265
_cell_angle_beta   92.13520427
_cell_angle_gamma   98.85870461
_symmetry_Int_Tables_number   1
_chemical_formula_structural   Li3TiSb4(P2O)2
_chemical_formula_sum   'Li3 Ti1 Sb4 P4 O2'
_cell_volume   252.72505346
_cell_formula_units_Z   1
loop_
 _symmetry_equiv_pos_site_id
 _symmetry_equiv_pos_as_xyz
  1  'x, y, z'
loop_
 _atom_site_type_symbol
 _atom_site_label
 _atom_site_symmetry_multiplicity
 _atom_site_fract_x
 _atom_site_fract_y
 _atom_site_fract_z
 _atom_site_occupancy
  O  O0  1  0.00000000  0.00000000  0.00000000  1
  O  O1  1  0.50000000  0.50000000  0.50000000  1
  Ti  Ti2  1  0.50000000  0.50000000  0.00000000  1
  Sb  Sb3  1  0.50000000  0.00000000  0.50000000  1
  Sb  Sb4  1  0.00000000  0.50000000  0.50000000  1
  Sb  Sb5  1  0.83806975  0.78976979  0.13116869  1
  Sb  Sb6  1  0.93273291  0.67878626  0.46641622  1
  P  P7  1  0.87822789  0.03608463  0.45094976  1
  P  P8  1  0.28990447  0.59863310  0.63063983  1
  P  P9  1  0.07211625  0.20849322  0.47816191  1
  P  P10  1  0.99149269  0.88895047  0.85558292  1
  Li  Li11  1  0.65548889  0.39481294  0.04590711  1
  Li  Li12  1  0.46772044  0.28084922  0.54585089  1
  Li  Li13  1  0.60890820  0.83441255  0.27227993  1
