# generated using pymatgen
data_Li2TiCu2I4F3
_symmetry_space_group_name_H-M   'P 1'
_cell_length_a   6.89844476
_cell_length_b   6.92145786
_cell_length_c   7.85367876
_cell_angle_alpha   94.11011194
_cell_angle_beta   96.46511355
_cell_angle_gamma   93.92379988
_symmetry_Int_Tables_number   1
_chemical_formula_structural   Li2TiCu2I4F3
_chemical_formula_sum   'Li2 Ti1 Cu2 I4 F3'
_cell_volume   370.54010259
_cell_formula_units_Z   1
loop_
 _symmetry_equiv_pos_site_id
 _symmetry_equiv_pos_as_xyz
  1  'x, y, z'
loop_
 _atom_site_type_symbol
 _atom_site_label
 _atom_site_symmetry_multiplicity
 _atom_site_fract_x
 _atom_site_fract_y
 _atom_site_fract_z
 _atom_site_occupancy
  F  F0  1  0.00000000  0.00000000  0.00000000  1
  F  F1  1  0.50000000  0.50000000  0.50000000  1
  F  F2  1  0.25000000  0.25000000  0.25000000  1
  Ti  Ti3  1  0.75000000  0.25000000  0.00000000  1
  I  I4  1  0.25000000  0.75000000  0.50000000  1
  I  I5  1  0.81729849  0.25119279  0.94326518  1
  I  I6  1  0.80383581  0.06630385  0.22320616  1
  I  I7  1  0.35827510  0.42071879  0.64398153  1
  Li  Li8  1  0.87039563  0.25643025  0.38216555  1
  Li  Li9  1  0.56572518  0.54928727  0.58757593  1
  Cu  Cu10  1  0.29840700  0.21101209  0.53141267  1
  Cu  Cu11  1  0.11911185  0.12150676  0.49304000  1
