# generated using pymatgen
data_LiSb4Mo2P3
_symmetry_space_group_name_H-M   'P 1'
_cell_length_a   6.38093595
_cell_length_b   6.85796058
_cell_length_c   6.99471474
_cell_angle_alpha   93.62248301
_cell_angle_beta   91.35365917
_cell_angle_gamma   93.62322328
_symmetry_Int_Tables_number   1
_chemical_formula_structural   LiSb4Mo2P3
_chemical_formula_sum   'Li1 Sb4 Mo2 P3'
_cell_volume   304.75079775
_cell_formula_units_Z   1
loop_
 _symmetry_equiv_pos_site_id
 _symmetry_equiv_pos_as_xyz
  1  'x, y, z'
loop_
 _atom_site_type_symbol
 _atom_site_label
 _atom_site_symmetry_multiplicity
 _atom_site_fract_x
 _atom_site_fract_y
 _atom_site_fract_z
 _atom_site_occupancy
  Sb  Sb0  1  0.00000000  0.00000000  0.00000000  1
  Sb  Sb1  1  0.50000000  0.50000000  0.50000000  1
  Sb  Sb2  1  0.50000000  0.50000000  0.00000000  1
  Sb  Sb3  1  0.50000000  0.00000000  0.50000000  1
  P  P4  1  0.00000000  0.50000000  0.50000000  1
  P  P5  1  0.11580099  0.63327410  0.21162149  1
  P  P6  1  0.35961949  0.45691165  0.04878226  1
  Mo  Mo7  1  0.10120074  0.00246809  0.30907892  1
  Mo  Mo8  1  0.00562748  0.04685368  0.56143862  1
  Li  Li9  1  0.34645664  0.53793652  0.59852764  1
