# generated using pymatgen
data_LiSb4P2N
_symmetry_space_group_name_H-M   'P 1'
_cell_length_a   5.22677622
_cell_length_b   5.49041754
_cell_length_c   6.46929170
_cell_angle_alpha   97.53826654
_cell_angle_beta   93.35450236
_cell_angle_gamma   97.29247130
_symmetry_Int_Tables_number   1
_chemical_formula_structural   LiSb4P2N
_chemical_formula_sum   'Li1 Sb4 P2 N1'
_cell_volume   182.02311594
_cell_formula_units_Z   1
loop_
 _symmetry_equiv_pos_site_id
 _symmetry_equiv_pos_as_xyz
  1  'x, y, z'
loop_
 _atom_site_type_symbol
 _atom_site_label
 _atom_site_symmetry_multiplicity
 _atom_site_fract_x
 _atom_site_fract_y
 _atom_site_fract_z
 _atom_site_occupancy
  N  N0  1  0.12500000  0.00000000  0.25000000  1
  Sb  Sb1  1  0.00000000  0.00000000  0.00000000  1
  Sb  Sb2  1  0.37500000  0.00000000  0.25000000  1
  Sb  Sb3  1  0.25000000  0.25000000  0.25000000  1
  Sb  Sb4  1  0.00000000  0.25000000  0.12500000  1
  P  P5  1  0.13405807  0.99289439  0.23442549  1
  P  P6  1  0.36122230  0.10258850  0.52685712  1
  Li  Li7  1  0.71620165  0.34089368  0.28538875  1
