# generated using pymatgen
data_LiMn3Mo2P3
_symmetry_space_group_name_H-M   'P 1'
_cell_length_a   5.18003110
_cell_length_b   5.43919969
_cell_length_c   6.19495714
_cell_angle_alpha   100.17829251
_cell_angle_beta   90.19584557
_cell_angle_gamma   99.83101197
_symmetry_Int_Tables_number   1
_chemical_formula_structural   LiMn3Mo2P3
_chemical_formula_sum   'Li1 Mn3 Mo2 P3'
_cell_volume   169.17312958
_cell_formula_units_Z   1
loop_
 _symmetry_equiv_pos_site_id
 _symmetry_equiv_pos_as_xyz
  1  'x, y, z'
loop_
 _atom_site_type_symbol
 _atom_site_label
 _atom_site_symmetry_multiplicity
 _atom_site_fract_x
 _atom_site_fract_y
 _atom_site_fract_z
 _atom_site_occupancy
  Mn  Mn0  1  0.00000000  0.00000000  0.00000000  1
  Mn  Mn1  1  0.50000000  0.50000000  0.50000000  1
  Mn  Mn2  1  0.25000000  0.25000000  0.25000000  1
  P  P3  1  0.75000000  0.25000000  0.00000000  1
  P  P4  1  0.25000000  0.75000000  0.50000000  1
  P  P5  1  0.92917069  0.60386117  0.08167580  1
  Mo  Mo6  1  0.17329121  0.33350808  0.24244858  1
  Mo  Mo7  1  0.05833795  0.96294979  0.72066460  1
  Li  Li8  1  0.60155379  0.09067445  0.57274047  1
