# generated using pymatgen
data_LiCuAs3P2
_symmetry_space_group_name_H-M   'P 1'
_cell_length_a   7.45734886
_cell_length_b   7.43314426
_cell_length_c   8.59814313
_cell_angle_alpha   91.63008354
_cell_angle_beta   91.89529317
_cell_angle_gamma   91.88572450
_symmetry_Int_Tables_number   1
_chemical_formula_structural   LiCuAs3P2
_chemical_formula_sum   'Li2 Cu2 As6 P4'
_cell_volume   475.88155019
_cell_formula_units_Z   2
loop_
 _symmetry_equiv_pos_site_id
 _symmetry_equiv_pos_as_xyz
  1  'x, y, z'
loop_
 _atom_site_type_symbol
 _atom_site_label
 _atom_site_symmetry_multiplicity
 _atom_site_fract_x
 _atom_site_fract_y
 _atom_site_fract_z
 _atom_site_occupancy
  P  P0  1  0.12500000  0.00000000  0.25000000  1
  P  P1  1  0.00000000  0.00000000  0.00000000  1
  P  P2  1  0.37500000  0.00000000  0.25000000  1
  P  P3  1  0.25000000  0.25000000  0.25000000  1
  Li  Li4  1  0.00000000  0.25000000  0.12500000  1
  Li  Li5  1  0.51519702  0.21296024  0.31731005  1
  Cu  Cu6  1  0.35867766  0.07737736  0.98056958  1
  Cu  Cu7  1  0.93463561  0.49642794  0.87976457  1
  As  As8  1  0.38576920  0.93063468  0.26288990  1
  As  As9  1  0.54948512  0.66447245  0.16558217  1
  As  As10  1  0.72640510  0.61594093  0.60281831  1
  As  As11  1  0.37360136  0.33132778  0.42436898  1
  As  As12  1  0.77936654  0.50179532  0.43404624  1
  As  As13  1  0.30860242  0.08563798  0.62727140  1
