# generated using pymatgen
data_Li2Mn2Sb4P3N
_symmetry_space_group_name_H-M   'P 1'
_cell_length_a   4.68304497
_cell_length_b   4.88561989
_cell_length_c   6.40225933
_cell_angle_alpha   100.42496857
_cell_angle_beta   95.75014075
_cell_angle_gamma   100.48650878
_symmetry_Int_Tables_number   1
_chemical_formula_structural   Li2Mn2Sb4P3N
_chemical_formula_sum   'Li2 Mn2 Sb4 P3 N1'
_cell_volume   140.30823071
_cell_formula_units_Z   1
loop_
 _symmetry_equiv_pos_site_id
 _symmetry_equiv_pos_as_xyz
  1  'x, y, z'
loop_
 _atom_site_type_symbol
 _atom_site_label
 _atom_site_symmetry_multiplicity
 _atom_site_fract_x
 _atom_site_fract_y
 _atom_site_fract_z
 _atom_site_occupancy
  Mn  Mn0  1  0.00000000  0.00000000  0.00000000  1
  Mn  Mn1  1  0.50000000  0.50000000  0.50000000  1
  Sb  Sb2  1  0.25000000  0.25000000  0.25000000  1
  Sb  Sb3  1  0.75000000  0.25000000  0.00000000  1
  Sb  Sb4  1  0.25000000  0.75000000  0.50000000  1
  Sb  Sb5  1  0.99588414  0.37951153  0.97728151  1
  P  P6  1  0.29722329  0.73756450  0.29062350  1
  P  P7  1  0.38339634  0.37141111  0.54078635  1
  P  P8  1  0.69668265  0.44137540  0.26791348  1
  Li  Li9  1  0.98980446  0.89418314  0.33736661  1
  Li  Li10  1  0.11811758  0.04152195  0.91147879  1
  N  N11  1  0.20365055  0.36859730  0.39382011  1
