# generated using pymatgen
data_Li2Mn(Sb2P)2
_symmetry_space_group_name_H-M   'P 1'
_cell_length_a   4.90666024
_cell_length_b   5.01555690
_cell_length_c   5.97800330
_cell_angle_alpha   101.36694284
_cell_angle_beta   95.08714149
_cell_angle_gamma   99.76420250
_symmetry_Int_Tables_number   1
_chemical_formula_structural   Li2Mn(Sb2P)2
_chemical_formula_sum   'Li2 Mn1 Sb4 P2'
_cell_volume   141.00195131
_cell_formula_units_Z   1
loop_
 _symmetry_equiv_pos_site_id
 _symmetry_equiv_pos_as_xyz
  1  'x, y, z'
loop_
 _atom_site_type_symbol
 _atom_site_label
 _atom_site_symmetry_multiplicity
 _atom_site_fract_x
 _atom_site_fract_y
 _atom_site_fract_z
 _atom_site_occupancy
  Mn  Mn0  1  0.00000000  0.00000000  0.00000000  1
  Sb  Sb1  1  0.50000000  0.50000000  0.50000000  1
  Sb  Sb2  1  0.50000000  0.50000000  0.00000000  1
  Sb  Sb3  1  0.50000000  0.00000000  0.50000000  1
  Sb  Sb4  1  0.00000000  0.50000000  0.50000000  1
  P  P5  1  0.54756878  0.23839337  0.65162971  1
  P  P6  1  0.90025036  0.44880931  0.03204497  1
  Li  Li7  1  0.77786505  0.29553694  0.22525215  1
  Li  Li8  1  0.60480295  0.41651507  0.01701762  1
