# generated using pymatgen
data_Li2Cu2(As2N)3
_symmetry_space_group_name_H-M   'P 1'
_cell_length_a   7.62815788
_cell_length_b   7.49155173
_cell_length_c   8.52397086
_cell_angle_alpha   91.67790426
_cell_angle_beta   91.59033635
_cell_angle_gamma   91.94240479
_symmetry_Int_Tables_number   1
_chemical_formula_structural   Li2Cu2(As2N)3
_chemical_formula_sum   'Li2 Cu2 As6 N3'
_cell_volume   486.42700502
_cell_formula_units_Z   1
loop_
 _symmetry_equiv_pos_site_id
 _symmetry_equiv_pos_as_xyz
  1  'x, y, z'
loop_
 _atom_site_type_symbol
 _atom_site_label
 _atom_site_symmetry_multiplicity
 _atom_site_fract_x
 _atom_site_fract_y
 _atom_site_fract_z
 _atom_site_occupancy
  As  As0  1  0.00000000  0.00000000  0.00000000  1
  As  As1  1  0.50000000  0.50000000  0.50000000  1
  As  As2  1  0.25000000  0.25000000  0.25000000  1
  As  As3  1  0.75000000  0.25000000  0.00000000  1
  As  As4  1  0.25000000  0.75000000  0.50000000  1
  As  As5  1  0.70446472  0.59171803  0.63324782  1
  Li  Li6  1  0.53450886  0.64178104  0.15035668  1
  Li  Li7  1  0.97074412  0.98615183  0.27238338  1
  N  N8  1  0.87496014  0.96646846  0.42089705  1
  N  N9  1  0.86972848  0.98945005  0.05803186  1
  N  N10  1  0.50645994  0.84795366  0.02700158  1
  Cu  Cu11  1  0.92051805  0.85297794  0.36571473  1
  Cu  Cu12  1  0.34407647  0.16370637  0.06875068  1
