# generated using pymatgen
data_Li2Sb4P3
_symmetry_space_group_name_H-M   'P 1'
_cell_length_a   5.77344498
_cell_length_b   5.96439720
_cell_length_c   6.93114080
_cell_angle_alpha   97.79813037
_cell_angle_beta   94.55774455
_cell_angle_gamma   98.34749406
_symmetry_Int_Tables_number   1
_chemical_formula_structural   Li2Sb4P3
_chemical_formula_sum   'Li2 Sb4 P3'
_cell_volume   232.76210870
_cell_formula_units_Z   1
loop_
 _symmetry_equiv_pos_site_id
 _symmetry_equiv_pos_as_xyz
  1  'x, y, z'
loop_
 _atom_site_type_symbol
 _atom_site_label
 _atom_site_symmetry_multiplicity
 _atom_site_fract_x
 _atom_site_fract_y
 _atom_site_fract_z
 _atom_site_occupancy
  Sb  Sb0  1  0.12500000  0.12500000  0.12500000  1
  Sb  Sb1  1  0.50000000  0.50000000  0.50000000  1
  Sb  Sb2  1  0.25000000  0.25000000  0.25000000  1
  Sb  Sb3  1  0.75000000  0.75000000  0.75000000  1
  P  P4  1  0.50051623  0.55342460  0.04413435  1
  P  P5  1  0.10574870  0.24309871  0.70048767  1
  P  P6  1  0.54430523  0.94157897  0.85845240  1
  Li  Li7  1  0.24636974  0.29156475  0.17268909  1
  Li  Li8  1  0.98793072  0.74538454  0.12864812  1
