# generated using pymatgen
data_Li3LuNi2(As3P2)2
_symmetry_space_group_name_H-M   'P 1'
_cell_length_a   7.50067020
_cell_length_b   7.30832733
_cell_length_c   8.64088053
_cell_angle_alpha   92.24559436
_cell_angle_beta   91.50434163
_cell_angle_gamma   92.60193796
_symmetry_Int_Tables_number   1
_chemical_formula_structural   Li3LuNi2(As3P2)2
_chemical_formula_sum   'Li3 Lu1 Ni2 As6 P4'
_cell_volume   472.63201342
_cell_formula_units_Z   1
loop_
 _symmetry_equiv_pos_site_id
 _symmetry_equiv_pos_as_xyz
  1  'x, y, z'
loop_
 _atom_site_type_symbol
 _atom_site_label
 _atom_site_symmetry_multiplicity
 _atom_site_fract_x
 _atom_site_fract_y
 _atom_site_fract_z
 _atom_site_occupancy
  P  P0  1  0.12500000  0.00000000  0.25000000  1
  P  P1  1  0.00000000  0.00000000  0.00000000  1
  P  P2  1  0.37500000  0.00000000  0.25000000  1
  P  P3  1  0.25000000  0.25000000  0.25000000  1
  Lu  Lu4  1  0.00000000  0.25000000  0.12500000  1
  Li  Li5  1  0.71589541  0.74579288  0.88867880  1
  Li  Li6  1  0.11660585  0.67889831  0.03855613  1
  Li  Li7  1  0.94983683  0.22814184  0.94833637  1
  Ni  Ni8  1  0.90692154  0.45930374  0.89740348  1
  Ni  Ni9  1  0.61599621  0.23097111  0.48762944  1
  As  As10  1  0.30847751  0.13512740  0.46898818  1
  As  As11  1  0.04863905  0.38761294  0.04916653  1
  As  As12  1  0.46068113  0.15282420  0.15756324  1
  As  As13  1  0.92869229  0.18362913  0.46088921  1
  As  As14  1  0.29608345  0.10515314  0.59666875  1
  As  As15  1  0.80102281  0.20386421  0.69341638  1
