# generated using pymatgen
data_Li3Ni2P8O5
_symmetry_space_group_name_H-M   'P 1'
_cell_length_a   7.11437884
_cell_length_b   7.09506716
_cell_length_c   8.46005452
_cell_angle_alpha   94.32805785
_cell_angle_beta   95.02042354
_cell_angle_gamma   95.06041170
_symmetry_Int_Tables_number   1
_chemical_formula_structural   Li3Ni2P8O5
_chemical_formula_sum   'Li3 Ni2 P8 O5'
_cell_volume   422.25007660
_cell_formula_units_Z   1
loop_
 _symmetry_equiv_pos_site_id
 _symmetry_equiv_pos_as_xyz
  1  'x, y, z'
loop_
 _atom_site_type_symbol
 _atom_site_label
 _atom_site_symmetry_multiplicity
 _atom_site_fract_x
 _atom_site_fract_y
 _atom_site_fract_z
 _atom_site_occupancy
  P  P0  1  0.00000000  0.00000000  0.00000000  1
  P  P1  1  0.50000000  0.50000000  0.50000000  1
  P  P2  1  0.25000000  0.25000000  0.25000000  1
  P  P3  1  0.75000000  0.25000000  0.00000000  1
  P  P4  1  0.25000000  0.75000000  0.50000000  1
  P  P5  1  0.00492018  0.54440822  0.77034878  1
  P  P6  1  0.24030845  0.57782387  0.69351939  1
  P  P7  1  0.62304585  0.40569721  0.14270568  1
  Li  Li8  1  0.61695492  0.34516127  0.22772676  1
  Li  Li9  1  0.93822285  0.92416511  0.90736583  1
  Li  Li10  1  0.40352167  0.29534669  0.27576693  1
  Ni  Ni11  1  0.57779417  0.64085260  0.65631515  1
  Ni  Ni12  1  0.28911327  0.07180769  0.65587579  1
  O  O13  1  0.42902249  0.22707843  0.42302030  1
  O  O14  1  0.25888760  0.04948403  0.37901019  1
  O  O15  1  0.97346044  0.04139374  0.74505489  1
  O  O16  1  0.38905320  0.14006575  0.36101104  1
  O  O17  1  0.03760748  0.65572931  0.05998798  1
