# generated using pymatgen
data_Li2Ti3Ni2As6O5
_symmetry_space_group_name_H-M   'P 1'
_cell_length_a   6.89908613
_cell_length_b   6.67879634
_cell_length_c   8.19216776
_cell_angle_alpha   91.21168503
_cell_angle_beta   93.19510261
_cell_angle_gamma   91.39497222
_symmetry_Int_Tables_number   1
_chemical_formula_structural   Li2Ti3Ni2As6O5
_chemical_formula_sum   'Li2 Ti3 Ni2 As6 O5'
_cell_volume   376.68112011
_cell_formula_units_Z   1
loop_
 _symmetry_equiv_pos_site_id
 _symmetry_equiv_pos_as_xyz
  1  'x, y, z'
loop_
 _atom_site_type_symbol
 _atom_site_label
 _atom_site_symmetry_multiplicity
 _atom_site_fract_x
 _atom_site_fract_y
 _atom_site_fract_z
 _atom_site_occupancy
  Li  Li0  1  0.12500000  0.00000000  0.25000000  1
  Li  Li1  1  0.00000000  0.00000000  0.00000000  1
  Ni  Ni2  1  0.37500000  0.00000000  0.25000000  1
  Ni  Ni3  1  0.25000000  0.25000000  0.25000000  1
  Ti  Ti4  1  0.00000000  0.25000000  0.12500000  1
  Ti  Ti5  1  0.89821872  0.05003993  0.22375420  1
  Ti  Ti6  1  0.57276374  0.02934722  0.14420980  1
  As  As7  1  0.63822872  0.37899953  0.60111562  1
  As  As8  1  0.79171227  0.09437165  0.56096374  1
  As  As9  1  0.70698012  0.57702246  0.05527954  1
  As  As10  1  0.87558426  0.30332499  0.45990826  1
  As  As11  1  0.13906241  0.14670265  0.90048340  1
  As  As12  1  0.67002112  0.29678772  0.25966877  1
  O  O13  1  0.44576516  0.20691018  0.06914345  1
  O  O14  1  0.00363798  0.58226996  0.95398265  1
  O  O15  1  0.53778858  0.08784656  0.16068155  1
  O  O16  1  0.49661831  0.95324762  0.21793257  1
  O  O17  1  0.86773006  0.37428621  0.49183666  1
