# generated using pymatgen
data_Li2Cu2(As2O)3
_symmetry_space_group_name_H-M   'P 1'
_cell_length_a   7.35528606
_cell_length_b   7.43933620
_cell_length_c   8.40418927
_cell_angle_alpha   92.15845136
_cell_angle_beta   94.11093399
_cell_angle_gamma   92.08892734
_symmetry_Int_Tables_number   1
_chemical_formula_structural   Li2Cu2(As2O)3
_chemical_formula_sum   'Li2 Cu2 As6 O3'
_cell_volume   458.00183319
_cell_formula_units_Z   1
loop_
 _symmetry_equiv_pos_site_id
 _symmetry_equiv_pos_as_xyz
  1  'x, y, z'
loop_
 _atom_site_type_symbol
 _atom_site_label
 _atom_site_symmetry_multiplicity
 _atom_site_fract_x
 _atom_site_fract_y
 _atom_site_fract_z
 _atom_site_occupancy
  Li  Li0  1  0.00000000  0.00000000  0.00000000  1
  Li  Li1  1  0.50000000  0.50000000  0.50000000  1
  Cu  Cu2  1  0.50000000  0.50000000  0.00000000  1
  Cu  Cu3  1  0.50000000  0.00000000  0.50000000  1
  As  As4  1  0.00000000  0.50000000  0.50000000  1
  As  As5  1  0.58562827  0.28085946  0.39289198  1
  As  As6  1  0.70198097  0.42916178  0.24843529  1
  As  As7  1  0.74480164  0.33179980  0.55834404  1
  As  As8  1  0.07611806  0.32962042  0.73602531  1
  As  As9  1  0.81959561  0.75301845  0.15897099  1
  O  O10  1  0.56115415  0.08043729  0.58284391  1
  O  O11  1  0.66986227  0.08518545  0.71704954  1
  O  O12  1  0.44637768  0.67968184  0.20535425  1
