# generated using pymatgen
data_LiNi(AsP)3
_symmetry_space_group_name_H-M   'P 1'
_cell_length_a   8.04479532
_cell_length_b   7.80962329
_cell_length_c   8.55609318
_cell_angle_alpha   90.98214613
_cell_angle_beta   90.94460030
_cell_angle_gamma   91.13691740
_symmetry_Int_Tables_number   1
_chemical_formula_structural   LiNi(AsP)3
_chemical_formula_sum   'Li2 Ni2 As6 P6'
_cell_volume   537.29122695
_cell_formula_units_Z   2
loop_
 _symmetry_equiv_pos_site_id
 _symmetry_equiv_pos_as_xyz
  1  'x, y, z'
loop_
 _atom_site_type_symbol
 _atom_site_label
 _atom_site_symmetry_multiplicity
 _atom_site_fract_x
 _atom_site_fract_y
 _atom_site_fract_z
 _atom_site_occupancy
  P  P0  1  0.12500000  0.12500000  0.12500000  1
  P  P1  1  0.50000000  0.50000000  0.50000000  1
  P  P2  1  0.25000000  0.25000000  0.25000000  1
  P  P3  1  0.75000000  0.75000000  0.75000000  1
  P  P4  1  0.91132655  0.22370342  0.20720535  1
  P  P5  1  0.64287905  0.70858500  0.34365148  1
  Li  Li6  1  0.74534006  0.58981630  0.82170505  1
  Li  Li7  1  0.35678743  0.85501161  0.32568358  1
  Ni  Ni8  1  0.64712361  0.36931671  0.99436176  1
  Ni  Ni9  1  0.02673621  0.32231766  0.59802390  1
  As  As10  1  0.07130734  0.88096608  0.84297710  1
  As  As11  1  0.09173212  0.23983319  0.78075353  1
  As  As12  1  0.93299690  0.07234985  0.28365030  1
  As  As13  1  0.82107753  0.48777142  0.80147641  1
  As  As14  1  0.09240664  0.14812001  0.02761124  1
  As  As15  1  0.82621459  0.57109335  0.12963066  1
