# generated using pymatgen
data_Li3Ti2O2
_symmetry_space_group_name_H-M   'P 1'
_cell_length_a   7.52895485
_cell_length_b   7.58599996
_cell_length_c   7.29288613
_cell_angle_alpha   94.26878420
_cell_angle_beta   95.67230559
_cell_angle_gamma   95.00534315
_symmetry_Int_Tables_number   1
_chemical_formula_structural   Li3Ti2O2
_chemical_formula_sum   'Li3 Ti2 O2'
_cell_volume   411.45852496
_cell_formula_units_Z   1
loop_
 _symmetry_equiv_pos_site_id
 _symmetry_equiv_pos_as_xyz
  1  'x, y, z'
loop_
 _atom_site_type_symbol
 _atom_site_label
 _atom_site_symmetry_multiplicity
 _atom_site_fract_x
 _atom_site_fract_y
 _atom_site_fract_z
 _atom_site_occupancy
  Li  Li0  1  0.00000000  0.00000000  0.00000000  1
  Li  Li1  1  0.33300000  0.66700000  0.25000000  1
  Li  Li2  1  0.66700000  0.33300000  0.50000000  1
  Ti  Ti3  1  0.00000000  0.00000000  0.75000000  1
  Ti  Ti4  1  0.23161754  0.54529639  0.91536324  1
  O  O5  1  0.01809001  0.93393334  0.29596116  1
  O  O6  1  0.73110938  0.62759360  0.75146829  1
