# generated using pymatgen
data_Li3LuCu2P4N5
_symmetry_space_group_name_H-M   'P 1'
_cell_length_a   7.46262694
_cell_length_b   7.24958669
_cell_length_c   8.17678499
_cell_angle_alpha   92.49659720
_cell_angle_beta   92.15968619
_cell_angle_gamma   92.74242408
_symmetry_Int_Tables_number   1
_chemical_formula_structural   Li3LuCu2P4N5
_chemical_formula_sum   'Li3 Lu1 Cu2 P4 N5'
_cell_volume   441.09517893
_cell_formula_units_Z   1
loop_
 _symmetry_equiv_pos_site_id
 _symmetry_equiv_pos_as_xyz
  1  'x, y, z'
loop_
 _atom_site_type_symbol
 _atom_site_label
 _atom_site_symmetry_multiplicity
 _atom_site_fract_x
 _atom_site_fract_y
 _atom_site_fract_z
 _atom_site_occupancy
  P  P0  1  0.12500000  0.00000000  0.25000000  1
  P  P1  1  0.00000000  0.00000000  0.00000000  1
  P  P2  1  0.37500000  0.00000000  0.25000000  1
  P  P3  1  0.25000000  0.25000000  0.25000000  1
  Lu  Lu4  1  0.00000000  0.25000000  0.12500000  1
  Li  Li5  1  0.54545414  0.49361472  0.60293034  1
  Li  Li6  1  0.06730107  0.22536183  0.73492847  1
  Li  Li7  1  0.37409790  0.05463927  0.68480589  1
  Cu  Cu8  1  0.76934947  0.63159303  0.32273816  1
  Cu  Cu9  1  0.26524514  0.19470392  0.60393659  1
  N  N10  1  0.78613221  0.02581906  0.24305904  1
  N  N11  1  0.27923249  0.72100518  0.19743693  1
  N  N12  1  0.99709497  0.39701572  0.18146148  1
  N  N13  1  0.92732732  0.09974544  0.64681363  1
  N  N14  1  0.93363432  0.06387651  0.40940355  1
