# generated using pymatgen
data_Li2TiAs6N5
_symmetry_space_group_name_H-M   'P 1'
_cell_length_a   7.91374836
_cell_length_b   7.79955395
_cell_length_c   8.19164812
_cell_angle_alpha   91.41146412
_cell_angle_beta   91.17098686
_cell_angle_gamma   91.63459291
_symmetry_Int_Tables_number   1
_chemical_formula_structural   Li2TiAs6N5
_chemical_formula_sum   'Li2 Ti1 As6 N5'
_cell_volume   505.14672920
_cell_formula_units_Z   1
loop_
 _symmetry_equiv_pos_site_id
 _symmetry_equiv_pos_as_xyz
  1  'x, y, z'
loop_
 _atom_site_type_symbol
 _atom_site_label
 _atom_site_symmetry_multiplicity
 _atom_site_fract_x
 _atom_site_fract_y
 _atom_site_fract_z
 _atom_site_occupancy
  Ti  Ti0  1  0.12500000  0.12500000  0.12500000  1
  As  As1  1  0.50000000  0.50000000  0.50000000  1
  As  As2  1  0.25000000  0.25000000  0.25000000  1
  As  As3  1  0.75000000  0.75000000  0.75000000  1
  As  As4  1  0.98489754  0.18553827  0.87248771  1
  As  As5  1  0.98379737  0.66508004  0.50625619  1
  As  As6  1  0.67544823  0.93227262  0.93211264  1
  Li  Li7  1  0.24703111  0.95946957  0.35525078  1
  Li  Li8  1  0.35927321  0.36558545  0.93628137  1
  N  N9  1  0.47452695  0.01284144  0.51192790  1
  N  N10  1  0.89463838  0.63245517  0.81540485  1
  N  N11  1  0.93632943  0.80249210  0.29695480  1
  N  N12  1  0.29445755  0.43459137  0.99609830  1
  N  N13  1  0.53327538  0.46562692  0.60480058  1
