# generated using pymatgen
data_LiSeO
_symmetry_space_group_name_H-M   'P 1'
_cell_length_a   7.90410270
_cell_length_b   8.00512154
_cell_length_c   7.53989539
_cell_angle_alpha   90.00000000
_cell_angle_beta   90.00000000
_cell_angle_gamma   90.00000000
_symmetry_Int_Tables_number   1
_chemical_formula_structural   LiSeO
_chemical_formula_sum   'Li3 Se3 O3'
_cell_volume   477.07408385
_cell_formula_units_Z   3
loop_
 _symmetry_equiv_pos_site_id
 _symmetry_equiv_pos_as_xyz
  1  'x, y, z'
loop_
 _atom_site_type_symbol
 _atom_site_label
 _atom_site_symmetry_multiplicity
 _atom_site_fract_x
 _atom_site_fract_y
 _atom_site_fract_z
 _atom_site_occupancy
  Li  Li0  1  0.00000000  0.00000000  0.00000000  1
  Li  Li1  1  0.33300000  0.66700000  0.25000000  1
  Li  Li2  1  0.66700000  0.33300000  0.50000000  1
  Se  Se3  1  0.00000000  0.00000000  0.75000000  1
  Se  Se4  1  0.09464612  0.39759354  0.04196927  1
  Se  Se5  1  0.81106170  0.77745486  0.74112404  1
  O  O6  1  0.59468847  0.65564118  0.86638841  1
  O  O7  1  0.69314030  0.16327559  0.45454563  1
  O  O8  1  0.51318349  0.04999662  0.59431192  1
