# generated using pymatgen
data_Li2Ti(CuAs3)2
_symmetry_space_group_name_H-M   'P 1'
_cell_length_a   6.83378385
_cell_length_b   7.00940725
_cell_length_c   7.82337393
_cell_angle_alpha   93.15198139
_cell_angle_beta   95.45333750
_cell_angle_gamma   93.85091835
_symmetry_Int_Tables_number   1
_chemical_formula_structural   Li2Ti(CuAs3)2
_chemical_formula_sum   'Li2 Ti1 Cu2 As6'
_cell_volume   371.49613284
_cell_formula_units_Z   1
loop_
 _symmetry_equiv_pos_site_id
 _symmetry_equiv_pos_as_xyz
  1  'x, y, z'
loop_
 _atom_site_type_symbol
 _atom_site_label
 _atom_site_symmetry_multiplicity
 _atom_site_fract_x
 _atom_site_fract_y
 _atom_site_fract_z
 _atom_site_occupancy
  Li  Li0  1  0.00000000  0.00000000  0.00000000  1
  Li  Li1  1  0.33300000  0.66700000  0.25000000  1
  Cu  Cu2  1  0.66700000  0.33300000  0.50000000  1
  Cu  Cu3  1  0.00000000  0.00000000  0.75000000  1
  Ti  Ti4  1  0.89455189  0.00382214  0.77453332  1
  As  As5  1  0.42751129  0.34087950  0.22460542  1
  As  As6  1  0.09049553  0.36946575  0.48222199  1
  As  As7  1  0.35419483  0.99123115  0.54180453  1
  As  As8  1  0.52107403  0.03369124  0.98886405  1
  As  As9  1  0.99461295  0.46064395  0.72179698  1
  As  As10  1  0.84600956  0.52510133  0.88276454  1
