# generated using pymatgen
data_Li2Sb2Mo2P3N
_symmetry_space_group_name_H-M   'P 1'
_cell_length_a   4.91201848
_cell_length_b   5.00032110
_cell_length_c   5.83748964
_cell_angle_alpha   101.25863778
_cell_angle_beta   92.04823777
_cell_angle_gamma   100.39626906
_symmetry_Int_Tables_number   1
_chemical_formula_structural   Li2Sb2Mo2P3N
_chemical_formula_sum   'Li2 Sb2 Mo2 P3 N1'
_cell_volume   137.93593472
_cell_formula_units_Z   1
loop_
 _symmetry_equiv_pos_site_id
 _symmetry_equiv_pos_as_xyz
  1  'x, y, z'
loop_
 _atom_site_type_symbol
 _atom_site_label
 _atom_site_symmetry_multiplicity
 _atom_site_fract_x
 _atom_site_fract_y
 _atom_site_fract_z
 _atom_site_occupancy
  N  N0  1  0.12500000  0.00000000  0.25000000  1
  Sb  Sb1  1  0.00000000  0.00000000  0.00000000  1
  Sb  Sb2  1  0.37500000  0.00000000  0.25000000  1
  P  P3  1  0.25000000  0.25000000  0.25000000  1
  P  P4  1  0.00000000  0.25000000  0.12500000  1
  P  P5  1  0.94063835  0.28682856  0.35617912  1
  Mo  Mo6  1  0.41477933  0.02969036  0.68745074  1
  Mo  Mo7  1  0.52750879  0.26638009  0.52079401  1
  Li  Li8  1  0.57126750  0.45838921  0.86482606  1
  Li  Li9  1  0.36583537  0.25680027  0.88197191  1
