# generated using pymatgen
data_Li3TiAs6P3Se
_symmetry_space_group_name_H-M   'P 1'
_cell_length_a   6.96178459
_cell_length_b   6.66551610
_cell_length_c   7.56274353
_cell_angle_alpha   96.33714447
_cell_angle_beta   97.46404266
_cell_angle_gamma   96.17421738
_symmetry_Int_Tables_number   1
_chemical_formula_structural   Li3TiAs6P3Se
_chemical_formula_sum   'Li3 Ti1 As6 P3 Se1'
_cell_volume   343.18515580
_cell_formula_units_Z   1
loop_
 _symmetry_equiv_pos_site_id
 _symmetry_equiv_pos_as_xyz
  1  'x, y, z'
loop_
 _atom_site_type_symbol
 _atom_site_label
 _atom_site_symmetry_multiplicity
 _atom_site_fract_x
 _atom_site_fract_y
 _atom_site_fract_z
 _atom_site_occupancy
  P  P0  1  0.00000000  0.00000000  0.00000000  1
  P  P1  1  0.50000000  0.50000000  0.50000000  1
  P  P2  1  0.25000000  0.25000000  0.25000000  1
  Li  Li3  1  0.75000000  0.25000000  0.00000000  1
  Li  Li4  1  0.25000000  0.75000000  0.50000000  1
  Li  Li5  1  0.79652771  0.47402113  0.30108902  1
  Se  Se6  1  0.42906299  0.44559907  0.02978305  1
  Ti  Ti7  1  0.77208050  0.26893597  0.17085748  1
  As  As8  1  0.73277394  0.37317603  0.44678502  1
  As  As9  1  0.72246306  0.03858296  0.48628895  1
  As  As10  1  0.68149555  0.40378297  0.73119853  1
  As  As11  1  0.39917417  0.36271612  0.73042086  1
  As  As12  1  0.49614294  0.76954520  0.50601691  1
  As  As13  1  0.53825942  0.52336362  0.74525439  1
