# generated using pymatgen
data_Li2Ti3Mn(PN3)2
_symmetry_space_group_name_H-M   'P 1'
_cell_length_a   7.38754742
_cell_length_b   7.62689212
_cell_length_c   7.67459235
_cell_angle_alpha   91.08672036
_cell_angle_beta   91.28732068
_cell_angle_gamma   91.23682195
_symmetry_Int_Tables_number   1
_chemical_formula_structural   Li2Ti3Mn(PN3)2
_chemical_formula_sum   'Li2 Ti3 Mn1 P2 N6'
_cell_volume   432.12573526
_cell_formula_units_Z   1
loop_
 _symmetry_equiv_pos_site_id
 _symmetry_equiv_pos_as_xyz
  1  'x, y, z'
loop_
 _atom_site_type_symbol
 _atom_site_label
 _atom_site_symmetry_multiplicity
 _atom_site_fract_x
 _atom_site_fract_y
 _atom_site_fract_z
 _atom_site_occupancy
  N  N0  1  0.12500000  0.00000000  0.25000000  1
  N  N1  1  0.00000000  0.00000000  0.00000000  1
  N  N2  1  0.37500000  0.00000000  0.25000000  1
  N  N3  1  0.25000000  0.25000000  0.25000000  1
  N  N4  1  0.00000000  0.25000000  0.12500000  1
  N  N5  1  0.53977221  0.12875520  0.42793459  1
  Ti  Ti6  1  0.38941656  0.31665384  0.02520031  1
  Ti  Ti7  1  0.34928580  0.72229428  0.43704771  1
  Ti  Ti8  1  0.91103194  0.29799222  0.42936030  1
  Mn  Mn9  1  0.89895530  0.19974555  0.45479508  1
  P  P10  1  0.37071803  0.54876006  0.81709830  1
  P  P11  1  0.25819908  0.01234460  0.55263962  1
  Li  Li12  1  0.18767474  0.88938045  0.04928331  1
  Li  Li13  1  0.99933670  0.30922806  0.81283893  1
