# generated using pymatgen
data_Li3TiTe6(IO)4
_symmetry_space_group_name_H-M   'P 1'
_cell_length_a   8.72753718
_cell_length_b   8.87663682
_cell_length_c   7.32701566
_cell_angle_alpha   90.00000000
_cell_angle_beta   90.00000000
_cell_angle_gamma   90.00000000
_symmetry_Int_Tables_number   1
_chemical_formula_structural   Li3TiTe6(IO)4
_chemical_formula_sum   'Li3 Ti1 Te6 I4 O4'
_cell_volume   567.63253343
_cell_formula_units_Z   1
loop_
 _symmetry_equiv_pos_site_id
 _symmetry_equiv_pos_as_xyz
  1  'x, y, z'
loop_
 _atom_site_type_symbol
 _atom_site_label
 _atom_site_symmetry_multiplicity
 _atom_site_fract_x
 _atom_site_fract_y
 _atom_site_fract_z
 _atom_site_occupancy
  I  I0  1  0.00000000  0.00000000  0.00000000  1
  I  I1  1  0.50000000  0.50000000  0.50000000  1
  I  I2  1  0.25000000  0.25000000  0.25000000  1
  I  I3  1  0.75000000  0.25000000  0.00000000  1
  Li  Li4  1  0.25000000  0.75000000  0.50000000  1
  Li  Li5  1  0.57392984  0.09815855  0.35814760  1
  Li  Li6  1  0.89318455  0.07476605  0.71687622  1
  Te  Te7  1  0.14117543  0.60106495  0.30641201  1
  Te  Te8  1  0.46935983  0.68504686  0.41006241  1
  Te  Te9  1  0.62145098  0.04412712  0.00435097  1
  Te  Te10  1  0.10821943  0.62185672  0.58864905  1
  Te  Te11  1  0.16765520  0.82188586  0.64182273  1
  Te  Te12  1  0.79023942  0.31253035  0.90010918  1
  Ti  Ti13  1  0.95057897  0.04993151  0.25377356  1
  O  O14  1  0.78563146  0.40071085  0.60897795  1
  O  O15  1  0.04537336  0.32952313  0.11296595  1
  O  O16  1  0.46258124  0.72116305  0.28426611  1
  O  O17  1  0.94220686  0.75291091  0.93551712  1
