# generated using pymatgen
data_LiCuAs3(IO)2
_symmetry_space_group_name_H-M   'P 1'
_cell_length_a   8.00435890
_cell_length_b   8.33892067
_cell_length_c   7.86696284
_cell_angle_alpha   90.25420388
_cell_angle_beta   91.20942488
_cell_angle_gamma   90.29062292
_symmetry_Int_Tables_number   1
_chemical_formula_structural   LiCuAs3(IO)2
_chemical_formula_sum   'Li2 Cu2 As6 I4 O4'
_cell_volume   524.97262984
_cell_formula_units_Z   2
loop_
 _symmetry_equiv_pos_site_id
 _symmetry_equiv_pos_as_xyz
  1  'x, y, z'
loop_
 _atom_site_type_symbol
 _atom_site_label
 _atom_site_symmetry_multiplicity
 _atom_site_fract_x
 _atom_site_fract_y
 _atom_site_fract_z
 _atom_site_occupancy
  I  I0  1  0.12500000  0.00000000  0.25000000  1
  I  I1  1  0.00000000  0.00000000  0.00000000  1
  I  I2  1  0.37500000  0.00000000  0.25000000  1
  I  I3  1  0.25000000  0.25000000  0.25000000  1
  Li  Li4  1  0.00000000  0.25000000  0.12500000  1
  Li  Li5  1  0.50216205  0.99177051  0.36767990  1
  Cu  Cu6  1  0.51891630  0.32207182  0.01880070  1
  Cu  Cu7  1  0.37819648  0.18754670  0.67425819  1
  As  As8  1  0.43531749  0.52556390  0.72168816  1
  As  As9  1  0.79191285  0.95601533  0.51620292  1
  As  As10  1  0.66303640  0.52755130  0.44454375  1
  As  As11  1  0.76150759  0.76629605  0.28545466  1
  As  As12  1  0.97193237  0.07577661  0.39126332  1
  As  As13  1  0.95078516  0.35633104  0.84500447  1
  O  O14  1  0.66572210  0.98785544  0.25813339  1
  O  O15  1  0.90188120  0.73548328  0.93795183  1
  O  O16  1  0.63630580  0.80954624  0.54057070  1
  O  O17  1  0.49782335  0.85270084  0.43672653  1
