# generated using pymatgen
data_Li2Sb4P3
_symmetry_space_group_name_H-M   'P 1'
_cell_length_a   6.05896829
_cell_length_b   6.17395225
_cell_length_c   7.02230567
_cell_angle_alpha   97.18801508
_cell_angle_beta   93.84967863
_cell_angle_gamma   97.65476208
_symmetry_Int_Tables_number   1
_chemical_formula_structural   Li2Sb4P3
_chemical_formula_sum   'Li2 Sb4 P3'
_cell_volume   257.36199240
_cell_formula_units_Z   1
loop_
 _symmetry_equiv_pos_site_id
 _symmetry_equiv_pos_as_xyz
  1  'x, y, z'
loop_
 _atom_site_type_symbol
 _atom_site_label
 _atom_site_symmetry_multiplicity
 _atom_site_fract_x
 _atom_site_fract_y
 _atom_site_fract_z
 _atom_site_occupancy
  Sb  Sb0  1  0.00000000  0.00000000  0.00000000  1
  Sb  Sb1  1  0.33300000  0.66700000  0.25000000  1
  Sb  Sb2  1  0.66700000  0.33300000  0.50000000  1
  Sb  Sb3  1  0.00000000  0.00000000  0.75000000  1
  P  P4  1  0.74499337  0.70946493  0.55820219  1
  P  P5  1  0.29501183  0.71554426  0.56337058  1
  P  P6  1  0.43897119  0.94221488  0.57097736  1
  Li  Li7  1  0.43895772  0.16425969  0.53622789  1
  Li  Li8  1  0.06224549  0.91052657  0.50904083  1
