# generated using pymatgen
data_LiMn3Sb4P3
_symmetry_space_group_name_H-M   'P 1'
_cell_length_a   5.96092088
_cell_length_b   6.22113111
_cell_length_c   6.29314274
_cell_angle_alpha   93.49493028
_cell_angle_beta   89.02539069
_cell_angle_gamma   92.89301434
_symmetry_Int_Tables_number   1
_chemical_formula_structural   LiMn3Sb4P3
_chemical_formula_sum   'Li1 Mn3 Sb4 P3'
_cell_volume   232.61920337
_cell_formula_units_Z   1
loop_
 _symmetry_equiv_pos_site_id
 _symmetry_equiv_pos_as_xyz
  1  'x, y, z'
loop_
 _atom_site_type_symbol
 _atom_site_label
 _atom_site_symmetry_multiplicity
 _atom_site_fract_x
 _atom_site_fract_y
 _atom_site_fract_z
 _atom_site_occupancy
  Mn  Mn0  1  0.00000000  0.00000000  0.00000000  1
  Mn  Mn1  1  0.33300000  0.66700000  0.25000000  1
  Mn  Mn2  1  0.66700000  0.33300000  0.50000000  1
  Sb  Sb3  1  0.00000000  0.00000000  0.75000000  1
  Sb  Sb4  1  0.86371486  0.84514348  0.06918806  1
  Sb  Sb5  1  0.03705572  0.65820560  0.51442900  1
  Sb  Sb6  1  0.54498735  0.71031752  0.09842222  1
  P  P7  1  0.15988224  0.09366059  0.92654033  1
  P  P8  1  0.00626711  0.83545063  0.68068483  1
  P  P9  1  0.66764810  0.09714829  0.63467711  1
  Li  Li10  1  0.28848264  0.14504158  0.34751885  1
