# generated using pymatgen
data_Li2MnSb4P3
_symmetry_space_group_name_H-M   'P 1'
_cell_length_a   6.93464279
_cell_length_b   6.99234918
_cell_length_c   7.50810089
_cell_angle_alpha   93.34040156
_cell_angle_beta   92.40152996
_cell_angle_gamma   93.62637972
_symmetry_Int_Tables_number   1
_chemical_formula_structural   Li2MnSb4P3
_chemical_formula_sum   'Li2 Mn1 Sb4 P3'
_cell_volume   362.33745226
_cell_formula_units_Z   1
loop_
 _symmetry_equiv_pos_site_id
 _symmetry_equiv_pos_as_xyz
  1  'x, y, z'
loop_
 _atom_site_type_symbol
 _atom_site_label
 _atom_site_symmetry_multiplicity
 _atom_site_fract_x
 _atom_site_fract_y
 _atom_site_fract_z
 _atom_site_occupancy
  Mn  Mn0  1  0.00000000  0.00000000  0.00000000  1
  Sb  Sb1  1  0.33300000  0.66700000  0.25000000  1
  Sb  Sb2  1  0.66700000  0.33300000  0.50000000  1
  Sb  Sb3  1  0.00000000  0.00000000  0.75000000  1
  Sb  Sb4  1  0.52629003  0.27886481  0.30625848  1
  P  P5  1  0.84158801  0.17260306  0.62740966  1
  P  P6  1  0.81165831  0.32399274  0.29332363  1
  P  P7  1  0.99429959  0.01016703  0.52299076  1
  Li  Li8  1  0.30467566  0.64485164  0.73684282  1
  Li  Li9  1  0.05728160  0.67473239  0.14876717  1
