# generated using pymatgen
data_Li3Ni2As6P4O7
_symmetry_space_group_name_H-M   'P 1'
_cell_length_a   7.98197719
_cell_length_b   7.82072705
_cell_length_c   9.29544010
_cell_angle_alpha   90.95701127
_cell_angle_beta   90.60674201
_cell_angle_gamma   91.10900485
_symmetry_Int_Tables_number   1
_chemical_formula_structural   Li3Ni2As6P4O7
_chemical_formula_sum   'Li3 Ni2 As6 P4 O7'
_cell_volume   580.04240781
_cell_formula_units_Z   1
loop_
 _symmetry_equiv_pos_site_id
 _symmetry_equiv_pos_as_xyz
  1  'x, y, z'
loop_
 _atom_site_type_symbol
 _atom_site_label
 _atom_site_symmetry_multiplicity
 _atom_site_fract_x
 _atom_site_fract_y
 _atom_site_fract_z
 _atom_site_occupancy
  P  P0  1  0.00000000  0.00000000  0.00000000  1
  P  P1  1  0.50000000  0.50000000  0.50000000  1
  P  P2  1  0.25000000  0.25000000  0.25000000  1
  P  P3  1  0.75000000  0.25000000  0.00000000  1
  Li  Li4  1  0.25000000  0.75000000  0.50000000  1
  Li  Li5  1  0.14605822  0.49635006  0.21986944  1
  Li  Li6  1  0.26749176  0.30394132  0.20060999  1
  Ni  Ni7  1  0.41075601  0.13905055  0.80010706  1
  Ni  Ni8  1  0.70546194  0.37061472  0.25372772  1
  As  As9  1  0.90342528  0.32763811  0.53969954  1
  As  As10  1  0.22233945  0.12463868  0.83944648  1
  As  As11  1  0.43747003  0.19259022  0.39766389  1
  As  As12  1  0.42157603  0.91516897  0.83432485  1
  As  As13  1  0.51185212  0.91767521  0.11705165  1
  As  As14  1  0.79892424  0.37163035  0.88205248  1
  O  O15  1  0.00830677  0.10058632  0.13474214  1
  O  O16  1  0.55959557  0.14092130  0.11667743  1
  O  O17  1  0.72131424  0.72232457  0.78452163  1
  O  O18  1  0.15593958  0.33630889  0.03106582  1
  O  O19  1  0.35607071  0.63588808  0.71936972  1
  O  O20  1  0.69305931  0.54496943  0.54770688  1
  O  O21  1  0.88712829  0.09306987  0.24568261  1
