# generated using pymatgen
data_Li3Cu2(As3P4)2
_symmetry_space_group_name_H-M   'P 1'
_cell_length_a   7.35449737
_cell_length_b   7.43780538
_cell_length_c   8.40399981
_cell_angle_alpha   92.16971176
_cell_angle_beta   94.12310919
_cell_angle_gamma   92.09925484
_symmetry_Int_Tables_number   1
_chemical_formula_structural   Li3Cu2(As3P4)2
_chemical_formula_sum   'Li3 Cu2 As6 P8'
_cell_volume   457.83408330
_cell_formula_units_Z   1
loop_
 _symmetry_equiv_pos_site_id
 _symmetry_equiv_pos_as_xyz
  1  'x, y, z'
loop_
 _atom_site_type_symbol
 _atom_site_label
 _atom_site_symmetry_multiplicity
 _atom_site_fract_x
 _atom_site_fract_y
 _atom_site_fract_z
 _atom_site_occupancy
  P  P0  1  0.12500000  0.12500000  0.12500000  1
  P  P1  1  0.50000000  0.50000000  0.50000000  1
  P  P2  1  0.25000000  0.25000000  0.25000000  1
  P  P3  1  0.75000000  0.75000000  0.75000000  1
  P  P4  1  0.32920500  0.16090269  0.25238785  1
  P  P5  1  0.34278960  0.10340536  0.34468356  1
  P  P6  1  0.65800754  0.53542870  0.96843584  1
  P  P7  1  0.07047061  0.47798514  0.03552730  1
  As  As8  1  0.11897696  0.72457846  0.95573828  1
  As  As9  1  0.19687044  0.01355232  0.29291319  1
  As  As10  1  0.17183984  0.30828636  0.60555334  1
  As  As11  1  0.71954765  0.89645976  0.02889930  1
  As  As12  1  0.02354129  0.85834455  0.58703716  1
  As  As13  1  0.66975434  0.29163119  0.57567601  1
  Li  Li14  1  0.22785073  0.04070703  0.70909259  1
  Li  Li15  1  0.83138254  0.92188021  0.68720024  1
  Li  Li16  1  0.10330193  0.50022081  0.99568496  1
  Cu  Cu17  1  0.36300112  0.74516753  0.81053305  1
  Cu  Cu18  1  0.11604910  0.95276293  0.19235481  1
