# generated using pymatgen
data_Li3TiP3(ClF)2
_symmetry_space_group_name_H-M   'P 1'
_cell_length_a   6.76131596
_cell_length_b   6.38127668
_cell_length_c   6.99708392
_cell_angle_alpha   96.31083573
_cell_angle_beta   98.57590804
_cell_angle_gamma   95.94161664
_symmetry_Int_Tables_number   1
_chemical_formula_structural   Li3TiP3(ClF)2
_chemical_formula_sum   'Li3 Ti1 P3 Cl2 F2'
_cell_volume   294.49410893
_cell_formula_units_Z   1
loop_
 _symmetry_equiv_pos_site_id
 _symmetry_equiv_pos_as_xyz
  1  'x, y, z'
loop_
 _atom_site_type_symbol
 _atom_site_label
 _atom_site_symmetry_multiplicity
 _atom_site_fract_x
 _atom_site_fract_y
 _atom_site_fract_z
 _atom_site_occupancy
  P  P0  1  0.12500000  0.00000000  0.25000000  1
  P  P1  1  0.00000000  0.00000000  0.00000000  1
  P  P2  1  0.37500000  0.00000000  0.25000000  1
  Li  Li3  1  0.25000000  0.25000000  0.25000000  1
  Li  Li4  1  0.00000000  0.25000000  0.12500000  1
  Li  Li5  1  0.83640226  0.70098950  0.53427938  1
  F  F6  1  0.17206268  0.73287956  0.62833244  1
  F  F7  1  0.12688600  0.46134824  0.53559914  1
  Cl  Cl8  1  0.83252734  0.94407294  0.71943698  1
  Cl  Cl9  1  0.98516052  0.95241981  0.71242583  1
  Ti  Ti10  1  0.13259832  0.65791131  0.75840644  1
