# generated using pymatgen
data_Li3Cu2(P3Cl)2
_symmetry_space_group_name_H-M   'P 1'
_cell_length_a   6.75669600
_cell_length_b   6.46898691
_cell_length_c   7.77409327
_cell_angle_alpha   96.37776543
_cell_angle_beta   97.66371239
_cell_angle_gamma   96.24291066
_symmetry_Int_Tables_number   1
_chemical_formula_structural   Li3Cu2(P3Cl)2
_chemical_formula_sum   'Li3 Cu2 P6 Cl2'
_cell_volume   332.03447953
_cell_formula_units_Z   1
loop_
 _symmetry_equiv_pos_site_id
 _symmetry_equiv_pos_as_xyz
  1  'x, y, z'
loop_
 _atom_site_type_symbol
 _atom_site_label
 _atom_site_symmetry_multiplicity
 _atom_site_fract_x
 _atom_site_fract_y
 _atom_site_fract_z
 _atom_site_occupancy
  Cl  Cl0  1  0.00000000  0.00000000  0.00000000  1
  Cl  Cl1  1  0.33300000  0.66700000  0.25000000  1
  P  P2  1  0.66700000  0.33300000  0.50000000  1
  P  P3  1  0.00000000  0.00000000  0.75000000  1
  P  P4  1  0.47832910  0.66320579  0.34807020  1
  P  P5  1  0.45054060  0.55299838  0.57656402  1
  P  P6  1  0.23825072  0.30714361  0.45152639  1
  P  P7  1  0.20846606  0.70413096  0.97028639  1
  Li  Li8  1  0.45568522  0.66054613  0.32438013  1
  Li  Li9  1  0.74825862  0.62985134  0.94539907  1
  Li  Li10  1  0.70301353  0.61376291  0.67535346  1
  Cu  Cu11  1  0.43903706  0.34877574  0.71853584  1
  Cu  Cu12  1  0.40294930  0.74078222  0.49235088  1
