# generated using pymatgen
data_Li2Sb4Mo2P3
_symmetry_space_group_name_H-M   'P 1'
_cell_length_a   3.94429558
_cell_length_b   4.14715568
_cell_length_c   6.33126806
_cell_angle_alpha   103.12315133
_cell_angle_beta   96.38403098
_cell_angle_gamma   103.65989523
_symmetry_Int_Tables_number   1
_chemical_formula_structural   Li2Sb4Mo2P3
_chemical_formula_sum   'Li2 Sb4 Mo2 P3'
_cell_volume   96.50915684
_cell_formula_units_Z   1
loop_
 _symmetry_equiv_pos_site_id
 _symmetry_equiv_pos_as_xyz
  1  'x, y, z'
loop_
 _atom_site_type_symbol
 _atom_site_label
 _atom_site_symmetry_multiplicity
 _atom_site_fract_x
 _atom_site_fract_y
 _atom_site_fract_z
 _atom_site_occupancy
  Sb  Sb0  1  0.12500000  0.12500000  0.12500000  1
  Sb  Sb1  1  0.50000000  0.50000000  0.50000000  1
  Sb  Sb2  1  0.25000000  0.25000000  0.25000000  1
  Sb  Sb3  1  0.75000000  0.75000000  0.75000000  1
  P  P4  1  0.12436014  0.73337491  0.60773161  1
  P  P5  1  0.28647318  0.26511925  0.00839595  1
  P  P6  1  0.75070854  0.75115871  0.50537582  1
  Mo  Mo7  1  0.61253325  0.89441611  0.03473602  1
  Mo  Mo8  1  0.58118412  0.54299706  0.50989469  1
  Li  Li9  1  0.25386843  0.56578018  0.59545329  1
  Li  Li10  1  0.48489955  0.32374434  0.96044076  1
