# generated using pymatgen
data_LiCuP2F
_symmetry_space_group_name_H-M   'P 1'
_cell_length_a   7.99932266
_cell_length_b   7.72791488
_cell_length_c   7.98792739
_cell_angle_alpha   90.92077484
_cell_angle_beta   91.14120314
_cell_angle_gamma   91.06491074
_symmetry_Int_Tables_number   1
_chemical_formula_structural   LiCuP2F
_chemical_formula_sum   'Li2 Cu2 P4 F2'
_cell_volume   493.54839438
_cell_formula_units_Z   2
loop_
 _symmetry_equiv_pos_site_id
 _symmetry_equiv_pos_as_xyz
  1  'x, y, z'
loop_
 _atom_site_type_symbol
 _atom_site_label
 _atom_site_symmetry_multiplicity
 _atom_site_fract_x
 _atom_site_fract_y
 _atom_site_fract_z
 _atom_site_occupancy
  P  P0  1  0.12500000  0.00000000  0.25000000  1
  P  P1  1  0.00000000  0.00000000  0.00000000  1
  P  P2  1  0.37500000  0.00000000  0.25000000  1
  P  P3  1  0.25000000  0.25000000  0.25000000  1
  Li  Li4  1  0.00000000  0.25000000  0.12500000  1
  Li  Li5  1  0.22741409  0.43877810  0.11199703  1
  Cu  Cu6  1  0.25504452  0.27776990  0.86068105  1
  Cu  Cu7  1  0.63489045  0.48622655  0.02712335  1
  F  F8  1  0.25182313  0.93115228  0.05908871  1
  F  F9  1  0.84759690  0.11885749  0.87470303  1
