# generated using pymatgen
data_Li3TiCu2(As3I2)2
_symmetry_space_group_name_H-M   'P 1'
_cell_length_a   7.67213900
_cell_length_b   7.54037299
_cell_length_c   8.23409756
_cell_angle_alpha   92.76645546
_cell_angle_beta   93.25409329
_cell_angle_gamma   92.81043853
_symmetry_Int_Tables_number   1
_chemical_formula_structural   Li3TiCu2(As3I2)2
_chemical_formula_sum   'Li3 Ti1 Cu2 As6 I4'
_cell_volume   474.38614676
_cell_formula_units_Z   1
loop_
 _symmetry_equiv_pos_site_id
 _symmetry_equiv_pos_as_xyz
  1  'x, y, z'
loop_
 _atom_site_type_symbol
 _atom_site_label
 _atom_site_symmetry_multiplicity
 _atom_site_fract_x
 _atom_site_fract_y
 _atom_site_fract_z
 _atom_site_occupancy
  I  I0  1  0.00000000  0.00000000  0.00000000  1
  I  I1  1  0.50000000  0.50000000  0.50000000  1
  I  I2  1  0.25000000  0.25000000  0.25000000  1
  I  I3  1  0.75000000  0.25000000  0.00000000  1
  Li  Li4  1  0.25000000  0.75000000  0.50000000  1
  Li  Li5  1  0.09279354  0.73108932  0.78934537  1
  Li  Li6  1  0.15204282  0.72698063  0.49975077  1
  Cu  Cu7  1  0.29960397  0.64841248  0.76923605  1
  Cu  Cu8  1  0.20549091  0.36850992  0.60674708  1
  Ti  Ti9  1  0.23880373  0.89148776  0.90955079  1
  As  As10  1  0.27510239  0.54669847  0.08885286  1
  As  As11  1  0.26393632  0.91319357  0.96714213  1
  As  As12  1  0.42130477  0.14657099  0.71912146  1
  As  As13  1  0.62647394  0.30527075  0.04186846  1
  As  As14  1  0.27004634  0.74650778  0.90928586  1
  As  As15  1  0.02987679  0.34733009  0.02495356  1
