# generated using pymatgen
data_Li2Mn3Sb4P2N
_symmetry_space_group_name_H-M   'P 1'
_cell_length_a   5.81290195
_cell_length_b   6.31323178
_cell_length_c   6.59132448
_cell_angle_alpha   97.74102344
_cell_angle_beta   97.23506634
_cell_angle_gamma   94.12122348
_symmetry_Int_Tables_number   1
_chemical_formula_structural   Li2Mn3Sb4P2N
_chemical_formula_sum   'Li2 Mn3 Sb4 P2 N1'
_cell_volume   236.80411050
_cell_formula_units_Z   1
loop_
 _symmetry_equiv_pos_site_id
 _symmetry_equiv_pos_as_xyz
  1  'x, y, z'
loop_
 _atom_site_type_symbol
 _atom_site_label
 _atom_site_symmetry_multiplicity
 _atom_site_fract_x
 _atom_site_fract_y
 _atom_site_fract_z
 _atom_site_occupancy
  N  N0  1  0.00000000  0.00000000  0.00000000  1
  Mn  Mn1  1  0.50000000  0.50000000  0.50000000  1
  Mn  Mn2  1  0.25000000  0.25000000  0.25000000  1
  Mn  Mn3  1  0.75000000  0.25000000  0.00000000  1
  Sb  Sb4  1  0.25000000  0.75000000  0.50000000  1
  Sb  Sb5  1  0.79304228  0.39863510  0.41481387  1
  Sb  Sb6  1  0.04646521  0.89020323  0.14824481  1
  Sb  Sb7  1  0.80896869  0.67392761  0.87598911  1
  P  P8  1  0.08887138  0.82504728  0.13768622  1
  P  P9  1  0.78067421  0.47583931  0.25140294  1
  Li  Li10  1  0.18138839  0.36246657  0.52987885  1
  Li  Li11  1  0.06727005  0.17026125  0.61221450  1
