# generated using pymatgen
data_Li2Mn2Sb4Mo2P3
_symmetry_space_group_name_H-M   'P 1'
_cell_length_a   5.92874118
_cell_length_b   6.42122657
_cell_length_c   7.18986682
_cell_angle_alpha   94.77653074
_cell_angle_beta   94.52501773
_cell_angle_gamma   95.27846481
_symmetry_Int_Tables_number   1
_chemical_formula_structural   Li2Mn2Sb4Mo2P3
_chemical_formula_sum   'Li2 Mn2 Sb4 Mo2 P3'
_cell_volume   270.57417557
_cell_formula_units_Z   1
loop_
 _symmetry_equiv_pos_site_id
 _symmetry_equiv_pos_as_xyz
  1  'x, y, z'
loop_
 _atom_site_type_symbol
 _atom_site_label
 _atom_site_symmetry_multiplicity
 _atom_site_fract_x
 _atom_site_fract_y
 _atom_site_fract_z
 _atom_site_occupancy
  Mn  Mn0  1  0.00000000  0.00000000  0.00000000  1
  Mn  Mn1  1  0.50000000  0.50000000  0.50000000  1
  Sb  Sb2  1  0.50000000  0.50000000  0.00000000  1
  Sb  Sb3  1  0.50000000  0.00000000  0.50000000  1
  Sb  Sb4  1  0.00000000  0.50000000  0.50000000  1
  Sb  Sb5  1  0.94167901  0.39193887  0.08400267  1
  P  P6  1  0.74658025  0.49059904  0.88250470  1
  P  P7  1  0.73791052  0.01569392  0.90386279  1
  P  P8  1  0.59195289  0.87604535  0.18000339  1
  Mo  Mo9  1  0.16579141  0.70671290  0.19814651  1
  Mo  Mo10  1  0.55928597  0.17333131  0.89680756  1
  Li  Li11  1  0.46560922  0.74746504  0.94454385  1
  Li  Li12  1  0.68891986  0.75164962  0.29003366  1
