# generated using pymatgen
data_LiSb4Mo2P3
_symmetry_space_group_name_H-M   'P 1'
_cell_length_a   5.08408359
_cell_length_b   5.36161849
_cell_length_c   6.50530975
_cell_angle_alpha   97.39844030
_cell_angle_beta   93.57062799
_cell_angle_gamma   97.53702928
_symmetry_Int_Tables_number   1
_chemical_formula_structural   LiSb4Mo2P3
_chemical_formula_sum   'Li1 Sb4 Mo2 P3'
_cell_volume   173.76588970
_cell_formula_units_Z   1
loop_
 _symmetry_equiv_pos_site_id
 _symmetry_equiv_pos_as_xyz
  1  'x, y, z'
loop_
 _atom_site_type_symbol
 _atom_site_label
 _atom_site_symmetry_multiplicity
 _atom_site_fract_x
 _atom_site_fract_y
 _atom_site_fract_z
 _atom_site_occupancy
  Sb  Sb0  1  0.12500000  0.12500000  0.12500000  1
  Sb  Sb1  1  0.50000000  0.50000000  0.50000000  1
  Sb  Sb2  1  0.25000000  0.25000000  0.25000000  1
  Sb  Sb3  1  0.75000000  0.75000000  0.75000000  1
  P  P4  1  0.75740929  0.28387046  0.37535679  1
  P  P5  1  0.20384116  0.19366885  0.01970964  1
  P  P6  1  0.54798041  0.44556998  0.08479964  1
  Mo  Mo7  1  0.38837759  0.35675387  0.64353441  1
  Mo  Mo8  1  0.88028473  0.75355211  0.21571501  1
  Li  Li9  1  0.86607932  0.65365392  0.42119758  1
