# generated using pymatgen
data_Li3Zn2Cu2(I2O)2
_symmetry_space_group_name_H-M   'P 1'
_cell_length_a   7.00549678
_cell_length_b   7.35799367
_cell_length_c   7.33215233
_cell_angle_alpha   95.57143770
_cell_angle_beta   97.40325482
_cell_angle_gamma   96.53276348
_symmetry_Int_Tables_number   1
_chemical_formula_structural   Li3Zn2Cu2(I2O)2
_chemical_formula_sum   'Li3 Zn2 Cu2 I4 O2'
_cell_volume   369.95898786
_cell_formula_units_Z   1
loop_
 _symmetry_equiv_pos_site_id
 _symmetry_equiv_pos_as_xyz
  1  'x, y, z'
loop_
 _atom_site_type_symbol
 _atom_site_label
 _atom_site_symmetry_multiplicity
 _atom_site_fract_x
 _atom_site_fract_y
 _atom_site_fract_z
 _atom_site_occupancy
  I  I0  1  0.00000000  0.00000000  0.00000000  1
  I  I1  1  0.50000000  0.50000000  0.50000000  1
  I  I2  1  0.25000000  0.25000000  0.25000000  1
  I  I3  1  0.75000000  0.25000000  0.00000000  1
  Li  Li4  1  0.25000000  0.75000000  0.50000000  1
  Li  Li5  1  0.56169862  0.45910772  0.33008812  1
  Li  Li6  1  0.56581742  0.90497214  0.69369885  1
  Cu  Cu7  1  0.07450113  0.21674370  0.67946101  1
  Cu  Cu8  1  0.44128677  0.57436868  0.55544381  1
  Zn  Zn9  1  0.93977910  0.50597759  0.97563632  1
  Zn  Zn10  1  0.20841373  0.89987091  0.66887742  1
  O  O11  1  0.06005659  0.75158458  0.24160030  1
  O  O12  1  0.07773130  0.88400050  0.26074861  1
