# generated using pymatgen
data_LiTiMo2N
_symmetry_space_group_name_H-M   'P 1'
_cell_length_a   3.63846624
_cell_length_b   3.64874284
_cell_length_c   5.32512527
_cell_angle_alpha   103.02009345
_cell_angle_beta   91.46066435
_cell_angle_gamma   103.16301384
_symmetry_Int_Tables_number   1
_chemical_formula_structural   LiTiMo2N
_chemical_formula_sum   'Li1 Ti1 Mo2 N1'
_cell_volume   66.84815597
_cell_formula_units_Z   1
loop_
 _symmetry_equiv_pos_site_id
 _symmetry_equiv_pos_as_xyz
  1  'x, y, z'
loop_
 _atom_site_type_symbol
 _atom_site_label
 _atom_site_symmetry_multiplicity
 _atom_site_fract_x
 _atom_site_fract_y
 _atom_site_fract_z
 _atom_site_occupancy
  Ti  Ti0  1  0.00000000  0.00000000  0.00000000  1
  Mo  Mo1  1  0.50000000  0.50000000  0.50000000  1
  Mo  Mo2  1  0.50000000  0.50000000  0.00000000  1
  Li  Li3  1  0.50000000  0.00000000  0.50000000  1
  N  N4  1  0.00000000  0.50000000  0.50000000  1
