# generated using pymatgen
data_Li3LuTi(IO)4
_symmetry_space_group_name_H-M   'P 1'
_cell_length_a   8.34950623
_cell_length_b   8.18756282
_cell_length_c   7.53419348
_cell_angle_alpha   90.68895923
_cell_angle_beta   90.58469641
_cell_angle_gamma   90.79782264
_symmetry_Int_Tables_number   1
_chemical_formula_structural   Li3LuTi(IO)4
_chemical_formula_sum   'Li3 Lu1 Ti1 I4 O4'
_cell_volume   514.93846408
_cell_formula_units_Z   1
loop_
 _symmetry_equiv_pos_site_id
 _symmetry_equiv_pos_as_xyz
  1  'x, y, z'
loop_
 _atom_site_type_symbol
 _atom_site_label
 _atom_site_symmetry_multiplicity
 _atom_site_fract_x
 _atom_site_fract_y
 _atom_site_fract_z
 _atom_site_occupancy
  I  I0  1  0.00000000  0.00000000  0.00000000  1
  I  I1  1  0.50000000  0.50000000  0.50000000  1
  I  I2  1  0.25000000  0.25000000  0.25000000  1
  I  I3  1  0.75000000  0.25000000  0.00000000  1
  Lu  Lu4  1  0.25000000  0.75000000  0.50000000  1
  Li  Li5  1  0.41592457  0.07913052  0.81822534  1
  Li  Li6  1  0.65635132  0.86495621  0.75273107  1
  Li  Li7  1  0.82785875  0.91399424  0.48026002  1
  Ti  Ti8  1  0.01634104  0.57167248  0.51041101  1
  O  O9  1  0.91158819  0.13134938  0.05799371  1
  O  O10  1  0.52048306  0.54747204  0.15715517  1
  O  O11  1  0.45839837  0.09604532  0.63901393  1
  O  O12  1  0.24888051  0.34144222  0.34782011  1
