# generated using pymatgen
data_Li2Ni3Mo2P4O3
_symmetry_space_group_name_H-M   'P 1'
_cell_length_a   5.11183572
_cell_length_b   4.86764047
_cell_length_c   6.41737313
_cell_angle_alpha   101.71254033
_cell_angle_beta   90.58512061
_cell_angle_gamma   101.47957785
_symmetry_Int_Tables_number   1
_chemical_formula_structural   Li2Ni3Mo2P4O3
_chemical_formula_sum   'Li2 Ni3 Mo2 P4 O3'
_cell_volume   153.01490157
_cell_formula_units_Z   1
loop_
 _symmetry_equiv_pos_site_id
 _symmetry_equiv_pos_as_xyz
  1  'x, y, z'
loop_
 _atom_site_type_symbol
 _atom_site_label
 _atom_site_symmetry_multiplicity
 _atom_site_fract_x
 _atom_site_fract_y
 _atom_site_fract_z
 _atom_site_occupancy
  P  P0  1  0.12500000  0.00000000  0.25000000  1
  P  P1  1  0.00000000  0.00000000  0.00000000  1
  P  P2  1  0.37500000  0.00000000  0.25000000  1
  P  P3  1  0.25000000  0.25000000  0.25000000  1
  Mo  Mo4  1  0.00000000  0.25000000  0.12500000  1
  Mo  Mo5  1  0.11095440  0.73127509  0.82616047  1
  O  O6  1  0.12718280  0.15278781  0.17916806  1
  O  O7  1  0.11901826  0.82717753  0.97920383  1
  O  O8  1  0.15126422  0.64769585  0.85124563  1
  Li  Li9  1  0.84355880  0.78932341  0.36365682  1
  Li  Li10  1  0.52264602  0.51368090  0.47797386  1
  Ni  Ni11  1  0.09137493  0.28143924  0.27705299  1
  Ni  Ni12  1  0.51111148  0.18562554  0.62659239  1
  Ni  Ni13  1  0.62098834  0.27786039  0.92411239  1
