# generated using pymatgen
data_Li2TiCu2(PO)4
_symmetry_space_group_name_H-M   'P 1'
_cell_length_a   7.74834605
_cell_length_b   7.59633093
_cell_length_c   7.19786095
_cell_angle_alpha   90.84330164
_cell_angle_beta   91.71393571
_cell_angle_gamma   90.56918724
_symmetry_Int_Tables_number   1
_chemical_formula_structural   Li2TiCu2(PO)4
_chemical_formula_sum   'Li2 Ti1 Cu2 P4 O4'
_cell_volume   423.40068538
_cell_formula_units_Z   1
loop_
 _symmetry_equiv_pos_site_id
 _symmetry_equiv_pos_as_xyz
  1  'x, y, z'
loop_
 _atom_site_type_symbol
 _atom_site_label
 _atom_site_symmetry_multiplicity
 _atom_site_fract_x
 _atom_site_fract_y
 _atom_site_fract_z
 _atom_site_occupancy
  P  P0  1  0.12500000  0.00000000  0.25000000  1
  P  P1  1  0.00000000  0.00000000  0.00000000  1
  P  P2  1  0.37500000  0.00000000  0.25000000  1
  P  P3  1  0.25000000  0.25000000  0.25000000  1
  Li  Li4  1  0.00000000  0.25000000  0.12500000  1
  Li  Li5  1  0.21895320  0.16429255  0.64286276  1
  Cu  Cu6  1  0.57905694  0.93000058  0.66753139  1
  Cu  Cu7  1  0.72180760  0.80329499  0.96651080  1
  Ti  Ti8  1  0.79547710  0.59824389  0.80780606  1
  O  O9  1  0.22943037  0.97656183  0.97318015  1
  O  O10  1  0.26885919  0.18283962  0.13277302  1
  O  O11  1  0.05627044  0.20239414  0.36629237  1
  O  O12  1  0.87430073  0.17369286  0.21460960  1
