# generated using pymatgen
data_LiSb4Mo2P3
_symmetry_space_group_name_H-M   'P 1'
_cell_length_a   4.37498903
_cell_length_b   4.41472808
_cell_length_c   5.62466169
_cell_angle_alpha   100.57896015
_cell_angle_beta   90.49094429
_cell_angle_gamma   100.02005558
_symmetry_Int_Tables_number   1
_chemical_formula_structural   LiSb4Mo2P3
_chemical_formula_sum   'Li1 Sb4 Mo2 P3'
_cell_volume   105.06935445
_cell_formula_units_Z   1
loop_
 _symmetry_equiv_pos_site_id
 _symmetry_equiv_pos_as_xyz
  1  'x, y, z'
loop_
 _atom_site_type_symbol
 _atom_site_label
 _atom_site_symmetry_multiplicity
 _atom_site_fract_x
 _atom_site_fract_y
 _atom_site_fract_z
 _atom_site_occupancy
  Sb  Sb0  1  0.00000000  0.00000000  0.00000000  1
  Sb  Sb1  1  0.33300000  0.66700000  0.25000000  1
  Sb  Sb2  1  0.66700000  0.33300000  0.50000000  1
  Sb  Sb3  1  0.00000000  0.00000000  0.75000000  1
  P  P4  1  0.03802732  0.63599357  0.06362443  1
  P  P5  1  0.82289518  0.61347567  0.90840186  1
  P  P6  1  0.31773005  0.10234937  0.75228780  1
  Mo  Mo7  1  0.03087428  0.13262503  0.79080551  1
  Mo  Mo8  1  0.55171802  0.11146240  0.44309058  1
  Li  Li9  1  0.84769328  0.75154651  0.75168935  1
