# generated using pymatgen
data_Li2TiCu2P5O2
_symmetry_space_group_name_H-M   'P 1'
_cell_length_a   8.37067139
_cell_length_b   8.25685392
_cell_length_c   7.27475812
_cell_angle_alpha   90.14265685
_cell_angle_beta   90.67871796
_cell_angle_gamma   90.16309487
_symmetry_Int_Tables_number   1
_chemical_formula_structural   Li2TiCu2P5O2
_chemical_formula_sum   'Li2 Ti1 Cu2 P5 O2'
_cell_volume   502.75898213
_cell_formula_units_Z   1
loop_
 _symmetry_equiv_pos_site_id
 _symmetry_equiv_pos_as_xyz
  1  'x, y, z'
loop_
 _atom_site_type_symbol
 _atom_site_label
 _atom_site_symmetry_multiplicity
 _atom_site_fract_x
 _atom_site_fract_y
 _atom_site_fract_z
 _atom_site_occupancy
  P  P0  1  0.00000000  0.00000000  0.00000000  1
  P  P1  1  0.50000000  0.50000000  0.50000000  1
  P  P2  1  0.50000000  0.50000000  0.00000000  1
  P  P3  1  0.50000000  0.00000000  0.50000000  1
  P  P4  1  0.00000000  0.50000000  0.50000000  1
  Li  Li5  1  0.78107031  0.34752573  0.16330688  1
  Li  Li6  1  0.78210912  0.07671770  0.99813939  1
  Cu  Cu7  1  0.94352029  0.63266326  0.59252219  1
  Cu  Cu8  1  0.73056829  0.66638639  0.32451516  1
  Ti  Ti9  1  0.76173184  0.38223677  0.32945726  1
  O  O10  1  0.42053802  0.68969385  0.30555432  1
  O  O11  1  0.63999888  0.82166688  0.57381751  1
