# generated using pymatgen
data_Li3Ti2SeO4F3
_symmetry_space_group_name_H-M   'P 1'
_cell_length_a   5.54090550
_cell_length_b   5.29031820
_cell_length_c   7.20153871
_cell_angle_alpha   102.92262483
_cell_angle_beta   106.61034407
_cell_angle_gamma   102.13584172
_symmetry_Int_Tables_number   1
_chemical_formula_structural   Li3Ti2SeO4F3
_chemical_formula_sum   'Li3 Ti2 Se1 O4 F3'
_cell_volume   188.48204213
_cell_formula_units_Z   1
loop_
 _symmetry_equiv_pos_site_id
 _symmetry_equiv_pos_as_xyz
  1  'x, y, z'
loop_
 _atom_site_type_symbol
 _atom_site_label
 _atom_site_symmetry_multiplicity
 _atom_site_fract_x
 _atom_site_fract_y
 _atom_site_fract_z
 _atom_site_occupancy
  Li  Li0  1  0.12500000  0.00000000  0.25000000  1
  Li  Li1  1  0.00000000  0.00000000  0.00000000  1
  Li  Li2  1  0.37500000  0.00000000  0.25000000  1
  Se  Se3  1  0.25000000  0.25000000  0.25000000  1
  F  F4  1  0.00000000  0.25000000  0.12500000  1
  F  F5  1  0.73602212  0.90444490  0.45845381  1
  F  F6  1  0.08740643  0.74167094  0.61013098  1
  Ti  Ti7  1  0.31214295  0.82985845  0.97327851  1
  Ti  Ti8  1  0.48040747  0.76394788  0.26082617  1
  O  O9  1  0.77845795  0.27782449  0.22680906  1
  O  O10  1  0.67758224  0.40360912  0.33081127  1
  O  O11  1  0.64492805  0.36002525  0.34072821  1
  O  O12  1  0.78452271  0.07659080  0.55136299  1
