# generated using pymatgen
data_Li2LuCu2(As3P2)2
_symmetry_space_group_name_H-M   'P 1'
_cell_length_a   7.44106720
_cell_length_b   7.46438528
_cell_length_c   8.23541871
_cell_angle_alpha   91.03603536
_cell_angle_beta   92.08978857
_cell_angle_gamma   91.13665651
_symmetry_Int_Tables_number   1
_chemical_formula_structural   Li2LuCu2(As3P2)2
_chemical_formula_sum   'Li2 Lu1 Cu2 As6 P4'
_cell_volume   456.94467366
_cell_formula_units_Z   1
loop_
 _symmetry_equiv_pos_site_id
 _symmetry_equiv_pos_as_xyz
  1  'x, y, z'
loop_
 _atom_site_type_symbol
 _atom_site_label
 _atom_site_symmetry_multiplicity
 _atom_site_fract_x
 _atom_site_fract_y
 _atom_site_fract_z
 _atom_site_occupancy
  P  P0  1  0.12500000  0.00000000  0.25000000  1
  P  P1  1  0.00000000  0.00000000  0.00000000  1
  P  P2  1  0.37500000  0.00000000  0.25000000  1
  P  P3  1  0.25000000  0.25000000  0.25000000  1
  Lu  Lu4  1  0.00000000  0.25000000  0.12500000  1
  As  As5  1  0.23362636  0.82698137  0.40726715  1
  As  As6  1  0.15684959  0.58657707  0.88505361  1
  As  As7  1  0.01772071  0.88879964  0.85569254  1
  As  As8  1  0.55019189  0.91089487  0.61311291  1
  As  As9  1  0.32098760  0.00648535  0.38606308  1
  As  As10  1  0.42548476  0.27114027  0.53995850  1
  Li  Li11  1  0.93698770  0.58217659  0.99281099  1
  Li  Li12  1  0.05279938  0.74714700  0.87847898  1
  Cu  Cu13  1  0.60100729  0.58869026  0.77935928  1
  Cu  Cu14  1  0.99955437  0.89592605  0.79099260  1
