# generated using pymatgen
data_LiZnP3O2F
_symmetry_space_group_name_H-M   'P 1'
_cell_length_a   8.49324110
_cell_length_b   8.53518143
_cell_length_c   7.63397082
_cell_angle_alpha   90.09802515
_cell_angle_beta   90.46637387
_cell_angle_gamma   90.11206892
_symmetry_Int_Tables_number   1
_chemical_formula_structural   LiZnP3O2F
_chemical_formula_sum   'Li2 Zn2 P6 O4 F2'
_cell_volume   553.37666290
_cell_formula_units_Z   2
loop_
 _symmetry_equiv_pos_site_id
 _symmetry_equiv_pos_as_xyz
  1  'x, y, z'
loop_
 _atom_site_type_symbol
 _atom_site_label
 _atom_site_symmetry_multiplicity
 _atom_site_fract_x
 _atom_site_fract_y
 _atom_site_fract_z
 _atom_site_occupancy
  P  P0  1  0.12500000  0.00000000  0.25000000  1
  P  P1  1  0.00000000  0.00000000  0.00000000  1
  P  P2  1  0.37500000  0.00000000  0.25000000  1
  P  P3  1  0.25000000  0.25000000  0.25000000  1
  P  P4  1  0.00000000  0.25000000  0.12500000  1
  P  P5  1  0.39253755  0.48434202  0.60603259  1
  Li  Li6  1  0.90413637  0.87222392  0.69575779  1
  Li  Li7  1  0.27703456  0.03307297  0.75759455  1
  Zn  Zn8  1  0.84027831  0.41235254  0.96976625  1
  Zn  Zn9  1  0.80095626  0.22582815  0.19707702  1
  F  F10  1  0.73583629  0.23670089  0.47430745  1
  F  F11  1  0.76806373  0.42400773  0.16864463  1
  O  O12  1  0.68220271  0.32539977  0.22440015  1
  O  O13  1  0.88090248  0.22107023  0.54985460  1
  O  O14  1  0.33679887  0.46242788  0.29448581  1
  O  O15  1  0.92642345  0.16161066  0.67517472  1
