# generated using pymatgen
data_Li2Mn2Sb4P3
_symmetry_space_group_name_H-M   'P 1'
_cell_length_a   6.27546491
_cell_length_b   6.81611392
_cell_length_c   7.32254902
_cell_angle_alpha   93.42322672
_cell_angle_beta   94.05512835
_cell_angle_gamma   93.89605467
_symmetry_Int_Tables_number   1
_chemical_formula_structural   Li2Mn2Sb4P3
_chemical_formula_sum   'Li2 Mn2 Sb4 P3'
_cell_volume   311.05490555
_cell_formula_units_Z   1
loop_
 _symmetry_equiv_pos_site_id
 _symmetry_equiv_pos_as_xyz
  1  'x, y, z'
loop_
 _atom_site_type_symbol
 _atom_site_label
 _atom_site_symmetry_multiplicity
 _atom_site_fract_x
 _atom_site_fract_y
 _atom_site_fract_z
 _atom_site_occupancy
  Mn  Mn0  1  0.00000000  0.00000000  0.00000000  1
  Mn  Mn1  1  0.33300000  0.66700000  0.25000000  1
  Sb  Sb2  1  0.66700000  0.33300000  0.50000000  1
  Sb  Sb3  1  0.00000000  0.00000000  0.75000000  1
  Sb  Sb4  1  0.92069393  0.14053175  0.03096133  1
  Sb  Sb5  1  0.21688405  0.06605490  0.86385954  1
  P  P6  1  0.68054392  0.86853805  0.78450142  1
  P  P7  1  0.12273757  0.89371772  0.62995823  1
  P  P8  1  0.97500647  0.17618386  0.09628717  1
  Li  Li9  1  0.98062706  0.60014692  0.52341486  1
  Li  Li10  1  0.83172461  0.99257911  0.61970650  1
