# generated using pymatgen
data_Li2Mn3Sb4P3
_symmetry_space_group_name_H-M   'P 1'
_cell_length_a   5.33542956
_cell_length_b   5.66475390
_cell_length_c   6.38923042
_cell_angle_alpha   100.56782235
_cell_angle_beta   90.52793420
_cell_angle_gamma   100.35762832
_symmetry_Int_Tables_number   1
_chemical_formula_structural   Li2Mn3Sb4P3
_chemical_formula_sum   'Li2 Mn3 Sb4 P3'
_cell_volume   186.56087828
_cell_formula_units_Z   1
loop_
 _symmetry_equiv_pos_site_id
 _symmetry_equiv_pos_as_xyz
  1  'x, y, z'
loop_
 _atom_site_type_symbol
 _atom_site_label
 _atom_site_symmetry_multiplicity
 _atom_site_fract_x
 _atom_site_fract_y
 _atom_site_fract_z
 _atom_site_occupancy
  Mn  Mn0  1  0.12500000  0.12500000  0.12500000  1
  Mn  Mn1  1  0.50000000  0.50000000  0.50000000  1
  Mn  Mn2  1  0.25000000  0.25000000  0.25000000  1
  Sb  Sb3  1  0.75000000  0.75000000  0.75000000  1
  Sb  Sb4  1  0.29326211  0.46514153  0.99267151  1
  Sb  Sb5  1  0.96439513  0.99145749  0.04584288  1
  Sb  Sb6  1  0.50186631  0.46476708  0.57427637  1
  P  P7  1  0.44100273  0.83430221  0.16272264  1
  P  P8  1  0.29944423  0.78386061  0.16444223  1
  P  P9  1  0.81091872  0.01023216  0.60510327  1
  Li  Li10  1  0.72847111  0.66132433  0.03470885  1
  Li  Li11  1  0.16667209  0.58688078  0.88789285  1
