# generated using pymatgen
data_Li2MnSb3P2
_symmetry_space_group_name_H-M   'P 1'
_cell_length_a   5.11510949
_cell_length_b   5.48128089
_cell_length_c   6.68362217
_cell_angle_alpha   97.91595781
_cell_angle_beta   96.32045759
_cell_angle_gamma   97.39758120
_symmetry_Int_Tables_number   1
_chemical_formula_structural   Li2MnSb3P2
_chemical_formula_sum   'Li2 Mn1 Sb3 P2'
_cell_volume   182.49539909
_cell_formula_units_Z   1
loop_
 _symmetry_equiv_pos_site_id
 _symmetry_equiv_pos_as_xyz
  1  'x, y, z'
loop_
 _atom_site_type_symbol
 _atom_site_label
 _atom_site_symmetry_multiplicity
 _atom_site_fract_x
 _atom_site_fract_y
 _atom_site_fract_z
 _atom_site_occupancy
  Mn  Mn0  1  0.00000000  0.00000000  0.00000000  1
  Sb  Sb1  1  0.50000000  0.50000000  0.50000000  1
  Sb  Sb2  1  0.25000000  0.25000000  0.25000000  1
  Sb  Sb3  1  0.75000000  0.25000000  0.00000000  1
  P  P4  1  0.25000000  0.75000000  0.50000000  1
  P  P5  1  0.83182411  0.53378256  0.08295438  1
  Li  Li6  1  0.76784497  0.76248829  0.69993242  1
  Li  Li7  1  0.16519767  0.62420449  0.43669245  1
