# generated using pymatgen
data_Li2Mn2Sb4P3N5
_symmetry_space_group_name_H-M   'P 1'
_cell_length_a   7.72119105
_cell_length_b   8.35156589
_cell_length_c   8.16220044
_cell_angle_alpha   90.36746467
_cell_angle_beta   90.43529586
_cell_angle_gamma   90.41822017
_symmetry_Int_Tables_number   1
_chemical_formula_structural   Li2Mn2Sb4P3N5
_chemical_formula_sum   'Li2 Mn2 Sb4 P3 N5'
_cell_volume   526.29140123
_cell_formula_units_Z   1
loop_
 _symmetry_equiv_pos_site_id
 _symmetry_equiv_pos_as_xyz
  1  'x, y, z'
loop_
 _atom_site_type_symbol
 _atom_site_label
 _atom_site_symmetry_multiplicity
 _atom_site_fract_x
 _atom_site_fract_y
 _atom_site_fract_z
 _atom_site_occupancy
  N  N0  1  0.00000000  0.00000000  0.00000000  1
  N  N1  1  0.50000000  0.50000000  0.50000000  1
  N  N2  1  0.25000000  0.25000000  0.25000000  1
  N  N3  1  0.75000000  0.25000000  0.00000000  1
  N  N4  1  0.25000000  0.75000000  0.50000000  1
  Mn  Mn5  1  0.75210779  0.45965336  0.41281264  1
  Mn  Mn6  1  0.77074291  0.62508130  0.17027899  1
  Sb  Sb7  1  0.05423201  0.32053196  0.64703490  1
  Sb  Sb8  1  0.03545508  0.70036925  0.55085008  1
  Sb  Sb9  1  0.78999007  0.89421870  0.60595487  1
  Sb  Sb10  1  0.83098454  0.86531095  0.75719207  1
  P  P11  1  0.62420460  0.49245048  0.16443705  1
  P  P12  1  0.88142217  0.41675149  0.42419844  1
  P  P13  1  0.72157282  0.69318188  0.41621407  1
  Li  Li14  1  0.16800770  0.19242102  0.40366022  1
  Li  Li15  1  0.25701807  0.32805496  0.62756312  1
