# generated using pymatgen
data_Li2Ti2Se3(OF)3
_symmetry_space_group_name_H-M   'P 1'
_cell_length_a   5.66002764
_cell_length_b   5.68984860
_cell_length_c   7.40821613
_cell_angle_alpha   95.26972681
_cell_angle_beta   97.33490925
_cell_angle_gamma   94.84442785
_symmetry_Int_Tables_number   1
_chemical_formula_structural   Li2Ti2Se3(OF)3
_chemical_formula_sum   'Li2 Ti2 Se3 O3 F3'
_cell_volume   234.50701083
_cell_formula_units_Z   1
loop_
 _symmetry_equiv_pos_site_id
 _symmetry_equiv_pos_as_xyz
  1  'x, y, z'
loop_
 _atom_site_type_symbol
 _atom_site_label
 _atom_site_symmetry_multiplicity
 _atom_site_fract_x
 _atom_site_fract_y
 _atom_site_fract_z
 _atom_site_occupancy
  Li  Li0  1  0.12500000  0.00000000  0.25000000  1
  Li  Li1  1  0.00000000  0.00000000  0.00000000  1
  F  F2  1  0.37500000  0.00000000  0.25000000  1
  F  F3  1  0.25000000  0.25000000  0.25000000  1
  F  F4  1  0.00000000  0.25000000  0.12500000  1
  Se  Se5  1  0.16723353  0.61137659  0.22001241  1
  Se  Se6  1  0.76528593  0.97710299  0.85879717  1
  Se  Se7  1  0.88982867  0.00444319  0.77494786  1
  Ti  Ti8  1  0.65575453  0.49472044  0.31943387  1
  Ti  Ti9  1  0.10887649  0.65928906  0.95465146  1
  O  O10  1  0.57252506  0.45762643  0.38805465  1
  O  O11  1  0.44403406  0.57273182  0.37596173  1
  O  O12  1  0.11606667  0.76269155  0.63984750  1
