# generated using pymatgen
data_Li2Ti2Cu2P5O
_symmetry_space_group_name_H-M   'P 1'
_cell_length_a   7.92403415
_cell_length_b   7.80013395
_cell_length_c   7.85692384
_cell_angle_alpha   90.30745376
_cell_angle_beta   91.46277163
_cell_angle_gamma   90.35150175
_symmetry_Int_Tables_number   1
_chemical_formula_structural   Li2Ti2Cu2P5O
_chemical_formula_sum   'Li2 Ti2 Cu2 P5 O1'
_cell_volume   485.45009726
_cell_formula_units_Z   1
loop_
 _symmetry_equiv_pos_site_id
 _symmetry_equiv_pos_as_xyz
  1  'x, y, z'
loop_
 _atom_site_type_symbol
 _atom_site_label
 _atom_site_symmetry_multiplicity
 _atom_site_fract_x
 _atom_site_fract_y
 _atom_site_fract_z
 _atom_site_occupancy
  P  P0  1  0.00000000  0.00000000  0.00000000  1
  P  P1  1  0.50000000  0.50000000  0.50000000  1
  P  P2  1  0.50000000  0.50000000  0.00000000  1
  P  P3  1  0.50000000  0.00000000  0.50000000  1
  P  P4  1  0.00000000  0.50000000  0.50000000  1
  Li  Li5  1  0.12052173  0.08301969  0.19801274  1
  Li  Li6  1  0.14586940  0.70115065  0.61136839  1
  Cu  Cu7  1  0.03987463  0.53411616  0.19852225  1
  Cu  Cu8  1  0.58619983  0.29694444  0.46814280  1
  Ti  Ti9  1  0.67703042  0.89664057  0.35160163  1
  Ti  Ti10  1  0.85379563  0.27675318  0.76060755  1
  O  O11  1  0.33040017  0.06479593  0.33849515  1
