# generated using pymatgen
data_Li3Ti3Ni2As6O5
_symmetry_space_group_name_H-M   'P 1'
_cell_length_a   6.93058761
_cell_length_b   6.95612506
_cell_length_c   8.28998342
_cell_angle_alpha   95.10990313
_cell_angle_beta   96.17576693
_cell_angle_gamma   95.97946077
_symmetry_Int_Tables_number   1
_chemical_formula_structural   Li3Ti3Ni2As6O5
_chemical_formula_sum   'Li3 Ti3 Ni2 As6 O5'
_cell_volume   393.14189481
_cell_formula_units_Z   1
loop_
 _symmetry_equiv_pos_site_id
 _symmetry_equiv_pos_as_xyz
  1  'x, y, z'
loop_
 _atom_site_type_symbol
 _atom_site_label
 _atom_site_symmetry_multiplicity
 _atom_site_fract_x
 _atom_site_fract_y
 _atom_site_fract_z
 _atom_site_occupancy
  Li  Li0  1  0.00000000  0.00000000  0.00000000  1
  Li  Li1  1  0.50000000  0.50000000  0.50000000  1
  Li  Li2  1  0.25000000  0.25000000  0.25000000  1
  Ni  Ni3  1  0.75000000  0.25000000  0.00000000  1
  Ni  Ni4  1  0.25000000  0.75000000  0.50000000  1
  Ti  Ti5  1  0.84538533  0.07307911  0.54336660  1
  Ti  Ti6  1  0.55393447  0.72048899  0.36709223  1
  Ti  Ti7  1  0.34299581  0.82662930  0.55674596  1
  As  As8  1  0.05755839  0.14546415  0.79226812  1
  As  As9  1  0.41669515  0.24951656  0.31551378  1
  As  As10  1  0.05587592  0.27638083  0.53575601  1
  As  As11  1  0.59867596  0.95560094  0.87100654  1
  As  As12  1  0.99533049  0.94082680  0.90614851  1
  As  As13  1  0.27491562  0.98537926  0.89512423  1
  O  O14  1  0.59602342  0.02623264  0.63541728  1
  O  O15  1  0.77110595  0.74852937  0.65441806  1
  O  O16  1  0.52377953  0.29987907  0.99834999  1
  O  O17  1  0.49396110  0.91272386  0.41920215  1
  O  O18  1  0.14250172  0.99687822  0.92403161  1
