# generated using pymatgen
data_Li3Ni2As6O7
_symmetry_space_group_name_H-M   'P 1'
_cell_length_a   7.74863574
_cell_length_b   7.57455129
_cell_length_c   9.04696371
_cell_angle_alpha   91.62993816
_cell_angle_beta   91.03337545
_cell_angle_gamma   91.88880674
_symmetry_Int_Tables_number   1
_chemical_formula_structural   Li3Ni2As6O7
_chemical_formula_sum   'Li3 Ni2 As6 O7'
_cell_volume   530.38947357
_cell_formula_units_Z   1
loop_
 _symmetry_equiv_pos_site_id
 _symmetry_equiv_pos_as_xyz
  1  'x, y, z'
loop_
 _atom_site_type_symbol
 _atom_site_label
 _atom_site_symmetry_multiplicity
 _atom_site_fract_x
 _atom_site_fract_y
 _atom_site_fract_z
 _atom_site_occupancy
  Li  Li0  1  0.12500000  0.00000000  0.25000000  1
  Li  Li1  1  0.00000000  0.00000000  0.00000000  1
  Li  Li2  1  0.37500000  0.00000000  0.25000000  1
  Ni  Ni3  1  0.25000000  0.25000000  0.25000000  1
  Ni  Ni4  1  0.00000000  0.25000000  0.12500000  1
  As  As5  1  0.40715252  0.62375324  0.72990147  1
  As  As6  1  0.18253625  0.42571265  0.30843750  1
  As  As7  1  0.61165901  0.96335030  0.45660649  1
  As  As8  1  0.66145362  0.60152683  0.35706102  1
  As  As9  1  0.15658603  0.70167394  0.09781866  1
  As  As10  1  0.74723033  0.77191898  0.07921097  1
  O  O11  1  0.50334537  0.39362238  0.84591542  1
  O  O12  1  0.79886358  0.84876266  0.44567337  1
  O  O13  1  0.85800287  0.72131256  0.41759132  1
  O  O14  1  0.19373099  0.72842534  0.99893867  1
  O  O15  1  0.46156834  0.92321492  0.99142842  1
  O  O16  1  0.32015287  0.36932683  0.63643399  1
  O  O17  1  0.99814151  0.28186711  0.89813138  1
