# generated using pymatgen
data_Li3TiI4(OF)3
_symmetry_space_group_name_H-M   'P 1'
_cell_length_a   7.34789573
_cell_length_b   7.16196415
_cell_length_c   7.16211207
_cell_angle_alpha   95.12713041
_cell_angle_beta   96.80378723
_cell_angle_gamma   94.82003670
_symmetry_Int_Tables_number   1
_chemical_formula_structural   Li3TiI4(OF)3
_chemical_formula_sum   'Li3 Ti1 I4 O3 F3'
_cell_volume   371.04731212
_cell_formula_units_Z   1
loop_
 _symmetry_equiv_pos_site_id
 _symmetry_equiv_pos_as_xyz
  1  'x, y, z'
loop_
 _atom_site_type_symbol
 _atom_site_label
 _atom_site_symmetry_multiplicity
 _atom_site_fract_x
 _atom_site_fract_y
 _atom_site_fract_z
 _atom_site_occupancy
  I  I0  1  0.00000000  0.00000000  0.00000000  1
  I  I1  1  0.50000000  0.50000000  0.50000000  1
  I  I2  1  0.25000000  0.25000000  0.25000000  1
  I  I3  1  0.75000000  0.25000000  0.00000000  1
  Li  Li4  1  0.25000000  0.75000000  0.50000000  1
  Li  Li5  1  0.87109687  0.96143083  0.28523984  1
  Li  Li6  1  0.09414050  0.89830274  0.88891234  1
  F  F7  1  0.16876347  0.80956899  0.41096726  1
  F  F8  1  0.18178300  0.86446122  0.02135795  1
  F  F9  1  0.34300520  0.36774523  0.81812593  1
  Ti  Ti10  1  0.86605683  0.33257623  0.55106402  1
  O  O11  1  0.01077921  0.75521217  0.45991466  1
  O  O12  1  0.07675570  0.58150312  0.19812925  1
  O  O13  1  0.75280756  0.77947646  0.38498437  1
