# generated using pymatgen
data_LiMnSb4P3
_symmetry_space_group_name_H-M   'P 1'
_cell_length_a   6.11528874
_cell_length_b   6.51698157
_cell_length_c   6.97961233
_cell_angle_alpha   94.22287793
_cell_angle_beta   93.24232164
_cell_angle_gamma   94.49779580
_symmetry_Int_Tables_number   1
_chemical_formula_structural   LiMnSb4P3
_chemical_formula_sum   'Li1 Mn1 Sb4 P3'
_cell_volume   276.00650936
_cell_formula_units_Z   1
loop_
 _symmetry_equiv_pos_site_id
 _symmetry_equiv_pos_as_xyz
  1  'x, y, z'
loop_
 _atom_site_type_symbol
 _atom_site_label
 _atom_site_symmetry_multiplicity
 _atom_site_fract_x
 _atom_site_fract_y
 _atom_site_fract_z
 _atom_site_occupancy
  Mn  Mn0  1  0.00000000  0.00000000  0.00000000  1
  Sb  Sb1  1  0.33300000  0.66700000  0.25000000  1
  Sb  Sb2  1  0.66700000  0.33300000  0.50000000  1
  Sb  Sb3  1  0.00000000  0.00000000  0.75000000  1
  Sb  Sb4  1  0.28117167  0.90743564  0.05574319  1
  P  P5  1  0.96756462  0.47919751  0.45543103  1
  P  P6  1  0.55501919  0.06786893  0.17515973  1
  P  P7  1  0.06052558  0.18197330  0.16792540  1
  Li  Li8  1  0.51951545  0.59669823  0.71251608  1
