# generated using pymatgen
data_Li3Ti2Se(O2F)2
_symmetry_space_group_name_H-M   'P 1'
_cell_length_a   7.18417436
_cell_length_b   6.86093092
_cell_length_c   7.55479822
_cell_angle_alpha   95.38451345
_cell_angle_beta   97.37655355
_cell_angle_gamma   95.07569597
_symmetry_Int_Tables_number   1
_chemical_formula_structural   Li3Ti2Se(O2F)2
_chemical_formula_sum   'Li3 Ti2 Se1 O4 F2'
_cell_volume   365.75514347
_cell_formula_units_Z   1
loop_
 _symmetry_equiv_pos_site_id
 _symmetry_equiv_pos_as_xyz
  1  'x, y, z'
loop_
 _atom_site_type_symbol
 _atom_site_label
 _atom_site_symmetry_multiplicity
 _atom_site_fract_x
 _atom_site_fract_y
 _atom_site_fract_z
 _atom_site_occupancy
  Li  Li0  1  0.12500000  0.00000000  0.25000000  1
  Li  Li1  1  0.00000000  0.00000000  0.00000000  1
  Li  Li2  1  0.37500000  0.00000000  0.25000000  1
  Se  Se3  1  0.25000000  0.25000000  0.25000000  1
  F  F4  1  0.00000000  0.25000000  0.12500000  1
  F  F5  1  0.88567320  0.69720337  0.52063084  1
  Ti  Ti6  1  0.27161204  0.34861818  0.89634802  1
  Ti  Ti7  1  0.46621803  0.43827172  0.33298170  1
  O  O8  1  0.55159598  0.63400041  0.38156004  1
  O  O9  1  0.94597875  0.02244698  0.84413968  1
  O  O10  1  0.76465608  0.28718180  0.68072478  1
  O  O11  1  0.53368178  0.89410681  0.00140255  1
