# generated using pymatgen
data_Li2LuNi2(As3P2)2
_symmetry_space_group_name_H-M   'P 1'
_cell_length_a   7.48155448
_cell_length_b   7.27181842
_cell_length_c   8.14784498
_cell_angle_alpha   91.76149912
_cell_angle_beta   91.61541828
_cell_angle_gamma   91.95002354
_symmetry_Int_Tables_number   1
_chemical_formula_structural   Li2LuNi2(As3P2)2
_chemical_formula_sum   'Li2 Lu1 Ni2 As6 P4'
_cell_volume   442.62372270
_cell_formula_units_Z   1
loop_
 _symmetry_equiv_pos_site_id
 _symmetry_equiv_pos_as_xyz
  1  'x, y, z'
loop_
 _atom_site_type_symbol
 _atom_site_label
 _atom_site_symmetry_multiplicity
 _atom_site_fract_x
 _atom_site_fract_y
 _atom_site_fract_z
 _atom_site_occupancy
  P  P0  1  0.12500000  0.00000000  0.25000000  1
  P  P1  1  0.00000000  0.00000000  0.00000000  1
  P  P2  1  0.37500000  0.00000000  0.25000000  1
  P  P3  1  0.25000000  0.25000000  0.25000000  1
  Lu  Lu4  1  0.00000000  0.25000000  0.12500000  1
  Li  Li5  1  0.95359104  0.01870584  0.59856681  1
  Li  Li6  1  0.10192199  0.72811541  0.92231396  1
  Ni  Ni7  1  0.73291359  0.95418986  0.13507286  1
  Ni  Ni8  1  0.73239688  0.70946273  0.35064762  1
  As  As9  1  0.59657624  0.41952014  0.35384182  1
  As  As10  1  0.37578374  0.90718155  0.07369889  1
  As  As11  1  0.81801147  0.64473386  0.87263630  1
  As  As12  1  0.16164912  0.10419015  0.27329946  1
  As  As13  1  0.01769728  0.39107746  0.01103034  1
  As  As14  1  0.85057881  0.93239302  0.16299025  1
