# generated using pymatgen
data_Li3Ti2P6O7F2
_symmetry_space_group_name_H-M   'P 1'
_cell_length_a   8.38139236
_cell_length_b   8.12453123
_cell_length_c   8.49562541
_cell_angle_alpha   90.11862746
_cell_angle_beta   90.56439345
_cell_angle_gamma   90.13562287
_symmetry_Int_Tables_number   1
_chemical_formula_structural   Li3Ti2P6O7F2
_chemical_formula_sum   'Li3 Ti2 P6 O7 F2'
_cell_volume   578.47767097
_cell_formula_units_Z   1
loop_
 _symmetry_equiv_pos_site_id
 _symmetry_equiv_pos_as_xyz
  1  'x, y, z'
loop_
 _atom_site_type_symbol
 _atom_site_label
 _atom_site_symmetry_multiplicity
 _atom_site_fract_x
 _atom_site_fract_y
 _atom_site_fract_z
 _atom_site_occupancy
  P  P0  1  0.00000000  0.00000000  0.00000000  1
  P  P1  1  0.50000000  0.50000000  0.50000000  1
  P  P2  1  0.50000000  0.50000000  0.00000000  1
  P  P3  1  0.50000000  0.00000000  0.50000000  1
  P  P4  1  0.00000000  0.50000000  0.50000000  1
  P  P5  1  0.85448350  0.98611371  0.44656465  1
  Li  Li6  1  0.97279086  0.25974480  0.92922588  1
  Li  Li7  1  0.62573519  0.22967486  0.08880017  1
  Li  Li8  1  0.94012546  0.74033918  0.25038919  1
  F  F9  1  0.07562678  0.69287614  0.65398349  1
  F  F10  1  0.63126501  0.84117334  0.31386952  1
  Ti  Ti11  1  0.09914897  0.18395890  0.01036805  1
  Ti  Ti12  1  0.44363775  0.12362355  0.27661762  1
  O  O13  1  0.71155544  0.65544882  0.05557134  1
  O  O14  1  0.21912333  0.82392375  0.91924616  1
  O  O15  1  0.54222633  0.28549855  0.58222015  1
  O  O16  1  0.10836566  0.41549288  0.08652554  1
  O  O17  1  0.82242115  0.87834883  0.45929836  1
  O  O18  1  0.51945584  0.32261231  0.05977462  1
  O  O19  1  0.87332173  0.88489608  0.58359250  1
