# generated using pymatgen
data_LiMn3Mo2P3
_symmetry_space_group_name_H-M   'P 1'
_cell_length_a   6.21052031
_cell_length_b   6.42013127
_cell_length_c   6.19729547
_cell_angle_alpha   90.10663844
_cell_angle_beta   88.23986596
_cell_angle_gamma   89.28661722
_symmetry_Int_Tables_number   1
_chemical_formula_structural   LiMn3Mo2P3
_chemical_formula_sum   'Li1 Mn3 Mo2 P3'
_cell_volume   246.96441399
_cell_formula_units_Z   1
loop_
 _symmetry_equiv_pos_site_id
 _symmetry_equiv_pos_as_xyz
  1  'x, y, z'
loop_
 _atom_site_type_symbol
 _atom_site_label
 _atom_site_symmetry_multiplicity
 _atom_site_fract_x
 _atom_site_fract_y
 _atom_site_fract_z
 _atom_site_occupancy
  Mn  Mn0  1  0.00000000  0.00000000  0.00000000  1
  Mn  Mn1  1  0.50000000  0.50000000  0.50000000  1
  Mn  Mn2  1  0.25000000  0.25000000  0.25000000  1
  P  P3  1  0.75000000  0.25000000  0.00000000  1
  P  P4  1  0.25000000  0.75000000  0.50000000  1
  P  P5  1  0.35420911  0.28646838  0.37710979  1
  Mo  Mo6  1  0.29943335  0.85720105  0.85082271  1
  Mo  Mo7  1  0.27297342  0.17428492  0.34672717  1
  Li  Li8  1  0.33824767  0.38524162  0.06051574  1
