# generated using pymatgen
data_Li2TiCu2O5
_symmetry_space_group_name_H-M   'P 1'
_cell_length_a   8.39712378
_cell_length_b   8.30570937
_cell_length_c   8.14952149
_cell_angle_alpha   90.11393877
_cell_angle_beta   90.66247366
_cell_angle_gamma   90.12617458
_symmetry_Int_Tables_number   1
_chemical_formula_structural   Li2TiCu2O5
_chemical_formula_sum   'Li2 Ti1 Cu2 O5'
_cell_volume   568.34027096
_cell_formula_units_Z   1
loop_
 _symmetry_equiv_pos_site_id
 _symmetry_equiv_pos_as_xyz
  1  'x, y, z'
loop_
 _atom_site_type_symbol
 _atom_site_label
 _atom_site_symmetry_multiplicity
 _atom_site_fract_x
 _atom_site_fract_y
 _atom_site_fract_z
 _atom_site_occupancy
  Li  Li0  1  0.12500000  0.00000000  0.25000000  1
  Li  Li1  1  0.00000000  0.00000000  0.00000000  1
  Cu  Cu2  1  0.37500000  0.00000000  0.25000000  1
  Cu  Cu3  1  0.25000000  0.25000000  0.25000000  1
  Ti  Ti4  1  0.00000000  0.25000000  0.12500000  1
  O  O5  1  0.76474711  0.67083882  0.59072961  1
  O  O6  1  0.70567193  0.90237569  0.07009314  1
  O  O7  1  0.53723883  0.98772125  0.73456783  1
  O  O8  1  0.74381440  0.22615076  0.76734782  1
  O  O9  1  0.34942776  0.09003844  0.43366896  1
