# generated using pymatgen
data_Li2Ti3Nb2As6O5
_symmetry_space_group_name_H-M   'P 1'
_cell_length_a   6.92335849
_cell_length_b   6.70438883
_cell_length_c   8.21659002
_cell_angle_alpha   91.22363488
_cell_angle_beta   93.13334020
_cell_angle_gamma   91.40908150
_symmetry_Int_Tables_number   1
_chemical_formula_structural   Li2Ti3Nb2As6O5
_chemical_formula_sum   'Li2 Ti3 Nb2 As6 O5'
_cell_volume   380.60476866
_cell_formula_units_Z   1
loop_
 _symmetry_equiv_pos_site_id
 _symmetry_equiv_pos_as_xyz
  1  'x, y, z'
loop_
 _atom_site_type_symbol
 _atom_site_label
 _atom_site_symmetry_multiplicity
 _atom_site_fract_x
 _atom_site_fract_y
 _atom_site_fract_z
 _atom_site_occupancy
  Li  Li0  1  0.00000000  0.00000000  0.00000000  1
  Li  Li1  1  0.50000000  0.50000000  0.50000000  1
  Nb  Nb2  1  0.50000000  0.50000000  0.00000000  1
  Nb  Nb3  1  0.50000000  0.00000000  0.50000000  1
  Ti  Ti4  1  0.00000000  0.50000000  0.50000000  1
  Ti  Ti5  1  0.93862484  0.81788939  0.99225858  1
  Ti  Ti6  1  0.26032553  0.55279073  0.83579097  1
  As  As7  1  0.57630532  0.39093981  0.19855799  1
  As  As8  1  0.30872806  0.80846015  0.26729081  1
  As  As9  1  0.42018911  0.94698961  0.20072604  1
  As  As10  1  0.11480605  0.54738809  0.18429822  1
  As  As11  1  0.21583792  0.54771888  0.06456155  1
  As  As12  1  0.46552364  0.01199138  0.39099352  1
  O  O13  1  0.99718952  0.76638240  0.96826888  1
  O  O14  1  0.64752674  0.66898962  0.64120967  1
  O  O15  1  0.08843156  0.53322991  0.80978809  1
  O  O16  1  0.58154185  0.74781415  0.00899377  1
  O  O17  1  0.06657994  0.33518145  0.42107108  1
