# generated using pymatgen
data_Li3As6I4O5
_symmetry_space_group_name_H-M   'P 1'
_cell_length_a   8.11105228
_cell_length_b   7.95457949
_cell_length_c   8.45590310
_cell_angle_alpha   91.10636286
_cell_angle_beta   90.70143043
_cell_angle_gamma   91.28207663
_symmetry_Int_Tables_number   1
_chemical_formula_structural   Li3As6I4O5
_chemical_formula_sum   'Li3 As6 I4 O5'
_cell_volume   545.29285047
_cell_formula_units_Z   1
loop_
 _symmetry_equiv_pos_site_id
 _symmetry_equiv_pos_as_xyz
  1  'x, y, z'
loop_
 _atom_site_type_symbol
 _atom_site_label
 _atom_site_symmetry_multiplicity
 _atom_site_fract_x
 _atom_site_fract_y
 _atom_site_fract_z
 _atom_site_occupancy
  I  I0  1  0.12500000  0.12500000  0.12500000  1
  I  I1  1  0.50000000  0.50000000  0.50000000  1
  I  I2  1  0.25000000  0.25000000  0.25000000  1
  I  I3  1  0.75000000  0.75000000  0.75000000  1
  Li  Li4  1  0.86768249  0.00679951  0.06391939  1
  Li  Li5  1  0.14789082  0.41805752  0.61011060  1
  Li  Li6  1  0.81856589  0.67820381  0.81797947  1
  As  As7  1  0.37343175  0.88035370  0.46392933  1
  As  As8  1  0.10612217  0.46290288  0.16855334  1
  As  As9  1  0.67657371  0.61489865  0.72772583  1
  As  As10  1  0.17778452  0.62299918  0.01096162  1
  As  As11  1  0.26222759  0.99857710  0.75804331  1
  As  As12  1  0.12881622  0.92412063  0.99099901  1
  O  O13  1  0.05069249  0.51312924  0.78184594  1
  O  O14  1  0.76583388  0.59484176  0.22248585  1
  O  O15  1  0.26746172  0.88417726  0.62529549  1
  O  O16  1  0.29757099  0.67254229  0.29664400  1
  O  O17  1  0.45755119  0.52023410  0.93655733  1
