# generated using pymatgen
data_Li2TiP4(OF)2
_symmetry_space_group_name_H-M   'P 1'
_cell_length_a   6.99304107
_cell_length_b   6.71039979
_cell_length_c   6.46333503
_cell_angle_alpha   90.58478958
_cell_angle_beta   91.04261105
_cell_angle_gamma   89.50191418
_symmetry_Int_Tables_number   1
_chemical_formula_structural   Li2TiP4(OF)2
_chemical_formula_sum   'Li2 Ti1 P4 O2 F2'
_cell_volume   303.22212685
_cell_formula_units_Z   1
loop_
 _symmetry_equiv_pos_site_id
 _symmetry_equiv_pos_as_xyz
  1  'x, y, z'
loop_
 _atom_site_type_symbol
 _atom_site_label
 _atom_site_symmetry_multiplicity
 _atom_site_fract_x
 _atom_site_fract_y
 _atom_site_fract_z
 _atom_site_occupancy
  P  P0  1  0.00000000  0.00000000  0.00000000  1
  P  P1  1  0.50000000  0.50000000  0.50000000  1
  P  P2  1  0.50000000  0.50000000  0.00000000  1
  P  P3  1  0.50000000  0.00000000  0.50000000  1
  Li  Li4  1  0.00000000  0.50000000  0.50000000  1
  Li  Li5  1  0.01170731  0.35522969  0.67467477  1
  F  F6  1  0.04466428  0.28271635  0.38418803  1
  F  F7  1  0.33400140  0.46089618  0.11686039  1
  Ti  Ti8  1  0.32538652  0.99131139  0.87946303  1
  O  O9  1  0.89536370  0.69624867  0.14970249  1
  O  O10  1  0.28716466  0.63572574  0.74408182  1
