# generated using pymatgen
data_Li2Mn2Sb4P3
_symmetry_space_group_name_H-M   'P 1'
_cell_length_a   6.71413558
_cell_length_b   7.04861843
_cell_length_c   7.22746672
_cell_angle_alpha   94.10940575
_cell_angle_beta   90.92633094
_cell_angle_gamma   94.12808406
_symmetry_Int_Tables_number   1
_chemical_formula_structural   Li2Mn2Sb4P3
_chemical_formula_sum   'Li2 Mn2 Sb4 P3'
_cell_volume   340.19993083
_cell_formula_units_Z   1
loop_
 _symmetry_equiv_pos_site_id
 _symmetry_equiv_pos_as_xyz
  1  'x, y, z'
loop_
 _atom_site_type_symbol
 _atom_site_label
 _atom_site_symmetry_multiplicity
 _atom_site_fract_x
 _atom_site_fract_y
 _atom_site_fract_z
 _atom_site_occupancy
  Mn  Mn0  1  0.00000000  0.00000000  0.00000000  1
  Mn  Mn1  1  0.50000000  0.50000000  0.50000000  1
  Sb  Sb2  1  0.25000000  0.25000000  0.25000000  1
  Sb  Sb3  1  0.75000000  0.25000000  0.00000000  1
  Sb  Sb4  1  0.25000000  0.75000000  0.50000000  1
  Sb  Sb5  1  0.79155792  0.86232414  0.80849291  1
  P  P6  1  0.75359481  0.80820156  0.23652288  1
  P  P7  1  0.97271086  0.69300668  0.87540575  1
  P  P8  1  0.55769127  0.51658495  0.60186177  1
  Li  Li9  1  0.65519284  0.32279745  0.17906504  1
  Li  Li10  1  0.22154035  0.94930120  0.27278596  1
