# generated using pymatgen
data_Li3Ni2As6(P2O)4
_symmetry_space_group_name_H-M   'P 1'
_cell_length_a   6.65575757
_cell_length_b   6.74835966
_cell_length_c   8.03566963
_cell_angle_alpha   96.27902615
_cell_angle_beta   97.90339589
_cell_angle_gamma   97.35374983
_symmetry_Int_Tables_number   1
_chemical_formula_structural   Li3Ni2As6(P2O)4
_chemical_formula_sum   'Li3 Ni2 As6 P8 O4'
_cell_volume   351.58282823
_cell_formula_units_Z   1
loop_
 _symmetry_equiv_pos_site_id
 _symmetry_equiv_pos_as_xyz
  1  'x, y, z'
loop_
 _atom_site_type_symbol
 _atom_site_label
 _atom_site_symmetry_multiplicity
 _atom_site_fract_x
 _atom_site_fract_y
 _atom_site_fract_z
 _atom_site_occupancy
  P  P0  1  0.12500000  0.00000000  0.25000000  1
  P  P1  1  0.00000000  0.00000000  0.00000000  1
  P  P2  1  0.37500000  0.00000000  0.25000000  1
  P  P3  1  0.25000000  0.25000000  0.25000000  1
  P  P4  1  0.00000000  0.25000000  0.12500000  1
  P  P5  1  0.32376493  0.31994146  0.01604006  1
  P  P6  1  0.40006140  0.04018235  0.45061025  1
  P  P7  1  0.98588626  0.17392763  0.06674963  1
  Li  Li8  1  0.95776343  0.23719522  0.92106350  1
  Li  Li9  1  0.51178933  0.42193636  0.06600070  1
  Li  Li10  1  0.79114571  0.69599708  0.61699980  1
  Ni  Ni11  1  0.32109126  0.04381312  0.32359795  1
  Ni  Ni12  1  0.66456567  0.31378580  0.03297262  1
  As  As13  1  0.29819909  0.59684384  0.56940417  1
  As  As14  1  0.90250221  0.46582404  0.39518638  1
  As  As15  1  0.32168700  0.97209409  0.82786289  1
  As  As16  1  0.30262095  0.59538838  0.19435816  1
  As  As17  1  0.62517907  0.38044128  0.43195716  1
  As  As18  1  0.20280316  0.26893753  0.06186262  1
  O  O19  1  0.76638404  0.12276135  0.19418331  1
  O  O20  1  0.30644553  0.61427623  0.75878230  1
  O  O21  1  0.04971670  0.18059752  0.14104305  1
  O  O22  1  0.04162551  0.24598581  0.67851162  1
