# generated using pymatgen
data_LiP2N
_symmetry_space_group_name_H-M   'P 1'
_cell_length_a   6.17582836
_cell_length_b   6.24791213
_cell_length_c   6.86845372
_cell_angle_alpha   94.85217763
_cell_angle_beta   94.93988815
_cell_angle_gamma   93.61895625
_symmetry_Int_Tables_number   1
_chemical_formula_structural   LiP2N
_chemical_formula_sum   'Li1 P2 N1'
_cell_volume   262.43320969
_cell_formula_units_Z   1
loop_
 _symmetry_equiv_pos_site_id
 _symmetry_equiv_pos_as_xyz
  1  'x, y, z'
loop_
 _atom_site_type_symbol
 _atom_site_label
 _atom_site_symmetry_multiplicity
 _atom_site_fract_x
 _atom_site_fract_y
 _atom_site_fract_z
 _atom_site_occupancy
  N  N0  1  0.12500000  0.12500000  0.12500000  1
  P  P1  1  0.50000000  0.50000000  0.50000000  1
  P  P2  1  0.25000000  0.25000000  0.25000000  1
  Li  Li3  1  0.75000000  0.75000000  0.75000000  1
