# generated using pymatgen
data_Li2Mn3Sb4P3N
_symmetry_space_group_name_H-M   'P 1'
_cell_length_a   5.66886094
_cell_length_b   6.03029340
_cell_length_c   6.14945359
_cell_angle_alpha   93.84410147
_cell_angle_beta   92.15177506
_cell_angle_gamma   92.94078979
_symmetry_Int_Tables_number   1
_chemical_formula_structural   Li2Mn3Sb4P3N
_chemical_formula_sum   'Li2 Mn3 Sb4 P3 N1'
_cell_volume   209.29197268
_cell_formula_units_Z   1
loop_
 _symmetry_equiv_pos_site_id
 _symmetry_equiv_pos_as_xyz
  1  'x, y, z'
loop_
 _atom_site_type_symbol
 _atom_site_label
 _atom_site_symmetry_multiplicity
 _atom_site_fract_x
 _atom_site_fract_y
 _atom_site_fract_z
 _atom_site_occupancy
  Mn  Mn0  1  0.12500000  0.00000000  0.25000000  1
  Mn  Mn1  1  0.00000000  0.00000000  0.00000000  1
  Mn  Mn2  1  0.37500000  0.00000000  0.25000000  1
  Sb  Sb3  1  0.25000000  0.25000000  0.25000000  1
  Sb  Sb4  1  0.00000000  0.25000000  0.12500000  1
  Sb  Sb5  1  0.05862512  0.61047130  0.28119799  1
  Sb  Sb6  1  0.04559323  0.64476416  0.34744182  1
  P  P7  1  0.44681041  0.79703969  0.64143293  1
  P  P8  1  0.30098496  0.13151364  0.96480705  1
  P  P9  1  0.39831429  0.28435447  0.67430295  1
  Li  Li10  1  0.58037975  0.78024625  0.77556649  1
  Li  Li11  1  0.22661764  0.51837535  0.02328275  1
  N  N12  1  0.76368483  0.10196953  0.03926119  1
