# generated using pymatgen
data_Li2Mn2Sb4P2N
_symmetry_space_group_name_H-M   'P 1'
_cell_length_a   5.82018915
_cell_length_b   6.30026231
_cell_length_c   7.09727523
_cell_angle_alpha   95.42781664
_cell_angle_beta   94.93989364
_cell_angle_gamma   95.54290868
_symmetry_Int_Tables_number   1
_chemical_formula_structural   Li2Mn2Sb4P2N
_chemical_formula_sum   'Li2 Mn2 Sb4 P2 N1'
_cell_volume   256.67550412
_cell_formula_units_Z   1
loop_
 _symmetry_equiv_pos_site_id
 _symmetry_equiv_pos_as_xyz
  1  'x, y, z'
loop_
 _atom_site_type_symbol
 _atom_site_label
 _atom_site_symmetry_multiplicity
 _atom_site_fract_x
 _atom_site_fract_y
 _atom_site_fract_z
 _atom_site_occupancy
  N  N0  1  0.00000000  0.00000000  0.00000000  1
  Mn  Mn1  1  0.50000000  0.50000000  0.50000000  1
  Mn  Mn2  1  0.25000000  0.25000000  0.25000000  1
  Sb  Sb3  1  0.75000000  0.25000000  0.00000000  1
  Sb  Sb4  1  0.25000000  0.75000000  0.50000000  1
  Sb  Sb5  1  0.30315343  0.32883973  0.37456205  1
  Sb  Sb6  1  0.10941878  0.74715095  0.69810096  1
  P  P7  1  0.76111223  0.88569759  0.39153862  1
  P  P8  1  0.52154590  0.55046237  0.25525032  1
  Li  Li9  1  0.46186574  0.46651244  0.36343646  1
  Li  Li10  1  0.14281457  0.17424260  0.73010375  1
