# generated using pymatgen
data_Li3TiCu2P5I4
_symmetry_space_group_name_H-M   'P 1'
_cell_length_a   8.13415816
_cell_length_b   7.97923545
_cell_length_c   7.77684453
_cell_angle_alpha   91.73734269
_cell_angle_beta   91.52277326
_cell_angle_gamma   91.83615875
_symmetry_Int_Tables_number   1
_chemical_formula_structural   Li3TiCu2P5I4
_chemical_formula_sum   'Li3 Ti1 Cu2 P5 I4'
_cell_volume   504.06834560
_cell_formula_units_Z   1
loop_
 _symmetry_equiv_pos_site_id
 _symmetry_equiv_pos_as_xyz
  1  'x, y, z'
loop_
 _atom_site_type_symbol
 _atom_site_label
 _atom_site_symmetry_multiplicity
 _atom_site_fract_x
 _atom_site_fract_y
 _atom_site_fract_z
 _atom_site_occupancy
  I  I0  1  0.12500000  0.00000000  0.25000000  1
  I  I1  1  0.00000000  0.00000000  0.00000000  1
  I  I2  1  0.37500000  0.00000000  0.25000000  1
  I  I3  1  0.25000000  0.25000000  0.25000000  1
  P  P4  1  0.00000000  0.25000000  0.12500000  1
  P  P5  1  0.01983694  0.14409301  0.28181872  1
  P  P6  1  0.79837374  0.27691926  0.46196548  1
  P  P7  1  0.60181180  0.99385179  0.26612425  1
  P  P8  1  0.79242022  0.77435169  0.77518879  1
  Li  Li9  1  0.84078050  0.09335898  0.20120905  1
  Li  Li10  1  0.59978167  0.57739459  0.04950044  1
  Li  Li11  1  0.65166195  0.64262939  0.50893962  1
  Cu  Cu12  1  0.97650765  0.82776862  0.04325791  1
  Cu  Cu13  1  0.87180736  0.47974416  0.21963693  1
  Ti  Ti14  1  0.39558258  0.74734767  0.77754578  1
