# generated using pymatgen
data_Li3TiCu2(SO)2
_symmetry_space_group_name_H-M   'P 1'
_cell_length_a   6.70862497
_cell_length_b   6.66461766
_cell_length_c   7.80697769
_cell_angle_alpha   94.60357514
_cell_angle_beta   97.05436339
_cell_angle_gamma   94.81339175
_symmetry_Int_Tables_number   1
_chemical_formula_structural   Li3TiCu2(SO)2
_chemical_formula_sum   'Li3 Ti1 Cu2 S2 O2'
_cell_volume   343.73866727
_cell_formula_units_Z   1
loop_
 _symmetry_equiv_pos_site_id
 _symmetry_equiv_pos_as_xyz
  1  'x, y, z'
loop_
 _atom_site_type_symbol
 _atom_site_label
 _atom_site_symmetry_multiplicity
 _atom_site_fract_x
 _atom_site_fract_y
 _atom_site_fract_z
 _atom_site_occupancy
  Li  Li0  1  0.00000000  0.00000000  0.00000000  1
  Li  Li1  1  0.50000000  0.50000000  0.50000000  1
  Li  Li2  1  0.50000000  0.50000000  0.00000000  1
  Cu  Cu3  1  0.50000000  0.00000000  0.50000000  1
  Cu  Cu4  1  0.00000000  0.50000000  0.50000000  1
  S  S5  1  0.89550782  0.78144849  0.81588792  1
  S  S6  1  0.35035808  0.29150970  0.71158481  1
  Ti  Ti7  1  0.49626318  0.70273621  0.54300451  1
  O  O8  1  0.36015090  0.39213770  0.17117860  1
  O  O9  1  0.12279606  0.17787911  0.73525808  1
