# generated using pymatgen
data_LiCuI2
_symmetry_space_group_name_H-M   'P 1'
_cell_length_a   7.96814929
_cell_length_b   8.04767604
_cell_length_c   8.05497992
_cell_angle_alpha   90.30733515
_cell_angle_beta   91.46220729
_cell_angle_gamma   90.35136614
_symmetry_Int_Tables_number   1
_chemical_formula_structural   LiCuI2
_chemical_formula_sum   'Li2 Cu2 I4'
_cell_volume   516.34048752
_cell_formula_units_Z   2
loop_
 _symmetry_equiv_pos_site_id
 _symmetry_equiv_pos_as_xyz
  1  'x, y, z'
loop_
 _atom_site_type_symbol
 _atom_site_label
 _atom_site_symmetry_multiplicity
 _atom_site_fract_x
 _atom_site_fract_y
 _atom_site_fract_z
 _atom_site_occupancy
  Li  Li0  1  0.00000000  0.00000000  0.00000000  1
  Li  Li1  1  0.50000000  0.50000000  0.50000000  1
  I  I2  1  0.50000000  0.50000000  0.00000000  1
  I  I3  1  0.50000000  0.00000000  0.50000000  1
  I  I4  1  0.00000000  0.50000000  0.50000000  1
  I  I5  1  0.41740212  0.98214672  0.06736168  1
  Cu  Cu6  1  0.24674569  0.24343517  0.79323281  1
  Cu  Cu7  1  0.77874930  0.35413326  0.62443543  1
