# generated using pymatgen
data_Li2Mn3Sb4P3
_symmetry_space_group_name_H-M   'P 1'
_cell_length_a   5.82974817
_cell_length_b   6.24968305
_cell_length_c   6.73428324
_cell_angle_alpha   97.69386435
_cell_angle_beta   91.16287169
_cell_angle_gamma   97.64925164
_symmetry_Int_Tables_number   1
_chemical_formula_structural   Li2Mn3Sb4P3
_chemical_formula_sum   'Li2 Mn3 Sb4 P3'
_cell_volume   240.80339733
_cell_formula_units_Z   1
loop_
 _symmetry_equiv_pos_site_id
 _symmetry_equiv_pos_as_xyz
  1  'x, y, z'
loop_
 _atom_site_type_symbol
 _atom_site_label
 _atom_site_symmetry_multiplicity
 _atom_site_fract_x
 _atom_site_fract_y
 _atom_site_fract_z
 _atom_site_occupancy
  Mn  Mn0  1  0.12500000  0.00000000  0.25000000  1
  Mn  Mn1  1  0.00000000  0.00000000  0.00000000  1
  Mn  Mn2  1  0.37500000  0.00000000  0.25000000  1
  Sb  Sb3  1  0.25000000  0.25000000  0.25000000  1
  Sb  Sb4  1  0.00000000  0.25000000  0.12500000  1
  Sb  Sb5  1  0.17606773  0.92007120  0.70097481  1
  Sb  Sb6  1  0.11816545  0.52780337  0.90586503  1
  P  P7  1  0.14573187  0.02759166  0.12446634  1
  P  P8  1  0.38669312  0.86650613  0.65051491  1
  P  P9  1  0.33107411  0.32189483  0.36549410  1
  Li  Li10  1  0.11627535  0.75850870  0.40053668  1
  Li  Li11  1  0.69309709  0.77239421  0.75571806  1
