# generated using pymatgen
data_Li2Mn2Sb4P3N
_symmetry_space_group_name_H-M   'P 1'
_cell_length_a   5.47492123
_cell_length_b   5.87890743
_cell_length_c   6.58750934
_cell_angle_alpha   96.53217194
_cell_angle_beta   94.22831936
_cell_angle_gamma   96.09179092
_symmetry_Int_Tables_number   1
_chemical_formula_structural   Li2Mn2Sb4P3N
_chemical_formula_sum   'Li2 Mn2 Sb4 P3 N1'
_cell_volume   208.67167931
_cell_formula_units_Z   1
loop_
 _symmetry_equiv_pos_site_id
 _symmetry_equiv_pos_as_xyz
  1  'x, y, z'
loop_
 _atom_site_type_symbol
 _atom_site_label
 _atom_site_symmetry_multiplicity
 _atom_site_fract_x
 _atom_site_fract_y
 _atom_site_fract_z
 _atom_site_occupancy
  N  N0  1  0.00000000  0.00000000  0.00000000  1
  Mn  Mn1  1  0.50000000  0.50000000  0.50000000  1
  Mn  Mn2  1  0.25000000  0.25000000  0.25000000  1
  Sb  Sb3  1  0.75000000  0.25000000  0.00000000  1
  Sb  Sb4  1  0.25000000  0.75000000  0.50000000  1
  Sb  Sb5  1  0.65429760  0.51852339  0.25585452  1
  Sb  Sb6  1  0.27868872  0.51355365  0.66428060  1
  P  P7  1  0.04646042  0.60201290  0.22643696  1
  P  P8  1  0.10865340  0.80556236  0.23307197  1
  P  P9  1  0.19694335  0.54742646  0.83721289  1
  Li  Li10  1  0.43844011  0.65195018  0.67514794  1
  Li  Li11  1  0.12928953  0.55418159  0.15619876  1
