# generated using pymatgen
data_Li2Mn2Sb4P3
_symmetry_space_group_name_H-M   'P 1'
_cell_length_a   5.95861937
_cell_length_b   6.46463099
_cell_length_c   7.26790492
_cell_angle_alpha   94.25634025
_cell_angle_beta   95.04202830
_cell_angle_gamma   94.84424072
_symmetry_Int_Tables_number   1
_chemical_formula_structural   Li2Mn2Sb4P3
_chemical_formula_sum   'Li2 Mn2 Sb4 P3'
_cell_volume   276.94064400
_cell_formula_units_Z   1
loop_
 _symmetry_equiv_pos_site_id
 _symmetry_equiv_pos_as_xyz
  1  'x, y, z'
loop_
 _atom_site_type_symbol
 _atom_site_label
 _atom_site_symmetry_multiplicity
 _atom_site_fract_x
 _atom_site_fract_y
 _atom_site_fract_z
 _atom_site_occupancy
  Mn  Mn0  1  0.00000000  0.00000000  0.00000000  1
  Mn  Mn1  1  0.50000000  0.50000000  0.50000000  1
  Sb  Sb2  1  0.25000000  0.25000000  0.25000000  1
  Sb  Sb3  1  0.75000000  0.25000000  0.00000000  1
  Sb  Sb4  1  0.25000000  0.75000000  0.50000000  1
  Sb  Sb5  1  0.81826865  0.63194250  0.09439151  1
  P  P6  1  0.75438545  0.49218674  0.71082147  1
  P  P7  1  0.63946505  0.39525645  0.35965064  1
  P  P8  1  0.45918468  0.78072158  0.77840897  1
  Li  Li9  1  0.13048122  0.91948280  0.43665238  1
  Li  Li10  1  0.52433777  0.89006898  0.26017014  1
