# generated using pymatgen
data_Li2Ti2Cu2Ni2O3
_symmetry_space_group_name_H-M   'P 1'
_cell_length_a   8.02798933
_cell_length_b   7.90047624
_cell_length_c   8.70112292
_cell_angle_alpha   90.14666771
_cell_angle_beta   90.69780042
_cell_angle_gamma   90.16768036
_symmetry_Int_Tables_number   1
_chemical_formula_structural   Li2Ti2Cu2Ni2O3
_chemical_formula_sum   'Li2 Ti2 Cu2 Ni2 O3'
_cell_volume   551.82304074
_cell_formula_units_Z   1
loop_
 _symmetry_equiv_pos_site_id
 _symmetry_equiv_pos_as_xyz
  1  'x, y, z'
loop_
 _atom_site_type_symbol
 _atom_site_label
 _atom_site_symmetry_multiplicity
 _atom_site_fract_x
 _atom_site_fract_y
 _atom_site_fract_z
 _atom_site_occupancy
  Li  Li0  1  0.00000000  0.00000000  0.00000000  1
  Li  Li1  1  0.50000000  0.50000000  0.50000000  1
  Cu  Cu2  1  0.50000000  0.50000000  0.00000000  1
  Cu  Cu3  1  0.50000000  0.00000000  0.50000000  1
  Ni  Ni4  1  0.00000000  0.50000000  0.50000000  1
  Ni  Ni5  1  0.07069245  0.22863680  0.43710555  1
  Ti  Ti6  1  0.55960473  0.08902680  0.36710520  1
  Ti  Ti7  1  0.20355995  0.50094337  0.12861722  1
  O  O8  1  0.85146546  0.02277785  0.25079110  1
  O  O9  1  0.21314988  0.99517054  0.63529567  1
  O  O10  1  0.03196875  0.59587590  0.97567395  1
