# generated using pymatgen
data_Li2Ti(IO)4
_symmetry_space_group_name_H-M   'P 1'
_cell_length_a   8.49004709
_cell_length_b   8.30087865
_cell_length_c   7.65182487
_cell_angle_alpha   90.93670647
_cell_angle_beta   90.33116507
_cell_angle_gamma   91.08646611
_symmetry_Int_Tables_number   1
_chemical_formula_structural   Li2Ti(IO)4
_chemical_formula_sum   'Li2 Ti1 I4 O4'
_cell_volume   539.08221144
_cell_formula_units_Z   1
loop_
 _symmetry_equiv_pos_site_id
 _symmetry_equiv_pos_as_xyz
  1  'x, y, z'
loop_
 _atom_site_type_symbol
 _atom_site_label
 _atom_site_symmetry_multiplicity
 _atom_site_fract_x
 _atom_site_fract_y
 _atom_site_fract_z
 _atom_site_occupancy
  I  I0  1  0.00000000  0.00000000  0.00000000  1
  I  I1  1  0.50000000  0.50000000  0.50000000  1
  I  I2  1  0.25000000  0.25000000  0.25000000  1
  I  I3  1  0.75000000  0.25000000  0.00000000  1
  Li  Li4  1  0.25000000  0.75000000  0.50000000  1
  Li  Li5  1  0.28049364  0.46234220  0.25225363  1
  Ti  Ti6  1  0.01056826  0.84204871  0.08857647  1
  O  O7  1  0.07925381  0.05982560  0.60290647  1
  O  O8  1  0.39087420  0.61157786  0.54225745  1
  O  O9  1  0.95052517  0.02326333  0.83459464  1
  O  O10  1  0.07583222  0.75107676  0.65217141  1
