# generated using pymatgen
data_Li2MnSb4P3
_symmetry_space_group_name_H-M   'P 1'
_cell_length_a   4.85493029
_cell_length_b   5.14980831
_cell_length_c   6.59066790
_cell_angle_alpha   100.14060811
_cell_angle_beta   94.49648411
_cell_angle_gamma   100.49455822
_symmetry_Int_Tables_number   1
_chemical_formula_structural   Li2MnSb4P3
_chemical_formula_sum   'Li2 Mn1 Sb4 P3'
_cell_volume   158.45006769
_cell_formula_units_Z   1
loop_
 _symmetry_equiv_pos_site_id
 _symmetry_equiv_pos_as_xyz
  1  'x, y, z'
loop_
 _atom_site_type_symbol
 _atom_site_label
 _atom_site_symmetry_multiplicity
 _atom_site_fract_x
 _atom_site_fract_y
 _atom_site_fract_z
 _atom_site_occupancy
  Mn  Mn0  1  0.00000000  0.00000000  0.00000000  1
  Sb  Sb1  1  0.50000000  0.50000000  0.50000000  1
  Sb  Sb2  1  0.25000000  0.25000000  0.25000000  1
  Sb  Sb3  1  0.75000000  0.25000000  0.00000000  1
  Sb  Sb4  1  0.25000000  0.75000000  0.50000000  1
  P  P5  1  0.68702302  0.32398105  0.72310297  1
  P  P6  1  0.24912225  0.55956818  0.65893515  1
  P  P7  1  0.64332811  0.94776719  0.07075240  1
  Li  Li8  1  0.14060526  0.24122016  0.06379040  1
  Li  Li9  1  0.16593066  0.07437444  0.16510064  1
