# generated using pymatgen
data_Li2TiP6F2
_symmetry_space_group_name_H-M   'P 1'
_cell_length_a   8.31196223
_cell_length_b   8.01947332
_cell_length_c   7.99133036
_cell_angle_alpha   90.74627055
_cell_angle_beta   90.77101099
_cell_angle_gamma   90.86367050
_symmetry_Int_Tables_number   1
_chemical_formula_structural   Li2TiP6F2
_chemical_formula_sum   'Li2 Ti1 P6 F2'
_cell_volume   532.52722539
_cell_formula_units_Z   1
loop_
 _symmetry_equiv_pos_site_id
 _symmetry_equiv_pos_as_xyz
  1  'x, y, z'
loop_
 _atom_site_type_symbol
 _atom_site_label
 _atom_site_symmetry_multiplicity
 _atom_site_fract_x
 _atom_site_fract_y
 _atom_site_fract_z
 _atom_site_occupancy
  P  P0  1  0.00000000  0.00000000  0.00000000  1
  P  P1  1  0.50000000  0.50000000  0.50000000  1
  P  P2  1  0.50000000  0.50000000  0.00000000  1
  P  P3  1  0.50000000  0.00000000  0.50000000  1
  P  P4  1  0.00000000  0.50000000  0.50000000  1
  P  P5  1  0.57818263  0.16185042  0.58123142  1
  Li  Li6  1  0.22648564  0.63853226  0.64956921  1
  Li  Li7  1  0.93183342  0.35954544  0.08486701  1
  F  F8  1  0.13543435  0.51946189  0.07675688  1
  F  F9  1  0.86127507  0.79504647  0.25814653  1
  Ti  Ti10  1  0.44958064  0.41012785  0.54069877  1
