# generated using pymatgen
data_Li2Al3Mo2P4N5
_symmetry_space_group_name_H-M   'P 1'
_cell_length_a   5.25615292
_cell_length_b   5.43763285
_cell_length_c   6.75974826
_cell_angle_alpha   101.76890419
_cell_angle_beta   90.58793636
_cell_angle_gamma   101.53482064
_symmetry_Int_Tables_number   1
_chemical_formula_structural   Li2Al3Mo2P4N5
_chemical_formula_sum   'Li2 Al3 Mo2 P4 N5'
_cell_volume   185.05656415
_cell_formula_units_Z   1
loop_
 _symmetry_equiv_pos_site_id
 _symmetry_equiv_pos_as_xyz
  1  'x, y, z'
loop_
 _atom_site_type_symbol
 _atom_site_label
 _atom_site_symmetry_multiplicity
 _atom_site_fract_x
 _atom_site_fract_y
 _atom_site_fract_z
 _atom_site_occupancy
  Al  Al0  1  0.00000000  0.00000000  0.00000000  1
  Al  Al1  1  0.50000000  0.50000000  0.50000000  1
  Al  Al2  1  0.50000000  0.50000000  0.00000000  1
  P  P3  1  0.50000000  0.00000000  0.50000000  1
  P  P4  1  0.00000000  0.50000000  0.50000000  1
  P  P5  1  0.32265695  0.50548013  0.45129322  1
  P  P6  1  0.73662997  0.35574086  0.37976182  1
  Mo  Mo7  1  0.97813604  0.41180008  0.67896904  1
  Mo  Mo8  1  0.92225535  0.48726700  0.15838076  1
  N  N9  1  0.55449238  0.59224432  0.33843014  1
  N  N10  1  0.74728640  0.89202133  0.00817094  1
  N  N11  1  0.40093444  0.12563157  0.03290848  1
  N  N12  1  0.03083921  0.30648863  0.67782675  1
  N  N13  1  0.35049178  0.38049397  0.47076888  1
  Li  Li14  1  0.59867072  0.04630389  0.29928656  1
  Li  Li15  1  0.64414057  0.67565134  0.79825276  1
