# generated using pymatgen
data_LiSb3Se2Br3O2
_symmetry_space_group_name_H-M   'P 1'
_cell_length_a   8.07887559
_cell_length_b   8.17710904
_cell_length_c   7.56850158
_cell_angle_alpha   90.00000000
_cell_angle_beta   90.00000000
_cell_angle_gamma   90.00000000
_symmetry_Int_Tables_number   1
_chemical_formula_structural   LiSb3Se2Br3O2
_chemical_formula_sum   'Li1 Sb3 Se2 Br3 O2'
_cell_volume   499.98919061
_cell_formula_units_Z   1
loop_
 _symmetry_equiv_pos_site_id
 _symmetry_equiv_pos_as_xyz
  1  'x, y, z'
loop_
 _atom_site_type_symbol
 _atom_site_label
 _atom_site_symmetry_multiplicity
 _atom_site_fract_x
 _atom_site_fract_y
 _atom_site_fract_z
 _atom_site_occupancy
  Sb  Sb0  1  0.00000000  0.00000000  0.00000000  1
  Sb  Sb1  1  0.50000000  0.50000000  0.50000000  1
  Sb  Sb2  1  0.25000000  0.25000000  0.25000000  1
  Li  Li3  1  0.75000000  0.25000000  0.00000000  1
  Br  Br4  1  0.25000000  0.75000000  0.50000000  1
  Br  Br5  1  0.00075021  0.29230470  0.65562957  1
  Br  Br6  1  0.20258363  0.62829654  0.61277791  1
  Se  Se7  1  0.87271178  0.84148881  0.85453917  1
  Se  Se8  1  0.54922811  0.21292926  0.10447858  1
  O  O9  1  0.04930031  0.76130094  0.83150005  1
  O  O10  1  0.99940727  0.96715066  0.48200878  1
