# generated using pymatgen
data_Li3LuTi3Cu2P5
_symmetry_space_group_name_H-M   'P 1'
_cell_length_a   6.62818925
_cell_length_b   6.67193747
_cell_length_c   7.86620036
_cell_angle_alpha   96.51451755
_cell_angle_beta   97.88065299
_cell_angle_gamma   97.44017835
_symmetry_Int_Tables_number   1
_chemical_formula_structural   Li3LuTi3Cu2P5
_chemical_formula_sum   'Li3 Lu1 Ti3 Cu2 P5'
_cell_volume   338.61708230
_cell_formula_units_Z   1
loop_
 _symmetry_equiv_pos_site_id
 _symmetry_equiv_pos_as_xyz
  1  'x, y, z'
loop_
 _atom_site_type_symbol
 _atom_site_label
 _atom_site_symmetry_multiplicity
 _atom_site_fract_x
 _atom_site_fract_y
 _atom_site_fract_z
 _atom_site_occupancy
  P  P0  1  0.00000000  0.00000000  0.00000000  1
  P  P1  1  0.50000000  0.50000000  0.50000000  1
  P  P2  1  0.50000000  0.50000000  0.00000000  1
  P  P3  1  0.50000000  0.00000000  0.50000000  1
  P  P4  1  0.00000000  0.50000000  0.50000000  1
  Lu  Lu5  1  0.92394247  0.97479700  0.48556309  1
  Li  Li6  1  0.38676264  0.82281513  0.76231961  1
  Li  Li7  1  0.16636594  0.98544641  0.43826942  1
  Li  Li8  1  0.39512591  0.81921923  0.98665558  1
  Cu  Cu9  1  0.33545160  0.84406438  0.77658695  1
  Cu  Cu10  1  0.02919672  0.41037461  0.35753867  1
  Ti  Ti11  1  0.06768709  0.95356166  0.64545470  1
  Ti  Ti12  1  0.80177381  0.82067069  0.14938012  1
  Ti  Ti13  1  0.82243923  0.29710819  0.06397343  1
