# generated using pymatgen
data_LiMn2Sb4P3
_symmetry_space_group_name_H-M   'P 1'
_cell_length_a   5.57555973
_cell_length_b   5.96922060
_cell_length_c   6.74366881
_cell_angle_alpha   96.43756513
_cell_angle_beta   92.90451283
_cell_angle_gamma   96.73851417
_symmetry_Int_Tables_number   1
_chemical_formula_structural   LiMn2Sb4P3
_chemical_formula_sum   'Li1 Mn2 Sb4 P3'
_cell_volume   221.02145438
_cell_formula_units_Z   1
loop_
 _symmetry_equiv_pos_site_id
 _symmetry_equiv_pos_as_xyz
  1  'x, y, z'
loop_
 _atom_site_type_symbol
 _atom_site_label
 _atom_site_symmetry_multiplicity
 _atom_site_fract_x
 _atom_site_fract_y
 _atom_site_fract_z
 _atom_site_occupancy
  Mn  Mn0  1  0.00000000  0.00000000  0.00000000  1
  Mn  Mn1  1  0.50000000  0.50000000  0.50000000  1
  Sb  Sb2  1  0.25000000  0.25000000  0.25000000  1
  Sb  Sb3  1  0.75000000  0.25000000  0.00000000  1
  Sb  Sb4  1  0.25000000  0.75000000  0.50000000  1
  Sb  Sb5  1  0.09204755  0.40851792  0.17915753  1
  P  P6  1  0.66935929  0.07627190  0.98785620  1
  P  P7  1  0.03730919  0.55292514  0.46694748  1
  P  P8  1  0.07841138  0.29965417  0.50070044  1
  Li  Li9  1  0.64390311  0.45560603  0.06946345  1
