# generated using pymatgen
data_Li5Ti2SeO4F3
_symmetry_space_group_name_H-M   'P 1'
_cell_length_a   4.36707186
_cell_length_b   4.01636783
_cell_length_c   6.66143356
_cell_angle_alpha   107.32019578
_cell_angle_beta   112.36720788
_cell_angle_gamma   106.24625117
_symmetry_Int_Tables_number   1
_chemical_formula_structural   Li5Ti2SeO4F3
_chemical_formula_sum   'Li5 Ti2 Se1 O4 F3'
_cell_volume   92.36251186
_cell_formula_units_Z   1
loop_
 _symmetry_equiv_pos_site_id
 _symmetry_equiv_pos_as_xyz
  1  'x, y, z'
loop_
 _atom_site_type_symbol
 _atom_site_label
 _atom_site_symmetry_multiplicity
 _atom_site_fract_x
 _atom_site_fract_y
 _atom_site_fract_z
 _atom_site_occupancy
  Li  Li0  1  0.00000000  0.00000000  0.00000000  1
  Li  Li1  1  0.50000000  0.50000000  0.50000000  1
  Li  Li2  1  0.25000000  0.25000000  0.25000000  1
  Li  Li3  1  0.75000000  0.25000000  0.00000000  1
  Li  Li4  1  0.25000000  0.75000000  0.50000000  1
  Se  Se5  1  0.51108111  0.14623498  0.66308638  1
  F  F6  1  0.26837338  0.48057232  0.55635796  1
  F  F7  1  0.17233270  0.30289505  0.86932068  1
  F  F8  1  0.70795218  0.84225515  0.33334252  1
  Ti  Ti9  1  0.59857225  0.27452939  0.31206346  1
  Ti  Ti10  1  0.16968918  0.48946620  0.44259797  1
  O  O11  1  0.91782440  0.15927801  0.40193630  1
  O  O12  1  0.58719776  0.74535481  0.54346059  1
  O  O13  1  0.13083629  0.97984490  0.86814530  1
  O  O14  1  0.44344456  0.49287190  0.38970145  1
