# generated using pymatgen
data_Li4Ti2Ni2SeO4
_symmetry_space_group_name_H-M   'P 1'
_cell_length_a   5.35633878
_cell_length_b   5.09000971
_cell_length_c   7.11661574
_cell_angle_alpha   103.61407311
_cell_angle_beta   107.51551959
_cell_angle_gamma   102.78213841
_symmetry_Int_Tables_number   1
_chemical_formula_structural   Li4Ti2Ni2SeO4
_chemical_formula_sum   'Li4 Ti2 Ni2 Se1 O4'
_cell_volume   170.66808924
_cell_formula_units_Z   1
loop_
 _symmetry_equiv_pos_site_id
 _symmetry_equiv_pos_as_xyz
  1  'x, y, z'
loop_
 _atom_site_type_symbol
 _atom_site_label
 _atom_site_symmetry_multiplicity
 _atom_site_fract_x
 _atom_site_fract_y
 _atom_site_fract_z
 _atom_site_occupancy
  Li  Li0  1  0.12500000  0.00000000  0.25000000  1
  Li  Li1  1  0.00000000  0.00000000  0.00000000  1
  Li  Li2  1  0.37500000  0.00000000  0.25000000  1
  Li  Li3  1  0.25000000  0.25000000  0.25000000  1
  Se  Se4  1  0.00000000  0.25000000  0.12500000  1
  Ni  Ni5  1  0.74224862  0.17024954  0.54575430  1
  Ni  Ni6  1  0.50036043  0.05028038  0.71722264  1
  Ti  Ti7  1  0.51476921  0.03975960  0.51244720  1
  Ti  Ti8  1  0.58384497  0.60410362  0.35085537  1
  O  O9  1  0.09252031  0.74576172  0.04160108  1
  O  O10  1  0.37953533  0.82263000  0.05532863  1
  O  O11  1  0.08339273  0.57974781  0.36301773  1
  O  O12  1  0.06371537  0.98503661  0.31060207  1
