# generated using pymatgen
data_LiMn2(Sb2P)2
_symmetry_space_group_name_H-M   'P 1'
_cell_length_a   4.91445034
_cell_length_b   5.25873871
_cell_length_c   6.51077446
_cell_angle_alpha   99.56144001
_cell_angle_beta   94.88621742
_cell_angle_gamma   99.47344767
_symmetry_Int_Tables_number   1
_chemical_formula_structural   LiMn2(Sb2P)2
_chemical_formula_sum   'Li1 Mn2 Sb4 P2'
_cell_volume   162.56408578
_cell_formula_units_Z   1
loop_
 _symmetry_equiv_pos_site_id
 _symmetry_equiv_pos_as_xyz
  1  'x, y, z'
loop_
 _atom_site_type_symbol
 _atom_site_label
 _atom_site_symmetry_multiplicity
 _atom_site_fract_x
 _atom_site_fract_y
 _atom_site_fract_z
 _atom_site_occupancy
  Mn  Mn0  1  0.12500000  0.00000000  0.25000000  1
  Mn  Mn1  1  0.00000000  0.00000000  0.00000000  1
  Sb  Sb2  1  0.37500000  0.00000000  0.25000000  1
  Sb  Sb3  1  0.25000000  0.25000000  0.25000000  1
  Sb  Sb4  1  0.00000000  0.25000000  0.12500000  1
  Sb  Sb5  1  0.95897201  0.07934442  0.44148260  1
  P  P6  1  0.88030928  0.81806973  0.33735484  1
  P  P7  1  0.93131565  0.91207250  0.61461487  1
  Li  Li8  1  0.31475542  0.73723858  0.89841983  1
