# generated using pymatgen
data_Li3LuCu2(NiP2)2
_symmetry_space_group_name_H-M   'P 1'
_cell_length_a   7.63028175
_cell_length_b   7.42578319
_cell_length_c   8.46964331
_cell_angle_alpha   91.69550276
_cell_angle_beta   91.28877322
_cell_angle_gamma   91.96397783
_symmetry_Int_Tables_number   1
_chemical_formula_structural   Li3LuCu2(NiP2)2
_chemical_formula_sum   'Li3 Lu1 Cu2 Ni2 P4'
_cell_volume   479.27230297
_cell_formula_units_Z   1
loop_
 _symmetry_equiv_pos_site_id
 _symmetry_equiv_pos_as_xyz
  1  'x, y, z'
loop_
 _atom_site_type_symbol
 _atom_site_label
 _atom_site_symmetry_multiplicity
 _atom_site_fract_x
 _atom_site_fract_y
 _atom_site_fract_z
 _atom_site_occupancy
  P  P0  1  0.12500000  0.00000000  0.25000000  1
  P  P1  1  0.00000000  0.00000000  0.00000000  1
  P  P2  1  0.37500000  0.00000000  0.25000000  1
  P  P3  1  0.25000000  0.25000000  0.25000000  1
  Lu  Lu4  1  0.00000000  0.25000000  0.12500000  1
  Li  Li5  1  0.37996238  0.04450973  0.39515745  1
  Li  Li6  1  0.47635068  0.43277200  0.16572774  1
  Li  Li7  1  0.95066796  0.86835206  0.74437925  1
  Cu  Cu8  1  0.24987518  0.50683509  0.49948166  1
  Cu  Cu9  1  0.89555071  0.74145972  0.28052299  1
  Ni  Ni10  1  0.46372651  0.85272533  0.37030862  1
  Ni  Ni11  1  0.79527959  0.51702280  0.56199670  1
