# generated using pymatgen
data_Li2TiCu2(I2F)2
_symmetry_space_group_name_H-M   'P 1'
_cell_length_a   7.57004778
_cell_length_b   7.41252230
_cell_length_c   7.30720864
_cell_angle_alpha   90.95748411
_cell_angle_beta   91.94600144
_cell_angle_gamma   90.64625480
_symmetry_Int_Tables_number   1
_chemical_formula_structural   Li2TiCu2(I2F)2
_chemical_formula_sum   'Li2 Ti1 Cu2 I4 F2'
_cell_volume   409.70799196
_cell_formula_units_Z   1
loop_
 _symmetry_equiv_pos_site_id
 _symmetry_equiv_pos_as_xyz
  1  'x, y, z'
loop_
 _atom_site_type_symbol
 _atom_site_label
 _atom_site_symmetry_multiplicity
 _atom_site_fract_x
 _atom_site_fract_y
 _atom_site_fract_z
 _atom_site_occupancy
  I  I0  1  0.12500000  0.00000000  0.25000000  1
  I  I1  1  0.00000000  0.00000000  0.00000000  1
  I  I2  1  0.37500000  0.00000000  0.25000000  1
  I  I3  1  0.25000000  0.25000000  0.25000000  1
  Li  Li4  1  0.00000000  0.25000000  0.12500000  1
  Li  Li5  1  0.02216273  0.39886306  0.80525315  1
  Cu  Cu6  1  0.63623582  0.29253201  0.72829423  1
  Cu  Cu7  1  0.60554313  0.40642339  0.27452122  1
  F  F8  1  0.72448803  0.28923182  0.76151714  1
  F  F9  1  0.73604687  0.21455968  0.32364231  1
  Ti  Ti10  1  0.18390746  0.70286813  0.49466489  1
