# generated using pymatgen
data_Li4Ti2As6SeO4
_symmetry_space_group_name_H-M   'P 1'
_cell_length_a   6.51305882
_cell_length_b   6.25807266
_cell_length_c   7.84177766
_cell_angle_alpha   97.03631025
_cell_angle_beta   98.49663760
_cell_angle_gamma   96.84618336
_symmetry_Int_Tables_number   1
_chemical_formula_structural   Li4Ti2As6SeO4
_chemical_formula_sum   'Li4 Ti2 As6 Se1 O4'
_cell_volume   310.65121816
_cell_formula_units_Z   1
loop_
 _symmetry_equiv_pos_site_id
 _symmetry_equiv_pos_as_xyz
  1  'x, y, z'
loop_
 _atom_site_type_symbol
 _atom_site_label
 _atom_site_symmetry_multiplicity
 _atom_site_fract_x
 _atom_site_fract_y
 _atom_site_fract_z
 _atom_site_occupancy
  Li  Li0  1  0.00000000  0.00000000  0.00000000  1
  Li  Li1  1  0.50000000  0.50000000  0.50000000  1
  Li  Li2  1  0.50000000  0.50000000  0.00000000  1
  Li  Li3  1  0.50000000  0.00000000  0.50000000  1
  Se  Se4  1  0.00000000  0.50000000  0.50000000  1
  Ti  Ti5  1  0.84964329  0.94944436  0.78672407  1
  Ti  Ti6  1  0.85181291  0.25897351  0.15567332  1
  As  As7  1  0.98598815  0.38961468  0.06000037  1
  As  As8  1  0.24453488  0.68502987  0.11827425  1
  As  As9  1  0.44616514  0.98511709  0.75595475  1
  As  As10  1  0.14915052  0.88605129  0.38447192  1
  As  As11  1  0.37147953  0.16894356  0.21224262  1
  As  As12  1  0.78719754  0.14665017  0.90741232  1
  O  O13  1  0.95636323  0.49505304  0.67120650  1
  O  O14  1  0.06504148  0.20639379  0.66198471  1
  O  O15  1  0.03834882  0.01269977  0.94962502  1
  O  O16  1  0.91958553  0.90836980  0.33768066  1
