# generated using pymatgen
data_LiMn2Mo2P3
_symmetry_space_group_name_H-M   'P 1'
_cell_length_a   5.54741018
_cell_length_b   5.91462920
_cell_length_c   6.76493348
_cell_angle_alpha   95.93264377
_cell_angle_beta   93.35993095
_cell_angle_gamma   96.12825778
_symmetry_Int_Tables_number   1
_chemical_formula_structural   LiMn2Mo2P3
_chemical_formula_sum   'Li1 Mn2 Mo2 P3'
_cell_volume   218.96797875
_cell_formula_units_Z   1
loop_
 _symmetry_equiv_pos_site_id
 _symmetry_equiv_pos_as_xyz
  1  'x, y, z'
loop_
 _atom_site_type_symbol
 _atom_site_label
 _atom_site_symmetry_multiplicity
 _atom_site_fract_x
 _atom_site_fract_y
 _atom_site_fract_z
 _atom_site_occupancy
  Mn  Mn0  1  0.12500000  0.12500000  0.12500000  1
  Mn  Mn1  1  0.50000000  0.50000000  0.50000000  1
  P  P2  1  0.25000000  0.25000000  0.25000000  1
  P  P3  1  0.75000000  0.75000000  0.75000000  1
  P  P4  1  0.25268035  0.92742118  0.42824176  1
  Mo  Mo5  1  0.34967827  0.11480898  0.19584697  1
  Mo  Mo6  1  0.79461089  0.38784624  0.88297797  1
  Li  Li7  1  0.27032441  0.77837079  0.84452799  1
