# generated using pymatgen
data_Li3Ni2As6O7
_symmetry_space_group_name_H-M   'P 1'
_cell_length_a   7.69725639
_cell_length_b   7.50996869
_cell_length_c   8.79633975
_cell_angle_alpha   91.65840080
_cell_angle_beta   91.14424769
_cell_angle_gamma   91.92143971
_symmetry_Int_Tables_number   1
_chemical_formula_structural   Li3Ni2As6O7
_chemical_formula_sum   'Li3 Ni2 As6 O7'
_cell_volume   507.87220791
_cell_formula_units_Z   1
loop_
 _symmetry_equiv_pos_site_id
 _symmetry_equiv_pos_as_xyz
  1  'x, y, z'
loop_
 _atom_site_type_symbol
 _atom_site_label
 _atom_site_symmetry_multiplicity
 _atom_site_fract_x
 _atom_site_fract_y
 _atom_site_fract_z
 _atom_site_occupancy
  Li  Li0  1  0.00000000  0.00000000  0.00000000  1
  Li  Li1  1  0.33300000  0.66700000  0.25000000  1
  Li  Li2  1  0.66700000  0.33300000  0.50000000  1
  Ni  Ni3  1  0.00000000  0.00000000  0.75000000  1
  Ni  Ni4  1  0.03221693  0.88401020  0.22376883  1
  As  As5  1  0.00772503  0.65989809  0.86973587  1
  As  As6  1  0.03189348  0.12085263  0.34735365  1
  As  As7  1  0.49873230  0.55668787  0.08842745  1
  As  As8  1  0.00140839  0.85399440  0.18672576  1
  As  As9  1  0.78504284  0.14163775  0.65260733  1
  As  As10  1  0.60341877  0.03541739  0.23811204  1
  O  O11  1  0.56539432  0.43501948  0.33381983  1
  O  O12  1  0.89314653  0.53012799  0.98223668  1
  O  O13  1  0.81085888  0.25222657  0.10359483  1
  O  O14  1  0.94316259  0.57237982  0.03038265  1
  O  O15  1  0.35614958  0.86532379  0.42776679  1
  O  O16  1  0.97690235  0.19473488  0.54331805  1
  O  O17  1  0.27794926  0.11145713  0.42068555  1
