# generated using pymatgen
data_LiMn2Sb4P3
_symmetry_space_group_name_H-M   'P 1'
_cell_length_a   6.53144471
_cell_length_b   6.64965491
_cell_length_c   7.11164675
_cell_angle_alpha   92.93879535
_cell_angle_beta   91.44317075
_cell_angle_gamma   92.91249993
_symmetry_Int_Tables_number   1
_chemical_formula_structural   LiMn2Sb4P3
_chemical_formula_sum   'Li1 Mn2 Sb4 P3'
_cell_volume   307.94773888
_cell_formula_units_Z   1
loop_
 _symmetry_equiv_pos_site_id
 _symmetry_equiv_pos_as_xyz
  1  'x, y, z'
loop_
 _atom_site_type_symbol
 _atom_site_label
 _atom_site_symmetry_multiplicity
 _atom_site_fract_x
 _atom_site_fract_y
 _atom_site_fract_z
 _atom_site_occupancy
  Mn  Mn0  1  0.00000000  0.00000000  0.00000000  1
  Mn  Mn1  1  0.50000000  0.50000000  0.50000000  1
  Sb  Sb2  1  0.25000000  0.25000000  0.25000000  1
  Sb  Sb3  1  0.75000000  0.25000000  0.00000000  1
  Sb  Sb4  1  0.25000000  0.75000000  0.50000000  1
  Sb  Sb5  1  0.56154164  0.81570446  0.63009486  1
  P  P6  1  0.92568646  0.35454445  0.05387949  1
  P  P7  1  0.64792764  0.84361745  0.42142527  1
  P  P8  1  0.93813965  0.11654437  0.37301103  1
  Li  Li9  1  0.82611809  0.00700188  0.99369706  1
