# generated using pymatgen
data_LiMnSb4Mo2P3
_symmetry_space_group_name_H-M   'P 1'
_cell_length_a   5.68319186
_cell_length_b   5.93245161
_cell_length_c   6.71638524
_cell_angle_alpha   96.00481558
_cell_angle_beta   92.26937116
_cell_angle_gamma   96.26954356
_symmetry_Int_Tables_number   1
_chemical_formula_structural   LiMnSb4Mo2P3
_chemical_formula_sum   'Li1 Mn1 Sb4 Mo2 P3'
_cell_volume   223.55694751
_cell_formula_units_Z   1
loop_
 _symmetry_equiv_pos_site_id
 _symmetry_equiv_pos_as_xyz
  1  'x, y, z'
loop_
 _atom_site_type_symbol
 _atom_site_label
 _atom_site_symmetry_multiplicity
 _atom_site_fract_x
 _atom_site_fract_y
 _atom_site_fract_z
 _atom_site_occupancy
  Mn  Mn0  1  0.00000000  0.00000000  0.00000000  1
  Sb  Sb1  1  0.50000000  0.50000000  0.50000000  1
  Sb  Sb2  1  0.25000000  0.25000000  0.25000000  1
  Sb  Sb3  1  0.75000000  0.25000000  0.00000000  1
  Sb  Sb4  1  0.25000000  0.75000000  0.50000000  1
  P  P5  1  0.44742488  0.79709374  0.82720623  1
  P  P6  1  0.22351824  0.44092736  0.94432145  1
  P  P7  1  0.50314775  0.77635951  0.92840071  1
  Mo  Mo8  1  0.80520679  0.17867256  0.98178376  1
  Mo  Mo9  1  0.26807884  0.67100051  0.40809859  1
  Li  Li10  1  0.37015117  0.62207130  0.26689648  1
