# generated using pymatgen
data_LiNi(PI)2
_symmetry_space_group_name_H-M   'P 1'
_cell_length_a   6.69130938
_cell_length_b   6.63500468
_cell_length_c   7.30120796
_cell_angle_alpha   93.69566069
_cell_angle_beta   95.37595273
_cell_angle_gamma   92.99742637
_symmetry_Int_Tables_number   1
_chemical_formula_structural   LiNi(PI)2
_chemical_formula_sum   'Li2 Ni2 P4 I4'
_cell_volume   321.49833559
_cell_formula_units_Z   2
loop_
 _symmetry_equiv_pos_site_id
 _symmetry_equiv_pos_as_xyz
  1  'x, y, z'
loop_
 _atom_site_type_symbol
 _atom_site_label
 _atom_site_symmetry_multiplicity
 _atom_site_fract_x
 _atom_site_fract_y
 _atom_site_fract_z
 _atom_site_occupancy
  P  P0  1  0.12500000  0.12500000  0.12500000  1
  P  P1  1  0.50000000  0.50000000  0.50000000  1
  P  P2  1  0.25000000  0.25000000  0.25000000  1
  P  P3  1  0.75000000  0.75000000  0.75000000  1
  I  I4  1  0.34412668  0.79537051  0.48729442  1
  I  I5  1  0.63996966  0.88768431  0.56239469  1
  I  I6  1  0.97289561  0.44729095  0.85569539  1
  I  I7  1  0.02778191  0.45091840  0.91700596  1
  Li  Li8  1  0.44917965  0.57648527  0.84996872  1
  Li  Li9  1  0.36197420  0.73490909  0.90448708  1
  Ni  Ni10  1  0.99565448  0.13883772  0.65893240  1
  Ni  Ni11  1  0.46611696  0.40826785  0.63735836  1
