# generated using pymatgen
data_Li3LaMn3ZnP3
_symmetry_space_group_name_H-M   'P 1'
_cell_length_a   6.59537149
_cell_length_b   6.59211650
_cell_length_c   6.60593418
_cell_angle_alpha   92.40618915
_cell_angle_beta   92.76687851
_cell_angle_gamma   90.49977967
_symmetry_Int_Tables_number   1
_chemical_formula_structural   Li3LaMn3ZnP3
_chemical_formula_sum   'Li3 La1 Mn3 Zn1 P3'
_cell_volume   286.60483022
_cell_formula_units_Z   1
loop_
 _symmetry_equiv_pos_site_id
 _symmetry_equiv_pos_as_xyz
  1  'x, y, z'
loop_
 _atom_site_type_symbol
 _atom_site_label
 _atom_site_symmetry_multiplicity
 _atom_site_fract_x
 _atom_site_fract_y
 _atom_site_fract_z
 _atom_site_occupancy
  Zn  Zn0  1  0.00000000  0.00000000  0.00000000  1
  Mn  Mn1  1  0.50000000  0.50000000  0.50000000  1
  Mn  Mn2  1  0.25000000  0.25000000  0.25000000  1
  Mn  Mn3  1  0.75000000  0.25000000  0.00000000  1
  La  La4  1  0.25000000  0.75000000  0.50000000  1
  P  P5  1  0.73370137  0.18946045  0.44400253  1
  P  P6  1  0.76918128  0.71484076  0.01636409  1
  P  P7  1  0.21119753  0.10324352  0.70440960  1
  Li  Li8  1  0.32272803  0.36715511  0.80696787  1
  Li  Li9  1  0.81386436  0.91268753  0.16830543  1
  Li  Li10  1  0.00618252  0.72328735  0.44383009  1
