# generated using pymatgen
data_LiMn2Sb4Mo2P3
_symmetry_space_group_name_H-M   'P 1'
_cell_length_a   5.27130665
_cell_length_b   5.48393060
_cell_length_c   6.45809159
_cell_angle_alpha   96.95770689
_cell_angle_beta   92.44073540
_cell_angle_gamma   96.91431582
_symmetry_Int_Tables_number   1
_chemical_formula_structural   LiMn2Sb4Mo2P3
_chemical_formula_sum   'Li1 Mn2 Sb4 Mo2 P3'
_cell_volume   183.65478566
_cell_formula_units_Z   1
loop_
 _symmetry_equiv_pos_site_id
 _symmetry_equiv_pos_as_xyz
  1  'x, y, z'
loop_
 _atom_site_type_symbol
 _atom_site_label
 _atom_site_symmetry_multiplicity
 _atom_site_fract_x
 _atom_site_fract_y
 _atom_site_fract_z
 _atom_site_occupancy
  Mn  Mn0  1  0.12500000  0.00000000  0.25000000  1
  Mn  Mn1  1  0.00000000  0.00000000  0.00000000  1
  Sb  Sb2  1  0.37500000  0.00000000  0.25000000  1
  Sb  Sb3  1  0.25000000  0.25000000  0.25000000  1
  Sb  Sb4  1  0.00000000  0.25000000  0.12500000  1
  Sb  Sb5  1  0.38196362  0.50324713  0.51346411  1
  P  P6  1  0.66778316  0.17908690  0.04214515  1
  P  P7  1  0.07791670  0.76206518  0.72616062  1
  P  P8  1  0.01569351  0.27406356  0.88066418  1
  Mo  Mo9  1  0.51782777  0.19233882  0.11932954  1
  Mo  Mo10  1  0.80599305  0.28847337  0.71245879  1
  Li  Li11  1  0.99716968  0.94219144  0.85352052  1
