# generated using pymatgen
data_Li2TiP3(OF)2
_symmetry_space_group_name_H-M   'P 1'
_cell_length_a   5.94921186
_cell_length_b   5.94102289
_cell_length_c   6.90307953
_cell_angle_alpha   96.88131474
_cell_angle_beta   99.26308809
_cell_angle_gamma   97.86758992
_symmetry_Int_Tables_number   1
_chemical_formula_structural   Li2TiP3(OF)2
_chemical_formula_sum   'Li2 Ti1 P3 O2 F2'
_cell_volume   236.01291941
_cell_formula_units_Z   1
loop_
 _symmetry_equiv_pos_site_id
 _symmetry_equiv_pos_as_xyz
  1  'x, y, z'
loop_
 _atom_site_type_symbol
 _atom_site_label
 _atom_site_symmetry_multiplicity
 _atom_site_fract_x
 _atom_site_fract_y
 _atom_site_fract_z
 _atom_site_occupancy
  P  P0  1  0.12500000  0.00000000  0.25000000  1
  P  P1  1  0.00000000  0.00000000  0.00000000  1
  P  P2  1  0.37500000  0.00000000  0.25000000  1
  Li  Li3  1  0.25000000  0.25000000  0.25000000  1
  Li  Li4  1  0.00000000  0.25000000  0.12500000  1
  F  F5  1  0.10473478  0.72349334  0.07515823  1
  F  F6  1  0.77415381  0.21003947  0.99343225  1
  Ti  Ti7  1  0.64553243  0.72490781  0.94233406  1
  O  O8  1  0.53947053  0.79817215  0.11610862  1
  O  O9  1  0.75439010  0.24014274  0.63467496  1
