# generated using pymatgen
data_LiMn2Sb4P3
_symmetry_space_group_name_H-M   'P 1'
_cell_length_a   5.81386061
_cell_length_b   6.23546661
_cell_length_c   6.86549052
_cell_angle_alpha   92.78422896
_cell_angle_beta   93.63685482
_cell_angle_gamma   93.39498897
_symmetry_Int_Tables_number   1
_chemical_formula_structural   LiMn2Sb4P3
_chemical_formula_sum   'Li1 Mn2 Sb4 P3'
_cell_volume   247.60921178
_cell_formula_units_Z   1
loop_
 _symmetry_equiv_pos_site_id
 _symmetry_equiv_pos_as_xyz
  1  'x, y, z'
loop_
 _atom_site_type_symbol
 _atom_site_label
 _atom_site_symmetry_multiplicity
 _atom_site_fract_x
 _atom_site_fract_y
 _atom_site_fract_z
 _atom_site_occupancy
  Mn  Mn0  1  0.12500000  0.12500000  0.12500000  1
  Mn  Mn1  1  0.50000000  0.50000000  0.50000000  1
  Sb  Sb2  1  0.25000000  0.25000000  0.25000000  1
  Sb  Sb3  1  0.75000000  0.75000000  0.75000000  1
  Sb  Sb4  1  0.80008625  0.74422781  0.02079833  1
  Sb  Sb5  1  0.62995779  0.45254234  0.50574657  1
  P  P6  1  0.31799346  0.27145884  0.59081796  1
  P  P7  1  0.93496055  0.31777707  0.66329901  1
  P  P8  1  0.21061734  0.12534631  0.97792885  1
  Li  Li9  1  0.38031577  0.45082593  0.09708035  1
