# generated using pymatgen
data_Li2Ti(I2O)2
_symmetry_space_group_name_H-M   'P 1'
_cell_length_a   7.33332239
_cell_length_b   7.34591320
_cell_length_c   7.13335396
_cell_angle_alpha   93.66450039
_cell_angle_beta   95.19503940
_cell_angle_gamma   94.50676641
_symmetry_Int_Tables_number   1
_chemical_formula_structural   Li2Ti(I2O)2
_chemical_formula_sum   'Li2 Ti1 I4 O2'
_cell_volume   380.53402941
_cell_formula_units_Z   1
loop_
 _symmetry_equiv_pos_site_id
 _symmetry_equiv_pos_as_xyz
  1  'x, y, z'
loop_
 _atom_site_type_symbol
 _atom_site_label
 _atom_site_symmetry_multiplicity
 _atom_site_fract_x
 _atom_site_fract_y
 _atom_site_fract_z
 _atom_site_occupancy
  I  I0  1  0.12500000  0.00000000  0.25000000  1
  I  I1  1  0.00000000  0.00000000  0.00000000  1
  I  I2  1  0.37500000  0.00000000  0.25000000  1
  I  I3  1  0.25000000  0.25000000  0.25000000  1
  Li  Li4  1  0.00000000  0.25000000  0.12500000  1
  Li  Li5  1  0.20690725  0.31891289  0.81673394  1
  Ti  Ti6  1  0.91978813  0.52190719  0.90893067  1
  O  O7  1  0.09943316  0.10995693  0.27551757  1
  O  O8  1  0.89699486  0.93248990  0.94330013  1
