# generated using pymatgen
data_LiMn2Sb4P3
_symmetry_space_group_name_H-M   'P 1'
_cell_length_a   5.82765688
_cell_length_b   6.33829843
_cell_length_c   6.85577707
_cell_angle_alpha   94.90702669
_cell_angle_beta   95.30666504
_cell_angle_gamma   94.39237575
_symmetry_Int_Tables_number   1
_chemical_formula_structural   LiMn2Sb4P3
_chemical_formula_sum   'Li1 Mn2 Sb4 P3'
_cell_volume   250.31230483
_cell_formula_units_Z   1
loop_
 _symmetry_equiv_pos_site_id
 _symmetry_equiv_pos_as_xyz
  1  'x, y, z'
loop_
 _atom_site_type_symbol
 _atom_site_label
 _atom_site_symmetry_multiplicity
 _atom_site_fract_x
 _atom_site_fract_y
 _atom_site_fract_z
 _atom_site_occupancy
  Mn  Mn0  1  0.12500000  0.00000000  0.25000000  1
  Mn  Mn1  1  0.00000000  0.00000000  0.00000000  1
  Sb  Sb2  1  0.37500000  0.00000000  0.25000000  1
  Sb  Sb3  1  0.25000000  0.25000000  0.25000000  1
  Sb  Sb4  1  0.00000000  0.25000000  0.12500000  1
  Sb  Sb5  1  0.58148839  0.47403645  0.07632012  1
  P  P6  1  0.10515404  0.28747496  0.69481220  1
  P  P7  1  0.76443154  0.13545203  0.59892275  1
  P  P8  1  0.55337496  0.57535087  0.88070646  1
  Li  Li9  1  0.70368615  0.78891697  0.64579780  1
