# generated using pymatgen
data_LiMn2Sb4Mo2P3
_symmetry_space_group_name_H-M   'P 1'
_cell_length_a   6.56605796
_cell_length_b   6.88564147
_cell_length_c   7.01503120
_cell_angle_alpha   94.43381625
_cell_angle_beta   91.64089218
_cell_angle_gamma   94.56216638
_symmetry_Int_Tables_number   1
_chemical_formula_structural   LiMn2Sb4Mo2P3
_chemical_formula_sum   'Li1 Mn2 Sb4 Mo2 P3'
_cell_volume   315.01606888
_cell_formula_units_Z   1
loop_
 _symmetry_equiv_pos_site_id
 _symmetry_equiv_pos_as_xyz
  1  'x, y, z'
loop_
 _atom_site_type_symbol
 _atom_site_label
 _atom_site_symmetry_multiplicity
 _atom_site_fract_x
 _atom_site_fract_y
 _atom_site_fract_z
 _atom_site_occupancy
  Mn  Mn0  1  0.12500000  0.00000000  0.25000000  1
  Mn  Mn1  1  0.00000000  0.00000000  0.00000000  1
  Sb  Sb2  1  0.37500000  0.00000000  0.25000000  1
  Sb  Sb3  1  0.25000000  0.25000000  0.25000000  1
  Sb  Sb4  1  0.00000000  0.25000000  0.12500000  1
  Sb  Sb5  1  0.07383562  0.69637379  0.58598856  1
  P  P6  1  0.38002771  0.89070322  0.26347699  1
  P  P7  1  0.12576264  0.75044864  0.45450384  1
  P  P8  1  0.50661482  0.89465308  0.00666001  1
  Mo  Mo9  1  0.68888896  0.89483083  0.94929480  1
  Mo  Mo10  1  0.51545343  0.03834499  0.82719805  1
  Li  Li11  1  0.45545439  0.31631351  0.64097069  1
