# generated using pymatgen
data_Li2Mn2Sb4P3
_symmetry_space_group_name_H-M   'P 1'
_cell_length_a   6.64669306
_cell_length_b   7.19187352
_cell_length_c   7.13047113
_cell_angle_alpha   93.99889581
_cell_angle_beta   90.75518689
_cell_angle_gamma   93.99670687
_symmetry_Int_Tables_number   1
_chemical_formula_structural   Li2Mn2Sb4P3
_chemical_formula_sum   'Li2 Mn2 Sb4 P3'
_cell_volume   339.13953605
_cell_formula_units_Z   1
loop_
 _symmetry_equiv_pos_site_id
 _symmetry_equiv_pos_as_xyz
  1  'x, y, z'
loop_
 _atom_site_type_symbol
 _atom_site_label
 _atom_site_symmetry_multiplicity
 _atom_site_fract_x
 _atom_site_fract_y
 _atom_site_fract_z
 _atom_site_occupancy
  Mn  Mn0  1  0.00000000  0.00000000  0.00000000  1
  Mn  Mn1  1  0.50000000  0.50000000  0.50000000  1
  Sb  Sb2  1  0.25000000  0.25000000  0.25000000  1
  Sb  Sb3  1  0.75000000  0.25000000  0.00000000  1
  Sb  Sb4  1  0.25000000  0.75000000  0.50000000  1
  Sb  Sb5  1  0.51961277  0.75148482  0.31592154  1
  P  P6  1  0.65405515  0.60728478  0.44723588  1
  P  P7  1  0.04141150  0.71919377  0.85231583  1
  P  P8  1  0.53443656  0.75891585  0.71749772  1
  Li  Li9  1  0.97058972  0.24847582  0.56395959  1
  Li  Li10  1  0.13193312  0.10015239  0.57067935  1
