# generated using pymatgen
data_Li2Mn2Sb4P3
_symmetry_space_group_name_H-M   'P 1'
_cell_length_a   6.04231786
_cell_length_b   6.32980893
_cell_length_c   7.19653336
_cell_angle_alpha   95.31055017
_cell_angle_beta   93.75078057
_cell_angle_gamma   95.69032426
_symmetry_Int_Tables_number   1
_chemical_formula_structural   Li2Mn2Sb4P3
_chemical_formula_sum   'Li2 Mn2 Sb4 P3'
_cell_volume   271.93788851
_cell_formula_units_Z   1
loop_
 _symmetry_equiv_pos_site_id
 _symmetry_equiv_pos_as_xyz
  1  'x, y, z'
loop_
 _atom_site_type_symbol
 _atom_site_label
 _atom_site_symmetry_multiplicity
 _atom_site_fract_x
 _atom_site_fract_y
 _atom_site_fract_z
 _atom_site_occupancy
  Mn  Mn0  1  0.12500000  0.00000000  0.25000000  1
  Mn  Mn1  1  0.00000000  0.00000000  0.00000000  1
  Sb  Sb2  1  0.37500000  0.00000000  0.25000000  1
  Sb  Sb3  1  0.25000000  0.25000000  0.25000000  1
  Sb  Sb4  1  0.00000000  0.25000000  0.12500000  1
  Sb  Sb5  1  0.69875338  0.00299834  0.34883400  1
  P  P6  1  0.29483906  0.36048115  0.24130508  1
  P  P7  1  0.02853433  0.49600472  0.12437190  1
  P  P8  1  0.64683189  0.16733033  0.58500131  1
  Li  Li9  1  0.19556011  0.51100132  0.29485150  1
  Li  Li10  1  0.31333883  0.04651900  0.23659863  1
