# generated using pymatgen
data_LiSb4Mo2P3
_symmetry_space_group_name_H-M   'P 1'
_cell_length_a   5.15614085
_cell_length_b   5.31395934
_cell_length_c   6.09722394
_cell_angle_alpha   95.56677020
_cell_angle_beta   91.18006243
_cell_angle_gamma   95.18748608
_symmetry_Int_Tables_number   1
_chemical_formula_structural   LiSb4Mo2P3
_chemical_formula_sum   'Li1 Sb4 Mo2 P3'
_cell_volume   165.51942654
_cell_formula_units_Z   1
loop_
 _symmetry_equiv_pos_site_id
 _symmetry_equiv_pos_as_xyz
  1  'x, y, z'
loop_
 _atom_site_type_symbol
 _atom_site_label
 _atom_site_symmetry_multiplicity
 _atom_site_fract_x
 _atom_site_fract_y
 _atom_site_fract_z
 _atom_site_occupancy
  Sb  Sb0  1  0.12500000  0.00000000  0.25000000  1
  Sb  Sb1  1  0.00000000  0.00000000  0.00000000  1
  Sb  Sb2  1  0.37500000  0.00000000  0.25000000  1
  Sb  Sb3  1  0.25000000  0.25000000  0.25000000  1
  P  P4  1  0.00000000  0.25000000  0.12500000  1
  P  P5  1  0.64361833  0.58691466  0.93178205  1
  P  P6  1  0.27269351  0.15230248  0.75338614  1
  Mo  Mo7  1  0.23697828  0.19656979  0.32397518  1
  Mo  Mo8  1  0.19945332  0.86295247  0.78497799  1
  Li  Li9  1  0.84709370  0.78517019  0.09126384  1
