# generated using pymatgen
data_LiTi2Cu2P5S
_symmetry_space_group_name_H-M   'P 1'
_cell_length_a   6.97331490
_cell_length_b   6.90463571
_cell_length_c   7.34269280
_cell_angle_alpha   90.80719557
_cell_angle_beta   93.84039137
_cell_angle_gamma   90.92284007
_symmetry_Int_Tables_number   1
_chemical_formula_structural   LiTi2Cu2P5S
_chemical_formula_sum   'Li1 Ti2 Cu2 P5 S1'
_cell_volume   352.65705276
_cell_formula_units_Z   1
loop_
 _symmetry_equiv_pos_site_id
 _symmetry_equiv_pos_as_xyz
  1  'x, y, z'
loop_
 _atom_site_type_symbol
 _atom_site_label
 _atom_site_symmetry_multiplicity
 _atom_site_fract_x
 _atom_site_fract_y
 _atom_site_fract_z
 _atom_site_occupancy
  P  P0  1  0.00000000  0.00000000  0.00000000  1
  P  P1  1  0.50000000  0.50000000  0.50000000  1
  P  P2  1  0.50000000  0.50000000  0.00000000  1
  P  P3  1  0.50000000  0.00000000  0.50000000  1
  P  P4  1  0.00000000  0.50000000  0.50000000  1
  Li  Li5  1  0.71863014  0.58374441  0.53440128  1
  Cu  Cu6  1  0.33607655  0.55912687  0.02045986  1
  Cu  Cu7  1  0.66622779  0.97667938  0.78276217  1
  S  S8  1  0.49943624  0.29151081  0.02338642  1
  Ti  Ti9  1  0.95709368  0.34475051  0.18917069  1
  Ti  Ti10  1  0.65153460  0.00650082  0.20480714  1
