# generated using pymatgen
data_Li2MnSb4P3
_symmetry_space_group_name_H-M   'P 1'
_cell_length_a   6.27115526
_cell_length_b   6.27717270
_cell_length_c   7.26379548
_cell_angle_alpha   95.62653605
_cell_angle_beta   92.82100300
_cell_angle_gamma   95.86834262
_symmetry_Int_Tables_number   1
_chemical_formula_structural   Li2MnSb4P3
_chemical_formula_sum   'Li2 Mn1 Sb4 P3'
_cell_volume   282.56404196
_cell_formula_units_Z   1
loop_
 _symmetry_equiv_pos_site_id
 _symmetry_equiv_pos_as_xyz
  1  'x, y, z'
loop_
 _atom_site_type_symbol
 _atom_site_label
 _atom_site_symmetry_multiplicity
 _atom_site_fract_x
 _atom_site_fract_y
 _atom_site_fract_z
 _atom_site_occupancy
  Mn  Mn0  1  0.00000000  0.00000000  0.00000000  1
  Sb  Sb1  1  0.50000000  0.50000000  0.50000000  1
  Sb  Sb2  1  0.25000000  0.25000000  0.25000000  1
  Sb  Sb3  1  0.75000000  0.25000000  0.00000000  1
  Sb  Sb4  1  0.25000000  0.75000000  0.50000000  1
  P  P5  1  0.79627271  0.54949727  0.10832709  1
  P  P6  1  0.66273444  0.45134092  0.51987606  1
  P  P7  1  0.69303126  0.79362537  0.07833788  1
  Li  Li8  1  0.70777487  0.21715822  0.79274759  1
  Li  Li9  1  0.54740862  0.53216586  0.34173371  1
