# generated using pymatgen
data_Li3Ti(As3P2)2
_symmetry_space_group_name_H-M   'P 1'
_cell_length_a   6.87512556
_cell_length_b   6.63338693
_cell_length_c   8.14682064
_cell_angle_alpha   94.44931574
_cell_angle_beta   94.09832144
_cell_angle_gamma   94.43926288
_symmetry_Int_Tables_number   1
_chemical_formula_structural   Li3Ti(As3P2)2
_chemical_formula_sum   'Li3 Ti1 As6 P4'
_cell_volume   368.18434694
_cell_formula_units_Z   1
loop_
 _symmetry_equiv_pos_site_id
 _symmetry_equiv_pos_as_xyz
  1  'x, y, z'
loop_
 _atom_site_type_symbol
 _atom_site_label
 _atom_site_symmetry_multiplicity
 _atom_site_fract_x
 _atom_site_fract_y
 _atom_site_fract_z
 _atom_site_occupancy
  P  P0  1  0.12500000  0.12500000  0.12500000  1
  P  P1  1  0.50000000  0.50000000  0.50000000  1
  P  P2  1  0.25000000  0.25000000  0.25000000  1
  P  P3  1  0.75000000  0.75000000  0.75000000  1
  Li  Li4  1  0.11828561  0.93755862  0.46877733  1
  Li  Li5  1  0.56708562  0.41685584  0.65505303  1
  Li  Li6  1  0.40653458  0.54339681  0.24785595  1
  Ti  Ti7  1  0.79257622  0.88186463  0.35577215  1
  As  As8  1  0.20555944  0.71343563  0.24329145  1
  As  As9  1  0.31859020  0.84563371  0.41450528  1
  As  As10  1  0.34458066  0.93143245  0.05992123  1
  As  As11  1  0.92069263  0.90125532  0.40368967  1
  As  As12  1  0.46207545  0.96247619  0.78831248  1
  As  As13  1  0.73053917  0.44955108  0.23911311  1
