# generated using pymatgen
data_Li2MnSb4P3
_symmetry_space_group_name_H-M   'P 1'
_cell_length_a   6.62505057
_cell_length_b   6.62877856
_cell_length_c   7.60078969
_cell_angle_alpha   93.30320158
_cell_angle_beta   93.91294748
_cell_angle_gamma   93.75945124
_symmetry_Int_Tables_number   1
_chemical_formula_structural   Li2MnSb4P3
_chemical_formula_sum   'Li2 Mn1 Sb4 P3'
_cell_volume   331.65446392
_cell_formula_units_Z   1
loop_
 _symmetry_equiv_pos_site_id
 _symmetry_equiv_pos_as_xyz
  1  'x, y, z'
loop_
 _atom_site_type_symbol
 _atom_site_label
 _atom_site_symmetry_multiplicity
 _atom_site_fract_x
 _atom_site_fract_y
 _atom_site_fract_z
 _atom_site_occupancy
  Mn  Mn0  1  0.00000000  0.00000000  0.00000000  1
  Sb  Sb1  1  0.50000000  0.50000000  0.50000000  1
  Sb  Sb2  1  0.50000000  0.50000000  0.00000000  1
  Sb  Sb3  1  0.50000000  0.00000000  0.50000000  1
  Sb  Sb4  1  0.00000000  0.50000000  0.50000000  1
  P  P5  1  0.29131921  0.87616038  0.30147826  1
  P  P6  1  0.82604783  0.90904957  0.56099019  1
  P  P7  1  0.32605495  0.75087743  0.41611337  1
  Li  Li8  1  0.13157484  0.22409272  0.63302220  1
  Li  Li9  1  0.41541073  0.56916555  0.91632626  1
