# generated using pymatgen
data_Li3Cu2(NiAs3)2
_symmetry_space_group_name_H-M   'P 1'
_cell_length_a   7.86822588
_cell_length_b   7.90397592
_cell_length_c   9.00445314
_cell_angle_alpha   90.25605166
_cell_angle_beta   91.21821602
_cell_angle_gamma   90.29273541
_symmetry_Int_Tables_number   1
_chemical_formula_structural   Li3Cu2(NiAs3)2
_chemical_formula_sum   'Li3 Cu2 Ni2 As6'
_cell_volume   559.84960576
_cell_formula_units_Z   1
loop_
 _symmetry_equiv_pos_site_id
 _symmetry_equiv_pos_as_xyz
  1  'x, y, z'
loop_
 _atom_site_type_symbol
 _atom_site_label
 _atom_site_symmetry_multiplicity
 _atom_site_fract_x
 _atom_site_fract_y
 _atom_site_fract_z
 _atom_site_occupancy
  Ni  Ni0  1  0.00000000  0.00000000  0.00000000  1
  Ni  Ni1  1  0.50000000  0.50000000  0.50000000  1
  As  As2  1  0.50000000  0.50000000  0.00000000  1
  As  As3  1  0.50000000  0.00000000  0.50000000  1
  As  As4  1  0.00000000  0.50000000  0.50000000  1
  As  As5  1  0.02255285  0.42172694  0.71588088  1
  As  As6  1  0.44866230  0.80331757  0.21476066  1
  As  As7  1  0.60800296  0.80845378  0.17447001  1
  Li  Li8  1  0.13404933  0.56706458  0.62988454  1
  Li  Li9  1  0.74162239  0.57184975  0.60395493  1
  Li  Li10  1  0.43538980  0.03476966  0.71623037  1
  Cu  Cu11  1  0.01327093  0.26553282  0.99821048  1
  Cu  Cu12  1  0.29219778  0.80629796  0.81702731  1
