# generated using pymatgen
data_Li2Ti2Al3Br5F3
_symmetry_space_group_name_H-M   'P 1'
_cell_length_a   6.25011315
_cell_length_b   5.46020934
_cell_length_c   6.72903899
_cell_angle_alpha   93.78128660
_cell_angle_beta   95.26315596
_cell_angle_gamma   93.47611381
_symmetry_Int_Tables_number   1
_chemical_formula_structural   Li2Ti2Al3Br5F3
_chemical_formula_sum   'Li2 Ti2 Al3 Br5 F3'
_cell_volume   227.66100908
_cell_formula_units_Z   1
loop_
 _symmetry_equiv_pos_site_id
 _symmetry_equiv_pos_as_xyz
  1  'x, y, z'
loop_
 _atom_site_type_symbol
 _atom_site_label
 _atom_site_symmetry_multiplicity
 _atom_site_fract_x
 _atom_site_fract_y
 _atom_site_fract_z
 _atom_site_occupancy
  Li  Li0  1  0.00000000  0.00000000  0.00000000  1
  Li  Li1  1  0.50000000  0.50000000  0.50000000  1
  F  F2  1  0.25000000  0.25000000  0.25000000  1
  F  F3  1  0.75000000  0.25000000  0.00000000  1
  F  F4  1  0.25000000  0.75000000  0.50000000  1
  Al  Al5  1  0.56128175  0.48279307  0.18452730  1
  Al  Al6  1  0.10510230  0.69898990  0.12156824  1
  Al  Al7  1  0.82097706  0.47659368  0.12873431  1
  Ti  Ti8  1  0.79780965  0.73048066  0.07077441  1
  Ti  Ti9  1  0.80103198  0.33495512  0.61967229  1
  Br  Br10  1  0.46598939  0.43396240  0.77251720  1
  Br  Br11  1  0.21484160  0.53266216  0.18919193  1
  Br  Br12  1  0.89857142  0.54598230  0.49910330  1
  Br  Br13  1  0.34468121  0.76671697  0.81990769  1
  Br  Br14  1  0.26413539  0.33037107  0.72731928  1
