# generated using pymatgen
data_Li3Ni2Te6(As3P2)2
_symmetry_space_group_name_H-M   'P 1'
_cell_length_a   6.79093030
_cell_length_b   6.61239123
_cell_length_c   7.99444178
_cell_angle_alpha   97.13375272
_cell_angle_beta   98.56612606
_cell_angle_gamma   96.89475812
_symmetry_Int_Tables_number   1
_chemical_formula_structural   Li3Ni2Te6(As3P2)2
_chemical_formula_sum   'Li3 Ni2 Te6 As6 P4'
_cell_volume   348.70322325
_cell_formula_units_Z   1
loop_
 _symmetry_equiv_pos_site_id
 _symmetry_equiv_pos_as_xyz
  1  'x, y, z'
loop_
 _atom_site_type_symbol
 _atom_site_label
 _atom_site_symmetry_multiplicity
 _atom_site_fract_x
 _atom_site_fract_y
 _atom_site_fract_z
 _atom_site_occupancy
  P  P0  1  0.12500000  0.00000000  0.25000000  1
  P  P1  1  0.00000000  0.00000000  0.00000000  1
  P  P2  1  0.37500000  0.00000000  0.25000000  1
  P  P3  1  0.25000000  0.25000000  0.25000000  1
  Li  Li4  1  0.00000000  0.25000000  0.12500000  1
  Li  Li5  1  0.89663474  0.79996142  0.51315980  1
  Li  Li6  1  0.21807476  0.75251939  0.35867800  1
  Ni  Ni7  1  0.22427068  0.63908903  0.89775544  1
  Ni  Ni8  1  0.78904356  0.23384040  0.29362770  1
  Te  Te9  1  0.54588882  0.90801429  0.48139752  1
  Te  Te10  1  0.58817403  0.00762800  0.62553379  1
  Te  Te11  1  0.58265526  0.88603463  0.86441586  1
  Te  Te12  1  0.70645697  0.67119326  0.40003507  1
  Te  Te13  1  0.80924982  0.29881836  0.38442850  1
  Te  Te14  1  0.33198096  0.53699109  0.40227453  1
  As  As15  1  0.66239255  0.34635596  0.43151903  1
  As  As16  1  0.31846229  0.94642547  0.04589689  1
  As  As17  1  0.37643621  0.07174044  0.20217662  1
  As  As18  1  0.48161278  0.50840583  0.39183490  1
  As  As19  1  0.00880979  0.59437338  0.96789150  1
  As  As20  1  0.40237637  0.09585248  0.45852479  1
