# generated using pymatgen
data_LiTi2Cu2S3
_symmetry_space_group_name_H-M   'P 1'
_cell_length_a   6.60009471
_cell_length_b   6.69462691
_cell_length_c   7.84389533
_cell_angle_alpha   91.07818525
_cell_angle_beta   95.12967799
_cell_angle_gamma   91.23265364
_symmetry_Int_Tables_number   1
_chemical_formula_structural   LiTi2Cu2S3
_chemical_formula_sum   'Li1 Ti2 Cu2 S3'
_cell_volume   345.04100308
_cell_formula_units_Z   1
loop_
 _symmetry_equiv_pos_site_id
 _symmetry_equiv_pos_as_xyz
  1  'x, y, z'
loop_
 _atom_site_type_symbol
 _atom_site_label
 _atom_site_symmetry_multiplicity
 _atom_site_fract_x
 _atom_site_fract_y
 _atom_site_fract_z
 _atom_site_occupancy
  S  S0  1  0.00000000  0.00000000  0.00000000  1
  S  S1  1  0.50000000  0.50000000  0.50000000  1
  S  S2  1  0.25000000  0.25000000  0.25000000  1
  Ti  Ti3  1  0.75000000  0.25000000  0.00000000  1
  Ti  Ti4  1  0.25000000  0.75000000  0.50000000  1
  Li  Li5  1  0.30924536  0.74329353  0.25708523  1
  Cu  Cu6  1  0.71699027  0.91891776  0.96628880  1
  Cu  Cu7  1  0.52351589  0.30805243  0.03567984  1
