# generated using pymatgen
data_Li2Mn2Sb2Mo2P3
_symmetry_space_group_name_H-M   'P 1'
_cell_length_a   6.03318468
_cell_length_b   6.48442264
_cell_length_c   6.87037403
_cell_angle_alpha   95.48559330
_cell_angle_beta   91.86140641
_cell_angle_gamma   95.53368330
_symmetry_Int_Tables_number   1
_chemical_formula_structural   Li2Mn2Sb2Mo2P3
_chemical_formula_sum   'Li2 Mn2 Sb2 Mo2 P3'
_cell_volume   266.06705928
_cell_formula_units_Z   1
loop_
 _symmetry_equiv_pos_site_id
 _symmetry_equiv_pos_as_xyz
  1  'x, y, z'
loop_
 _atom_site_type_symbol
 _atom_site_label
 _atom_site_symmetry_multiplicity
 _atom_site_fract_x
 _atom_site_fract_y
 _atom_site_fract_z
 _atom_site_occupancy
  Mn  Mn0  1  0.00000000  0.00000000  0.00000000  1
  Mn  Mn1  1  0.50000000  0.50000000  0.50000000  1
  Sb  Sb2  1  0.50000000  0.50000000  0.00000000  1
  Sb  Sb3  1  0.50000000  0.00000000  0.50000000  1
  P  P4  1  0.00000000  0.50000000  0.50000000  1
  P  P5  1  0.49107160  0.71012366  0.48318405  1
  P  P6  1  0.24559251  0.66077583  0.05750888  1
  Mo  Mo7  1  0.92762574  0.41054660  0.36183727  1
  Mo  Mo8  1  0.70482929  0.98894116  0.52572057  1
  Li  Li9  1  0.89924300  0.68613217  0.49579693  1
  Li  Li10  1  0.71641472  0.38765772  0.73994759  1
