# generated using pymatgen
data_Li3Ni2Te6(As3O2)2
_symmetry_space_group_name_H-M   'P 1'
_cell_length_a   8.28366608
_cell_length_b   8.52977824
_cell_length_c   7.90345535
_cell_angle_alpha   90.59856671
_cell_angle_beta   90.37948933
_cell_angle_gamma   90.69363173
_symmetry_Int_Tables_number   1
_chemical_formula_structural   Li3Ni2Te6(As3O2)2
_chemical_formula_sum   'Li3 Ni2 Te6 As6 O4'
_cell_volume   558.35692523
_cell_formula_units_Z   1
loop_
 _symmetry_equiv_pos_site_id
 _symmetry_equiv_pos_as_xyz
  1  'x, y, z'
loop_
 _atom_site_type_symbol
 _atom_site_label
 _atom_site_symmetry_multiplicity
 _atom_site_fract_x
 _atom_site_fract_y
 _atom_site_fract_z
 _atom_site_occupancy
  Li  Li0  1  0.00000000  0.00000000  0.00000000  1
  Li  Li1  1  0.50000000  0.50000000  0.50000000  1
  Li  Li2  1  0.50000000  0.50000000  0.00000000  1
  Ni  Ni3  1  0.50000000  0.00000000  0.50000000  1
  Ni  Ni4  1  0.00000000  0.50000000  0.50000000  1
  Te  Te5  1  0.12470056  0.67568811  0.14145934  1
  Te  Te6  1  0.84779056  0.35009590  0.52947762  1
  Te  Te7  1  0.08686509  0.38658071  0.74291067  1
  Te  Te8  1  0.32453061  0.48898972  0.53879793  1
  Te  Te9  1  0.34268519  0.00133985  0.20254494  1
  Te  Te10  1  0.44558575  0.16302706  0.21308866  1
  As  As11  1  0.75214407  0.09751476  0.23271572  1
  As  As12  1  0.65946312  0.96882590  0.65730480  1
  As  As13  1  0.97481953  0.05582712  0.47473397  1
  As  As14  1  0.85126316  0.38223451  0.56599679  1
  As  As15  1  0.50932881  0.62006643  0.39007513  1
  As  As16  1  0.70867939  0.80921763  0.81583068  1
  O  O17  1  0.89301748  0.14682054  0.49367290  1
  O  O18  1  0.99127008  0.96029575  0.03561478  1
  O  O19  1  0.43287282  0.09141519  0.93299249  1
  O  O20  1  0.89975583  0.18055546  0.25779780  1
