# generated using pymatgen
data_Li3Ni2(As3I2)2
_symmetry_space_group_name_H-M   'P 1'
_cell_length_a   6.99177123
_cell_length_b   6.80439321
_cell_length_c   8.00287268
_cell_angle_alpha   95.93120532
_cell_angle_beta   97.17505187
_cell_angle_gamma   95.74813727
_symmetry_Int_Tables_number   1
_chemical_formula_structural   Li3Ni2(As3I2)2
_chemical_formula_sum   'Li3 Ni2 As6 I4'
_cell_volume   373.25702117
_cell_formula_units_Z   1
loop_
 _symmetry_equiv_pos_site_id
 _symmetry_equiv_pos_as_xyz
  1  'x, y, z'
loop_
 _atom_site_type_symbol
 _atom_site_label
 _atom_site_symmetry_multiplicity
 _atom_site_fract_x
 _atom_site_fract_y
 _atom_site_fract_z
 _atom_site_occupancy
  I  I0  1  0.00000000  0.00000000  0.00000000  1
  I  I1  1  0.50000000  0.50000000  0.50000000  1
  I  I2  1  0.25000000  0.25000000  0.25000000  1
  I  I3  1  0.75000000  0.25000000  0.00000000  1
  Li  Li4  1  0.25000000  0.75000000  0.50000000  1
  Li  Li5  1  0.96930077  0.07933664  0.89691309  1
  Li  Li6  1  0.58070863  0.80795669  0.80304311  1
  Ni  Ni7  1  0.81685512  0.33660340  0.39442794  1
  Ni  Ni8  1  0.81503072  0.29377722  0.41842911  1
  As  As9  1  0.61503001  0.66751421  0.43183632  1
  As  As10  1  0.98394234  0.44229618  0.44596827  1
  As  As11  1  0.45968043  0.25096872  0.00066911  1
  As  As12  1  0.31905948  0.57975332  0.29581615  1
  As  As13  1  0.64410358  0.33564283  0.39816346  1
  As  As14  1  0.19622472  0.91217522  0.53676107  1
