# generated using pymatgen
data_Li2Mn3Sb4P3
_symmetry_space_group_name_H-M   'P 1'
_cell_length_a   6.03400286
_cell_length_b   6.47352159
_cell_length_c   6.75000830
_cell_angle_alpha   97.27496010
_cell_angle_beta   90.36343346
_cell_angle_gamma   97.13026111
_symmetry_Int_Tables_number   1
_chemical_formula_structural   Li2Mn3Sb4P3
_chemical_formula_sum   'Li2 Mn3 Sb4 P3'
_cell_volume   259.45340233
_cell_formula_units_Z   1
loop_
 _symmetry_equiv_pos_site_id
 _symmetry_equiv_pos_as_xyz
  1  'x, y, z'
loop_
 _atom_site_type_symbol
 _atom_site_label
 _atom_site_symmetry_multiplicity
 _atom_site_fract_x
 _atom_site_fract_y
 _atom_site_fract_z
 _atom_site_occupancy
  Mn  Mn0  1  0.00000000  0.00000000  0.00000000  1
  Mn  Mn1  1  0.50000000  0.50000000  0.50000000  1
  Mn  Mn2  1  0.25000000  0.25000000  0.25000000  1
  Sb  Sb3  1  0.75000000  0.25000000  0.00000000  1
  Sb  Sb4  1  0.25000000  0.75000000  0.50000000  1
  Sb  Sb5  1  0.89967885  0.63571574  0.94037220  1
  Sb  Sb6  1  0.34970017  0.55866375  0.84117517  1
  P  P7  1  0.38567989  0.50925693  0.94806742  1
  P  P8  1  0.48212578  0.64645994  0.57988308  1
  P  P9  1  0.18692612  0.48321153  0.41694361  1
  Li  Li10  1  0.27257147  0.52704712  0.41131723  1
  Li  Li11  1  0.56746890  0.50321319  0.01569522  1
