# generated using pymatgen
data_Li2Ni2As6O7
_symmetry_space_group_name_H-M   'P 1'
_cell_length_a   7.76119701
_cell_length_b   7.83988048
_cell_length_c   8.84968409
_cell_angle_alpha   90.31755272
_cell_angle_beta   91.51081941
_cell_angle_gamma   90.36304755
_symmetry_Int_Tables_number   1
_chemical_formula_structural   Li2Ni2As6O7
_chemical_formula_sum   'Li2 Ni2 As6 O7'
_cell_volume   538.26868301
_cell_formula_units_Z   1
loop_
 _symmetry_equiv_pos_site_id
 _symmetry_equiv_pos_as_xyz
  1  'x, y, z'
loop_
 _atom_site_type_symbol
 _atom_site_label
 _atom_site_symmetry_multiplicity
 _atom_site_fract_x
 _atom_site_fract_y
 _atom_site_fract_z
 _atom_site_occupancy
  Ni  Ni0  1  0.00000000  0.00000000  0.00000000  1
  Ni  Ni1  1  0.50000000  0.50000000  0.50000000  1
  O  O2  1  0.50000000  0.50000000  0.00000000  1
  O  O3  1  0.50000000  0.00000000  0.50000000  1
  O  O4  1  0.00000000  0.50000000  0.50000000  1
  O  O5  1  0.99902343  0.33427078  0.14055724  1
  O  O6  1  0.49568975  0.95401929  0.07819364  1
  O  O7  1  0.82322383  0.71148831  0.28269280  1
  O  O8  1  0.28769376  0.13243525  0.97646800  1
  As  As9  1  0.47410297  0.29481707  0.64631468  1
  As  As10  1  0.97157381  0.34859584  0.79302441  1
  As  As11  1  0.24304038  0.64617404  0.03950252  1
  As  As12  1  0.40010486  0.25674876  0.93995536  1
  As  As13  1  0.56930857  0.88496927  0.42310506  1
  As  As14  1  0.42321983  0.28736152  0.27239868  1
  Li  Li15  1  0.50763671  0.36537101  0.45750044  1
  Li  Li16  1  0.45215992  0.71061097  0.84489557  1
