# generated using pymatgen
data_LiCuAs3
_symmetry_space_group_name_H-M   'P 1'
_cell_length_a   7.47260980
_cell_length_b   7.66705677
_cell_length_c   8.43237269
_cell_angle_alpha   90.48338108
_cell_angle_beta   92.29978035
_cell_angle_gamma   90.55263364
_symmetry_Int_Tables_number   1
_chemical_formula_structural   LiCuAs3
_chemical_formula_sum   'Li2 Cu2 As6'
_cell_volume   482.68488125
_cell_formula_units_Z   2
loop_
 _symmetry_equiv_pos_site_id
 _symmetry_equiv_pos_as_xyz
  1  'x, y, z'
loop_
 _atom_site_type_symbol
 _atom_site_label
 _atom_site_symmetry_multiplicity
 _atom_site_fract_x
 _atom_site_fract_y
 _atom_site_fract_z
 _atom_site_occupancy
  As  As0  1  0.12500000  0.00000000  0.25000000  1
  As  As1  1  0.00000000  0.00000000  0.00000000  1
  As  As2  1  0.37500000  0.00000000  0.25000000  1
  As  As3  1  0.25000000  0.25000000  0.25000000  1
  As  As4  1  0.00000000  0.25000000  0.12500000  1
  As  As5  1  0.30001825  0.16657604  0.54483906  1
  Li  Li6  1  0.93621535  0.12871128  0.81328429  1
  Li  Li7  1  0.01355247  0.95504501  0.18152814  1
  Cu  Cu8  1  0.86825354  0.60706726  0.75497830  1
  Cu  Cu9  1  0.58380789  0.56929050  0.90724570  1
