# generated using pymatgen
data_Li2Ti(I2O)2
_symmetry_space_group_name_H-M   'P 1'
_cell_length_a   8.21782992
_cell_length_b   8.10565509
_cell_length_c   7.29523577
_cell_angle_alpha   90.18573046
_cell_angle_beta   90.88364913
_cell_angle_gamma   90.21233951
_symmetry_Int_Tables_number   1
_chemical_formula_structural   Li2Ti(I2O)2
_chemical_formula_sum   'Li2 Ti1 I4 O2'
_cell_volume   485.87841126
_cell_formula_units_Z   1
loop_
 _symmetry_equiv_pos_site_id
 _symmetry_equiv_pos_as_xyz
  1  'x, y, z'
loop_
 _atom_site_type_symbol
 _atom_site_label
 _atom_site_symmetry_multiplicity
 _atom_site_fract_x
 _atom_site_fract_y
 _atom_site_fract_z
 _atom_site_occupancy
  I  I0  1  0.12500000  0.00000000  0.25000000  1
  I  I1  1  0.00000000  0.00000000  0.00000000  1
  I  I2  1  0.37500000  0.00000000  0.25000000  1
  I  I3  1  0.25000000  0.25000000  0.25000000  1
  Li  Li4  1  0.00000000  0.25000000  0.12500000  1
  Li  Li5  1  0.49227889  0.60368015  0.10631642  1
  Ti  Ti6  1  0.87882758  0.00910746  0.79755905  1
  O  O7  1  0.01335212  0.07275295  0.10341308  1
  O  O8  1  0.34133809  0.82333880  0.90174259  1
