# generated using pymatgen
data_Li2Mn(Sb2P)2
_symmetry_space_group_name_H-M   'P 1'
_cell_length_a   4.83386615
_cell_length_b   5.16605396
_cell_length_c   6.44609382
_cell_angle_alpha   100.61393866
_cell_angle_beta   96.95148577
_cell_angle_gamma   99.08223695
_symmetry_Int_Tables_number   1
_chemical_formula_structural   Li2Mn(Sb2P)2
_chemical_formula_sum   'Li2 Mn1 Sb4 P2'
_cell_volume   154.35445414
_cell_formula_units_Z   1
loop_
 _symmetry_equiv_pos_site_id
 _symmetry_equiv_pos_as_xyz
  1  'x, y, z'
loop_
 _atom_site_type_symbol
 _atom_site_label
 _atom_site_symmetry_multiplicity
 _atom_site_fract_x
 _atom_site_fract_y
 _atom_site_fract_z
 _atom_site_occupancy
  Mn  Mn0  1  0.12500000  0.12500000  0.12500000  1
  Sb  Sb1  1  0.50000000  0.50000000  0.50000000  1
  Sb  Sb2  1  0.25000000  0.25000000  0.25000000  1
  Sb  Sb3  1  0.75000000  0.75000000  0.75000000  1
  Sb  Sb4  1  0.18654803  0.37921240  0.65616148  1
  P  P5  1  0.47430125  0.28343807  0.13383098  1
  P  P6  1  0.98758586  0.94209229  0.60309976  1
  Li  Li7  1  0.06156969  0.89935869  0.76151585  1
  Li  Li8  1  0.44225260  0.70453096  0.43643083  1
