# generated using pymatgen
data_Li4Ti2Cu2(OF)3
_symmetry_space_group_name_H-M   'P 1'
_cell_length_a   5.28725505
_cell_length_b   5.29031554
_cell_length_c   7.08366577
_cell_angle_alpha   102.65233172
_cell_angle_beta   106.53847831
_cell_angle_gamma   103.11811858
_symmetry_Int_Tables_number   1
_chemical_formula_structural   Li4Ti2Cu2(OF)3
_chemical_formula_sum   'Li4 Ti2 Cu2 O3 F3'
_cell_volume   176.24130956
_cell_formula_units_Z   1
loop_
 _symmetry_equiv_pos_site_id
 _symmetry_equiv_pos_as_xyz
  1  'x, y, z'
loop_
 _atom_site_type_symbol
 _atom_site_label
 _atom_site_symmetry_multiplicity
 _atom_site_fract_x
 _atom_site_fract_y
 _atom_site_fract_z
 _atom_site_occupancy
  Li  Li0  1  0.00000000  0.00000000  0.00000000  1
  Li  Li1  1  0.50000000  0.50000000  0.50000000  1
  Li  Li2  1  0.25000000  0.25000000  0.25000000  1
  Li  Li3  1  0.75000000  0.25000000  0.00000000  1
  Cu  Cu4  1  0.25000000  0.75000000  0.50000000  1
  Cu  Cu5  1  0.73375994  0.50948437  0.07809059  1
  F  F6  1  0.87606012  0.42735351  0.79925781  1
  F  F7  1  0.65959582  0.60402763  0.90299360  1
  F  F8  1  0.17186969  0.89174470  0.67011603  1
  Ti  Ti9  1  0.05455109  0.35855740  0.60293546  1
  Ti  Ti10  1  0.30316283  0.43319202  0.05482161  1
  O  O11  1  0.84605602  0.34956547  0.90068868  1
  O  O12  1  0.73485582  0.64288919  0.24970300  1
  O  O13  1  0.97904661  0.70610272  0.31975993  1
