# generated using pymatgen
data_Li2MnSb4P3
_symmetry_space_group_name_H-M   'P 1'
_cell_length_a   6.83311264
_cell_length_b   6.97712298
_cell_length_c   7.42514735
_cell_angle_alpha   93.52234900
_cell_angle_beta   91.70774931
_cell_angle_gamma   93.66561128
_symmetry_Int_Tables_number   1
_chemical_formula_structural   Li2MnSb4P3
_chemical_formula_sum   'Li2 Mn1 Sb4 P3'
_cell_volume   352.40356676
_cell_formula_units_Z   1
loop_
 _symmetry_equiv_pos_site_id
 _symmetry_equiv_pos_as_xyz
  1  'x, y, z'
loop_
 _atom_site_type_symbol
 _atom_site_label
 _atom_site_symmetry_multiplicity
 _atom_site_fract_x
 _atom_site_fract_y
 _atom_site_fract_z
 _atom_site_occupancy
  Mn  Mn0  1  0.00000000  0.00000000  0.00000000  1
  Sb  Sb1  1  0.50000000  0.50000000  0.50000000  1
  Sb  Sb2  1  0.25000000  0.25000000  0.25000000  1
  Sb  Sb3  1  0.75000000  0.25000000  0.00000000  1
  Sb  Sb4  1  0.25000000  0.75000000  0.50000000  1
  P  P5  1  0.07373285  0.13461529  0.97672792  1
  P  P6  1  0.07965205  0.11918137  0.52610227  1
  P  P7  1  0.85664408  0.41455271  0.47458377  1
  Li  Li8  1  0.51434312  0.92610541  0.30345626  1
  Li  Li9  1  0.86939254  0.69604137  0.50880850  1
