# generated using pymatgen
data_LiMn2Sb4Mo2P3
_symmetry_space_group_name_H-M   'P 1'
_cell_length_a   5.76258849
_cell_length_b   5.86220270
_cell_length_c   6.66646090
_cell_angle_alpha   96.07186100
_cell_angle_beta   93.01173620
_cell_angle_gamma   96.24039216
_symmetry_Int_Tables_number   1
_chemical_formula_structural   LiMn2Sb4Mo2P3
_chemical_formula_sum   'Li1 Mn2 Sb4 Mo2 P3'
_cell_volume   222.14484168
_cell_formula_units_Z   1
loop_
 _symmetry_equiv_pos_site_id
 _symmetry_equiv_pos_as_xyz
  1  'x, y, z'
loop_
 _atom_site_type_symbol
 _atom_site_label
 _atom_site_symmetry_multiplicity
 _atom_site_fract_x
 _atom_site_fract_y
 _atom_site_fract_z
 _atom_site_occupancy
  Mn  Mn0  1  0.00000000  0.00000000  0.00000000  1
  Mn  Mn1  1  0.50000000  0.50000000  0.50000000  1
  Sb  Sb2  1  0.50000000  0.50000000  0.00000000  1
  Sb  Sb3  1  0.50000000  0.00000000  0.50000000  1
  Sb  Sb4  1  0.00000000  0.50000000  0.50000000  1
  Sb  Sb5  1  0.22938753  0.48745607  0.79995334  1
  P  P6  1  0.46063968  0.86373852  0.14557215  1
  P  P7  1  0.48554222  0.02251802  0.96060180  1
  P  P8  1  0.13293371  0.01051954  0.68989732  1
  Mo  Mo9  1  0.39708736  0.27170441  0.28827921  1
  Mo  Mo10  1  0.55413399  0.53256094  0.59062887  1
  Li  Li11  1  0.11926981  0.53780798  0.38157529  1
