# generated using pymatgen
data_Li2TiCu2P4F2
_symmetry_space_group_name_H-M   'P 1'
_cell_length_a   6.55871576
_cell_length_b   6.35732104
_cell_length_c   7.10559445
_cell_angle_alpha   94.42957501
_cell_angle_beta   96.56396323
_cell_angle_gamma   93.90645781
_symmetry_Int_Tables_number   1
_chemical_formula_structural   Li2TiCu2P4F2
_chemical_formula_sum   'Li2 Ti1 Cu2 P4 F2'
_cell_volume   292.56551619
_cell_formula_units_Z   1
loop_
 _symmetry_equiv_pos_site_id
 _symmetry_equiv_pos_as_xyz
  1  'x, y, z'
loop_
 _atom_site_type_symbol
 _atom_site_label
 _atom_site_symmetry_multiplicity
 _atom_site_fract_x
 _atom_site_fract_y
 _atom_site_fract_z
 _atom_site_occupancy
  P  P0  1  0.00000000  0.00000000  0.00000000  1
  P  P1  1  0.50000000  0.50000000  0.50000000  1
  P  P2  1  0.50000000  0.50000000  0.00000000  1
  P  P3  1  0.50000000  0.00000000  0.50000000  1
  Li  Li4  1  0.00000000  0.50000000  0.50000000  1
  Li  Li5  1  0.16897959  0.79282708  0.45690374  1
  Cu  Cu6  1  0.36712173  0.27043726  0.16568291  1
  Cu  Cu7  1  0.64181621  0.88188570  0.23993766  1
  F  F8  1  0.53494517  0.98465703  0.63237689  1
  F  F9  1  0.80053498  0.06154619  0.27079523  1
  Ti  Ti10  1  0.80751252  0.27060122  0.13699254  1
