# generated using pymatgen
data_Li2TiNi2As6F2
_symmetry_space_group_name_H-M   'P 1'
_cell_length_a   6.70794183
_cell_length_b   6.68287769
_cell_length_c   7.64242712
_cell_angle_alpha   94.58369021
_cell_angle_beta   95.95701739
_cell_angle_gamma   95.57809356
_symmetry_Int_Tables_number   1
_chemical_formula_structural   Li2TiNi2As6F2
_chemical_formula_sum   'Li2 Ti1 Ni2 As6 F2'
_cell_volume   337.72916134
_cell_formula_units_Z   1
loop_
 _symmetry_equiv_pos_site_id
 _symmetry_equiv_pos_as_xyz
  1  'x, y, z'
loop_
 _atom_site_type_symbol
 _atom_site_label
 _atom_site_symmetry_multiplicity
 _atom_site_fract_x
 _atom_site_fract_y
 _atom_site_fract_z
 _atom_site_occupancy
  Li  Li0  1  0.12500000  0.00000000  0.25000000  1
  Li  Li1  1  0.00000000  0.00000000  0.00000000  1
  F  F2  1  0.37500000  0.00000000  0.25000000  1
  F  F3  1  0.25000000  0.25000000  0.25000000  1
  Ni  Ni4  1  0.00000000  0.25000000  0.12500000  1
  Ni  Ni5  1  0.93906778  0.79930786  0.95051330  1
  Ti  Ti6  1  0.37522126  0.39711611  0.84293056  1
  As  As7  1  0.96004812  0.13141914  0.35512155  1
  As  As8  1  0.81596276  0.10880698  0.84401057  1
  As  As9  1  0.61131415  0.96813648  0.42944880  1
  As  As10  1  0.74799536  0.48731244  0.43956240  1
  As  As11  1  0.76611431  0.24330606  0.96983072  1
  As  As12  1  0.93118023  0.74226398  0.26623959  1
