# generated using pymatgen
data_Li3Ti(CuP2)2
_symmetry_space_group_name_H-M   'P 1'
_cell_length_a   6.93445145
_cell_length_b   6.70187811
_cell_length_c   8.06354339
_cell_angle_alpha   94.67370619
_cell_angle_beta   94.48280101
_cell_angle_gamma   94.63346006
_symmetry_Int_Tables_number   1
_chemical_formula_structural   Li3Ti(CuP2)2
_chemical_formula_sum   'Li3 Ti1 Cu2 P4'
_cell_volume   370.92024346
_cell_formula_units_Z   1
loop_
 _symmetry_equiv_pos_site_id
 _symmetry_equiv_pos_as_xyz
  1  'x, y, z'
loop_
 _atom_site_type_symbol
 _atom_site_label
 _atom_site_symmetry_multiplicity
 _atom_site_fract_x
 _atom_site_fract_y
 _atom_site_fract_z
 _atom_site_occupancy
  P  P0  1  0.00000000  0.00000000  0.00000000  1
  P  P1  1  0.33300000  0.66700000  0.25000000  1
  P  P2  1  0.66700000  0.33300000  0.50000000  1
  P  P3  1  0.00000000  0.00000000  0.75000000  1
  Li  Li4  1  0.29018394  0.58750022  0.68378558  1
  Li  Li5  1  0.77851677  0.62289425  0.78231911  1
  Li  Li6  1  0.04740867  0.99196034  0.26201218  1
  Cu  Cu7  1  0.43244303  0.24013206  0.88905629  1
  Cu  Cu8  1  0.66903810  0.04652659  0.19965979  1
  Ti  Ti9  1  0.59102415  0.89075018  0.85744930  1
