# generated using pymatgen
data_Li3TiP3I4O3
_symmetry_space_group_name_H-M   'P 1'
_cell_length_a   8.63216381
_cell_length_b   8.76524382
_cell_length_c   7.28919626
_cell_angle_alpha   90.00000000
_cell_angle_beta   90.00000000
_cell_angle_gamma   90.00000000
_symmetry_Int_Tables_number   1
_chemical_formula_structural   Li3TiP3I4O3
_chemical_formula_sum   'Li3 Ti1 P3 I4 O3'
_cell_volume   551.52260561
_cell_formula_units_Z   1
loop_
 _symmetry_equiv_pos_site_id
 _symmetry_equiv_pos_as_xyz
  1  'x, y, z'
loop_
 _atom_site_type_symbol
 _atom_site_label
 _atom_site_symmetry_multiplicity
 _atom_site_fract_x
 _atom_site_fract_y
 _atom_site_fract_z
 _atom_site_occupancy
  P  P0  1  0.00000000  0.00000000  0.00000000  1
  P  P1  1  0.50000000  0.50000000  0.50000000  1
  P  P2  1  0.25000000  0.25000000  0.25000000  1
  I  I3  1  0.75000000  0.25000000  0.00000000  1
  I  I4  1  0.25000000  0.75000000  0.50000000  1
  I  I5  1  0.70990321  0.31071892  0.24105146  1
  I  I6  1  0.37727064  0.23333074  0.47052946  1
  Li  Li7  1  0.99657615  0.47572973  0.07951415  1
  Li  Li8  1  0.14329923  0.15488055  0.07499202  1
  Li  Li9  1  0.52628247  0.60033454  0.53399573  1
  Ti  Ti10  1  0.94512689  0.85900451  0.70440570  1
  O  O11  1  0.38531838  0.98524296  0.90593913  1
  O  O12  1  0.53496142  0.83989629  0.85157195  1
  O  O13  1  0.63924413  0.25035147  0.35311212  1
