# generated using pymatgen
data_Li3Ni2Te6(I2O3)2
_symmetry_space_group_name_H-M   'P 1'
_cell_length_a   7.15735864
_cell_length_b   6.98407397
_cell_length_c   8.39474072
_cell_angle_alpha   95.22979192
_cell_angle_beta   96.10966025
_cell_angle_gamma   95.11233991
_symmetry_Int_Tables_number   1
_chemical_formula_structural   Li3Ni2Te6(I2O3)2
_chemical_formula_sum   'Li3 Ni2 Te6 I4 O6'
_cell_volume   413.43781582
_cell_formula_units_Z   1
loop_
 _symmetry_equiv_pos_site_id
 _symmetry_equiv_pos_as_xyz
  1  'x, y, z'
loop_
 _atom_site_type_symbol
 _atom_site_label
 _atom_site_symmetry_multiplicity
 _atom_site_fract_x
 _atom_site_fract_y
 _atom_site_fract_z
 _atom_site_occupancy
  I  I0  1  0.00000000  0.00000000  0.00000000  1
  I  I1  1  0.50000000  0.50000000  0.50000000  1
  I  I2  1  0.50000000  0.50000000  0.00000000  1
  I  I3  1  0.50000000  0.00000000  0.50000000  1
  Li  Li4  1  0.00000000  0.50000000  0.50000000  1
  Li  Li5  1  0.00267117  0.15114432  0.40319179  1
  Li  Li6  1  0.12467757  0.07736223  0.38484646  1
  Ni  Ni7  1  0.22454720  0.77191086  0.97183626  1
  Ni  Ni8  1  0.58535079  0.90802987  0.29112338  1
  Te  Te9  1  0.61645056  0.06137113  0.80015585  1
  Te  Te10  1  0.42836071  0.34170655  0.16143330  1
  Te  Te11  1  0.46300809  0.20012879  0.49976858  1
  Te  Te12  1  0.07253413  0.73621105  0.09296941  1
  Te  Te13  1  0.32592384  0.19316643  0.69020204  1
  Te  Te14  1  0.66700280  0.04302193  0.00584897  1
  O  O15  1  0.84694078  0.28418943  0.49659642  1
  O  O16  1  0.30797280  0.91286273  0.77443209  1
  O  O17  1  0.56836696  0.15607637  0.31015161  1
  O  O18  1  0.24229910  0.52590323  0.84661471  1
  O  O19  1  0.44530232  0.88208777  0.25458140  1
  O  O20  1  0.81024111  0.82680851  0.78502436  1
