# generated using pymatgen
data_LiMn2(SbP)2
_symmetry_space_group_name_H-M   'P 1'
_cell_length_a   4.96542380
_cell_length_b   5.31159085
_cell_length_c   6.29876602
_cell_angle_alpha   96.51216850
_cell_angle_beta   95.60504221
_cell_angle_gamma   96.09667573
_symmetry_Int_Tables_number   1
_chemical_formula_structural   LiMn2(SbP)2
_chemical_formula_sum   'Li1 Mn2 Sb2 P2'
_cell_volume   163.10490941
_cell_formula_units_Z   1
loop_
 _symmetry_equiv_pos_site_id
 _symmetry_equiv_pos_as_xyz
  1  'x, y, z'
loop_
 _atom_site_type_symbol
 _atom_site_label
 _atom_site_symmetry_multiplicity
 _atom_site_fract_x
 _atom_site_fract_y
 _atom_site_fract_z
 _atom_site_occupancy
  Mn  Mn0  1  0.12500000  0.00000000  0.25000000  1
  Mn  Mn1  1  0.00000000  0.00000000  0.00000000  1
  Sb  Sb2  1  0.37500000  0.00000000  0.25000000  1
  Sb  Sb3  1  0.25000000  0.25000000  0.25000000  1
  P  P4  1  0.00000000  0.25000000  0.12500000  1
  P  P5  1  0.44029541  0.45490498  0.18702926  1
  Li  Li6  1  0.68406455  0.21155352  0.83573144  1
