# generated using pymatgen
data_Li3Cu2Ni2As6O7
_symmetry_space_group_name_H-M   'P 1'
_cell_length_a   7.68709663
_cell_length_b   7.49719812
_cell_length_c   8.74678132
_cell_angle_alpha   91.66402900
_cell_angle_beta   91.16617158
_cell_angle_gamma   91.92789256
_symmetry_Int_Tables_number   1
_chemical_formula_structural   Li3Cu2Ni2As6O7
_chemical_formula_sum   'Li3 Cu2 Ni2 As6 O7'
_cell_volume   503.47916951
_cell_formula_units_Z   1
loop_
 _symmetry_equiv_pos_site_id
 _symmetry_equiv_pos_as_xyz
  1  'x, y, z'
loop_
 _atom_site_type_symbol
 _atom_site_label
 _atom_site_symmetry_multiplicity
 _atom_site_fract_x
 _atom_site_fract_y
 _atom_site_fract_z
 _atom_site_occupancy
  Li  Li0  1  0.12500000  0.00000000  0.25000000  1
  Li  Li1  1  0.00000000  0.00000000  0.00000000  1
  Li  Li2  1  0.37500000  0.00000000  0.25000000  1
  Cu  Cu3  1  0.25000000  0.25000000  0.25000000  1
  Cu  Cu4  1  0.00000000  0.25000000  0.12500000  1
  Ni  Ni5  1  0.61938709  0.36890662  0.14608772  1
  Ni  Ni6  1  0.56597603  0.36849473  0.93874761  1
  As  As7  1  0.52956681  0.00147554  0.98301844  1
  As  As8  1  0.90122651  0.16378790  0.56131495  1
  As  As9  1  0.47311574  0.94840880  0.23593704  1
  As  As10  1  0.62233010  0.32506043  0.12494501  1
  As  As11  1  0.95309527  0.70641468  0.44671465  1
  As  As12  1  0.70608447  0.85265042  0.23774394  1
  O  O13  1  0.26491636  0.26530994  0.58857648  1
  O  O14  1  0.78608198  0.76725681  0.15452256  1
  O  O15  1  0.68172641  0.41594445  0.88814366  1
  O  O16  1  0.74171774  0.29236572  0.42614233  1
  O  O17  1  0.32370158  0.93584343  0.10969761  1
  O  O18  1  0.22544758  0.52666328  0.00806215  1
  O  O19  1  0.17808145  0.61869724  0.15516041  1
