# generated using pymatgen
data_LiSb4P3
_symmetry_space_group_name_H-M   'P 1'
_cell_length_a   5.83970954
_cell_length_b   5.93711239
_cell_length_c   6.90920077
_cell_angle_alpha   96.53163871
_cell_angle_beta   93.72764525
_cell_angle_gamma   96.87295852
_symmetry_Int_Tables_number   1
_chemical_formula_structural   LiSb4P3
_chemical_formula_sum   'Li1 Sb4 P3'
_cell_volume   235.53198859
_cell_formula_units_Z   1
loop_
 _symmetry_equiv_pos_site_id
 _symmetry_equiv_pos_as_xyz
  1  'x, y, z'
loop_
 _atom_site_type_symbol
 _atom_site_label
 _atom_site_symmetry_multiplicity
 _atom_site_fract_x
 _atom_site_fract_y
 _atom_site_fract_z
 _atom_site_occupancy
  Sb  Sb0  1  0.12500000  0.12500000  0.12500000  1
  Sb  Sb1  1  0.50000000  0.50000000  0.50000000  1
  Sb  Sb2  1  0.25000000  0.25000000  0.25000000  1
  Sb  Sb3  1  0.75000000  0.75000000  0.75000000  1
  P  P4  1  0.07107874  0.55255319  0.16785715  1
  P  P5  1  0.12526308  0.20143293  0.47604928  1
  P  P6  1  0.49744131  0.17690065  0.42928384  1
  Li  Li7  1  0.63847735  0.84068085  0.80206045  1
