# generated using pymatgen
data_LiMnSb4(MoP)2
_symmetry_space_group_name_H-M   'P 1'
_cell_length_a   5.68393040
_cell_length_b   5.96499584
_cell_length_c   6.77743959
_cell_angle_alpha   94.37406936
_cell_angle_beta   93.70821469
_cell_angle_gamma   94.59279777
_symmetry_Int_Tables_number   1
_chemical_formula_structural   LiMnSb4(MoP)2
_chemical_formula_sum   'Li1 Mn1 Sb4 Mo2 P2'
_cell_volume   227.80162274
_cell_formula_units_Z   1
loop_
 _symmetry_equiv_pos_site_id
 _symmetry_equiv_pos_as_xyz
  1  'x, y, z'
loop_
 _atom_site_type_symbol
 _atom_site_label
 _atom_site_symmetry_multiplicity
 _atom_site_fract_x
 _atom_site_fract_y
 _atom_site_fract_z
 _atom_site_occupancy
  Mn  Mn0  1  0.00000000  0.00000000  0.00000000  1
  Sb  Sb1  1  0.50000000  0.50000000  0.50000000  1
  Sb  Sb2  1  0.50000000  0.50000000  0.00000000  1
  Sb  Sb3  1  0.50000000  0.00000000  0.50000000  1
  Sb  Sb4  1  0.00000000  0.50000000  0.50000000  1
  P  P5  1  0.24307668  0.66816744  0.69754302  1
  P  P6  1  0.44754161  0.59694585  0.19652478  1
  Mo  Mo7  1  0.34079582  0.41365770  0.64408961  1
  Mo  Mo8  1  0.34894192  0.69652388  0.93195268  1
  Li  Li9  1  0.14169151  0.32261211  0.40965220  1
