# generated using pymatgen
data_LiMn3(SbP)4
_symmetry_space_group_name_H-M   'P 1'
_cell_length_a   6.44701577
_cell_length_b   6.90432476
_cell_length_c   6.79023904
_cell_angle_alpha   90.21403612
_cell_angle_beta   90.75772524
_cell_angle_gamma   90.58032531
_symmetry_Int_Tables_number   1
_chemical_formula_structural   LiMn3(SbP)4
_chemical_formula_sum   'Li1 Mn3 Sb4 P4'
_cell_volume   302.20489768
_cell_formula_units_Z   1
loop_
 _symmetry_equiv_pos_site_id
 _symmetry_equiv_pos_as_xyz
  1  'x, y, z'
loop_
 _atom_site_type_symbol
 _atom_site_label
 _atom_site_symmetry_multiplicity
 _atom_site_fract_x
 _atom_site_fract_y
 _atom_site_fract_z
 _atom_site_occupancy
  Mn  Mn0  1  0.12500000  0.12500000  0.12500000  1
  Mn  Mn1  1  0.50000000  0.50000000  0.50000000  1
  Mn  Mn2  1  0.25000000  0.25000000  0.25000000  1
  Sb  Sb3  1  0.75000000  0.75000000  0.75000000  1
  Sb  Sb4  1  0.04385758  0.33854541  0.03321862  1
  Sb  Sb5  1  0.34979536  0.99047639  0.46826806  1
  Sb  Sb6  1  0.31921342  0.17479198  0.95170548  1
  P  P7  1  0.18796443  0.44119671  0.82694051  1
  P  P8  1  0.50187228  0.40958915  0.67656555  1
  P  P9  1  0.79702125  0.12759468  0.17925504  1
  P  P10  1  0.89201121  0.43064235  0.76148801  1
  Li  Li11  1  0.48377524  0.98894210  0.92660149  1
