# generated using pymatgen
data_LiMn2Sb4P3
_symmetry_space_group_name_H-M   'P 1'
_cell_length_a   5.40520070
_cell_length_b   5.73773443
_cell_length_c   6.41959256
_cell_angle_alpha   98.39788694
_cell_angle_beta   91.05446483
_cell_angle_gamma   98.40037935
_symmetry_Int_Tables_number   1
_chemical_formula_structural   LiMn2Sb4P3
_chemical_formula_sum   'Li1 Mn2 Sb4 P3'
_cell_volume   194.68615960
_cell_formula_units_Z   1
loop_
 _symmetry_equiv_pos_site_id
 _symmetry_equiv_pos_as_xyz
  1  'x, y, z'
loop_
 _atom_site_type_symbol
 _atom_site_label
 _atom_site_symmetry_multiplicity
 _atom_site_fract_x
 _atom_site_fract_y
 _atom_site_fract_z
 _atom_site_occupancy
  Mn  Mn0  1  0.00000000  0.00000000  0.00000000  1
  Mn  Mn1  1  0.50000000  0.50000000  0.50000000  1
  Sb  Sb2  1  0.50000000  0.50000000  0.00000000  1
  Sb  Sb3  1  0.50000000  0.00000000  0.50000000  1
  Sb  Sb4  1  0.00000000  0.50000000  0.50000000  1
  Sb  Sb5  1  0.96030656  0.96666544  0.00480306  1
  P  P6  1  0.99369846  0.19177304  0.75871395  1
  P  P7  1  0.94641680  0.08050747  0.33758866  1
  P  P8  1  0.80941299  0.11346688  0.92892000  1
  Li  Li9  1  0.56984420  0.81681305  0.63097688  1
