# generated using pymatgen
data_Li4Ti2P3O2
_symmetry_space_group_name_H-M   'P 1'
_cell_length_a   6.28197325
_cell_length_b   6.06633567
_cell_length_c   6.49980866
_cell_angle_alpha   95.30172962
_cell_angle_beta   98.72068089
_cell_angle_gamma   96.75785308
_symmetry_Int_Tables_number   1
_chemical_formula_structural   Li4Ti2P3O2
_chemical_formula_sum   'Li4 Ti2 P3 O2'
_cell_volume   241.59542284
_cell_formula_units_Z   1
loop_
 _symmetry_equiv_pos_site_id
 _symmetry_equiv_pos_as_xyz
  1  'x, y, z'
loop_
 _atom_site_type_symbol
 _atom_site_label
 _atom_site_symmetry_multiplicity
 _atom_site_fract_x
 _atom_site_fract_y
 _atom_site_fract_z
 _atom_site_occupancy
  P  P0  1  0.00000000  0.00000000  0.00000000  1
  P  P1  1  0.50000000  0.50000000  0.50000000  1
  P  P2  1  0.25000000  0.25000000  0.25000000  1
  Li  Li3  1  0.75000000  0.25000000  0.00000000  1
  Li  Li4  1  0.25000000  0.75000000  0.50000000  1
  Li  Li5  1  0.67863373  0.14932407  0.82843770  1
  Li  Li6  1  0.73896638  0.15801506  0.82649144  1
  Ti  Ti7  1  0.91914438  0.81661659  0.46535995  1
  Ti  Ti8  1  0.89580496  0.41275553  0.90615006  1
  O  O9  1  0.68478364  0.15083000  0.98414813  1
  O  O10  1  0.64129206  0.47986971  0.16567890  1
