# generated using pymatgen
data_Li2LuCu2As6P5
_symmetry_space_group_name_H-M   'P 1'
_cell_length_a   7.85192601
_cell_length_b   7.69972916
_cell_length_c   8.19878406
_cell_angle_alpha   91.32038024
_cell_angle_beta   91.91071438
_cell_angle_gamma   91.41225006
_symmetry_Int_Tables_number   1
_chemical_formula_structural   Li2LuCu2As6P5
_chemical_formula_sum   'Li2 Lu1 Cu2 As6 P5'
_cell_volume   495.11228343
_cell_formula_units_Z   1
loop_
 _symmetry_equiv_pos_site_id
 _symmetry_equiv_pos_as_xyz
  1  'x, y, z'
loop_
 _atom_site_type_symbol
 _atom_site_label
 _atom_site_symmetry_multiplicity
 _atom_site_fract_x
 _atom_site_fract_y
 _atom_site_fract_z
 _atom_site_occupancy
  P  P0  1  0.00000000  0.00000000  0.00000000  1
  P  P1  1  0.50000000  0.50000000  0.50000000  1
  P  P2  1  0.25000000  0.25000000  0.25000000  1
  P  P3  1  0.75000000  0.25000000  0.00000000  1
  P  P4  1  0.25000000  0.75000000  0.50000000  1
  Lu  Lu5  1  0.61291162  0.31990986  0.04941838  1
  Li  Li6  1  0.56259655  0.67723766  0.10940639  1
  Li  Li7  1  0.65232331  0.33444005  0.32324861  1
  Cu  Cu8  1  0.26273266  0.98688077  0.82036336  1
  Cu  Cu9  1  0.00747605  0.29750391  0.70452436  1
  As  As10  1  0.88004476  0.55376231  0.09297684  1
  As  As11  1  0.83050465  0.44665136  0.61500988  1
  As  As12  1  0.42752386  0.09141323  0.67061879  1
  As  As13  1  0.93693916  0.73146702  0.54771619  1
  As  As14  1  0.88597988  0.84165431  0.60409760  1
  As  As15  1  0.23948649  0.19659814  0.28971218  1
