# generated using pymatgen
data_LiCuP2
_symmetry_space_group_name_H-M   'P 1'
_cell_length_a   7.51751742
_cell_length_b   7.43629258
_cell_length_c   8.17313339
_cell_angle_alpha   91.30777241
_cell_angle_beta   91.76449435
_cell_angle_gamma   91.51194616
_symmetry_Int_Tables_number   1
_chemical_formula_structural   LiCuP2
_chemical_formula_sum   'Li2 Cu2 P4'
_cell_volume   456.39487083
_cell_formula_units_Z   2
loop_
 _symmetry_equiv_pos_site_id
 _symmetry_equiv_pos_as_xyz
  1  'x, y, z'
loop_
 _atom_site_type_symbol
 _atom_site_label
 _atom_site_symmetry_multiplicity
 _atom_site_fract_x
 _atom_site_fract_y
 _atom_site_fract_z
 _atom_site_occupancy
  P  P0  1  0.00000000  0.00000000  0.00000000  1
  P  P1  1  0.50000000  0.50000000  0.50000000  1
  P  P2  1  0.25000000  0.25000000  0.25000000  1
  P  P3  1  0.75000000  0.25000000  0.00000000  1
  Li  Li4  1  0.25000000  0.75000000  0.50000000  1
  Li  Li5  1  0.81905276  0.20461003  0.13754827  1
  Cu  Cu6  1  0.93312497  0.71242363  0.97945255  1
  Cu  Cu7  1  0.59062383  0.85321001  0.65814019  1
