# generated using pymatgen
data_Li2TaSe4NO
_symmetry_space_group_name_H-M   'P 1'
_cell_length_a   6.76357697
_cell_length_b   6.64833940
_cell_length_c   6.52084920
_cell_angle_alpha   91.03989967
_cell_angle_beta   98.58714146
_cell_angle_gamma   91.06529716
_symmetry_Int_Tables_number   1
_chemical_formula_structural   Li2TaSe4NO
_chemical_formula_sum   'Li2 Ta1 Se4 N1 O1'
_cell_volume   289.81805190
_cell_formula_units_Z   1
loop_
 _symmetry_equiv_pos_site_id
 _symmetry_equiv_pos_as_xyz
  1  'x, y, z'
loop_
 _atom_site_type_symbol
 _atom_site_label
 _atom_site_symmetry_multiplicity
 _atom_site_fract_x
 _atom_site_fract_y
 _atom_site_fract_z
 _atom_site_occupancy
  Li  Li0  1  0.00000000  0.00000000  0.00000000  1
  Li  Li1  1  0.50000000  0.50000000  0.50000000  1
  Se  Se2  1  0.50000000  0.50000000  0.00000000  1
  Se  Se3  1  0.50000000  0.00000000  0.50000000  1
  Se  Se4  1  0.00000000  0.50000000  0.50000000  1
  Se  Se5  1  0.07741990  0.79334634  0.93141390  1
  O  O6  1  0.88761915  0.15567987  0.39400221  1
  N  N7  1  0.90837856  0.84181145  0.50019664  1
  Ta  Ta8  1  0.70834024  0.05730051  0.75584424  1
