# generated using pymatgen
data_Li2TiCu2O3F2
_symmetry_space_group_name_H-M   'P 1'
_cell_length_a   6.60395345
_cell_length_b   6.40607558
_cell_length_c   7.11823197
_cell_angle_alpha   93.99544972
_cell_angle_beta   96.04358955
_cell_angle_gamma   93.47739086
_symmetry_Int_Tables_number   1
_chemical_formula_structural   Li2TiCu2O3F2
_chemical_formula_sum   'Li2 Ti1 Cu2 O3 F2'
_cell_volume   298.03582698
_cell_formula_units_Z   1
loop_
 _symmetry_equiv_pos_site_id
 _symmetry_equiv_pos_as_xyz
  1  'x, y, z'
loop_
 _atom_site_type_symbol
 _atom_site_label
 _atom_site_symmetry_multiplicity
 _atom_site_fract_x
 _atom_site_fract_y
 _atom_site_fract_z
 _atom_site_occupancy
  Li  Li0  1  0.00000000  0.00000000  0.00000000  1
  Li  Li1  1  0.50000000  0.50000000  0.50000000  1
  Cu  Cu2  1  0.50000000  0.50000000  0.00000000  1
  Cu  Cu3  1  0.50000000  0.00000000  0.50000000  1
  F  F4  1  0.00000000  0.50000000  0.50000000  1
  F  F5  1  0.29080830  0.70371297  0.19352416  1
  Ti  Ti6  1  0.19178979  0.99302413  0.17879475  1
  O  O7  1  0.35586204  0.27038407  0.40649865  1
  O  O8  1  0.83267988  0.50407944  0.94858263  1
  O  O9  1  0.15332851  0.14870362  0.49892542  1
