# generated using pymatgen
data_Li3Ni2As6N5O7
_symmetry_space_group_name_H-M   'P 1'
_cell_length_a   7.60097088
_cell_length_b   7.42003609
_cell_length_c   8.79925009
_cell_angle_alpha   92.34931245
_cell_angle_beta   91.81036517
_cell_angle_gamma   92.58752694
_symmetry_Int_Tables_number   1
_chemical_formula_structural   Li3Ni2As6N5O7
_chemical_formula_sum   'Li3 Ni2 As6 N5 O7'
_cell_volume   495.07231977
_cell_formula_units_Z   1
loop_
 _symmetry_equiv_pos_site_id
 _symmetry_equiv_pos_as_xyz
  1  'x, y, z'
loop_
 _atom_site_type_symbol
 _atom_site_label
 _atom_site_symmetry_multiplicity
 _atom_site_fract_x
 _atom_site_fract_y
 _atom_site_fract_z
 _atom_site_occupancy
  Li  Li0  1  0.00000000  0.00000000  0.00000000  1
  Li  Li1  1  0.50000000  0.50000000  0.50000000  1
  Li  Li2  1  0.50000000  0.50000000  0.00000000  1
  Ni  Ni3  1  0.50000000  0.00000000  0.50000000  1
  Ni  Ni4  1  0.00000000  0.50000000  0.50000000  1
  As  As5  1  0.50085842  0.60612039  0.97413995  1
  As  As6  1  0.22206260  0.91040324  0.06466671  1
  As  As7  1  0.90733608  0.46452941  0.51380328  1
  As  As8  1  0.55671468  0.99567355  0.60601332  1
  As  As9  1  0.80485456  0.95578586  0.63715876  1
  As  As10  1  0.50905122  0.73916807  0.03625653  1
  O  O11  1  0.12624180  0.71275040  0.90397370  1
  O  O12  1  0.09845109  0.19457543  0.26931935  1
  O  O13  1  0.06898919  0.58745126  0.35434356  1
  O  O14  1  0.39109401  0.11732232  0.21084104  1
  O  O15  1  0.71499003  0.37875771  0.56116018  1
  O  O16  1  0.66256295  0.28152081  0.24589008  1
  O  O17  1  0.44000849  0.70912838  0.73329236  1
  N  N18  1  0.73537164  0.13875636  0.88075103  1
  N  N19  1  0.46072026  0.73987762  0.42908680  1
  N  N20  1  0.52736644  0.56766238  0.40805024  1
  N  N21  1  0.09736189  0.76960109  0.88383117  1
  N  N22  1  0.17706441  0.18783948  0.51931323  1
