# generated using pymatgen
data_LiNi3Sb4P3
_symmetry_space_group_name_H-M   'P 1'
_cell_length_a   5.81240750
_cell_length_b   5.71241756
_cell_length_c   6.76689022
_cell_angle_alpha   93.87539613
_cell_angle_beta   92.22439204
_cell_angle_gamma   93.57097857
_symmetry_Int_Tables_number   1
_chemical_formula_structural   LiNi3Sb4P3
_chemical_formula_sum   'Li1 Ni3 Sb4 P3'
_cell_volume   223.52245658
_cell_formula_units_Z   1
loop_
 _symmetry_equiv_pos_site_id
 _symmetry_equiv_pos_as_xyz
  1  'x, y, z'
loop_
 _atom_site_type_symbol
 _atom_site_label
 _atom_site_symmetry_multiplicity
 _atom_site_fract_x
 _atom_site_fract_y
 _atom_site_fract_z
 _atom_site_occupancy
  Ni  Ni0  1  0.00000000  0.00000000  0.00000000  1
  Ni  Ni1  1  0.50000000  0.50000000  0.50000000  1
  Ni  Ni2  1  0.50000000  0.50000000  0.00000000  1
  Sb  Sb3  1  0.50000000  0.00000000  0.50000000  1
  Sb  Sb4  1  0.00000000  0.50000000  0.50000000  1
  Sb  Sb5  1  0.22147490  0.01818646  0.39311536  1
  Sb  Sb6  1  0.68168009  0.16340520  0.51428946  1
  P  P7  1  0.35183983  0.36551688  0.58236625  1
  P  P8  1  0.08824591  0.02612698  0.62352326  1
  P  P9  1  0.86953396  0.35656658  0.85424728  1
  Li  Li10  1  0.30819767  0.63186603  0.63492867  1
