# generated using pymatgen
data_Li2Ni2P5(O2F)2
_symmetry_space_group_name_H-M   'P 1'
_cell_length_a   7.77931698
_cell_length_b   7.69596509
_cell_length_c   7.86626794
_cell_angle_alpha   92.06649763
_cell_angle_beta   92.90179388
_cell_angle_gamma   92.50066603
_symmetry_Int_Tables_number   1
_chemical_formula_structural   Li2Ni2P5(O2F)2
_chemical_formula_sum   'Li2 Ni2 P5 O4 F2'
_cell_volume   469.55085929
_cell_formula_units_Z   1
loop_
 _symmetry_equiv_pos_site_id
 _symmetry_equiv_pos_as_xyz
  1  'x, y, z'
loop_
 _atom_site_type_symbol
 _atom_site_label
 _atom_site_symmetry_multiplicity
 _atom_site_fract_x
 _atom_site_fract_y
 _atom_site_fract_z
 _atom_site_occupancy
  P  P0  1  0.00000000  0.00000000  0.00000000  1
  P  P1  1  0.50000000  0.50000000  0.50000000  1
  P  P2  1  0.25000000  0.25000000  0.25000000  1
  P  P3  1  0.75000000  0.25000000  0.00000000  1
  P  P4  1  0.25000000  0.75000000  0.50000000  1
  Li  Li5  1  0.32687443  0.37845413  0.41043290  1
  Li  Li6  1  0.06527339  0.87033297  0.38501542  1
  F  F7  1  0.92320034  0.30095037  0.09234724  1
  F  F8  1  0.13226989  0.66982737  0.94624196  1
  Ni  Ni9  1  0.70792269  0.40522680  0.64607879  1
  Ni  Ni10  1  0.71977817  0.76354980  0.60911744  1
  O  O11  1  0.06603604  0.61451792  0.01005832  1
  O  O12  1  0.03063677  0.01039729  0.78822278  1
  O  O13  1  0.80161859  0.78721328  0.24823396  1
  O  O14  1  0.87375184  0.10514605  0.23600327  1
