# generated using pymatgen
data_LiMn2Sb4P2N
_symmetry_space_group_name_H-M   'P 1'
_cell_length_a   6.65588270
_cell_length_b   7.01819982
_cell_length_c   7.17188582
_cell_angle_alpha   92.95648678
_cell_angle_beta   91.65270577
_cell_angle_gamma   92.90315511
_symmetry_Int_Tables_number   1
_chemical_formula_structural   LiMn2Sb4P2N
_chemical_formula_sum   'Li1 Mn2 Sb4 P2 N1'
_cell_volume   333.97388922
_cell_formula_units_Z   1
loop_
 _symmetry_equiv_pos_site_id
 _symmetry_equiv_pos_as_xyz
  1  'x, y, z'
loop_
 _atom_site_type_symbol
 _atom_site_label
 _atom_site_symmetry_multiplicity
 _atom_site_fract_x
 _atom_site_fract_y
 _atom_site_fract_z
 _atom_site_occupancy
  N  N0  1  0.12500000  0.00000000  0.25000000  1
  Mn  Mn1  1  0.00000000  0.00000000  0.00000000  1
  Mn  Mn2  1  0.37500000  0.00000000  0.25000000  1
  Sb  Sb3  1  0.25000000  0.25000000  0.25000000  1
  Sb  Sb4  1  0.00000000  0.25000000  0.12500000  1
  Sb  Sb5  1  0.61589686  0.77958684  0.53370799  1
  Sb  Sb6  1  0.71462084  0.20674481  0.84132440  1
  P  P7  1  0.74368880  0.46921345  0.71393800  1
  P  P8  1  0.08138025  0.12808755  0.10647508  1
  Li  Li9  1  0.16042093  0.48392132  0.20638047  1
