# generated using pymatgen
data_LiTi3P4ClF4
_symmetry_space_group_name_H-M   'P 1'
_cell_length_a   4.45173838
_cell_length_b   4.16153732
_cell_length_c   5.95899561
_cell_angle_alpha   92.96026259
_cell_angle_beta   88.56163013
_cell_angle_gamma   94.22780927
_symmetry_Int_Tables_number   1
_chemical_formula_structural   LiTi3P4ClF4
_chemical_formula_sum   'Li1 Ti3 P4 Cl1 F4'
_cell_volume   109.92434364
_cell_formula_units_Z   1
loop_
 _symmetry_equiv_pos_site_id
 _symmetry_equiv_pos_as_xyz
  1  'x, y, z'
loop_
 _atom_site_type_symbol
 _atom_site_label
 _atom_site_symmetry_multiplicity
 _atom_site_fract_x
 _atom_site_fract_y
 _atom_site_fract_z
 _atom_site_occupancy
  Cl  Cl0  1  0.00000000  0.00000000  0.00000000  1
  F  F1  1  0.50000000  0.50000000  0.50000000  1
  F  F2  1  0.25000000  0.25000000  0.25000000  1
  F  F3  1  0.75000000  0.25000000  0.00000000  1
  F  F4  1  0.25000000  0.75000000  0.50000000  1
  Ti  Ti5  1  0.77840897  0.20077766  0.81752542  1
  Ti  Ti6  1  0.78965428  0.97106100  0.96225911  1
  Ti  Ti7  1  0.32233125  0.45257497  0.78810814  1
  P  P8  1  0.35072766  0.53693771  0.07529648  1
  P  P9  1  0.98367616  0.27508746  0.89982036  1
  P  P10  1  0.78245226  0.88661752  0.88674762  1
  P  P11  1  0.88977533  0.32954570  0.65086858  1
  Li  Li12  1  0.53772972  0.95082889  0.17713250  1
