# generated using pymatgen
data_Li2Ti2Cu2As6P5
_symmetry_space_group_name_H-M   'P 1'
_cell_length_a   7.53387144
_cell_length_b   7.60977962
_cell_length_c   8.01468308
_cell_angle_alpha   90.43152217
_cell_angle_beta   92.05305143
_cell_angle_gamma   90.49334507
_symmetry_Int_Tables_number   1
_chemical_formula_structural   Li2Ti2Cu2As6P5
_chemical_formula_sum   'Li2 Ti2 Cu2 As6 P5'
_cell_volume   459.16450069
_cell_formula_units_Z   1
loop_
 _symmetry_equiv_pos_site_id
 _symmetry_equiv_pos_as_xyz
  1  'x, y, z'
loop_
 _atom_site_type_symbol
 _atom_site_label
 _atom_site_symmetry_multiplicity
 _atom_site_fract_x
 _atom_site_fract_y
 _atom_site_fract_z
 _atom_site_occupancy
  P  P0  1  0.00000000  0.00000000  0.00000000  1
  P  P1  1  0.50000000  0.50000000  0.50000000  1
  P  P2  1  0.25000000  0.25000000  0.25000000  1
  P  P3  1  0.75000000  0.25000000  0.00000000  1
  P  P4  1  0.25000000  0.75000000  0.50000000  1
  Li  Li5  1  0.32807933  0.69402361  0.18651177  1
  Li  Li6  1  0.03092267  0.00056471  0.03055360  1
  Cu  Cu7  1  0.64089906  0.20996288  0.66311406  1
  Cu  Cu8  1  0.34679555  0.47932751  0.66245989  1
  Ti  Ti9  1  0.48399616  0.12941518  0.23714753  1
  Ti  Ti10  1  0.16987603  0.20300977  0.59713419  1
  As  As11  1  0.18493588  0.52998560  0.60044353  1
  As  As12  1  0.61074227  0.87274837  0.95032238  1
  As  As13  1  0.14677814  0.65853234  0.59151565  1
  As  As14  1  0.45849973  0.92565724  0.24998767  1
  As  As15  1  0.48596855  0.17323412  0.15272606  1
  As  As16  1  0.58174129  0.02414122  0.24150481  1
