# generated using pymatgen
data_LiNb2As6P4F3
_symmetry_space_group_name_H-M   'P 1'
_cell_length_a   6.79403712
_cell_length_b   6.56796092
_cell_length_c   8.07949525
_cell_angle_alpha   91.56122244
_cell_angle_beta   93.37728757
_cell_angle_gamma   91.80017224
_symmetry_Int_Tables_number   1
_chemical_formula_structural   LiNb2As6P4F3
_chemical_formula_sum   'Li1 Nb2 As6 P4 F3'
_cell_volume   359.57432318
_cell_formula_units_Z   1
loop_
 _symmetry_equiv_pos_site_id
 _symmetry_equiv_pos_as_xyz
  1  'x, y, z'
loop_
 _atom_site_type_symbol
 _atom_site_label
 _atom_site_symmetry_multiplicity
 _atom_site_fract_x
 _atom_site_fract_y
 _atom_site_fract_z
 _atom_site_occupancy
  P  P0  1  0.12500000  0.00000000  0.25000000  1
  P  P1  1  0.00000000  0.00000000  0.00000000  1
  P  P2  1  0.37500000  0.00000000  0.25000000  1
  P  P3  1  0.25000000  0.25000000  0.25000000  1
  Li  Li4  1  0.00000000  0.25000000  0.12500000  1
  Nb  Nb5  1  0.71209787  0.81075514  0.03776392  1
  Nb  Nb6  1  0.56269798  0.46088676  0.66153295  1
  F  F7  1  0.91482369  0.26300017  0.45720937  1
  F  F8  1  0.43280071  0.63346718  0.01796017  1
  F  F9  1  0.22369387  0.64210607  0.04949187  1
  As  As10  1  0.25442271  0.80978852  0.02219880  1
  As  As11  1  0.14882544  0.76932148  0.29304214  1
  As  As12  1  0.88076883  0.35044721  0.63838120  1
  As  As13  1  0.66586432  0.61393781  0.68511338  1
  As  As14  1  0.33114760  0.34469503  0.73874024  1
  As  As15  1  0.72855785  0.23268585  0.16325030  1
