# generated using pymatgen
data_Li3I4O5
_symmetry_space_group_name_H-M   'P 1'
_cell_length_a   7.34313176
_cell_length_b   7.15493998
_cell_length_c   7.76998783
_cell_angle_alpha   94.41829184
_cell_angle_beta   95.45568461
_cell_angle_gamma   94.28224954
_symmetry_Int_Tables_number   1
_chemical_formula_structural   Li3I4O5
_chemical_formula_sum   'Li3 I4 O5'
_cell_volume   403.79060271
_cell_formula_units_Z   1
loop_
 _symmetry_equiv_pos_site_id
 _symmetry_equiv_pos_as_xyz
  1  'x, y, z'
loop_
 _atom_site_type_symbol
 _atom_site_label
 _atom_site_symmetry_multiplicity
 _atom_site_fract_x
 _atom_site_fract_y
 _atom_site_fract_z
 _atom_site_occupancy
  I  I0  1  0.00000000  0.00000000  0.00000000  1
  I  I1  1  0.50000000  0.50000000  0.50000000  1
  I  I2  1  0.25000000  0.25000000  0.25000000  1
  I  I3  1  0.75000000  0.25000000  0.00000000  1
  Li  Li4  1  0.25000000  0.75000000  0.50000000  1
  Li  Li5  1  0.29466979  0.35458316  0.42770822  1
  Li  Li6  1  0.07039494  0.50465504  0.41221180  1
  O  O7  1  0.53584448  0.06271382  0.65417345  1
  O  O8  1  0.91162605  0.68427764  0.63102670  1
  O  O9  1  0.29373484  0.76570714  0.61796551  1
  O  O10  1  0.79725730  0.20698781  0.16663334  1
  O  O11  1  0.55663698  0.76161491  0.17011902  1
