# generated using pymatgen
data_LiSb4Mo2P3
_symmetry_space_group_name_H-M   'P 1'
_cell_length_a   5.71359110
_cell_length_b   6.05951603
_cell_length_c   6.56397723
_cell_angle_alpha   93.96853806
_cell_angle_beta   91.83669630
_cell_angle_gamma   94.16049683
_symmetry_Int_Tables_number   1
_chemical_formula_structural   LiSb4Mo2P3
_chemical_formula_sum   'Li1 Sb4 Mo2 P3'
_cell_volume   225.95601314
_cell_formula_units_Z   1
loop_
 _symmetry_equiv_pos_site_id
 _symmetry_equiv_pos_as_xyz
  1  'x, y, z'
loop_
 _atom_site_type_symbol
 _atom_site_label
 _atom_site_symmetry_multiplicity
 _atom_site_fract_x
 _atom_site_fract_y
 _atom_site_fract_z
 _atom_site_occupancy
  Sb  Sb0  1  0.12500000  0.00000000  0.25000000  1
  Sb  Sb1  1  0.00000000  0.00000000  0.00000000  1
  Sb  Sb2  1  0.37500000  0.00000000  0.25000000  1
  Sb  Sb3  1  0.25000000  0.25000000  0.25000000  1
  P  P4  1  0.00000000  0.25000000  0.12500000  1
  P  P5  1  0.68823885  0.77342110  0.62041447  1
  P  P6  1  0.33337655  0.80996841  0.64388925  1
  Mo  Mo7  1  0.14015288  0.21452993  0.49169185  1
  Mo  Mo8  1  0.77997528  0.52995925  0.82348068  1
  Li  Li9  1  0.58115493  0.62868831  0.21051315  1
