# generated using pymatgen
data_Li2Mn2Sb4P3
_symmetry_space_group_name_H-M   'P 1'
_cell_length_a   6.91740261
_cell_length_b   7.52822792
_cell_length_c   7.43325945
_cell_angle_alpha   91.73531600
_cell_angle_beta   92.05564215
_cell_angle_gamma   91.97500387
_symmetry_Int_Tables_number   1
_chemical_formula_structural   Li2Mn2Sb4P3
_chemical_formula_sum   'Li2 Mn2 Sb4 P3'
_cell_volume   386.42134035
_cell_formula_units_Z   1
loop_
 _symmetry_equiv_pos_site_id
 _symmetry_equiv_pos_as_xyz
  1  'x, y, z'
loop_
 _atom_site_type_symbol
 _atom_site_label
 _atom_site_symmetry_multiplicity
 _atom_site_fract_x
 _atom_site_fract_y
 _atom_site_fract_z
 _atom_site_occupancy
  Mn  Mn0  1  0.12500000  0.00000000  0.25000000  1
  Mn  Mn1  1  0.00000000  0.00000000  0.00000000  1
  Sb  Sb2  1  0.37500000  0.00000000  0.25000000  1
  Sb  Sb3  1  0.25000000  0.25000000  0.25000000  1
  Sb  Sb4  1  0.00000000  0.25000000  0.12500000  1
  Sb  Sb5  1  0.27209569  0.19021883  0.94273872  1
  P  P6  1  0.13648815  0.61804817  0.12609291  1
  P  P7  1  0.34155879  0.93297605  0.76616679  1
  P  P8  1  0.07850933  0.90781757  0.53868622  1
  Li  Li9  1  0.73510589  0.85883881  0.88023563  1
  Li  Li10  1  0.67690478  0.89719518  0.99661412  1
