# generated using pymatgen
data_LiSb4Mo2P3
_symmetry_space_group_name_H-M   'P 1'
_cell_length_a   5.45255008
_cell_length_b   5.53058751
_cell_length_c   6.72389417
_cell_angle_alpha   97.90624522
_cell_angle_beta   93.91126349
_cell_angle_gamma   98.21571210
_symmetry_Int_Tables_number   1
_chemical_formula_structural   LiSb4Mo2P3
_chemical_formula_sum   'Li1 Sb4 Mo2 P3'
_cell_volume   197.97582524
_cell_formula_units_Z   1
loop_
 _symmetry_equiv_pos_site_id
 _symmetry_equiv_pos_as_xyz
  1  'x, y, z'
loop_
 _atom_site_type_symbol
 _atom_site_label
 _atom_site_symmetry_multiplicity
 _atom_site_fract_x
 _atom_site_fract_y
 _atom_site_fract_z
 _atom_site_occupancy
  Sb  Sb0  1  0.12500000  0.12500000  0.12500000  1
  Sb  Sb1  1  0.50000000  0.50000000  0.50000000  1
  Sb  Sb2  1  0.25000000  0.25000000  0.25000000  1
  Sb  Sb3  1  0.75000000  0.75000000  0.75000000  1
  P  P4  1  0.22617646  0.88365531  0.64473954  1
  P  P5  1  0.17276276  0.15501757  0.28308204  1
  P  P6  1  0.65310444  0.32914782  0.49709441  1
  Mo  Mo7  1  0.73448784  0.92101605  0.02409396  1
  Mo  Mo8  1  0.13644229  0.85085070  0.32032259  1
  Li  Li9  1  0.61562063  0.59462567  0.82466863  1
