# generated using pymatgen
data_LiSbMoF2
_symmetry_space_group_name_H-M   'P 1'
_cell_length_a   6.15666831
_cell_length_b   6.56695879
_cell_length_c   6.65635965
_cell_angle_alpha   92.19670725
_cell_angle_beta   91.52045393
_cell_angle_gamma   92.02145413
_symmetry_Int_Tables_number   1
_chemical_formula_structural   LiSbMoF2
_chemical_formula_sum   'Li2 Sb2 Mo2 F4'
_cell_volume   268.65060463
_cell_formula_units_Z   2
loop_
 _symmetry_equiv_pos_site_id
 _symmetry_equiv_pos_as_xyz
  1  'x, y, z'
loop_
 _atom_site_type_symbol
 _atom_site_label
 _atom_site_symmetry_multiplicity
 _atom_site_fract_x
 _atom_site_fract_y
 _atom_site_fract_z
 _atom_site_occupancy
  F  F0  1  0.00000000  0.00000000  0.00000000  1
  F  F1  1  0.50000000  0.50000000  0.50000000  1
  F  F2  1  0.50000000  0.50000000  0.00000000  1
  F  F3  1  0.50000000  0.00000000  0.50000000  1
  Sb  Sb4  1  0.00000000  0.50000000  0.50000000  1
  Sb  Sb5  1  0.86542465  0.47645981  0.48312924  1
  Mo  Mo6  1  0.42466330  0.10299446  0.75338814  1
  Mo  Mo7  1  0.12210004  0.45550382  0.99925254  1
  Li  Li8  1  0.88614955  0.44324619  0.20147046  1
  Li  Li9  1  0.15116965  0.44552557  0.68401699  1
