# generated using pymatgen
data_Li2TiP4SeCl2
_symmetry_space_group_name_H-M   'P 1'
_cell_length_a   7.34305520
_cell_length_b   6.99994926
_cell_length_c   7.26153743
_cell_angle_alpha   95.40989488
_cell_angle_beta   97.14638879
_cell_angle_gamma   95.10309256
_symmetry_Int_Tables_number   1
_chemical_formula_structural   Li2TiP4SeCl2
_chemical_formula_sum   'Li2 Ti1 P4 Se1 Cl2'
_cell_volume   366.78120656
_cell_formula_units_Z   1
loop_
 _symmetry_equiv_pos_site_id
 _symmetry_equiv_pos_as_xyz
  1  'x, y, z'
loop_
 _atom_site_type_symbol
 _atom_site_label
 _atom_site_symmetry_multiplicity
 _atom_site_fract_x
 _atom_site_fract_y
 _atom_site_fract_z
 _atom_site_occupancy
  P  P0  1  0.12500000  0.00000000  0.25000000  1
  P  P1  1  0.00000000  0.00000000  0.00000000  1
  P  P2  1  0.37500000  0.00000000  0.25000000  1
  P  P3  1  0.25000000  0.25000000  0.25000000  1
  Li  Li4  1  0.00000000  0.25000000  0.12500000  1
  Li  Li5  1  0.76078867  0.62271840  0.12785511  1
  Se  Se6  1  0.14210786  0.85318542  0.97832197  1
  Cl  Cl7  1  0.32928489  0.72742019  0.65618432  1
  Cl  Cl8  1  0.72634159  0.64401081  0.97129111  1
  Ti  Ti9  1  0.99088866  0.82648539  0.15384375  1
