# generated using pymatgen
data_Li3LuTiI4N5
_symmetry_space_group_name_H-M   'P 1'
_cell_length_a   7.94889341
_cell_length_b   7.70995042
_cell_length_c   8.20907322
_cell_angle_alpha   91.79064224
_cell_angle_beta   90.87193742
_cell_angle_gamma   92.07602724
_symmetry_Int_Tables_number   1
_chemical_formula_structural   Li3LuTiI4N5
_chemical_formula_sum   'Li3 Lu1 Ti1 I4 N5'
_cell_volume   502.45471480
_cell_formula_units_Z   1
loop_
 _symmetry_equiv_pos_site_id
 _symmetry_equiv_pos_as_xyz
  1  'x, y, z'
loop_
 _atom_site_type_symbol
 _atom_site_label
 _atom_site_symmetry_multiplicity
 _atom_site_fract_x
 _atom_site_fract_y
 _atom_site_fract_z
 _atom_site_occupancy
  I  I0  1  0.00000000  0.00000000  0.00000000  1
  I  I1  1  0.50000000  0.50000000  0.50000000  1
  I  I2  1  0.50000000  0.50000000  0.00000000  1
  I  I3  1  0.50000000  0.00000000  0.50000000  1
  Lu  Lu4  1  0.00000000  0.50000000  0.50000000  1
  Li  Li5  1  0.59030009  0.63013547  0.86833850  1
  Li  Li6  1  0.74959933  0.18219632  0.34097378  1
  Li  Li7  1  0.75633580  0.30110667  0.08391181  1
  Ti  Ti8  1  0.58957852  0.39969892  0.06157294  1
  N  N9  1  0.56301491  0.54235655  0.51785649  1
  N  N10  1  0.49127173  0.71248904  0.27846585  1
  N  N11  1  0.19705042  0.29729162  0.95774256  1
  N  N12  1  0.87924396  0.24906895  0.68383381  1
  N  N13  1  0.27540447  0.82840317  0.51361482  1
