# generated using pymatgen
data_LiMn(SbP)3
_symmetry_space_group_name_H-M   'P 1'
_cell_length_a   5.53937403
_cell_length_b   5.62818574
_cell_length_c   6.37719848
_cell_angle_alpha   94.21482163
_cell_angle_beta   91.47130186
_cell_angle_gamma   94.51023162
_symmetry_Int_Tables_number   1
_chemical_formula_structural   LiMn(SbP)3
_chemical_formula_sum   'Li1 Mn1 Sb3 P3'
_cell_volume   197.56884525
_cell_formula_units_Z   1
loop_
 _symmetry_equiv_pos_site_id
 _symmetry_equiv_pos_as_xyz
  1  'x, y, z'
loop_
 _atom_site_type_symbol
 _atom_site_label
 _atom_site_symmetry_multiplicity
 _atom_site_fract_x
 _atom_site_fract_y
 _atom_site_fract_z
 _atom_site_occupancy
  Mn  Mn0  1  0.00000000  0.00000000  0.00000000  1
  Sb  Sb1  1  0.50000000  0.50000000  0.50000000  1
  Sb  Sb2  1  0.25000000  0.25000000  0.25000000  1
  Sb  Sb3  1  0.75000000  0.25000000  0.00000000  1
  P  P4  1  0.25000000  0.75000000  0.50000000  1
  P  P5  1  0.59584813  0.46937983  0.09412744  1
  P  P6  1  0.34831201  0.82132606  0.54101843  1
  Li  Li7  1  0.65739130  0.11279976  0.75183405  1
