# generated using pymatgen
data_LiMn2Sb4Mo2P3
_symmetry_space_group_name_H-M   'P 1'
_cell_length_a   4.55645239
_cell_length_b   4.74226523
_cell_length_c   6.16571129
_cell_angle_alpha   100.35055234
_cell_angle_beta   93.11432103
_cell_angle_gamma   100.34960292
_symmetry_Int_Tables_number   1
_chemical_formula_structural   LiMn2Sb4Mo2P3
_chemical_formula_sum   'Li1 Mn2 Sb4 Mo2 P3'
_cell_volume   128.41035040
_cell_formula_units_Z   1
loop_
 _symmetry_equiv_pos_site_id
 _symmetry_equiv_pos_as_xyz
  1  'x, y, z'
loop_
 _atom_site_type_symbol
 _atom_site_label
 _atom_site_symmetry_multiplicity
 _atom_site_fract_x
 _atom_site_fract_y
 _atom_site_fract_z
 _atom_site_occupancy
  Mn  Mn0  1  0.00000000  0.00000000  0.00000000  1
  Mn  Mn1  1  0.50000000  0.50000000  0.50000000  1
  Sb  Sb2  1  0.25000000  0.25000000  0.25000000  1
  Sb  Sb3  1  0.75000000  0.25000000  0.00000000  1
  Sb  Sb4  1  0.25000000  0.75000000  0.50000000  1
  Sb  Sb5  1  0.64145797  0.16235897  0.15431789  1
  P  P6  1  0.10687095  0.25123996  0.08277312  1
  P  P7  1  0.48354106  0.52282520  0.46324184  1
  P  P8  1  0.82866874  0.24144654  0.52397489  1
  Mo  Mo9  1  0.94486729  0.52377089  0.64488958  1
  Mo  Mo10  1  0.30281107  0.90930404  0.94753283  1
  Li  Li11  1  0.66644492  0.75454057  0.07785130  1
