# generated using pymatgen
data_Li3TiNi2I4O5
_symmetry_space_group_name_H-M   'P 1'
_cell_length_a   8.28792757
_cell_length_b   8.12854432
_cell_length_c   7.80805681
_cell_angle_alpha   90.80165465
_cell_angle_beta   90.60800309
_cell_angle_gamma   90.92859805
_symmetry_Int_Tables_number   1
_chemical_formula_structural   Li3TiNi2I4O5
_chemical_formula_sum   'Li3 Ti1 Ni2 I4 O5'
_cell_volume   525.86784716
_cell_formula_units_Z   1
loop_
 _symmetry_equiv_pos_site_id
 _symmetry_equiv_pos_as_xyz
  1  'x, y, z'
loop_
 _atom_site_type_symbol
 _atom_site_label
 _atom_site_symmetry_multiplicity
 _atom_site_fract_x
 _atom_site_fract_y
 _atom_site_fract_z
 _atom_site_occupancy
  I  I0  1  0.00000000  0.00000000  0.00000000  1
  I  I1  1  0.50000000  0.50000000  0.50000000  1
  I  I2  1  0.50000000  0.50000000  0.00000000  1
  I  I3  1  0.50000000  0.00000000  0.50000000  1
  Li  Li4  1  0.00000000  0.50000000  0.50000000  1
  Li  Li5  1  0.23630019  0.23770215  0.05348327  1
  Li  Li6  1  0.36430933  0.06975348  0.74022656  1
  Ni  Ni7  1  0.68644966  0.33574952  0.64587389  1
  Ni  Ni8  1  0.29141944  0.89831399  0.82093909  1
  Ti  Ti9  1  0.22237654  0.61522926  0.60783282  1
  O  O10  1  0.97591135  0.31786990  0.91196868  1
  O  O11  1  0.77909879  0.78864541  0.81614009  1
  O  O12  1  0.56146081  0.82483463  0.29361114  1
  O  O13  1  0.69984843  0.57324396  0.77158836  1
  O  O14  1  0.80461329  0.11077713  0.89796074  1
