# generated using pymatgen
data_Li2Mn2(SbP)3
_symmetry_space_group_name_H-M   'P 1'
_cell_length_a   6.42735252
_cell_length_b   6.97499774
_cell_length_c   7.29588682
_cell_angle_alpha   92.89788037
_cell_angle_beta   93.34425500
_cell_angle_gamma   93.25896169
_symmetry_Int_Tables_number   1
_chemical_formula_structural   Li2Mn2(SbP)3
_chemical_formula_sum   'Li2 Mn2 Sb3 P3'
_cell_volume   325.51860550
_cell_formula_units_Z   1
loop_
 _symmetry_equiv_pos_site_id
 _symmetry_equiv_pos_as_xyz
  1  'x, y, z'
loop_
 _atom_site_type_symbol
 _atom_site_label
 _atom_site_symmetry_multiplicity
 _atom_site_fract_x
 _atom_site_fract_y
 _atom_site_fract_z
 _atom_site_occupancy
  Mn  Mn0  1  0.00000000  0.00000000  0.00000000  1
  Mn  Mn1  1  0.33300000  0.66700000  0.25000000  1
  Sb  Sb2  1  0.66700000  0.33300000  0.50000000  1
  Sb  Sb3  1  0.00000000  0.00000000  0.75000000  1
  Sb  Sb4  1  0.92481074  0.33101732  0.63818481  1
  P  P5  1  0.49069341  0.40818318  0.31529958  1
  P  P6  1  0.81342689  0.12012588  0.72019673  1
  P  P7  1  0.61305520  0.41827931  0.89281825  1
  Li  Li8  1  0.68777458  0.45080908  0.77802799  1
  Li  Li9  1  0.51128780  0.28581566  0.10001575  1
