# generated using pymatgen
data_Li3Ni3P4W
_symmetry_space_group_name_H-M   'P 1'
_cell_length_a   6.38608696
_cell_length_b   5.81336930
_cell_length_c   7.07575024
_cell_angle_alpha   94.25573982
_cell_angle_beta   90.41101192
_cell_angle_gamma   93.36508927
_symmetry_Int_Tables_number   1
_chemical_formula_structural   Li3Ni3P4W
_chemical_formula_sum   'Li3 Ni3 P4 W1'
_cell_volume   261.49147407
_cell_formula_units_Z   1
loop_
 _symmetry_equiv_pos_site_id
 _symmetry_equiv_pos_as_xyz
  1  'x, y, z'
loop_
 _atom_site_type_symbol
 _atom_site_label
 _atom_site_symmetry_multiplicity
 _atom_site_fract_x
 _atom_site_fract_y
 _atom_site_fract_z
 _atom_site_occupancy
  Ni  Ni0  1  0.00000000  0.00000000  0.00000000  1
  Ni  Ni1  1  0.50000000  0.50000000  0.50000000  1
  Ni  Ni2  1  0.25000000  0.25000000  0.25000000  1
  W  W3  1  0.75000000  0.25000000  0.00000000  1
  P  P4  1  0.25000000  0.75000000  0.50000000  1
  P  P5  1  0.93726735  0.79672096  0.32734880  1
  P  P6  1  0.30546613  0.34251716  0.33548590  1
  P  P7  1  0.08865207  0.98186936  0.00276501  1
  Li  Li8  1  0.07356062  0.67309974  0.87819816  1
  Li  Li9  1  0.33933731  0.88148803  0.93537001  1
  Li  Li10  1  0.12271489  0.89545633  0.94574695  1
