# generated using pymatgen
data_LiMnSb4P3N5
_symmetry_space_group_name_H-M   'P 1'
_cell_length_a   6.34194453
_cell_length_b   6.73355318
_cell_length_c   7.33335654
_cell_angle_alpha   93.43857107
_cell_angle_beta   92.47564486
_cell_angle_gamma   93.57470941
_symmetry_Int_Tables_number   1
_chemical_formula_structural   LiMnSb4P3N5
_chemical_formula_sum   'Li1 Mn1 Sb4 P3 N5'
_cell_volume   311.64393091
_cell_formula_units_Z   1
loop_
 _symmetry_equiv_pos_site_id
 _symmetry_equiv_pos_as_xyz
  1  'x, y, z'
loop_
 _atom_site_type_symbol
 _atom_site_label
 _atom_site_symmetry_multiplicity
 _atom_site_fract_x
 _atom_site_fract_y
 _atom_site_fract_z
 _atom_site_occupancy
  N  N0  1  0.00000000  0.00000000  0.00000000  1
  N  N1  1  0.50000000  0.50000000  0.50000000  1
  N  N2  1  0.50000000  0.50000000  0.00000000  1
  N  N3  1  0.50000000  0.00000000  0.50000000  1
  N  N4  1  0.00000000  0.50000000  0.50000000  1
  Mn  Mn5  1  0.22911658  0.60405796  0.27036038  1
  Sb  Sb6  1  0.07750547  0.40882011  0.42394906  1
  Sb  Sb7  1  0.40363386  0.04908823  0.00848273  1
  Sb  Sb8  1  0.83169087  0.91995124  0.89269699  1
  Sb  Sb9  1  0.51735802  0.51694713  0.94607549  1
  P  P10  1  0.85224252  0.34268602  0.77232317  1
  P  P11  1  0.10264301  0.89919537  0.18518291  1
  P  P12  1  0.62418085  0.08054047  0.74139360  1
  Li  Li13  1  0.32291357  0.19529995  0.06964803  1
