# generated using pymatgen
data_LiSb4Mo2P3
_symmetry_space_group_name_H-M   'P 1'
_cell_length_a   4.68640625
_cell_length_b   4.68674594
_cell_length_c   5.59560619
_cell_angle_alpha   96.47608871
_cell_angle_beta   90.05116991
_cell_angle_gamma   95.75457215
_symmetry_Int_Tables_number   1
_chemical_formula_structural   LiSb4Mo2P3
_chemical_formula_sum   'Li1 Sb4 Mo2 P3'
_cell_volume   121.49296907
_cell_formula_units_Z   1
loop_
 _symmetry_equiv_pos_site_id
 _symmetry_equiv_pos_as_xyz
  1  'x, y, z'
loop_
 _atom_site_type_symbol
 _atom_site_label
 _atom_site_symmetry_multiplicity
 _atom_site_fract_x
 _atom_site_fract_y
 _atom_site_fract_z
 _atom_site_occupancy
  Sb  Sb0  1  0.00000000  0.00000000  0.00000000  1
  Sb  Sb1  1  0.50000000  0.50000000  0.50000000  1
  Sb  Sb2  1  0.50000000  0.50000000  0.00000000  1
  Sb  Sb3  1  0.50000000  0.00000000  0.50000000  1
  P  P4  1  0.00000000  0.50000000  0.50000000  1
  P  P5  1  0.15215378  0.00834159  0.13989241  1
  P  P6  1  0.71622555  0.73351954  0.34467345  1
  Mo  Mo7  1  0.85414462  0.20836582  0.26129573  1
  Mo  Mo8  1  0.51341884  0.92487358  0.23881201  1
  Li  Li9  1  0.21824356  0.79706584  0.75162523  1
