# generated using pymatgen
data_Li3Ni2(IO)4
_symmetry_space_group_name_H-M   'P 1'
_cell_length_a   6.99962925
_cell_length_b   6.73882690
_cell_length_c   8.04155104
_cell_angle_alpha   93.69639740
_cell_angle_beta   93.81055938
_cell_angle_gamma   93.55253493
_symmetry_Int_Tables_number   1
_chemical_formula_structural   Li3Ni2(IO)4
_chemical_formula_sum   'Li3 Ni2 I4 O4'
_cell_volume   376.85144242
_cell_formula_units_Z   1
loop_
 _symmetry_equiv_pos_site_id
 _symmetry_equiv_pos_as_xyz
  1  'x, y, z'
loop_
 _atom_site_type_symbol
 _atom_site_label
 _atom_site_symmetry_multiplicity
 _atom_site_fract_x
 _atom_site_fract_y
 _atom_site_fract_z
 _atom_site_occupancy
  I  I0  1  0.00000000  0.00000000  0.00000000  1
  I  I1  1  0.50000000  0.50000000  0.50000000  1
  I  I2  1  0.50000000  0.50000000  0.00000000  1
  I  I3  1  0.50000000  0.00000000  0.50000000  1
  Li  Li4  1  0.00000000  0.50000000  0.50000000  1
  Li  Li5  1  0.47645944  0.13562911  0.33262363  1
  Li  Li6  1  0.10529328  0.09812700  0.75785500  1
  Ni  Ni7  1  0.24238721  0.55194392  0.72855824  1
  Ni  Ni8  1  0.70849239  0.77434871  0.08126020  1
  O  O9  1  0.35423004  0.57293476  0.17468252  1
  O  O10  1  0.63340555  0.24622401  0.36293015  1
  O  O11  1  0.03054239  0.03860413  0.11983963  1
  O  O12  1  0.65418259  0.90102253  0.69298281  1
