# generated using pymatgen
data_Li2TiI4N5O2
_symmetry_space_group_name_H-M   'P 1'
_cell_length_a   8.08791744
_cell_length_b   7.92136322
_cell_length_c   7.60862873
_cell_angle_alpha   90.84562095
_cell_angle_beta   90.91664871
_cell_angle_gamma   90.97848809
_symmetry_Int_Tables_number   1
_chemical_formula_structural   Li2TiI4N5O2
_chemical_formula_sum   'Li2 Ti1 I4 N5 O2'
_cell_volume   487.27599565
_cell_formula_units_Z   1
loop_
 _symmetry_equiv_pos_site_id
 _symmetry_equiv_pos_as_xyz
  1  'x, y, z'
loop_
 _atom_site_type_symbol
 _atom_site_label
 _atom_site_symmetry_multiplicity
 _atom_site_fract_x
 _atom_site_fract_y
 _atom_site_fract_z
 _atom_site_occupancy
  I  I0  1  0.00000000  0.00000000  0.00000000  1
  I  I1  1  0.50000000  0.50000000  0.50000000  1
  I  I2  1  0.25000000  0.25000000  0.25000000  1
  I  I3  1  0.75000000  0.25000000  0.00000000  1
  Li  Li4  1  0.25000000  0.75000000  0.50000000  1
  Li  Li5  1  0.11744731  0.18153235  0.97039937  1
  Ti  Ti6  1  0.33657809  0.67170003  0.48045585  1
  O  O7  1  0.06825953  0.74164435  0.10192655  1
  O  O8  1  0.30040727  0.37342756  0.68727976  1
  N  N9  1  0.59914873  0.54869519  0.56425243  1
  N  N10  1  0.45369116  0.59972734  0.74404447  1
  N  N11  1  0.30621009  0.71748652  0.72604653  1
  N  N12  1  0.20221909  0.67077010  0.55620626  1
  N  N13  1  0.36412563  0.94611005  0.70058687  1
