# generated using pymatgen
data_Li2TiCu2OF2
_symmetry_space_group_name_H-M   'P 1'
_cell_length_a   7.05309496
_cell_length_b   7.02802524
_cell_length_c   7.21292102
_cell_angle_alpha   92.58708985
_cell_angle_beta   94.46657067
_cell_angle_gamma   93.16100925
_symmetry_Int_Tables_number   1
_chemical_formula_structural   Li2TiCu2OF2
_chemical_formula_sum   'Li2 Ti1 Cu2 O1 F2'
_cell_volume   355.47235062
_cell_formula_units_Z   1
loop_
 _symmetry_equiv_pos_site_id
 _symmetry_equiv_pos_as_xyz
  1  'x, y, z'
loop_
 _atom_site_type_symbol
 _atom_site_label
 _atom_site_symmetry_multiplicity
 _atom_site_fract_x
 _atom_site_fract_y
 _atom_site_fract_z
 _atom_site_occupancy
  Li  Li0  1  0.00000000  0.00000000  0.00000000  1
  Li  Li1  1  0.50000000  0.50000000  0.50000000  1
  Cu  Cu2  1  0.50000000  0.50000000  0.00000000  1
  Cu  Cu3  1  0.50000000  0.00000000  0.50000000  1
  F  F4  1  0.00000000  0.50000000  0.50000000  1
  F  F5  1  0.53281162  0.11541422  0.45686927  1
  Ti  Ti6  1  0.37780860  0.62637120  0.71123097  1
  O  O7  1  0.92787040  0.66482861  0.92632852  1
