# generated using pymatgen
data_LiMn(Sb2P)2
_symmetry_space_group_name_H-M   'P 1'
_cell_length_a   4.68414691
_cell_length_b   5.01250104
_cell_length_c   6.76952762
_cell_angle_alpha   97.88369771
_cell_angle_beta   97.52960252
_cell_angle_gamma   98.52095457
_symmetry_Int_Tables_number   1
_chemical_formula_structural   LiMn(Sb2P)2
_chemical_formula_sum   'Li1 Mn1 Sb4 P2'
_cell_volume   153.83372712
_cell_formula_units_Z   1
loop_
 _symmetry_equiv_pos_site_id
 _symmetry_equiv_pos_as_xyz
  1  'x, y, z'
loop_
 _atom_site_type_symbol
 _atom_site_label
 _atom_site_symmetry_multiplicity
 _atom_site_fract_x
 _atom_site_fract_y
 _atom_site_fract_z
 _atom_site_occupancy
  Mn  Mn0  1  0.00000000  0.00000000  0.00000000  1
  Sb  Sb1  1  0.33300000  0.66700000  0.25000000  1
  Sb  Sb2  1  0.66700000  0.33300000  0.50000000  1
  Sb  Sb3  1  0.00000000  0.00000000  0.75000000  1
  Sb  Sb4  1  0.99220078  0.61442188  0.02082489  1
  P  P5  1  0.18667174  0.56185841  0.53173088  1
  P  P6  1  0.14623201  0.41411667  0.58386135  1
  Li  Li7  1  0.57680516  0.86359850  0.08025720  1
