# generated using pymatgen
data_Li3Lu(NiP2)2
_symmetry_space_group_name_H-M   'P 1'
_cell_length_a   7.35551268
_cell_length_b   7.21018958
_cell_length_c   8.08683197
_cell_angle_alpha   92.44036292
_cell_angle_beta   92.72926575
_cell_angle_gamma   92.89514082
_symmetry_Int_Tables_number   1
_chemical_formula_structural   Li3Lu(NiP2)2
_chemical_formula_sum   'Li3 Lu1 Ni2 P4'
_cell_volume   427.41374197
_cell_formula_units_Z   1
loop_
 _symmetry_equiv_pos_site_id
 _symmetry_equiv_pos_as_xyz
  1  'x, y, z'
loop_
 _atom_site_type_symbol
 _atom_site_label
 _atom_site_symmetry_multiplicity
 _atom_site_fract_x
 _atom_site_fract_y
 _atom_site_fract_z
 _atom_site_occupancy
  P  P0  1  0.00000000  0.00000000  0.00000000  1
  P  P1  1  0.33300000  0.66700000  0.25000000  1
  P  P2  1  0.66700000  0.33300000  0.50000000  1
  P  P3  1  0.00000000  0.00000000  0.75000000  1
  Lu  Lu4  1  0.73401974  0.35905807  0.96531806  1
  Li  Li5  1  0.79239952  0.75540608  0.90352031  1
  Li  Li6  1  0.48108670  0.41412098  0.14196763  1
  Li  Li7  1  0.20440202  0.37146331  0.06750678  1
  Ni  Ni8  1  0.85955595  0.74816927  0.44031240  1
  Ni  Ni9  1  0.38101768  0.50926688  0.54034440  1
