# generated using pymatgen
data_Li3TiP3Cl2
_symmetry_space_group_name_H-M   'P 1'
_cell_length_a   6.78564515
_cell_length_b   6.53922230
_cell_length_c   7.05412116
_cell_angle_alpha   94.19528841
_cell_angle_beta   96.07308942
_cell_angle_gamma   93.69451599
_symmetry_Int_Tables_number   1
_chemical_formula_structural   Li3TiP3Cl2
_chemical_formula_sum   'Li3 Ti1 P3 Cl2'
_cell_volume   309.59749200
_cell_formula_units_Z   1
loop_
 _symmetry_equiv_pos_site_id
 _symmetry_equiv_pos_as_xyz
  1  'x, y, z'
loop_
 _atom_site_type_symbol
 _atom_site_label
 _atom_site_symmetry_multiplicity
 _atom_site_fract_x
 _atom_site_fract_y
 _atom_site_fract_z
 _atom_site_occupancy
  P  P0  1  0.00000000  0.00000000  0.00000000  1
  P  P1  1  0.50000000  0.50000000  0.50000000  1
  P  P2  1  0.50000000  0.50000000  0.00000000  1
  Li  Li3  1  0.50000000  0.00000000  0.50000000  1
  Li  Li4  1  0.00000000  0.50000000  0.50000000  1
  Li  Li5  1  0.18079571  0.37373648  0.63683848  1
  Cl  Cl6  1  0.15863788  0.19288702  0.60070273  1
  Cl  Cl7  1  0.07116572  0.65980522  0.00188530  1
  Ti  Ti8  1  0.74584784  0.15213162  0.01665588  1
