# generated using pymatgen
data_LiSb2Mo2P3
_symmetry_space_group_name_H-M   'P 1'
_cell_length_a   4.94905149
_cell_length_b   5.10749422
_cell_length_c   5.87424926
_cell_angle_alpha   95.12022801
_cell_angle_beta   91.01813452
_cell_angle_gamma   95.19016274
_symmetry_Int_Tables_number   1
_chemical_formula_structural   LiSb2Mo2P3
_chemical_formula_sum   'Li1 Sb2 Mo2 P3'
_cell_volume   147.23600764
_cell_formula_units_Z   1
loop_
 _symmetry_equiv_pos_site_id
 _symmetry_equiv_pos_as_xyz
  1  'x, y, z'
loop_
 _atom_site_type_symbol
 _atom_site_label
 _atom_site_symmetry_multiplicity
 _atom_site_fract_x
 _atom_site_fract_y
 _atom_site_fract_z
 _atom_site_occupancy
  Sb  Sb0  1  0.00000000  0.00000000  0.00000000  1
  Sb  Sb1  1  0.50000000  0.50000000  0.50000000  1
  P  P2  1  0.25000000  0.25000000  0.25000000  1
  P  P3  1  0.75000000  0.25000000  0.00000000  1
  P  P4  1  0.25000000  0.75000000  0.50000000  1
  Mo  Mo5  1  0.55569811  0.40505894  0.78525242  1
  Mo  Mo6  1  0.08225842  0.72448751  0.79837899  1
  Li  Li7  1  0.19598115  0.50691970  0.57927852  1
