# generated using pymatgen
data_Li2TiCuS
_symmetry_space_group_name_H-M   'P 1'
_cell_length_a   5.77421270
_cell_length_b   5.59309861
_cell_length_c   7.29821566
_cell_angle_alpha   98.61119016
_cell_angle_beta   99.60309871
_cell_angle_gamma   99.09147517
_symmetry_Int_Tables_number   1
_chemical_formula_structural   Li2TiCuS
_chemical_formula_sum   'Li4 Ti2 Cu2 S2'
_cell_volume   225.69436692
_cell_formula_units_Z   2
loop_
 _symmetry_equiv_pos_site_id
 _symmetry_equiv_pos_as_xyz
  1  'x, y, z'
loop_
 _atom_site_type_symbol
 _atom_site_label
 _atom_site_symmetry_multiplicity
 _atom_site_fract_x
 _atom_site_fract_y
 _atom_site_fract_z
 _atom_site_occupancy
  S  S0  1  0.12500000  0.00000000  0.25000000  1
  S  S1  1  0.00000000  0.00000000  0.00000000  1
  Ti  Ti2  1  0.37500000  0.00000000  0.25000000  1
  Ti  Ti3  1  0.25000000  0.25000000  0.25000000  1
  Li  Li4  1  0.00000000  0.25000000  0.12500000  1
  Li  Li5  1  0.89746484  0.56980629  0.39239723  1
  Li  Li6  1  0.38888163  0.45200712  0.51642246  1
  Li  Li7  1  0.88563584  0.60210715  0.24906040  1
  Cu  Cu8  1  0.44116426  0.62090917  0.84623735  1
  Cu  Cu9  1  0.01039115  0.75946544  0.75480497  1
