# generated using pymatgen
data_Li2LuAs6(PN)4
_symmetry_space_group_name_H-M   'P 1'
_cell_length_a   7.43209556
_cell_length_b   7.20402858
_cell_length_c   8.14669993
_cell_angle_alpha   92.31150828
_cell_angle_beta   92.02098161
_cell_angle_gamma   92.50383962
_symmetry_Int_Tables_number   1
_chemical_formula_structural   Li2LuAs6(PN)4
_chemical_formula_sum   'Li2 Lu1 As6 P4 N4'
_cell_volume   435.11205099
_cell_formula_units_Z   1
loop_
 _symmetry_equiv_pos_site_id
 _symmetry_equiv_pos_as_xyz
  1  'x, y, z'
loop_
 _atom_site_type_symbol
 _atom_site_label
 _atom_site_symmetry_multiplicity
 _atom_site_fract_x
 _atom_site_fract_y
 _atom_site_fract_z
 _atom_site_occupancy
  P  P0  1  0.00000000  0.00000000  0.00000000  1
  P  P1  1  0.50000000  0.50000000  0.50000000  1
  P  P2  1  0.25000000  0.25000000  0.25000000  1
  P  P3  1  0.75000000  0.25000000  0.00000000  1
  Lu  Lu4  1  0.25000000  0.75000000  0.50000000  1
  Li  Li5  1  0.77221732  0.55672300  0.03103868  1
  Li  Li6  1  0.11096119  0.83618707  0.57702905  1
  As  As7  1  0.05160895  0.78673608  0.86373827  1
  As  As8  1  0.41894760  0.77439891  0.87997967  1
  As  As9  1  0.21281541  0.85825720  0.96044666  1
  As  As10  1  0.16974043  0.97605591  0.29732928  1
  As  As11  1  0.62938624  0.19819828  0.38130610  1
  As  As12  1  0.18719188  0.96270934  0.48273511  1
  N  N13  1  0.87877047  0.40133870  0.89026199  1
  N  N14  1  0.38901461  0.23739698  0.37402157  1
  N  N15  1  0.17369363  0.96257302  0.77593676  1
  N  N16  1  0.62052603  0.90383942  0.92254334  1
