# generated using pymatgen
data_Li2(As2P)3
_symmetry_space_group_name_H-M   'P 1'
_cell_length_a   6.87443468
_cell_length_b   6.85140604
_cell_length_c   7.86638800
_cell_angle_alpha   91.82400351
_cell_angle_beta   94.08901320
_cell_angle_gamma   91.77995090
_symmetry_Int_Tables_number   1
_chemical_formula_structural   Li2(As2P)3
_chemical_formula_sum   'Li2 As6 P3'
_cell_volume   369.16641608
_cell_formula_units_Z   1
loop_
 _symmetry_equiv_pos_site_id
 _symmetry_equiv_pos_as_xyz
  1  'x, y, z'
loop_
 _atom_site_type_symbol
 _atom_site_label
 _atom_site_symmetry_multiplicity
 _atom_site_fract_x
 _atom_site_fract_y
 _atom_site_fract_z
 _atom_site_occupancy
  P  P0  1  0.00000000  0.00000000  0.00000000  1
  P  P1  1  0.50000000  0.50000000  0.50000000  1
  P  P2  1  0.25000000  0.25000000  0.25000000  1
  As  As3  1  0.75000000  0.25000000  0.00000000  1
  As  As4  1  0.25000000  0.75000000  0.50000000  1
  As  As5  1  0.09517095  0.35567807  0.29060794  1
  As  As6  1  0.15248310  0.89783561  0.80545881  1
  As  As7  1  0.37018064  0.95888256  0.82999463  1
  As  As8  1  0.72454650  0.46247117  0.26286972  1
  Li  Li9  1  0.04691389  0.09634450  0.14581456  1
  Li  Li10  1  0.04614826  0.03600283  0.11622532  1
