# generated using pymatgen
data_Li2TiCu2Ni2O3
_symmetry_space_group_name_H-M   'P 1'
_cell_length_a   6.56568888
_cell_length_b   6.56938560
_cell_length_c   7.52442578
_cell_angle_alpha   95.03533948
_cell_angle_beta   96.68399021
_cell_angle_gamma   96.14340185
_symmetry_Int_Tables_number   1
_chemical_formula_structural   Li2TiCu2Ni2O3
_chemical_formula_sum   'Li2 Ti1 Cu2 Ni2 O3'
_cell_volume   318.83557638
_cell_formula_units_Z   1
loop_
 _symmetry_equiv_pos_site_id
 _symmetry_equiv_pos_as_xyz
  1  'x, y, z'
loop_
 _atom_site_type_symbol
 _atom_site_label
 _atom_site_symmetry_multiplicity
 _atom_site_fract_x
 _atom_site_fract_y
 _atom_site_fract_z
 _atom_site_occupancy
  Li  Li0  1  0.12500000  0.00000000  0.25000000  1
  Li  Li1  1  0.00000000  0.00000000  0.00000000  1
  Cu  Cu2  1  0.37500000  0.00000000  0.25000000  1
  Cu  Cu3  1  0.25000000  0.25000000  0.25000000  1
  Ni  Ni4  1  0.00000000  0.25000000  0.12500000  1
  Ni  Ni5  1  0.37976611  0.03640209  0.05237315  1
  Ti  Ti6  1  0.13119330  0.41237223  0.29081265  1
  O  O7  1  0.90132372  0.42372904  0.88234428  1
  O  O8  1  0.89052339  0.10255596  0.33509552  1
  O  O9  1  0.99767930  0.76746315  0.54638563  1
