# generated using pymatgen
data_Li3TiI4O3
_symmetry_space_group_name_H-M   'P 1'
_cell_length_a   7.48188342
_cell_length_b   7.22889717
_cell_length_c   7.74105325
_cell_angle_alpha   94.22240507
_cell_angle_beta   94.35030693
_cell_angle_gamma   94.25235819
_symmetry_Int_Tables_number   1
_chemical_formula_structural   Li3TiI4O3
_chemical_formula_sum   'Li3 Ti1 I4 O3'
_cell_volume   415.00087529
_cell_formula_units_Z   1
loop_
 _symmetry_equiv_pos_site_id
 _symmetry_equiv_pos_as_xyz
  1  'x, y, z'
loop_
 _atom_site_type_symbol
 _atom_site_label
 _atom_site_symmetry_multiplicity
 _atom_site_fract_x
 _atom_site_fract_y
 _atom_site_fract_z
 _atom_site_occupancy
  I  I0  1  0.00000000  0.00000000  0.00000000  1
  I  I1  1  0.33300000  0.66700000  0.25000000  1
  I  I2  1  0.66700000  0.33300000  0.50000000  1
  I  I3  1  0.00000000  0.00000000  0.75000000  1
  Li  Li4  1  0.74557018  0.35695581  0.88699490  1
  Li  Li5  1  0.65076771  0.28616584  0.85548673  1
  Li  Li6  1  0.95784841  0.41274625  0.02048325  1
  Ti  Ti7  1  0.45347341  0.06395845  0.74777442  1
  O  O8  1  0.95792300  0.07348432  0.01425320  1
  O  O9  1  0.98874658  0.20243404  0.50355745  1
  O  O10  1  0.60795856  0.53627415  0.08204467  1
