# generated using pymatgen
data_Li2MnSb4P3
_symmetry_space_group_name_H-M   'P 1'
_cell_length_a   6.50018080
_cell_length_b   6.56751274
_cell_length_c   7.27522215
_cell_angle_alpha   95.05366586
_cell_angle_beta   91.93094999
_cell_angle_gamma   95.18690036
_symmetry_Int_Tables_number   1
_chemical_formula_structural   Li2MnSb4P3
_chemical_formula_sum   'Li2 Mn1 Sb4 P3'
_cell_volume   307.83341203
_cell_formula_units_Z   1
loop_
 _symmetry_equiv_pos_site_id
 _symmetry_equiv_pos_as_xyz
  1  'x, y, z'
loop_
 _atom_site_type_symbol
 _atom_site_label
 _atom_site_symmetry_multiplicity
 _atom_site_fract_x
 _atom_site_fract_y
 _atom_site_fract_z
 _atom_site_occupancy
  Mn  Mn0  1  0.12500000  0.12500000  0.12500000  1
  Sb  Sb1  1  0.50000000  0.50000000  0.50000000  1
  Sb  Sb2  1  0.25000000  0.25000000  0.25000000  1
  Sb  Sb3  1  0.75000000  0.75000000  0.75000000  1
  Sb  Sb4  1  0.25334386  0.64631074  0.76642773  1
  P  P5  1  0.26880029  0.24409878  0.73582530  1
  P  P6  1  0.20634626  0.58388801  0.73098457  1
  P  P7  1  0.47636229  0.97592561  0.93439533  1
  Li  Li8  1  0.42655680  0.80667186  0.16705519  1
  Li  Li9  1  0.17177581  0.63936572  0.68967553  1
