# generated using pymatgen
data_Li2Mn2Sb4P3
_symmetry_space_group_name_H-M   'P 1'
_cell_length_a   5.71632015
_cell_length_b   6.14882689
_cell_length_c   6.89211660
_cell_angle_alpha   96.91723079
_cell_angle_beta   93.00103416
_cell_angle_gamma   97.14945766
_symmetry_Int_Tables_number   1
_chemical_formula_structural   Li2Mn2Sb4P3
_chemical_formula_sum   'Li2 Mn2 Sb4 P3'
_cell_volume   238.05726554
_cell_formula_units_Z   1
loop_
 _symmetry_equiv_pos_site_id
 _symmetry_equiv_pos_as_xyz
  1  'x, y, z'
loop_
 _atom_site_type_symbol
 _atom_site_label
 _atom_site_symmetry_multiplicity
 _atom_site_fract_x
 _atom_site_fract_y
 _atom_site_fract_z
 _atom_site_occupancy
  Mn  Mn0  1  0.00000000  0.00000000  0.00000000  1
  Mn  Mn1  1  0.50000000  0.50000000  0.50000000  1
  Sb  Sb2  1  0.25000000  0.25000000  0.25000000  1
  Sb  Sb3  1  0.75000000  0.25000000  0.00000000  1
  Sb  Sb4  1  0.25000000  0.75000000  0.50000000  1
  Sb  Sb5  1  0.93717464  0.64866220  0.43560419  1
  P  P6  1  0.37302420  0.55810633  0.92569731  1
  P  P7  1  0.81734722  0.53630491  0.44577213  1
  P  P8  1  0.44148859  0.13475646  0.02297450  1
  Li  Li9  1  0.47229422  0.09150145  0.69842830  1
  Li  Li10  1  0.30214760  0.33904567  0.98291903  1
