# generated using pymatgen
data_LiAs3P3O2
_symmetry_space_group_name_H-M   'P 1'
_cell_length_a   8.30606710
_cell_length_b   8.17491470
_cell_length_c   8.07019370
_cell_angle_alpha   90.18042956
_cell_angle_beta   90.85842906
_cell_angle_gamma   90.20627917
_symmetry_Int_Tables_number   1
_chemical_formula_structural   LiAs3P3O2
_chemical_formula_sum   'Li2 As6 P6 O4'
_cell_volume   547.90950601
_cell_formula_units_Z   2
loop_
 _symmetry_equiv_pos_site_id
 _symmetry_equiv_pos_as_xyz
  1  'x, y, z'
loop_
 _atom_site_type_symbol
 _atom_site_label
 _atom_site_symmetry_multiplicity
 _atom_site_fract_x
 _atom_site_fract_y
 _atom_site_fract_z
 _atom_site_occupancy
  P  P0  1  0.12500000  0.00000000  0.25000000  1
  P  P1  1  0.00000000  0.00000000  0.00000000  1
  P  P2  1  0.37500000  0.00000000  0.25000000  1
  P  P3  1  0.25000000  0.25000000  0.25000000  1
  P  P4  1  0.00000000  0.25000000  0.12500000  1
  P  P5  1  0.28900346  0.56624470  0.50506852  1
  Li  Li6  1  0.03693296  0.51754841  0.50411281  1
  Li  Li7  1  0.94792207  0.59790321  0.71504239  1
  As  As8  1  0.90142509  0.55720725  0.19402354  1
  As  As9  1  0.81337644  0.69544616  0.39510446  1
  As  As10  1  0.03726775  0.72133072  0.73478522  1
  As  As11  1  0.46551411  0.46277317  0.27404412  1
  As  As12  1  0.22745279  0.78706107  0.11334616  1
  As  As13  1  0.52737811  0.28492032  0.41639940  1
  O  O14  1  0.32821371  0.68030954  0.73490208  1
  O  O15  1  0.04705979  0.87311217  0.27684203  1
  O  O16  1  0.20306996  0.79032595  0.51503033  1
  O  O17  1  0.33145432  0.71860798  0.53021791  1
