# generated using pymatgen
data_LiSb4P2N
_symmetry_space_group_name_H-M   'P 1'
_cell_length_a   5.65172337
_cell_length_b   5.90521448
_cell_length_c   6.39439906
_cell_angle_alpha   95.13688171
_cell_angle_beta   92.88581075
_cell_angle_gamma   94.98708867
_symmetry_Int_Tables_number   1
_chemical_formula_structural   LiSb4P2N
_chemical_formula_sum   'Li1 Sb4 P2 N1'
_cell_volume   211.38526386
_cell_formula_units_Z   1
loop_
 _symmetry_equiv_pos_site_id
 _symmetry_equiv_pos_as_xyz
  1  'x, y, z'
loop_
 _atom_site_type_symbol
 _atom_site_label
 _atom_site_symmetry_multiplicity
 _atom_site_fract_x
 _atom_site_fract_y
 _atom_site_fract_z
 _atom_site_occupancy
  N  N0  1  0.00000000  0.00000000  0.00000000  1
  Sb  Sb1  1  0.50000000  0.50000000  0.50000000  1
  Sb  Sb2  1  0.25000000  0.25000000  0.25000000  1
  Sb  Sb3  1  0.75000000  0.25000000  0.00000000  1
  Sb  Sb4  1  0.25000000  0.75000000  0.50000000  1
  P  P5  1  0.16564401  0.66281620  0.59259117  1
  P  P6  1  0.20467946  0.48121151  0.86942466  1
  Li  Li7  1  0.27583645  0.87405159  0.15996755  1
