# generated using pymatgen
data_LiMn3(SbP)3
_symmetry_space_group_name_H-M   'P 1'
_cell_length_a   6.07961781
_cell_length_b   6.47880640
_cell_length_c   6.58473400
_cell_angle_alpha   92.80783309
_cell_angle_beta   90.57416326
_cell_angle_gamma   92.97157020
_symmetry_Int_Tables_number   1
_chemical_formula_structural   LiMn3(SbP)3
_chemical_formula_sum   'Li1 Mn3 Sb3 P3'
_cell_volume   258.68367511
_cell_formula_units_Z   1
loop_
 _symmetry_equiv_pos_site_id
 _symmetry_equiv_pos_as_xyz
  1  'x, y, z'
loop_
 _atom_site_type_symbol
 _atom_site_label
 _atom_site_symmetry_multiplicity
 _atom_site_fract_x
 _atom_site_fract_y
 _atom_site_fract_z
 _atom_site_occupancy
  Mn  Mn0  1  0.00000000  0.00000000  0.00000000  1
  Mn  Mn1  1  0.50000000  0.50000000  0.50000000  1
  Mn  Mn2  1  0.50000000  0.50000000  0.00000000  1
  Sb  Sb3  1  0.50000000  0.00000000  0.50000000  1
  Sb  Sb4  1  0.00000000  0.50000000  0.50000000  1
  Sb  Sb5  1  0.89395982  0.26710210  0.66410452  1
  P  P6  1  0.02747299  0.33315734  0.70095846  1
  P  P7  1  0.83815948  0.36613892  0.40330024  1
  P  P8  1  0.26157121  0.15836024  0.39666040  1
  Li  Li9  1  0.95273525  0.76527902  0.89350336  1
