# generated using pymatgen
data_Li3Ni2Te6(As3I2)2
_symmetry_space_group_name_H-M   'P 1'
_cell_length_a   6.79962789
_cell_length_b   6.62230976
_cell_length_c   8.00298314
_cell_angle_alpha   97.06568705
_cell_angle_beta   98.47700838
_cell_angle_gamma   96.83387720
_symmetry_Int_Tables_number   1
_chemical_formula_structural   Li3Ni2Te6(As3I2)2
_chemical_formula_sum   'Li3 Ni2 Te6 As6 I4'
_cell_volume   350.25582514
_cell_formula_units_Z   1
loop_
 _symmetry_equiv_pos_site_id
 _symmetry_equiv_pos_as_xyz
  1  'x, y, z'
loop_
 _atom_site_type_symbol
 _atom_site_label
 _atom_site_symmetry_multiplicity
 _atom_site_fract_x
 _atom_site_fract_y
 _atom_site_fract_z
 _atom_site_occupancy
  I  I0  1  0.12500000  0.00000000  0.25000000  1
  I  I1  1  0.00000000  0.00000000  0.00000000  1
  I  I2  1  0.37500000  0.00000000  0.25000000  1
  I  I3  1  0.25000000  0.25000000  0.25000000  1
  Li  Li4  1  0.00000000  0.25000000  0.12500000  1
  Li  Li5  1  0.67416016  0.57510112  0.58693562  1
  Li  Li6  1  0.66477649  0.91124922  0.14117445  1
  Ni  Ni7  1  0.38513919  0.48521440  0.62892481  1
  Ni  Ni8  1  0.34459500  0.90298766  0.87966671  1
  Te  Te9  1  0.32312565  0.38007095  0.72175182  1
  Te  Te10  1  0.35926226  0.33136938  0.08036236  1
  Te  Te11  1  0.43463553  0.84471904  0.95092357  1
  Te  Te12  1  0.11722225  0.47863347  0.23027712  1
  Te  Te13  1  0.94475504  0.43054241  0.73684932  1
  Te  Te14  1  0.66292624  0.93564702  0.25891758  1
  As  As15  1  0.39329079  0.60744226  0.03350092  1
  As  As16  1  0.48288993  0.82185945  0.73519456  1
  As  As17  1  0.55786273  0.03100711  0.42789952  1
  As  As18  1  0.57823438  0.92527251  0.17303837  1
  As  As19  1  0.05611668  0.68952937  0.53834097  1
  As  As20  1  0.60831055  0.37137332  0.89855525  1
