# generated using pymatgen
data_Li2TiCu2P4N5
_symmetry_space_group_name_H-M   'P 1'
_cell_length_a   7.65597373
_cell_length_b   7.46858684
_cell_length_c   7.84584471
_cell_angle_alpha   91.53663832
_cell_angle_beta   91.15399750
_cell_angle_gamma   91.57610502
_symmetry_Int_Tables_number   1
_chemical_formula_structural   Li2TiCu2P4N5
_chemical_formula_sum   'Li2 Ti1 Cu2 P4 N5'
_cell_volume   448.19109803
_cell_formula_units_Z   1
loop_
 _symmetry_equiv_pos_site_id
 _symmetry_equiv_pos_as_xyz
  1  'x, y, z'
loop_
 _atom_site_type_symbol
 _atom_site_label
 _atom_site_symmetry_multiplicity
 _atom_site_fract_x
 _atom_site_fract_y
 _atom_site_fract_z
 _atom_site_occupancy
  P  P0  1  0.00000000  0.00000000  0.00000000  1
  P  P1  1  0.50000000  0.50000000  0.50000000  1
  P  P2  1  0.50000000  0.50000000  0.00000000  1
  P  P3  1  0.50000000  0.00000000  0.50000000  1
  Li  Li4  1  0.00000000  0.50000000  0.50000000  1
  Li  Li5  1  0.60996781  0.53371189  0.52855593  1
  Cu  Cu6  1  0.23295259  0.29936220  0.97773609  1
  Cu  Cu7  1  0.03836568  0.47314371  0.68502170  1
  Ti  Ti8  1  0.05140865  0.67511145  0.20631456  1
  N  N9  1  0.90963724  0.56945909  0.48108656  1
  N  N10  1  0.14527657  0.20037949  0.74180575  1
  N  N11  1  0.37504617  0.66758721  0.65706060  1
  N  N12  1  0.16390109  0.95832954  0.02814658  1
  N  N13  1  0.50888642  0.78071257  0.70387672  1
