# generated using pymatgen
data_Li2LuCu2(OF)2
_symmetry_space_group_name_H-M   'P 1'
_cell_length_a   6.42446582
_cell_length_b   6.43878700
_cell_length_c   7.45762858
_cell_angle_alpha   95.86466708
_cell_angle_beta   97.56184335
_cell_angle_gamma   96.97218290
_symmetry_Int_Tables_number   1
_chemical_formula_structural   Li2LuCu2(OF)2
_chemical_formula_sum   'Li2 Lu1 Cu2 O2 F2'
_cell_volume   301.35000906
_cell_formula_units_Z   1
loop_
 _symmetry_equiv_pos_site_id
 _symmetry_equiv_pos_as_xyz
  1  'x, y, z'
loop_
 _atom_site_type_symbol
 _atom_site_label
 _atom_site_symmetry_multiplicity
 _atom_site_fract_x
 _atom_site_fract_y
 _atom_site_fract_z
 _atom_site_occupancy
  Lu  Lu0  1  0.00000000  0.00000000  0.00000000  1
  Li  Li1  1  0.50000000  0.50000000  0.50000000  1
  Li  Li2  1  0.50000000  0.50000000  0.00000000  1
  Cu  Cu3  1  0.50000000  0.00000000  0.50000000  1
  Cu  Cu4  1  0.00000000  0.50000000  0.50000000  1
  F  F5  1  0.44325183  0.31394851  0.93915666  1
  F  F6  1  0.65700872  0.57805423  0.75092245  1
  O  O7  1  0.17692471  0.31630804  0.56815868  1
  O  O8  1  0.12769017  0.02404742  0.44387999  1
