# generated using pymatgen
data_Li2Mn2Sb4P3N5
_symmetry_space_group_name_H-M   'P 1'
_cell_length_a   6.12476807
_cell_length_b   6.52559269
_cell_length_c   7.11359303
_cell_angle_alpha   96.73874660
_cell_angle_beta   91.36472569
_cell_angle_gamma   96.74788701
_symmetry_Int_Tables_number   1
_chemical_formula_structural   Li2Mn2Sb4P3N5
_chemical_formula_sum   'Li2 Mn2 Sb4 P3 N5'
_cell_volume   280.19026370
_cell_formula_units_Z   1
loop_
 _symmetry_equiv_pos_site_id
 _symmetry_equiv_pos_as_xyz
  1  'x, y, z'
loop_
 _atom_site_type_symbol
 _atom_site_label
 _atom_site_symmetry_multiplicity
 _atom_site_fract_x
 _atom_site_fract_y
 _atom_site_fract_z
 _atom_site_occupancy
  N  N0  1  0.00000000  0.00000000  0.00000000  1
  N  N1  1  0.50000000  0.50000000  0.50000000  1
  N  N2  1  0.25000000  0.25000000  0.25000000  1
  N  N3  1  0.75000000  0.25000000  0.00000000  1
  N  N4  1  0.25000000  0.75000000  0.50000000  1
  Mn  Mn5  1  0.60631069  0.66480943  0.49252559  1
  Mn  Mn6  1  0.01330173  0.82650058  0.65266358  1
  Sb  Sb7  1  0.11728520  0.73050569  0.08858684  1
  Sb  Sb8  1  0.80037644  0.68752231  0.35467260  1
  Sb  Sb9  1  0.16162027  0.78668408  0.74064603  1
  Sb  Sb10  1  0.24715831  0.42758618  0.36064958  1
  P  P11  1  0.55993360  0.10122514  0.31465808  1
  P  P12  1  0.48876744  0.53604046  0.51546383  1
  P  P13  1  0.21950224  0.08083279  0.20722560  1
  Li  Li14  1  0.87828869  0.06573920  0.19086603  1
  Li  Li15  1  0.19673363  0.39109166  0.97497913  1
