# generated using pymatgen
data_Li3TiTe6I4N5
_symmetry_space_group_name_H-M   'P 1'
_cell_length_a   8.42744018
_cell_length_b   8.65644603
_cell_length_c   7.53373952
_cell_angle_alpha   90.64306306
_cell_angle_beta   90.22734979
_cell_angle_gamma   90.74587530
_symmetry_Int_Tables_number   1
_chemical_formula_structural   Li3TiTe6I4N5
_chemical_formula_sum   'Li3 Ti1 Te6 I4 N5'
_cell_volume   549.51312906
_cell_formula_units_Z   1
loop_
 _symmetry_equiv_pos_site_id
 _symmetry_equiv_pos_as_xyz
  1  'x, y, z'
loop_
 _atom_site_type_symbol
 _atom_site_label
 _atom_site_symmetry_multiplicity
 _atom_site_fract_x
 _atom_site_fract_y
 _atom_site_fract_z
 _atom_site_occupancy
  I  I0  1  0.12500000  0.00000000  0.25000000  1
  I  I1  1  0.00000000  0.00000000  0.00000000  1
  I  I2  1  0.37500000  0.00000000  0.25000000  1
  I  I3  1  0.25000000  0.25000000  0.25000000  1
  Li  Li4  1  0.00000000  0.25000000  0.12500000  1
  Li  Li5  1  0.51783404  0.72011334  0.40786079  1
  Li  Li6  1  0.53455556  0.71533280  0.75297932  1
  Te  Te7  1  0.81048275  0.69347959  0.11567176  1
  Te  Te8  1  0.41807802  0.87685636  0.92961732  1
  Te  Te9  1  0.85800924  0.03307617  0.99512971  1
  Te  Te10  1  0.66313747  0.92841389  0.44110546  1
  Te  Te11  1  0.11949434  0.65462678  0.14990461  1
  Te  Te12  1  0.50133620  0.49842790  0.36125038  1
  Ti  Ti13  1  0.36728684  0.08490789  0.32016154  1
  N  N14  1  0.47439354  0.76536178  0.99009768  1
  N  N15  1  0.74210472  0.99424599  0.18390017  1
  N  N16  1  0.62145735  0.67566414  0.11919078  1
  N  N17  1  0.07098222  0.16462245  0.45524863  1
  N  N18  1  0.19872694  0.76569655  0.15438101  1
