# generated using pymatgen
data_Li2TiP4F2
_symmetry_space_group_name_H-M   'P 1'
_cell_length_a   7.64693425
_cell_length_b   7.40173727
_cell_length_c   7.57177678
_cell_angle_alpha   90.83274867
_cell_angle_beta   91.93392974
_cell_angle_gamma   90.60355416
_symmetry_Int_Tables_number   1
_chemical_formula_structural   Li2TiP4F2
_chemical_formula_sum   'Li2 Ti1 P4 F2'
_cell_volume   428.25168556
_cell_formula_units_Z   1
loop_
 _symmetry_equiv_pos_site_id
 _symmetry_equiv_pos_as_xyz
  1  'x, y, z'
loop_
 _atom_site_type_symbol
 _atom_site_label
 _atom_site_symmetry_multiplicity
 _atom_site_fract_x
 _atom_site_fract_y
 _atom_site_fract_z
 _atom_site_occupancy
  P  P0  1  0.00000000  0.00000000  0.00000000  1
  P  P1  1  0.50000000  0.50000000  0.50000000  1
  P  P2  1  0.50000000  0.50000000  0.00000000  1
  P  P3  1  0.50000000  0.00000000  0.50000000  1
  Li  Li4  1  0.00000000  0.50000000  0.50000000  1
  Li  Li5  1  0.81475729  0.87286195  0.82081706  1
  F  F6  1  0.51406548  0.07959760  0.38795501  1
  F  F7  1  0.41993984  0.87396200  0.63782437  1
  Ti  Ti8  1  0.05634799  0.75010916  0.06054482  1
