# generated using pymatgen
data_Li2Mn2Sb4P3
_symmetry_space_group_name_H-M   'P 1'
_cell_length_a   6.14790700
_cell_length_b   6.25684679
_cell_length_c   7.20185790
_cell_angle_alpha   94.17562107
_cell_angle_beta   93.22766449
_cell_angle_gamma   94.20357289
_symmetry_Int_Tables_number   1
_chemical_formula_structural   Li2Mn2Sb4P3
_chemical_formula_sum   'Li2 Mn2 Sb4 P3'
_cell_volume   275.02209729
_cell_formula_units_Z   1
loop_
 _symmetry_equiv_pos_site_id
 _symmetry_equiv_pos_as_xyz
  1  'x, y, z'
loop_
 _atom_site_type_symbol
 _atom_site_label
 _atom_site_symmetry_multiplicity
 _atom_site_fract_x
 _atom_site_fract_y
 _atom_site_fract_z
 _atom_site_occupancy
  Mn  Mn0  1  0.00000000  0.00000000  0.00000000  1
  Mn  Mn1  1  0.50000000  0.50000000  0.50000000  1
  Sb  Sb2  1  0.50000000  0.50000000  0.00000000  1
  Sb  Sb3  1  0.50000000  0.00000000  0.50000000  1
  Sb  Sb4  1  0.00000000  0.50000000  0.50000000  1
  Sb  Sb5  1  0.93444831  0.84067713  0.70145705  1
  P  P6  1  0.16585767  0.66432501  0.93675835  1
  P  P7  1  0.88318069  0.76191918  0.60841661  1
  P  P8  1  0.87832352  0.22806016  0.04507592  1
  Li  Li9  1  0.36180493  0.76355036  0.37648601  1
  Li  Li10  1  0.92109690  0.24156075  0.79568438  1
