# generated using pymatgen
data_Li3Lu(As3I2)2
_symmetry_space_group_name_H-M   'P 1'
_cell_length_a   8.12415444
_cell_length_b   7.95355529
_cell_length_c   8.01844248
_cell_angle_alpha   90.99786660
_cell_angle_beta   90.76164488
_cell_angle_gamma   91.15586230
_symmetry_Int_Tables_number   1
_chemical_formula_structural   Li3Lu(As3I2)2
_chemical_formula_sum   'Li3 Lu1 As6 I4'
_cell_volume   517.88673676
_cell_formula_units_Z   1
loop_
 _symmetry_equiv_pos_site_id
 _symmetry_equiv_pos_as_xyz
  1  'x, y, z'
loop_
 _atom_site_type_symbol
 _atom_site_label
 _atom_site_symmetry_multiplicity
 _atom_site_fract_x
 _atom_site_fract_y
 _atom_site_fract_z
 _atom_site_occupancy
  I  I0  1  0.12500000  0.00000000  0.25000000  1
  I  I1  1  0.00000000  0.00000000  0.00000000  1
  I  I2  1  0.37500000  0.00000000  0.25000000  1
  I  I3  1  0.25000000  0.25000000  0.25000000  1
  Lu  Lu4  1  0.00000000  0.25000000  0.12500000  1
  Li  Li5  1  0.21605103  0.14498524  0.39841746  1
  Li  Li6  1  0.97407296  0.65583723  0.42821649  1
  Li  Li7  1  0.00102441  0.24734257  0.49567385  1
  As  As8  1  0.70325134  0.24271591  0.04126119  1
  As  As9  1  0.60776102  0.03649308  0.18917683  1
  As  As10  1  0.15711673  0.69997871  0.93873680  1
  As  As11  1  0.85870740  0.51172517  0.34057756  1
  As  As12  1  0.90554887  0.87556425  0.48090668  1
  As  As13  1  0.05126233  0.13220379  0.09197502  1
