# generated using pymatgen
data_LiMo2P3F4
_symmetry_space_group_name_H-M   'P 1'
_cell_length_a   3.77357024
_cell_length_b   3.64162719
_cell_length_c   5.51857167
_cell_angle_alpha   95.70535030
_cell_angle_beta   94.43443319
_cell_angle_gamma   95.46499542
_symmetry_Int_Tables_number   1
_chemical_formula_structural   LiMo2P3F4
_chemical_formula_sum   'Li1 Mo2 P3 F4'
_cell_volume   74.82831219
_cell_formula_units_Z   1
loop_
 _symmetry_equiv_pos_site_id
 _symmetry_equiv_pos_as_xyz
  1  'x, y, z'
loop_
 _atom_site_type_symbol
 _atom_site_label
 _atom_site_symmetry_multiplicity
 _atom_site_fract_x
 _atom_site_fract_y
 _atom_site_fract_z
 _atom_site_occupancy
  F  F0  1  0.00000000  0.00000000  0.00000000  1
  F  F1  1  0.33300000  0.66700000  0.25000000  1
  F  F2  1  0.66700000  0.33300000  0.50000000  1
  F  F3  1  0.00000000  0.00000000  0.75000000  1
  P  P4  1  0.21617773  0.91154221  0.70892923  1
  P  P5  1  0.12745211  0.15515680  0.62892390  1
  P  P6  1  0.30603646  0.56235709  0.13956010  1
  Mo  Mo7  1  0.66384497  0.28136588  0.14050166  1
  Mo  Mo8  1  0.28216939  0.10378279  0.10095583  1
  Li  Li9  1  0.70121831  0.31927339  0.95967278  1
