# generated using pymatgen
data_Li2Mn2Sb4P3N5
_symmetry_space_group_name_H-M   'P 1'
_cell_length_a   7.41185296
_cell_length_b   8.02794689
_cell_length_c   7.70517024
_cell_angle_alpha   90.69684625
_cell_angle_beta   90.82547877
_cell_angle_gamma   90.79309707
_symmetry_Int_Tables_number   1
_chemical_formula_structural   Li2Mn2Sb4P3N5
_chemical_formula_sum   'Li2 Mn2 Sb4 P3 N5'
_cell_volume   458.34620996
_cell_formula_units_Z   1
loop_
 _symmetry_equiv_pos_site_id
 _symmetry_equiv_pos_as_xyz
  1  'x, y, z'
loop_
 _atom_site_type_symbol
 _atom_site_label
 _atom_site_symmetry_multiplicity
 _atom_site_fract_x
 _atom_site_fract_y
 _atom_site_fract_z
 _atom_site_occupancy
  N  N0  1  0.12500000  0.00000000  0.25000000  1
  N  N1  1  0.00000000  0.00000000  0.00000000  1
  N  N2  1  0.37500000  0.00000000  0.25000000  1
  N  N3  1  0.25000000  0.25000000  0.25000000  1
  N  N4  1  0.00000000  0.25000000  0.12500000  1
  Mn  Mn5  1  0.34517112  0.10219000  0.34360369  1
  Mn  Mn6  1  0.17435714  0.24001933  0.66770472  1
  Sb  Sb7  1  0.19505926  0.41208088  0.50206474  1
  Sb  Sb8  1  0.85788302  0.57152512  0.10078435  1
  Sb  Sb9  1  0.54747548  0.61888676  0.30915326  1
  Sb  Sb10  1  0.56630662  0.75216300  0.51335782  1
  P  P11  1  0.25363982  0.91432120  0.39851032  1
  P  P12  1  0.26969277  0.98308909  0.15284975  1
  P  P13  1  0.63802056  0.64984853  0.77977348  1
  Li  Li14  1  0.68529468  0.01164101  0.21386845  1
  Li  Li15  1  0.42890154  0.10181870  0.91138190  1
