# generated using pymatgen
data_Li2Ti2Cu2(As2P)3
_symmetry_space_group_name_H-M   'P 1'
_cell_length_a   6.38385210
_cell_length_b   6.18246473
_cell_length_c   7.40220582
_cell_angle_alpha   92.92349094
_cell_angle_beta   95.55642042
_cell_angle_gamma   92.78651313
_symmetry_Int_Tables_number   1
_chemical_formula_structural   Li2Ti2Cu2(As2P)3
_chemical_formula_sum   'Li2 Ti2 Cu2 As6 P3'
_cell_volume   289.97690169
_cell_formula_units_Z   1
loop_
 _symmetry_equiv_pos_site_id
 _symmetry_equiv_pos_as_xyz
  1  'x, y, z'
loop_
 _atom_site_type_symbol
 _atom_site_label
 _atom_site_symmetry_multiplicity
 _atom_site_fract_x
 _atom_site_fract_y
 _atom_site_fract_z
 _atom_site_occupancy
  Ti  Ti0  1  0.00000000  0.00000000  0.00000000  1
  Ti  Ti1  1  0.50000000  0.50000000  0.50000000  1
  P  P2  1  0.25000000  0.25000000  0.25000000  1
  P  P3  1  0.75000000  0.25000000  0.00000000  1
  P  P4  1  0.25000000  0.75000000  0.50000000  1
  As  As5  1  0.43738777  0.63242173  0.84000623  1
  As  As6  1  0.21041668  0.05453337  0.05517723  1
  As  As7  1  0.25812005  0.90110462  0.58134611  1
  As  As8  1  0.83894163  0.35055134  0.48400346  1
  As  As9  1  0.76316535  0.85950498  0.71464806  1
  As  As10  1  0.90121067  0.12553900  0.17605029  1
  Li  Li11  1  0.76277125  0.59353570  0.70452642  1
  Li  Li12  1  0.24184604  0.38156810  0.61810164  1
  Cu  Cu13  1  0.17048518  0.03087696  0.71994976  1
  Cu  Cu14  1  0.17817854  0.20780930  0.87360987  1
