# generated using pymatgen
data_Li3TiP3I4O3
_symmetry_space_group_name_H-M   'P 1'
_cell_length_a   7.67253008
_cell_length_b   7.44800554
_cell_length_c   7.10248022
_cell_angle_alpha   92.65427439
_cell_angle_beta   93.04553728
_cell_angle_gamma   92.39687572
_symmetry_Int_Tables_number   1
_chemical_formula_structural   Li3TiP3I4O3
_chemical_formula_sum   'Li3 Ti1 P3 I4 O3'
_cell_volume   404.46438010
_cell_formula_units_Z   1
loop_
 _symmetry_equiv_pos_site_id
 _symmetry_equiv_pos_as_xyz
  1  'x, y, z'
loop_
 _atom_site_type_symbol
 _atom_site_label
 _atom_site_symmetry_multiplicity
 _atom_site_fract_x
 _atom_site_fract_y
 _atom_site_fract_z
 _atom_site_occupancy
  I  I0  1  0.12500000  0.00000000  0.25000000  1
  I  I1  1  0.00000000  0.00000000  0.00000000  1
  I  I2  1  0.37500000  0.00000000  0.25000000  1
  I  I3  1  0.25000000  0.25000000  0.25000000  1
  P  P4  1  0.00000000  0.25000000  0.12500000  1
  P  P5  1  0.47122975  0.02256503  0.29314554  1
  P  P6  1  0.33028994  0.24962728  0.20806414  1
  Li  Li7  1  0.56531370  0.42091642  0.39903822  1
  Li  Li8  1  0.96442749  0.74700758  0.64317732  1
  Li  Li9  1  0.19649876  0.33922363  0.76358164  1
  Ti  Ti10  1  0.58767615  0.61564172  0.67591379  1
  O  O11  1  0.96888007  0.40049912  0.30914843  1
  O  O12  1  0.65555588  0.27405558  0.54504712  1
  O  O13  1  0.61609151  0.17687803  0.58979721  1
