# generated using pymatgen
data_Li3TiNi2As6N5
_symmetry_space_group_name_H-M   'P 1'
_cell_length_a   7.94274279
_cell_length_b   7.72522913
_cell_length_c   8.53805289
_cell_angle_alpha   91.74031470
_cell_angle_beta   90.83166108
_cell_angle_gamma   92.01773819
_symmetry_Int_Tables_number   1
_chemical_formula_structural   Li3TiNi2As6N5
_chemical_formula_sum   'Li3 Ti1 Ni2 As6 N5'
_cell_volume   523.26070890
_cell_formula_units_Z   1
loop_
 _symmetry_equiv_pos_site_id
 _symmetry_equiv_pos_as_xyz
  1  'x, y, z'
loop_
 _atom_site_type_symbol
 _atom_site_label
 _atom_site_symmetry_multiplicity
 _atom_site_fract_x
 _atom_site_fract_y
 _atom_site_fract_z
 _atom_site_occupancy
  Li  Li0  1  0.12500000  0.00000000  0.25000000  1
  Li  Li1  1  0.00000000  0.00000000  0.00000000  1
  Li  Li2  1  0.37500000  0.00000000  0.25000000  1
  Ni  Ni3  1  0.25000000  0.25000000  0.25000000  1
  Ni  Ni4  1  0.00000000  0.25000000  0.12500000  1
  Ti  Ti5  1  0.82932563  0.13992452  0.07223064  1
  As  As6  1  0.18200769  0.83366259  0.00229622  1
  As  As7  1  0.11479571  0.04526163  0.95579212  1
  As  As8  1  0.44495429  0.15124824  0.90636361  1
  As  As9  1  0.54969877  0.06778662  0.80522509  1
  As  As10  1  0.01993425  0.94364003  0.04079899  1
  As  As11  1  0.78114502  0.44205682  0.22820161  1
  N  N12  1  0.25755992  0.01250272  0.77385902  1
  N  N13  1  0.78660968  0.74526860  0.08188873  1
  N  N14  1  0.89589403  0.60943894  0.63867060  1
  N  N15  1  0.96050321  0.21784130  0.96667924  1
  N  N16  1  0.56630052  0.96398645  0.08734649  1
