# generated using pymatgen
data_Li2MnSb4Mo2P3
_symmetry_space_group_name_H-M   'P 1'
_cell_length_a   5.27814647
_cell_length_b   5.64985569
_cell_length_c   6.72493236
_cell_angle_alpha   98.62448473
_cell_angle_beta   93.59898959
_cell_angle_gamma   98.89415012
_symmetry_Int_Tables_number   1
_chemical_formula_structural   Li2MnSb4Mo2P3
_chemical_formula_sum   'Li2 Mn1 Sb4 Mo2 P3'
_cell_volume   195.13090141
_cell_formula_units_Z   1
loop_
 _symmetry_equiv_pos_site_id
 _symmetry_equiv_pos_as_xyz
  1  'x, y, z'
loop_
 _atom_site_type_symbol
 _atom_site_label
 _atom_site_symmetry_multiplicity
 _atom_site_fract_x
 _atom_site_fract_y
 _atom_site_fract_z
 _atom_site_occupancy
  Mn  Mn0  1  0.00000000  0.00000000  0.00000000  1
  Sb  Sb1  1  0.50000000  0.50000000  0.50000000  1
  Sb  Sb2  1  0.25000000  0.25000000  0.25000000  1
  Sb  Sb3  1  0.75000000  0.25000000  0.00000000  1
  Sb  Sb4  1  0.25000000  0.75000000  0.50000000  1
  P  P5  1  0.89509006  0.84477592  0.62267449  1
  P  P6  1  0.99989582  0.56314050  0.20976991  1
  P  P7  1  0.30217305  0.99017071  0.77096071  1
  Mo  Mo8  1  0.39112793  0.46780991  0.85761977  1
  Mo  Mo9  1  0.80523692  0.01275219  0.73907528  1
  Li  Li10  1  0.55620565  0.03434818  0.37965321  1
  Li  Li11  1  0.31205269  0.32036038  0.07216923  1
