# generated using pymatgen
data_Li2Sb4P3
_symmetry_space_group_name_H-M   'P 1'
_cell_length_a   6.71495084
_cell_length_b   6.99966135
_cell_length_c   7.08403768
_cell_angle_alpha   95.41752008
_cell_angle_beta   91.59218226
_cell_angle_gamma   95.62165674
_symmetry_Int_Tables_number   1
_chemical_formula_structural   Li2Sb4P3
_chemical_formula_sum   'Li2 Sb4 P3'
_cell_volume   329.65451506
_cell_formula_units_Z   1
loop_
 _symmetry_equiv_pos_site_id
 _symmetry_equiv_pos_as_xyz
  1  'x, y, z'
loop_
 _atom_site_type_symbol
 _atom_site_label
 _atom_site_symmetry_multiplicity
 _atom_site_fract_x
 _atom_site_fract_y
 _atom_site_fract_z
 _atom_site_occupancy
  Sb  Sb0  1  0.12500000  0.12500000  0.12500000  1
  Sb  Sb1  1  0.50000000  0.50000000  0.50000000  1
  Sb  Sb2  1  0.25000000  0.25000000  0.25000000  1
  Sb  Sb3  1  0.75000000  0.75000000  0.75000000  1
  P  P4  1  0.08537534  0.86101536  0.44782086  1
  P  P5  1  0.77851749  0.52849487  0.97667283  1
  P  P6  1  0.75401880  0.89288121  0.19471009  1
  Li  Li7  1  0.51675841  0.28201328  0.42358628  1
  Li  Li8  1  0.29151161  0.71130049  0.61454446  1
