# generated using pymatgen
data_Li3LuCu2(NiP2)2
_symmetry_space_group_name_H-M   'P 1'
_cell_length_a   7.46262223
_cell_length_b   7.24958283
_cell_length_c   8.17679343
_cell_angle_alpha   92.49664220
_cell_angle_beta   92.15972683
_cell_angle_gamma   92.74246729
_symmetry_Int_Tables_number   1
_chemical_formula_structural   Li3LuCu2(NiP2)2
_chemical_formula_sum   'Li3 Lu1 Cu2 Ni2 P4'
_cell_volume   441.09507673
_cell_formula_units_Z   1
loop_
 _symmetry_equiv_pos_site_id
 _symmetry_equiv_pos_as_xyz
  1  'x, y, z'
loop_
 _atom_site_type_symbol
 _atom_site_label
 _atom_site_symmetry_multiplicity
 _atom_site_fract_x
 _atom_site_fract_y
 _atom_site_fract_z
 _atom_site_occupancy
  P  P0  1  0.00000000  0.00000000  0.00000000  1
  P  P1  1  0.50000000  0.50000000  0.50000000  1
  P  P2  1  0.50000000  0.50000000  0.00000000  1
  P  P3  1  0.50000000  0.00000000  0.50000000  1
  Lu  Lu4  1  0.00000000  0.50000000  0.50000000  1
  Li  Li5  1  0.52308812  0.53183556  0.92324357  1
  Li  Li6  1  0.41512018  0.94657798  0.35365367  1
  Li  Li7  1  0.92168520  0.88770217  0.41894098  1
  Cu  Cu8  1  0.22028150  0.75195417  0.93883091  1
  Cu  Cu9  1  0.05679420  0.27092325  0.83757552  1
  Ni  Ni10  1  0.85198940  0.91340642  0.92432357  1
  Ni  Ni11  1  0.43808023  0.31714049  0.04677450  1
