# generated using pymatgen
data_Li3Cu2As6P7O3
_symmetry_space_group_name_H-M   'P 1'
_cell_length_a   7.58676858
_cell_length_b   7.52466332
_cell_length_c   8.27306652
_cell_angle_alpha   92.28802009
_cell_angle_beta   93.95470375
_cell_angle_gamma   92.18953646
_symmetry_Int_Tables_number   1
_chemical_formula_structural   Li3Cu2As6P7O3
_chemical_formula_sum   'Li3 Cu2 As6 P7 O3'
_cell_volume   470.39401819
_cell_formula_units_Z   1
loop_
 _symmetry_equiv_pos_site_id
 _symmetry_equiv_pos_as_xyz
  1  'x, y, z'
loop_
 _atom_site_type_symbol
 _atom_site_label
 _atom_site_symmetry_multiplicity
 _atom_site_fract_x
 _atom_site_fract_y
 _atom_site_fract_z
 _atom_site_occupancy
  P  P0  1  0.00000000  0.00000000  0.00000000  1
  P  P1  1  0.50000000  0.50000000  0.50000000  1
  P  P2  1  0.25000000  0.25000000  0.25000000  1
  P  P3  1  0.75000000  0.25000000  0.00000000  1
  P  P4  1  0.25000000  0.75000000  0.50000000  1
  P  P5  1  0.76311131  0.20674030  0.88979657  1
  P  P6  1  0.85034813  0.52589597  0.18584696  1
  Li  Li7  1  0.02122042  0.13053511  0.05313295  1
  Li  Li8  1  0.50041660  0.10913940  0.78542903  1
  Li  Li9  1  0.82622627  0.92197160  0.28747119  1
  Cu  Cu10  1  0.25997562  0.05035950  0.49107070  1
  Cu  Cu11  1  0.74138139  0.13012899  0.87025472  1
  As  As12  1  0.42761169  0.61797501  0.89835977  1
  As  As13  1  0.36391517  0.06319520  0.96291974  1
  As  As14  1  0.83263879  0.69318827  0.11152609  1
  As  As15  1  0.63429549  0.05444331  0.88092753  1
  As  As16  1  0.57443200  0.06614344  0.26905556  1
  As  As17  1  0.73593812  0.74491160  0.53817395  1
  O  O18  1  0.11269011  0.21404256  0.77303646  1
  O  O19  1  0.86233315  0.23817715  0.20624884  1
  O  O20  1  0.15517513  0.63809411  0.56600400  1
