# generated using pymatgen
data_LiMn2Sb4P3
_symmetry_space_group_name_H-M   'P 1'
_cell_length_a   7.01004593
_cell_length_b   7.56480001
_cell_length_c   7.27736328
_cell_angle_alpha   91.69802774
_cell_angle_beta   91.05207476
_cell_angle_gamma   91.76448076
_symmetry_Int_Tables_number   1
_chemical_formula_structural   LiMn2Sb4P3
_chemical_formula_sum   'Li1 Mn2 Sb4 P3'
_cell_volume   385.49151300
_cell_formula_units_Z   1
loop_
 _symmetry_equiv_pos_site_id
 _symmetry_equiv_pos_as_xyz
  1  'x, y, z'
loop_
 _atom_site_type_symbol
 _atom_site_label
 _atom_site_symmetry_multiplicity
 _atom_site_fract_x
 _atom_site_fract_y
 _atom_site_fract_z
 _atom_site_occupancy
  Mn  Mn0  1  0.12500000  0.00000000  0.25000000  1
  Mn  Mn1  1  0.00000000  0.00000000  0.00000000  1
  Sb  Sb2  1  0.37500000  0.00000000  0.25000000  1
  Sb  Sb3  1  0.25000000  0.25000000  0.25000000  1
  Sb  Sb4  1  0.00000000  0.25000000  0.12500000  1
  Sb  Sb5  1  0.72421782  0.24150458  0.58474120  1
  P  P6  1  0.23531355  0.06522641  0.78153664  1
  P  P7  1  0.72354237  0.19724596  0.58121775  1
  P  P8  1  0.54940128  0.13217343  0.54208516  1
  Li  Li9  1  0.59864412  0.66478508  0.93082608  1
