# generated using pymatgen
data_LiMn3(SbP)3
_symmetry_space_group_name_H-M   'P 1'
_cell_length_a   6.45008393
_cell_length_b   6.94135295
_cell_length_c   6.92985359
_cell_angle_alpha   93.21979983
_cell_angle_beta   90.74230119
_cell_angle_gamma   93.30475229
_symmetry_Int_Tables_number   1
_chemical_formula_structural   LiMn3(SbP)3
_chemical_formula_sum   'Li1 Mn3 Sb3 P3'
_cell_volume   309.21980799
_cell_formula_units_Z   1
loop_
 _symmetry_equiv_pos_site_id
 _symmetry_equiv_pos_as_xyz
  1  'x, y, z'
loop_
 _atom_site_type_symbol
 _atom_site_label
 _atom_site_symmetry_multiplicity
 _atom_site_fract_x
 _atom_site_fract_y
 _atom_site_fract_z
 _atom_site_occupancy
  Mn  Mn0  1  0.00000000  0.00000000  0.00000000  1
  Mn  Mn1  1  0.33300000  0.66700000  0.25000000  1
  Mn  Mn2  1  0.66700000  0.33300000  0.50000000  1
  Sb  Sb3  1  0.00000000  0.00000000  0.75000000  1
  Sb  Sb4  1  0.06797032  0.02632250  0.23997080  1
  Sb  Sb5  1  0.59499380  0.93367999  0.22407491  1
  P  P6  1  0.27981453  0.86573288  0.33422521  1
  P  P7  1  0.30582738  0.65427279  0.85261035  1
  P  P8  1  0.83156998  0.14915572  0.81674542  1
  Li  Li9  1  0.28041012  0.05248654  0.79348553  1
