# generated using pymatgen
data_Li3Ti2Se(O2F)2
_symmetry_space_group_name_H-M   'P 1'
_cell_length_a   5.26779877
_cell_length_b   5.14184214
_cell_length_c   7.06129615
_cell_angle_alpha   97.26176246
_cell_angle_beta   103.03287623
_cell_angle_gamma   97.02794584
_symmetry_Int_Tables_number   1
_chemical_formula_structural   Li3Ti2Se(O2F)2
_chemical_formula_sum   'Li3 Ti2 Se1 O4 F2'
_cell_volume   182.57629795
_cell_formula_units_Z   1
loop_
 _symmetry_equiv_pos_site_id
 _symmetry_equiv_pos_as_xyz
  1  'x, y, z'
loop_
 _atom_site_type_symbol
 _atom_site_label
 _atom_site_symmetry_multiplicity
 _atom_site_fract_x
 _atom_site_fract_y
 _atom_site_fract_z
 _atom_site_occupancy
  Li  Li0  1  0.12500000  0.00000000  0.25000000  1
  Li  Li1  1  0.00000000  0.00000000  0.00000000  1
  Li  Li2  1  0.37500000  0.00000000  0.25000000  1
  Se  Se3  1  0.25000000  0.25000000  0.25000000  1
  F  F4  1  0.00000000  0.25000000  0.12500000  1
  F  F5  1  0.47859755  0.88038872  0.46952881  1
  Ti  Ti6  1  0.16472031  0.67837581  0.97182394  1
  Ti  Ti7  1  0.80378657  0.93671825  0.54458917  1
  O  O8  1  0.56879984  0.06966268  0.67946577  1
  O  O9  1  0.18896389  0.59782216  0.91839317  1
  O  O10  1  0.76812133  0.94127710  0.82906187  1
  O  O11  1  0.72684718  0.78860794  0.13505348  1
