# generated using pymatgen
data_Li3TiI4O3
_symmetry_space_group_name_H-M   'P 1'
_cell_length_a   7.03367354
_cell_length_b   6.83402639
_cell_length_c   7.11260400
_cell_angle_alpha   96.21176243
_cell_angle_beta   98.24311195
_cell_angle_gamma   95.83970379
_symmetry_Int_Tables_number   1
_chemical_formula_structural   Li3TiI4O3
_chemical_formula_sum   'Li3 Ti1 I4 O3'
_cell_volume   333.97451653
_cell_formula_units_Z   1
loop_
 _symmetry_equiv_pos_site_id
 _symmetry_equiv_pos_as_xyz
  1  'x, y, z'
loop_
 _atom_site_type_symbol
 _atom_site_label
 _atom_site_symmetry_multiplicity
 _atom_site_fract_x
 _atom_site_fract_y
 _atom_site_fract_z
 _atom_site_occupancy
  I  I0  1  0.12500000  0.00000000  0.25000000  1
  I  I1  1  0.00000000  0.00000000  0.00000000  1
  I  I2  1  0.37500000  0.00000000  0.25000000  1
  I  I3  1  0.25000000  0.25000000  0.25000000  1
  Li  Li4  1  0.00000000  0.25000000  0.12500000  1
  Li  Li5  1  0.17094490  0.66476539  0.42389851  1
  Li  Li6  1  0.41757111  0.28076346  0.87883319  1
  Ti  Ti7  1  0.10899111  0.42123720  0.72481275  1
  O  O8  1  0.97703692  0.13667626  0.04434461  1
  O  O9  1  0.59923208  0.86517881  0.56918573  1
  O  O10  1  0.56552016  0.31666629  0.85093938  1
