# generated using pymatgen
data_Li3Lu(NiAs3)2
_symmetry_space_group_name_H-M   'P 1'
_cell_length_a   7.62719333
_cell_length_b   7.42190112
_cell_length_c   8.45457825
_cell_angle_alpha   91.69721365
_cell_angle_beta   91.29543778
_cell_angle_gamma   91.96593941
_symmetry_Int_Tables_number   1
_chemical_formula_structural   Li3Lu(NiAs3)2
_chemical_formula_sum   'Li3 Lu1 Ni2 As6'
_cell_volume   477.97384095
_cell_formula_units_Z   1
loop_
 _symmetry_equiv_pos_site_id
 _symmetry_equiv_pos_as_xyz
  1  'x, y, z'
loop_
 _atom_site_type_symbol
 _atom_site_label
 _atom_site_symmetry_multiplicity
 _atom_site_fract_x
 _atom_site_fract_y
 _atom_site_fract_z
 _atom_site_occupancy
  Lu  Lu0  1  0.00000000  0.00000000  0.00000000  1
  Li  Li1  1  0.50000000  0.50000000  0.50000000  1
  Li  Li2  1  0.25000000  0.25000000  0.25000000  1
  Li  Li3  1  0.75000000  0.25000000  0.00000000  1
  Ni  Ni4  1  0.25000000  0.75000000  0.50000000  1
  Ni  Ni5  1  0.65687075  0.24247303  0.60820660  1
  As  As6  1  0.94683791  0.68528805  0.83145878  1
  As  As7  1  0.98849846  0.78183750  0.80094235  1
  As  As8  1  0.03214586  0.56101493  0.76972142  1
  As  As9  1  0.87016855  0.16170483  0.38529452  1
  As  As10  1  0.03828681  0.04312504  0.57789690  1
  As  As11  1  0.37756021  0.60207925  0.78548419  1
