# generated using pymatgen
data_Li2Mn2Sb4P2N
_symmetry_space_group_name_H-M   'P 1'
_cell_length_a   5.40610775
_cell_length_b   5.65852230
_cell_length_c   6.38191541
_cell_angle_alpha   98.60636577
_cell_angle_beta   95.38558593
_cell_angle_gamma   97.19619435
_symmetry_Int_Tables_number   1
_chemical_formula_structural   Li2Mn2Sb4P2N
_chemical_formula_sum   'Li2 Mn2 Sb4 P2 N1'
_cell_volume   190.24181604
_cell_formula_units_Z   1
loop_
 _symmetry_equiv_pos_site_id
 _symmetry_equiv_pos_as_xyz
  1  'x, y, z'
loop_
 _atom_site_type_symbol
 _atom_site_label
 _atom_site_symmetry_multiplicity
 _atom_site_fract_x
 _atom_site_fract_y
 _atom_site_fract_z
 _atom_site_occupancy
  N  N0  1  0.00000000  0.00000000  0.00000000  1
  Mn  Mn1  1  0.50000000  0.50000000  0.50000000  1
  Mn  Mn2  1  0.50000000  0.50000000  0.00000000  1
  Sb  Sb3  1  0.50000000  0.00000000  0.50000000  1
  Sb  Sb4  1  0.00000000  0.50000000  0.50000000  1
  Sb  Sb5  1  0.46881878  0.45354687  0.42189911  1
  Sb  Sb6  1  0.53245962  0.39337594  0.02438883  1
  P  P7  1  0.07675471  0.35857690  0.82731528  1
  P  P8  1  0.84011465  0.57776143  0.07609295  1
  Li  Li9  1  0.55536598  0.82036477  0.27306646  1
  Li  Li10  1  0.35066649  0.54175672  0.99808792  1
