# generated using pymatgen
data_Li4TiP4O4F3
_symmetry_space_group_name_H-M   'P 1'
_cell_length_a   5.46522357
_cell_length_b   5.14956332
_cell_length_c   7.19596232
_cell_angle_alpha   101.20978350
_cell_angle_beta   103.57287967
_cell_angle_gamma   100.52160320
_symmetry_Int_Tables_number   1
_chemical_formula_structural   Li4TiP4O4F3
_chemical_formula_sum   'Li4 Ti1 P4 O4 F3'
_cell_volume   187.49486065
_cell_formula_units_Z   1
loop_
 _symmetry_equiv_pos_site_id
 _symmetry_equiv_pos_as_xyz
  1  'x, y, z'
loop_
 _atom_site_type_symbol
 _atom_site_label
 _atom_site_symmetry_multiplicity
 _atom_site_fract_x
 _atom_site_fract_y
 _atom_site_fract_z
 _atom_site_occupancy
  P  P0  1  0.00000000  0.00000000  0.00000000  1
  P  P1  1  0.50000000  0.50000000  0.50000000  1
  P  P2  1  0.25000000  0.25000000  0.25000000  1
  P  P3  1  0.75000000  0.25000000  0.00000000  1
  Li  Li4  1  0.25000000  0.75000000  0.50000000  1
  Li  Li5  1  0.02676728  0.10737530  0.50684113  1
  Li  Li6  1  0.59052351  0.59355628  0.12093117  1
  Li  Li7  1  0.22461937  0.10458252  0.29077211  1
  F  F8  1  0.49899913  0.88509120  0.71798498  1
  F  F9  1  0.76897923  0.14253299  0.22020207  1
  F  F10  1  0.82146858  0.23400570  0.49535748  1
  Ti  Ti11  1  0.96630964  0.55387627  0.03716208  1
  O  O12  1  0.10423114  0.34595782  0.72623193  1
  O  O13  1  0.07449140  0.07963472  0.19242494  1
  O  O14  1  0.35094553  0.62617744  0.32879206  1
  O  O15  1  0.87802424  0.40328782  0.52139534  1
