# generated using pymatgen
data_LiMn(Sb2P)2
_symmetry_space_group_name_H-M   'P 1'
_cell_length_a   4.87474212
_cell_length_b   5.12966085
_cell_length_c   6.27357728
_cell_angle_alpha   99.05092213
_cell_angle_beta   94.94692912
_cell_angle_gamma   97.88246776
_symmetry_Int_Tables_number   1
_chemical_formula_structural   LiMn(Sb2P)2
_chemical_formula_sum   'Li1 Mn1 Sb4 P2'
_cell_volume   152.52381670
_cell_formula_units_Z   1
loop_
 _symmetry_equiv_pos_site_id
 _symmetry_equiv_pos_as_xyz
  1  'x, y, z'
loop_
 _atom_site_type_symbol
 _atom_site_label
 _atom_site_symmetry_multiplicity
 _atom_site_fract_x
 _atom_site_fract_y
 _atom_site_fract_z
 _atom_site_occupancy
  Mn  Mn0  1  0.00000000  0.00000000  0.00000000  1
  Sb  Sb1  1  0.33300000  0.66700000  0.25000000  1
  Sb  Sb2  1  0.66700000  0.33300000  0.50000000  1
  Sb  Sb3  1  0.00000000  0.00000000  0.75000000  1
  Sb  Sb4  1  0.47651835  0.44480191  0.81221658  1
  P  P5  1  0.21143433  0.12650373  0.34636901  1
  P  P6  1  0.69955909  0.47661193  0.20725343  1
  Li  Li7  1  0.01999061  0.09572906  0.76522057  1
