# generated using pymatgen
data_Li3Ni2Te6(AsO)6
_symmetry_space_group_name_H-M   'P 1'
_cell_length_a   6.91605859
_cell_length_b   6.74310031
_cell_length_c   8.12856866
_cell_angle_alpha   96.69889143
_cell_angle_beta   98.18129093
_cell_angle_gamma   96.42786307
_symmetry_Int_Tables_number   1
_chemical_formula_structural   Li3Ni2Te6(AsO)6
_chemical_formula_sum   'Li3 Ni2 Te6 As6 O6'
_cell_volume   369.46162053
_cell_formula_units_Z   1
loop_
 _symmetry_equiv_pos_site_id
 _symmetry_equiv_pos_as_xyz
  1  'x, y, z'
loop_
 _atom_site_type_symbol
 _atom_site_label
 _atom_site_symmetry_multiplicity
 _atom_site_fract_x
 _atom_site_fract_y
 _atom_site_fract_z
 _atom_site_occupancy
  Li  Li0  1  0.00000000  0.00000000  0.00000000  1
  Li  Li1  1  0.50000000  0.50000000  0.50000000  1
  Li  Li2  1  0.50000000  0.50000000  0.00000000  1
  Ni  Ni3  1  0.50000000  0.00000000  0.50000000  1
  Ni  Ni4  1  0.00000000  0.50000000  0.50000000  1
  Te  Te5  1  0.62675894  0.19369350  0.20926586  1
  Te  Te6  1  0.56048383  0.78880541  0.09032176  1
  Te  Te7  1  0.91278970  0.42478635  0.63534830  1
  Te  Te8  1  0.57881718  0.68034836  0.40373463  1
  Te  Te9  1  0.57233015  0.57082519  0.57278732  1
  Te  Te10  1  0.77363888  0.71104658  0.59447837  1
  As  As11  1  0.08390491  0.76338722  0.78070225  1
  As  As12  1  0.34461947  0.68646503  0.68077191  1
  As  As13  1  0.49581813  0.99174687  0.89758819  1
  As  As14  1  0.72844605  0.99169316  0.23233963  1
  As  As15  1  0.67584562  0.90506953  0.94944600  1
  As  As16  1  0.48433412  0.55734271  0.83879556  1
  O  O17  1  0.17658383  0.05799757  0.92918763  1
  O  O18  1  0.83406118  0.90718099  0.95310731  1
  O  O19  1  0.37923824  0.28692411  0.52495240  1
  O  O20  1  0.00344457  0.75489241  0.66764241  1
  O  O21  1  0.67761968  0.75847029  0.07285392  1
  O  O22  1  0.42808623  0.70355297  0.67086451  1
