# generated using pymatgen
data_LiMn2Sb4P3
_symmetry_space_group_name_H-M   'P 1'
_cell_length_a   5.98065579
_cell_length_b   6.26205079
_cell_length_c   6.83444484
_cell_angle_alpha   93.32722219
_cell_angle_beta   92.93323104
_cell_angle_gamma   93.86108840
_symmetry_Int_Tables_number   1
_chemical_formula_structural   LiMn2Sb4P3
_chemical_formula_sum   'Li1 Mn2 Sb4 P3'
_cell_volume   254.55641215
_cell_formula_units_Z   1
loop_
 _symmetry_equiv_pos_site_id
 _symmetry_equiv_pos_as_xyz
  1  'x, y, z'
loop_
 _atom_site_type_symbol
 _atom_site_label
 _atom_site_symmetry_multiplicity
 _atom_site_fract_x
 _atom_site_fract_y
 _atom_site_fract_z
 _atom_site_occupancy
  Mn  Mn0  1  0.00000000  0.00000000  0.00000000  1
  Mn  Mn1  1  0.33300000  0.66700000  0.25000000  1
  Sb  Sb2  1  0.66700000  0.33300000  0.50000000  1
  Sb  Sb3  1  0.00000000  0.00000000  0.75000000  1
  Sb  Sb4  1  0.85644228  0.72369798  0.08914331  1
  Sb  Sb5  1  0.67423218  0.80787187  0.40455374  1
  P  P6  1  0.37353966  0.34805089  0.85569467  1
  P  P7  1  0.50979235  0.45745616  0.97846187  1
  P  P8  1  0.54952091  0.52333022  0.27639547  1
  Li  Li9  1  0.47915866  0.44196136  0.86608985  1
