# generated using pymatgen
data_Li2Mn3Sb4P2N
_symmetry_space_group_name_H-M   'P 1'
_cell_length_a   4.89243607
_cell_length_b   5.29748708
_cell_length_c   6.09273796
_cell_angle_alpha   101.77926658
_cell_angle_beta   101.00936793
_cell_angle_gamma   96.27113332
_symmetry_Int_Tables_number   1
_chemical_formula_structural   Li2Mn3Sb4P2N
_chemical_formula_sum   'Li2 Mn3 Sb4 P2 N1'
_cell_volume   149.92299395
_cell_formula_units_Z   1
loop_
 _symmetry_equiv_pos_site_id
 _symmetry_equiv_pos_as_xyz
  1  'x, y, z'
loop_
 _atom_site_type_symbol
 _atom_site_label
 _atom_site_symmetry_multiplicity
 _atom_site_fract_x
 _atom_site_fract_y
 _atom_site_fract_z
 _atom_site_occupancy
  N  N0  1  0.12500000  0.00000000  0.25000000  1
  Mn  Mn1  1  0.00000000  0.00000000  0.00000000  1
  Mn  Mn2  1  0.37500000  0.00000000  0.25000000  1
  Mn  Mn3  1  0.25000000  0.25000000  0.25000000  1
  Sb  Sb4  1  0.00000000  0.25000000  0.12500000  1
  Sb  Sb5  1  0.16206124  0.84193802  0.62056651  1
  Sb  Sb6  1  0.13053899  0.47952852  0.00649340  1
  Sb  Sb7  1  0.92640508  0.88953310  0.98513195  1
  P  P8  1  0.32808908  0.43216956  0.38254404  1
  P  P9  1  0.81408151  0.70142391  0.84034119  1
  Li  Li10  1  0.72851731  0.67110738  0.71201737  1
  Li  Li11  1  0.83656875  0.61457279  0.05083250  1
