# generated using pymatgen
data_LiMn3Sb4Mo2P3
_symmetry_space_group_name_H-M   'P 1'
_cell_length_a   6.40409438
_cell_length_b   6.84849868
_cell_length_c   6.80751311
_cell_angle_alpha   94.21544170
_cell_angle_beta   89.84418889
_cell_angle_gamma   93.96185089
_symmetry_Int_Tables_number   1
_chemical_formula_structural   LiMn3Sb4Mo2P3
_chemical_formula_sum   'Li1 Mn3 Sb4 Mo2 P3'
_cell_volume   297.04674063
_cell_formula_units_Z   1
loop_
 _symmetry_equiv_pos_site_id
 _symmetry_equiv_pos_as_xyz
  1  'x, y, z'
loop_
 _atom_site_type_symbol
 _atom_site_label
 _atom_site_symmetry_multiplicity
 _atom_site_fract_x
 _atom_site_fract_y
 _atom_site_fract_z
 _atom_site_occupancy
  Mn  Mn0  1  0.00000000  0.00000000  0.00000000  1
  Mn  Mn1  1  0.50000000  0.50000000  0.50000000  1
  Mn  Mn2  1  0.50000000  0.50000000  0.00000000  1
  Sb  Sb3  1  0.50000000  0.00000000  0.50000000  1
  Sb  Sb4  1  0.00000000  0.50000000  0.50000000  1
  Sb  Sb5  1  0.42976972  0.16839896  0.14528532  1
  Sb  Sb6  1  0.67521578  0.58889653  0.38807948  1
  P  P7  1  0.58920330  0.12353693  0.12601146  1
  P  P8  1  0.78138920  0.54279287  0.59865124  1
  P  P9  1  0.73513926  0.88099028  0.60585875  1
  Mo  Mo10  1  0.01097550  0.73257245  0.16385494  1
  Mo  Mo11  1  0.22775869  0.47501466  0.05487889  1
  Li  Li12  1  0.21735280  0.88447972  0.97760287  1
