# generated using pymatgen
data_LiZnCuAs3O2
_symmetry_space_group_name_H-M   'P 1'
_cell_length_a   8.19688870
_cell_length_b   8.58218169
_cell_length_c   7.66224552
_cell_angle_alpha   90.17122596
_cell_angle_beta   90.81464109
_cell_angle_gamma   90.19575699
_symmetry_Int_Tables_number   1
_chemical_formula_structural   LiZnCuAs3O2
_chemical_formula_sum   'Li2 Zn2 Cu2 As6 O4'
_cell_volume   538.95731337
_cell_formula_units_Z   2
loop_
 _symmetry_equiv_pos_site_id
 _symmetry_equiv_pos_as_xyz
  1  'x, y, z'
loop_
 _atom_site_type_symbol
 _atom_site_label
 _atom_site_symmetry_multiplicity
 _atom_site_fract_x
 _atom_site_fract_y
 _atom_site_fract_z
 _atom_site_occupancy
  O  O0  1  0.00000000  0.00000000  0.00000000  1
  O  O1  1  0.50000000  0.50000000  0.50000000  1
  O  O2  1  0.25000000  0.25000000  0.25000000  1
  O  O3  1  0.75000000  0.25000000  0.00000000  1
  As  As4  1  0.25000000  0.75000000  0.50000000  1
  As  As5  1  0.09697490  0.83025666  0.04845014  1
  As  As6  1  0.85652343  0.64630544  0.78629383  1
  As  As7  1  0.88050445  0.03892877  0.51886576  1
  As  As8  1  0.48582678  0.69926185  0.99996468  1
  As  As9  1  0.58789343  0.47917672  0.08296405  1
  Li  Li10  1  0.31194563  0.44430005  0.85526696  1
  Li  Li11  1  0.44956297  0.45652826  0.62070013  1
  Cu  Cu12  1  0.27359341  0.65157327  0.20392877  1
  Cu  Cu13  1  0.51043884  0.19009190  0.68553270  1
  Zn  Zn14  1  0.06999382  0.28304755  0.25620327  1
  Zn  Zn15  1  0.85329352  0.70785776  0.91556761  1
