# generated using pymatgen
data_LiMn2P3O
_symmetry_space_group_name_H-M   'P 1'
_cell_length_a   5.05680231
_cell_length_b   5.57832157
_cell_length_c   6.99867449
_cell_angle_alpha   96.90827557
_cell_angle_beta   98.18349072
_cell_angle_gamma   97.86247056
_symmetry_Int_Tables_number   1
_chemical_formula_structural   LiMn2P3O
_chemical_formula_sum   'Li1 Mn2 P3 O1'
_cell_volume   191.59829655
_cell_formula_units_Z   1
loop_
 _symmetry_equiv_pos_site_id
 _symmetry_equiv_pos_as_xyz
  1  'x, y, z'
loop_
 _atom_site_type_symbol
 _atom_site_label
 _atom_site_symmetry_multiplicity
 _atom_site_fract_x
 _atom_site_fract_y
 _atom_site_fract_z
 _atom_site_occupancy
  O  O0  1  0.00000000  0.00000000  0.00000000  1
  Mn  Mn1  1  0.50000000  0.50000000  0.50000000  1
  Mn  Mn2  1  0.50000000  0.50000000  0.00000000  1
  P  P3  1  0.50000000  0.00000000  0.50000000  1
  P  P4  1  0.00000000  0.50000000  0.50000000  1
  P  P5  1  0.12530376  0.24085188  0.39100715  1
  Li  Li6  1  0.53282138  0.60615490  0.96014909  1
