# generated using pymatgen
data_Li2MnSb4P3
_symmetry_space_group_name_H-M   'P 1'
_cell_length_a   4.91755730
_cell_length_b   5.12347254
_cell_length_c   6.51820811
_cell_angle_alpha   100.81939389
_cell_angle_beta   93.35872695
_cell_angle_gamma   100.99667234
_symmetry_Int_Tables_number   1
_chemical_formula_structural   Li2MnSb4P3
_chemical_formula_sum   'Li2 Mn1 Sb4 P3'
_cell_volume   157.58421606
_cell_formula_units_Z   1
loop_
 _symmetry_equiv_pos_site_id
 _symmetry_equiv_pos_as_xyz
  1  'x, y, z'
loop_
 _atom_site_type_symbol
 _atom_site_label
 _atom_site_symmetry_multiplicity
 _atom_site_fract_x
 _atom_site_fract_y
 _atom_site_fract_z
 _atom_site_occupancy
  Mn  Mn0  1  0.12500000  0.12500000  0.12500000  1
  Sb  Sb1  1  0.50000000  0.50000000  0.50000000  1
  Sb  Sb2  1  0.25000000  0.25000000  0.25000000  1
  Sb  Sb3  1  0.75000000  0.75000000  0.75000000  1
  Sb  Sb4  1  0.53021321  0.69346944  0.77854704  1
  P  P5  1  0.09365540  0.09689756  0.79176743  1
  P  P6  1  0.56995062  0.64736428  0.74727894  1
  P  P7  1  0.31385614  0.39353904  0.25898006  1
  Li  Li8  1  0.75863185  0.18809944  0.59029682  1
  Li  Li9  1  0.15527221  0.14219899  0.93291796  1
