# generated using pymatgen
data_Li3Ni2N5
_symmetry_space_group_name_H-M   'P 1'
_cell_length_a   7.40897617
_cell_length_b   7.30603158
_cell_length_c   8.37227161
_cell_angle_alpha   93.39054854
_cell_angle_beta   93.41364550
_cell_angle_gamma   94.18098848
_symmetry_Int_Tables_number   1
_chemical_formula_structural   Li3Ni2N5
_chemical_formula_sum   'Li3 Ni2 N5'
_cell_volume   450.26660980
_cell_formula_units_Z   1
loop_
 _symmetry_equiv_pos_site_id
 _symmetry_equiv_pos_as_xyz
  1  'x, y, z'
loop_
 _atom_site_type_symbol
 _atom_site_label
 _atom_site_symmetry_multiplicity
 _atom_site_fract_x
 _atom_site_fract_y
 _atom_site_fract_z
 _atom_site_occupancy
  Li  Li0  1  0.00000000  0.00000000  0.00000000  1
  Li  Li1  1  0.33300000  0.66700000  0.25000000  1
  Li  Li2  1  0.66700000  0.33300000  0.50000000  1
  Ni  Ni3  1  0.00000000  0.00000000  0.75000000  1
  Ni  Ni4  1  0.19066640  0.94625908  0.40625417  1
  N  N5  1  0.71290714  0.52443507  0.02778131  1
  N  N6  1  0.02997888  0.36140417  0.36884663  1
  N  N7  1  0.61571672  0.04714750  0.41731140  1
  N  N8  1  0.71364484  0.36001016  0.37551969  1
  N  N9  1  0.67432770  0.14361691  0.23461362  1
