# generated using pymatgen
data_Li2Ti2Cu2P4N5
_symmetry_space_group_name_H-M   'P 1'
_cell_length_a   7.15430045
_cell_length_b   7.06055839
_cell_length_c   7.71475649
_cell_angle_alpha   94.06204035
_cell_angle_beta   94.53288679
_cell_angle_gamma   94.99002254
_symmetry_Int_Tables_number   1
_chemical_formula_structural   Li2Ti2Cu2P4N5
_chemical_formula_sum   'Li2 Ti2 Cu2 P4 N5'
_cell_volume   385.82023366
_cell_formula_units_Z   1
loop_
 _symmetry_equiv_pos_site_id
 _symmetry_equiv_pos_as_xyz
  1  'x, y, z'
loop_
 _atom_site_type_symbol
 _atom_site_label
 _atom_site_symmetry_multiplicity
 _atom_site_fract_x
 _atom_site_fract_y
 _atom_site_fract_z
 _atom_site_occupancy
  P  P0  1  0.00000000  0.00000000  0.00000000  1
  P  P1  1  0.50000000  0.50000000  0.50000000  1
  P  P2  1  0.25000000  0.25000000  0.25000000  1
  P  P3  1  0.75000000  0.25000000  0.00000000  1
  Li  Li4  1  0.25000000  0.75000000  0.50000000  1
  Li  Li5  1  0.46436277  0.86843084  0.31550043  1
  Cu  Cu6  1  0.33980510  0.82737146  0.83889228  1
  Cu  Cu7  1  0.09758488  0.34481171  0.15071165  1
  Ti  Ti8  1  0.94200596  0.98594764  0.27246915  1
  Ti  Ti9  1  0.74679504  0.33469317  0.48667052  1
  N  N10  1  0.25600090  0.48123518  0.67644920  1
  N  N11  1  0.51659685  0.58715218  0.34935438  1
  N  N12  1  0.48148012  0.25759222  0.32040208  1
  N  N13  1  0.94503818  0.59223055  0.97189397  1
  N  N14  1  0.10394958  0.81294701  0.36790442  1
