# generated using pymatgen
data_LiTiCu2(SO)2
_symmetry_space_group_name_H-M   'P 1'
_cell_length_a   5.75352902
_cell_length_b   5.69484840
_cell_length_c   6.98740941
_cell_angle_alpha   94.43684937
_cell_angle_beta   98.78751890
_cell_angle_gamma   95.08554184
_symmetry_Int_Tables_number   1
_chemical_formula_structural   LiTiCu2(SO)2
_chemical_formula_sum   'Li1 Ti1 Cu2 S2 O2'
_cell_volume   224.40468929
_cell_formula_units_Z   1
loop_
 _symmetry_equiv_pos_site_id
 _symmetry_equiv_pos_as_xyz
  1  'x, y, z'
loop_
 _atom_site_type_symbol
 _atom_site_label
 _atom_site_symmetry_multiplicity
 _atom_site_fract_x
 _atom_site_fract_y
 _atom_site_fract_z
 _atom_site_occupancy
  Li  Li0  1  0.00000000  0.00000000  0.00000000  1
  Cu  Cu1  1  0.50000000  0.50000000  0.50000000  1
  Cu  Cu2  1  0.50000000  0.50000000  0.00000000  1
  S  S3  1  0.50000000  0.00000000  0.50000000  1
  S  S4  1  0.00000000  0.50000000  0.50000000  1
  Ti  Ti5  1  0.00060739  0.97133529  0.98077171  1
  O  O6  1  0.14356201  0.95495060  0.63844021  1
  O  O7  1  0.82401188  0.83700558  0.03677649  1
