# generated using pymatgen
data_Li2MnSb4Mo2P3
_symmetry_space_group_name_H-M   'P 1'
_cell_length_a   4.75381937
_cell_length_b   5.02204839
_cell_length_c   6.43177179
_cell_angle_alpha   101.25729370
_cell_angle_beta   93.60923016
_cell_angle_gamma   101.45770177
_symmetry_Int_Tables_number   1
_chemical_formula_structural   Li2MnSb4Mo2P3
_chemical_formula_sum   'Li2 Mn1 Sb4 Mo2 P3'
_cell_volume   146.76718766
_cell_formula_units_Z   1
loop_
 _symmetry_equiv_pos_site_id
 _symmetry_equiv_pos_as_xyz
  1  'x, y, z'
loop_
 _atom_site_type_symbol
 _atom_site_label
 _atom_site_symmetry_multiplicity
 _atom_site_fract_x
 _atom_site_fract_y
 _atom_site_fract_z
 _atom_site_occupancy
  Mn  Mn0  1  0.12500000  0.00000000  0.25000000  1
  Sb  Sb1  1  0.00000000  0.00000000  0.00000000  1
  Sb  Sb2  1  0.37500000  0.00000000  0.25000000  1
  Sb  Sb3  1  0.25000000  0.25000000  0.25000000  1
  Sb  Sb4  1  0.00000000  0.25000000  0.12500000  1
  P  P5  1  0.37744976  0.42157148  0.44433655  1
  P  P6  1  0.34141728  0.57719528  0.27041886  1
  P  P7  1  0.46137103  0.26586391  0.61999105  1
  Mo  Mo8  1  0.15316175  0.64618369  0.05871198  1
  Mo  Mo9  1  0.04126246  0.31177725  0.58524059  1
  Li  Li10  1  0.33439606  0.86428768  0.25469059  1
  Li  Li11  1  0.06207473  0.04089388  0.26923289  1
