# generated using pymatgen
data_Li2MnSb4P3
_symmetry_space_group_name_H-M   'P 1'
_cell_length_a   6.38523886
_cell_length_b   6.93788831
_cell_length_c   7.34148095
_cell_angle_alpha   93.13458712
_cell_angle_beta   93.71320808
_cell_angle_gamma   93.56754717
_symmetry_Int_Tables_number   1
_chemical_formula_structural   Li2MnSb4P3
_chemical_formula_sum   'Li2 Mn1 Sb4 P3'
_cell_volume   323.35318244
_cell_formula_units_Z   1
loop_
 _symmetry_equiv_pos_site_id
 _symmetry_equiv_pos_as_xyz
  1  'x, y, z'
loop_
 _atom_site_type_symbol
 _atom_site_label
 _atom_site_symmetry_multiplicity
 _atom_site_fract_x
 _atom_site_fract_y
 _atom_site_fract_z
 _atom_site_occupancy
  Mn  Mn0  1  0.12500000  0.00000000  0.25000000  1
  Sb  Sb1  1  0.00000000  0.00000000  0.00000000  1
  Sb  Sb2  1  0.37500000  0.00000000  0.25000000  1
  Sb  Sb3  1  0.25000000  0.25000000  0.25000000  1
  Sb  Sb4  1  0.00000000  0.25000000  0.12500000  1
  P  P5  1  0.57703952  0.59857772  0.04714549  1
  P  P6  1  0.64215487  0.74386421  0.78844680  1
  P  P7  1  0.67924412  0.92944281  0.48248414  1
  Li  Li8  1  0.11296568  0.54525566  0.61009619  1
  Li  Li9  1  0.33460718  0.12090453  0.97233955  1
