# generated using pymatgen
data_Li2Mn(Sb2P)2
_symmetry_space_group_name_H-M   'P 1'
_cell_length_a   4.95949550
_cell_length_b   5.11149704
_cell_length_c   6.45303538
_cell_angle_alpha   101.18820703
_cell_angle_beta   96.48226141
_cell_angle_gamma   99.83342085
_symmetry_Int_Tables_number   1
_chemical_formula_structural   Li2Mn(Sb2P)2
_chemical_formula_sum   'Li2 Mn1 Sb4 P2'
_cell_volume   156.30566215
_cell_formula_units_Z   1
loop_
 _symmetry_equiv_pos_site_id
 _symmetry_equiv_pos_as_xyz
  1  'x, y, z'
loop_
 _atom_site_type_symbol
 _atom_site_label
 _atom_site_symmetry_multiplicity
 _atom_site_fract_x
 _atom_site_fract_y
 _atom_site_fract_z
 _atom_site_occupancy
  Mn  Mn0  1  0.12500000  0.12500000  0.12500000  1
  Sb  Sb1  1  0.50000000  0.50000000  0.50000000  1
  Sb  Sb2  1  0.25000000  0.25000000  0.25000000  1
  Sb  Sb3  1  0.75000000  0.75000000  0.75000000  1
  Sb  Sb4  1  0.73368156  0.49210115  0.95926087  1
  P  P5  1  0.93966382  0.64463848  0.95702808  1
  P  P6  1  0.26258449  0.05409879  0.53828135  1
  Li  Li7  1  0.86383971  0.23730455  0.92475901  1
  Li  Li8  1  0.02137858  0.40107723  0.49285944  1
