# generated using pymatgen
data_Li3Ti2I4O3
_symmetry_space_group_name_H-M   'P 1'
_cell_length_a   7.48404695
_cell_length_b   7.61877205
_cell_length_c   6.47042301
_cell_angle_alpha   90.28039080
_cell_angle_beta   89.36015332
_cell_angle_gamma   89.26099288
_symmetry_Int_Tables_number   1
_chemical_formula_structural   Li3Ti2I4O3
_chemical_formula_sum   'Li3 Ti2 I4 O3'
_cell_volume   368.88027874
_cell_formula_units_Z   1
loop_
 _symmetry_equiv_pos_site_id
 _symmetry_equiv_pos_as_xyz
  1  'x, y, z'
loop_
 _atom_site_type_symbol
 _atom_site_label
 _atom_site_symmetry_multiplicity
 _atom_site_fract_x
 _atom_site_fract_y
 _atom_site_fract_z
 _atom_site_occupancy
  I  I0  1  0.12500000  0.12500000  0.12500000  1
  I  I1  1  0.50000000  0.50000000  0.50000000  1
  I  I2  1  0.25000000  0.25000000  0.25000000  1
  I  I3  1  0.75000000  0.75000000  0.75000000  1
  Li  Li4  1  0.14526250  0.91468265  0.54626654  1
  Li  Li5  1  0.55805249  0.64625013  0.65469059  1
  Li  Li6  1  0.00570403  0.63573952  0.93471076  1
  Ti  Ti7  1  0.04426827  0.40376685  0.24239804  1
  Ti  Ti8  1  0.61199969  0.50094409  0.50104909  1
  O  O9  1  0.80493949  0.26034160  0.31978122  1
  O  O10  1  0.55487438  0.66329002  0.70078012  1
  O  O11  1  0.56410084  0.81149358  0.21438430  1
