# generated using pymatgen
data_Li2Mn2Sb4Mo2P3
_symmetry_space_group_name_H-M   'P 1'
_cell_length_a   5.35927067
_cell_length_b   5.72752003
_cell_length_c   6.65134485
_cell_angle_alpha   98.94183509
_cell_angle_beta   92.61324547
_cell_angle_gamma   99.06570222
_symmetry_Int_Tables_number   1
_chemical_formula_structural   Li2Mn2Sb4Mo2P3
_chemical_formula_sum   'Li2 Mn2 Sb4 Mo2 P3'
_cell_volume   198.64988543
_cell_formula_units_Z   1
loop_
 _symmetry_equiv_pos_site_id
 _symmetry_equiv_pos_as_xyz
  1  'x, y, z'
loop_
 _atom_site_type_symbol
 _atom_site_label
 _atom_site_symmetry_multiplicity
 _atom_site_fract_x
 _atom_site_fract_y
 _atom_site_fract_z
 _atom_site_occupancy
  Mn  Mn0  1  0.00000000  0.00000000  0.00000000  1
  Mn  Mn1  1  0.50000000  0.50000000  0.50000000  1
  Sb  Sb2  1  0.50000000  0.50000000  0.00000000  1
  Sb  Sb3  1  0.50000000  0.00000000  0.50000000  1
  Sb  Sb4  1  0.00000000  0.50000000  0.50000000  1
  Sb  Sb5  1  0.41613764  0.78863800  0.18139985  1
  P  P6  1  0.34154921  0.22604476  0.42529263  1
  P  P7  1  0.77836421  0.83331084  0.35172190  1
  P  P8  1  0.93578524  0.32390383  0.94515707  1
  Mo  Mo9  1  0.55771114  0.13882707  0.25597788  1
  Mo  Mo10  1  0.41719984  0.49914110  0.75852273  1
  Li  Li11  1  0.23933713  0.66429109  0.47635039  1
  Li  Li12  1  0.20830647  0.91847036  0.07851580  1
