# generated using pymatgen
data_Li3Ti(IO)4
_symmetry_space_group_name_H-M   'P 1'
_cell_length_a   8.56894042
_cell_length_b   8.41340025
_cell_length_c   7.54779147
_cell_angle_alpha   90.64609792
_cell_angle_beta   90.30108625
_cell_angle_gamma   90.74912130
_symmetry_Int_Tables_number   1
_chemical_formula_structural   Li3Ti(IO)4
_chemical_formula_sum   'Li3 Ti1 I4 O4'
_cell_volume   544.06087036
_cell_formula_units_Z   1
loop_
 _symmetry_equiv_pos_site_id
 _symmetry_equiv_pos_as_xyz
  1  'x, y, z'
loop_
 _atom_site_type_symbol
 _atom_site_label
 _atom_site_symmetry_multiplicity
 _atom_site_fract_x
 _atom_site_fract_y
 _atom_site_fract_z
 _atom_site_occupancy
  I  I0  1  0.00000000  0.00000000  0.00000000  1
  I  I1  1  0.50000000  0.50000000  0.50000000  1
  I  I2  1  0.25000000  0.25000000  0.25000000  1
  I  I3  1  0.75000000  0.25000000  0.00000000  1
  Li  Li4  1  0.25000000  0.75000000  0.50000000  1
  Li  Li5  1  0.76055688  0.00348828  0.85914849  1
  Li  Li6  1  0.90544563  0.32575750  0.95201721  1
  Ti  Ti7  1  0.77484407  0.18837021  0.32385304  1
  O  O8  1  0.25336277  0.58347189  0.74444173  1
  O  O9  1  0.57450777  0.23105481  0.27681635  1
  O  O10  1  0.93481738  0.74346878  0.85174029  1
  O  O11  1  0.34179680  0.30783443  0.67273887  1
