# generated using pymatgen
data_Li2TiCu2As6F2
_symmetry_space_group_name_H-M   'P 1'
_cell_length_a   6.90975677
_cell_length_b   7.08761877
_cell_length_c   7.89579962
_cell_angle_alpha   92.83461585
_cell_angle_beta   95.07829806
_cell_angle_gamma   93.45866706
_symmetry_Int_Tables_number   1
_chemical_formula_structural   Li2TiCu2As6F2
_chemical_formula_sum   'Li2 Ti1 Cu2 As6 F2'
_cell_volume   383.88299356
_cell_formula_units_Z   1
loop_
 _symmetry_equiv_pos_site_id
 _symmetry_equiv_pos_as_xyz
  1  'x, y, z'
loop_
 _atom_site_type_symbol
 _atom_site_label
 _atom_site_symmetry_multiplicity
 _atom_site_fract_x
 _atom_site_fract_y
 _atom_site_fract_z
 _atom_site_occupancy
  F  F0  1  0.00000000  0.00000000  0.00000000  1
  F  F1  1  0.50000000  0.50000000  0.50000000  1
  Ti  Ti2  1  0.25000000  0.25000000  0.25000000  1
  As  As3  1  0.75000000  0.25000000  0.00000000  1
  As  As4  1  0.25000000  0.75000000  0.50000000  1
  As  As5  1  0.03555841  0.04904947  0.76347010  1
  As  As6  1  0.74636572  0.40078049  0.08162731  1
  As  As7  1  0.85795582  0.78372137  0.86102288  1
  As  As8  1  0.86946956  0.85519710  0.65486427  1
  Li  Li9  1  0.71346645  0.18112880  0.52542090  1
  Li  Li10  1  0.28419891  0.89564827  0.03891961  1
  Cu  Cu11  1  0.06838927  0.87919158  0.13528023  1
  Cu  Cu12  1  0.20237786  0.45658356  0.96372554  1
