# generated using pymatgen
data_Li3Ti2Se5O
_symmetry_space_group_name_H-M   'P 1'
_cell_length_a   5.77714298
_cell_length_b   6.28609573
_cell_length_c   6.17166745
_cell_angle_alpha   93.65739819
_cell_angle_beta   97.60698230
_cell_angle_gamma   97.42507371
_symmetry_Int_Tables_number   1
_chemical_formula_structural   Li3Ti2Se5O
_chemical_formula_sum   'Li3 Ti2 Se5 O1'
_cell_volume   219.54553356
_cell_formula_units_Z   1
loop_
 _symmetry_equiv_pos_site_id
 _symmetry_equiv_pos_as_xyz
  1  'x, y, z'
loop_
 _atom_site_type_symbol
 _atom_site_label
 _atom_site_symmetry_multiplicity
 _atom_site_fract_x
 _atom_site_fract_y
 _atom_site_fract_z
 _atom_site_occupancy
  Se  Se0  1  0.12500000  0.12500000  0.12500000  1
  Se  Se1  1  0.50000000  0.50000000  0.50000000  1
  Se  Se2  1  0.25000000  0.25000000  0.25000000  1
  Se  Se3  1  0.75000000  0.75000000  0.75000000  1
  Se  Se4  1  0.00365067  0.41180673  0.91407076  1
  Li  Li5  1  0.81345972  0.81685615  0.34761082  1
  Li  Li6  1  0.02936967  0.57321212  0.09119992  1
  Li  Li7  1  0.40034078  0.33767816  0.14424580  1
  Ti  Ti8  1  0.25593749  0.79771660  0.41474487  1
  Ti  Ti9  1  0.10185396  0.79182381  0.20707385  1
  O  O10  1  0.88648125  0.86135422  0.42571030  1
