# generated using pymatgen
data_Li3TiP3I4F
_symmetry_space_group_name_H-M   'P 1'
_cell_length_a   8.42754721
_cell_length_b   8.48962841
_cell_length_c   7.59738982
_cell_angle_alpha   90.00000000
_cell_angle_beta   90.00000000
_cell_angle_gamma   90.00000000
_symmetry_Int_Tables_number   1
_chemical_formula_structural   Li3TiP3I4F
_chemical_formula_sum   'Li3 Ti1 P3 I4 F1'
_cell_volume   543.56850628
_cell_formula_units_Z   1
loop_
 _symmetry_equiv_pos_site_id
 _symmetry_equiv_pos_as_xyz
  1  'x, y, z'
loop_
 _atom_site_type_symbol
 _atom_site_label
 _atom_site_symmetry_multiplicity
 _atom_site_fract_x
 _atom_site_fract_y
 _atom_site_fract_z
 _atom_site_occupancy
  P  P0  1  0.00000000  0.00000000  0.00000000  1
  P  P1  1  0.50000000  0.50000000  0.50000000  1
  P  P2  1  0.25000000  0.25000000  0.25000000  1
  I  I3  1  0.75000000  0.25000000  0.00000000  1
  I  I4  1  0.25000000  0.75000000  0.50000000  1
  I  I5  1  0.63487591  0.80357694  0.68694926  1
  I  I6  1  0.50963168  0.33531335  0.30269371  1
  Li  Li7  1  0.19017872  0.46571482  0.37305079  1
  Li  Li8  1  0.61550342  0.75271926  0.81183167  1
  Li  Li9  1  0.84656390  0.73936214  0.13050085  1
  F  F10  1  0.58073949  0.71815467  0.30745003  1
  Ti  Ti11  1  0.18722702  0.97009956  0.43919148  1
