# generated using pymatgen
data_Li2TiCu2(SO)2
_symmetry_space_group_name_H-M   'P 1'
_cell_length_a   6.57159428
_cell_length_b   6.61387390
_cell_length_c   7.57610462
_cell_angle_alpha   93.51926014
_cell_angle_beta   96.01620541
_cell_angle_gamma   94.03480530
_symmetry_Int_Tables_number   1
_chemical_formula_structural   Li2TiCu2(SO)2
_chemical_formula_sum   'Li2 Ti1 Cu2 S2 O2'
_cell_volume   325.87466383
_cell_formula_units_Z   1
loop_
 _symmetry_equiv_pos_site_id
 _symmetry_equiv_pos_as_xyz
  1  'x, y, z'
loop_
 _atom_site_type_symbol
 _atom_site_label
 _atom_site_symmetry_multiplicity
 _atom_site_fract_x
 _atom_site_fract_y
 _atom_site_fract_z
 _atom_site_occupancy
  S  S0  1  0.12500000  0.00000000  0.25000000  1
  S  S1  1  0.00000000  0.00000000  0.00000000  1
  Ti  Ti2  1  0.37500000  0.00000000  0.25000000  1
  O  O3  1  0.25000000  0.25000000  0.25000000  1
  O  O4  1  0.00000000  0.25000000  0.12500000  1
  Li  Li5  1  0.23380629  0.26101385  0.96705562  1
  Li  Li6  1  0.60960021  0.63303804  0.99220893  1
  Cu  Cu7  1  0.38704073  0.83563333  0.14817323  1
  Cu  Cu8  1  0.32773636  0.66349254  0.81064505  1
