# generated using pymatgen
data_Li2Ti(PI)4
_symmetry_space_group_name_H-M   'P 1'
_cell_length_a   7.24128736
_cell_length_b   6.94410803
_cell_length_c   7.76813161
_cell_angle_alpha   93.61487815
_cell_angle_beta   93.98028412
_cell_angle_gamma   93.41327800
_symmetry_Int_Tables_number   1
_chemical_formula_structural   Li2Ti(PI)4
_chemical_formula_sum   'Li2 Ti1 P4 I4'
_cell_volume   388.09526997
_cell_formula_units_Z   1
loop_
 _symmetry_equiv_pos_site_id
 _symmetry_equiv_pos_as_xyz
  1  'x, y, z'
loop_
 _atom_site_type_symbol
 _atom_site_label
 _atom_site_symmetry_multiplicity
 _atom_site_fract_x
 _atom_site_fract_y
 _atom_site_fract_z
 _atom_site_occupancy
  I  I0  1  0.00000000  0.00000000  0.00000000  1
  I  I1  1  0.33300000  0.66700000  0.25000000  1
  I  I2  1  0.66700000  0.33300000  0.50000000  1
  I  I3  1  0.00000000  0.00000000  0.75000000  1
  P  P4  1  0.55644472  0.02928349  0.55685363  1
  P  P5  1  0.39049834  0.24049734  0.16154789  1
  P  P6  1  0.45774054  0.48669862  0.82319069  1
  P  P7  1  0.38752776  0.93430603  0.98481755  1
  Li  Li8  1  0.24415039  0.76927705  0.98486592  1
  Li  Li9  1  0.00912268  0.00231988  0.97651094  1
  Ti  Ti10  1  0.86472411  0.36417243  0.49477395  1
