# generated using pymatgen
data_Li2Ti2Cu2P6O
_symmetry_space_group_name_H-M   'P 1'
_cell_length_a   7.83608499
_cell_length_b   7.99362818
_cell_length_c   7.86457467
_cell_angle_alpha   90.19987653
_cell_angle_beta   90.95095182
_cell_angle_gamma   90.22851224
_symmetry_Int_Tables_number   1
_chemical_formula_structural   Li2Ti2Cu2P6O
_chemical_formula_sum   'Li2 Ti2 Cu2 P6 O1'
_cell_volume   492.55224402
_cell_formula_units_Z   1
loop_
 _symmetry_equiv_pos_site_id
 _symmetry_equiv_pos_as_xyz
  1  'x, y, z'
loop_
 _atom_site_type_symbol
 _atom_site_label
 _atom_site_symmetry_multiplicity
 _atom_site_fract_x
 _atom_site_fract_y
 _atom_site_fract_z
 _atom_site_occupancy
  P  P0  1  0.00000000  0.00000000  0.00000000  1
  P  P1  1  0.50000000  0.50000000  0.50000000  1
  P  P2  1  0.50000000  0.50000000  0.00000000  1
  P  P3  1  0.50000000  0.00000000  0.50000000  1
  P  P4  1  0.00000000  0.50000000  0.50000000  1
  P  P5  1  0.80076751  0.89205206  0.37996959  1
  Li  Li6  1  0.38097007  0.89215574  0.79153100  1
  Li  Li7  1  0.10617227  0.60736401  0.96863342  1
  Cu  Cu8  1  0.03042850  0.66972206  0.06442929  1
  Cu  Cu9  1  0.23834179  0.76642639  0.74028818  1
  Ti  Ti10  1  0.15406419  0.64452516  0.93975372  1
  Ti  Ti11  1  0.37004799  0.70923822  0.67769672  1
  O  O12  1  0.15500371  0.13359396  0.97333067  1
