# generated using pymatgen
data_Li2Mn2Sb4P3
_symmetry_space_group_name_H-M   'P 1'
_cell_length_a   5.32488713
_cell_length_b   5.69728167
_cell_length_c   6.70156356
_cell_angle_alpha   98.69202561
_cell_angle_beta   93.19032496
_cell_angle_gamma   98.90296560
_symmetry_Int_Tables_number   1
_chemical_formula_structural   Li2Mn2Sb4P3
_chemical_formula_sum   'Li2 Mn2 Sb4 P3'
_cell_volume   197.90017463
_cell_formula_units_Z   1
loop_
 _symmetry_equiv_pos_site_id
 _symmetry_equiv_pos_as_xyz
  1  'x, y, z'
loop_
 _atom_site_type_symbol
 _atom_site_label
 _atom_site_symmetry_multiplicity
 _atom_site_fract_x
 _atom_site_fract_y
 _atom_site_fract_z
 _atom_site_occupancy
  Mn  Mn0  1  0.00000000  0.00000000  0.00000000  1
  Mn  Mn1  1  0.50000000  0.50000000  0.50000000  1
  Sb  Sb2  1  0.50000000  0.50000000  0.00000000  1
  Sb  Sb3  1  0.50000000  0.00000000  0.50000000  1
  Sb  Sb4  1  0.00000000  0.50000000  0.50000000  1
  Sb  Sb5  1  0.52662954  0.20799589  0.98313787  1
  P  P6  1  0.45212978  0.01045014  0.43142529  1
  P  P7  1  0.46295074  0.71516408  0.01290480  1
  P  P8  1  0.06805033  0.03607932  0.87652673  1
  Li  Li9  1  0.41810961  0.32046442  0.57845847  1
  Li  Li10  1  0.28348226  0.78513062  0.03962552  1
