# generated using pymatgen
data_Li2Ni2O5F3
_symmetry_space_group_name_H-M   'P 1'
_cell_length_a   7.18360890
_cell_length_b   6.97879375
_cell_length_c   8.47844759
_cell_angle_alpha   91.35176224
_cell_angle_beta   92.47111827
_cell_angle_gamma   91.56036241
_symmetry_Int_Tables_number   1
_chemical_formula_structural   Li2Ni2O5F3
_chemical_formula_sum   'Li2 Ni2 O5 F3'
_cell_volume   424.36612289
_cell_formula_units_Z   1
loop_
 _symmetry_equiv_pos_site_id
 _symmetry_equiv_pos_as_xyz
  1  'x, y, z'
loop_
 _atom_site_type_symbol
 _atom_site_label
 _atom_site_symmetry_multiplicity
 _atom_site_fract_x
 _atom_site_fract_y
 _atom_site_fract_z
 _atom_site_occupancy
  Li  Li0  1  0.12500000  0.12500000  0.12500000  1
  Li  Li1  1  0.50000000  0.50000000  0.50000000  1
  F  F2  1  0.25000000  0.25000000  0.25000000  1
  F  F3  1  0.75000000  0.75000000  0.75000000  1
  F  F4  1  0.97651001  0.68051389  0.25502948  1
  Ni  Ni5  1  0.59748052  0.91112022  0.42396679  1
  Ni  Ni6  1  0.76798211  0.35578589  0.71039042  1
  O  O7  1  0.40054778  0.75603627  0.94639729  1
  O  O8  1  0.98879360  0.29989784  0.93313850  1
  O  O9  1  0.16610042  0.62628147  0.08796278  1
  O  O10  1  0.75911125  0.58364108  0.26147468  1
  O  O11  1  0.68499834  0.63513499  0.88055498  1
