# generated using pymatgen
data_LiMn2(Sb2P)2
_symmetry_space_group_name_H-M   'P 1'
_cell_length_a   5.30839675
_cell_length_b   5.71478570
_cell_length_c   6.64343762
_cell_angle_alpha   97.85716796
_cell_angle_beta   94.62019320
_cell_angle_gamma   97.62698161
_symmetry_Int_Tables_number   1
_chemical_formula_structural   LiMn2(Sb2P)2
_chemical_formula_sum   'Li1 Mn2 Sb4 P2'
_cell_volume   196.87714038
_cell_formula_units_Z   1
loop_
 _symmetry_equiv_pos_site_id
 _symmetry_equiv_pos_as_xyz
  1  'x, y, z'
loop_
 _atom_site_type_symbol
 _atom_site_label
 _atom_site_symmetry_multiplicity
 _atom_site_fract_x
 _atom_site_fract_y
 _atom_site_fract_z
 _atom_site_occupancy
  Mn  Mn0  1  0.00000000  0.00000000  0.00000000  1
  Mn  Mn1  1  0.33300000  0.66700000  0.25000000  1
  Sb  Sb2  1  0.66700000  0.33300000  0.50000000  1
  Sb  Sb3  1  0.00000000  0.00000000  0.75000000  1
  Sb  Sb4  1  0.23487488  0.63322600  0.08995212  1
  Sb  Sb5  1  0.45983993  0.20280402  0.98487698  1
  P  P6  1  0.14812977  0.91428916  0.84599433  1
  P  P7  1  0.45950927  0.03648676  0.07082455  1
  Li  Li8  1  0.15805628  0.66161728  0.27484532  1
