# generated using pymatgen
data_LiTiNiF
_symmetry_space_group_name_H-M   'P 1'
_cell_length_a   8.15345243
_cell_length_b   7.87725456
_cell_length_c   8.11340047
_cell_angle_alpha   90.67885023
_cell_angle_beta   90.98669291
_cell_angle_gamma   90.78456767
_symmetry_Int_Tables_number   1
_chemical_formula_structural   LiTiNiF
_chemical_formula_sum   'Li2 Ti2 Ni2 F2'
_cell_volume   520.93374557
_cell_formula_units_Z   2
loop_
 _symmetry_equiv_pos_site_id
 _symmetry_equiv_pos_as_xyz
  1  'x, y, z'
loop_
 _atom_site_type_symbol
 _atom_site_label
 _atom_site_symmetry_multiplicity
 _atom_site_fract_x
 _atom_site_fract_y
 _atom_site_fract_z
 _atom_site_occupancy
  Li  Li0  1  0.00000000  0.00000000  0.00000000  1
  Li  Li1  1  0.33300000  0.66700000  0.25000000  1
  F  F2  1  0.66700000  0.33300000  0.50000000  1
  F  F3  1  0.00000000  0.00000000  0.75000000  1
  Ni  Ni4  1  0.02551621  0.70387267  0.37441272  1
  Ni  Ni5  1  0.41236125  0.36185702  0.58591773  1
  Ti  Ti6  1  0.92907064  0.75577825  0.97830988  1
  Ti  Ti7  1  0.03634934  0.29337294  0.19472311  1
