# generated using pymatgen
data_Li2Al3I4Br5O2
_symmetry_space_group_name_H-M   'P 1'
_cell_length_a   6.46264669
_cell_length_b   5.99708190
_cell_length_c   5.76829201
_cell_angle_alpha   90.62445351
_cell_angle_beta   90.83381172
_cell_angle_gamma   89.28067932
_symmetry_Int_Tables_number   1
_chemical_formula_structural   Li2Al3I4Br5O2
_chemical_formula_sum   'Li2 Al3 I4 Br5 O2'
_cell_volume   223.50768969
_cell_formula_units_Z   1
loop_
 _symmetry_equiv_pos_site_id
 _symmetry_equiv_pos_as_xyz
  1  'x, y, z'
loop_
 _atom_site_type_symbol
 _atom_site_label
 _atom_site_symmetry_multiplicity
 _atom_site_fract_x
 _atom_site_fract_y
 _atom_site_fract_z
 _atom_site_occupancy
  O  O0  1  0.00000000  0.00000000  0.00000000  1
  O  O1  1  0.50000000  0.50000000  0.50000000  1
  I  I2  1  0.25000000  0.25000000  0.25000000  1
  I  I3  1  0.75000000  0.25000000  0.00000000  1
  I  I4  1  0.25000000  0.75000000  0.50000000  1
  I  I5  1  0.58131062  0.25859793  0.66081104  1
  Li  Li6  1  0.98723501  0.42935178  0.18630701  1
  Li  Li7  1  0.38394367  0.99769576  0.55578179  1
  Al  Al8  1  0.86889050  0.18619675  0.07936101  1
  Al  Al9  1  0.65051418  0.49775142  0.62725948  1
  Al  Al10  1  0.33586845  0.15894603  0.76526783  1
  Br  Br11  1  0.39543334  0.13188741  0.55545478  1
  Br  Br12  1  0.73633199  0.46566223  0.71446364  1
  Br  Br13  1  0.36188200  0.42373074  0.16769160  1
  Br  Br14  1  0.61934879  0.91559034  0.97841252  1
  Br  Br15  1  0.37095947  0.31135066  0.97373504  1
