# generated using pymatgen
data_Li2Sb4P3N
_symmetry_space_group_name_H-M   'P 1'
_cell_length_a   4.99991619
_cell_length_b   5.28623182
_cell_length_c   5.86237497
_cell_angle_alpha   99.82083663
_cell_angle_beta   92.22666548
_cell_angle_gamma   98.40640997
_symmetry_Int_Tables_number   1
_chemical_formula_structural   Li2Sb4P3N
_chemical_formula_sum   'Li2 Sb4 P3 N1'
_cell_volume   150.71206272
_cell_formula_units_Z   1
loop_
 _symmetry_equiv_pos_site_id
 _symmetry_equiv_pos_as_xyz
  1  'x, y, z'
loop_
 _atom_site_type_symbol
 _atom_site_label
 _atom_site_symmetry_multiplicity
 _atom_site_fract_x
 _atom_site_fract_y
 _atom_site_fract_z
 _atom_site_occupancy
  Sb  Sb0  1  0.00000000  0.00000000  0.00000000  1
  Sb  Sb1  1  0.50000000  0.50000000  0.50000000  1
  Sb  Sb2  1  0.25000000  0.25000000  0.25000000  1
  Sb  Sb3  1  0.75000000  0.25000000  0.00000000  1
  P  P4  1  0.25000000  0.75000000  0.50000000  1
  P  P5  1  0.43788266  0.32193774  0.11001267  1
  P  P6  1  0.90384145  0.32385013  0.26277558  1
  Li  Li7  1  0.81355696  0.69870538  0.15996937  1
  Li  Li8  1  0.56258540  0.93457669  0.58433333  1
  N  N9  1  0.56601821  0.65420801  0.96356475  1
