# generated using pymatgen
data_Li3Ti2P3F3
_symmetry_space_group_name_H-M   'P 1'
_cell_length_a   6.00480553
_cell_length_b   5.80195170
_cell_length_c   6.25288655
_cell_angle_alpha   91.35416793
_cell_angle_beta   99.48708790
_cell_angle_gamma   91.44480174
_symmetry_Int_Tables_number   1
_chemical_formula_structural   Li3Ti2P3F3
_chemical_formula_sum   'Li3 Ti2 P3 F3'
_cell_volume   214.71482526
_cell_formula_units_Z   1
loop_
 _symmetry_equiv_pos_site_id
 _symmetry_equiv_pos_as_xyz
  1  'x, y, z'
loop_
 _atom_site_type_symbol
 _atom_site_label
 _atom_site_symmetry_multiplicity
 _atom_site_fract_x
 _atom_site_fract_y
 _atom_site_fract_z
 _atom_site_occupancy
  F  F0  1  0.00000000  0.00000000  0.00000000  1
  F  F1  1  0.50000000  0.50000000  0.50000000  1
  F  F2  1  0.25000000  0.25000000  0.25000000  1
  Li  Li3  1  0.75000000  0.25000000  0.00000000  1
  Li  Li4  1  0.25000000  0.75000000  0.50000000  1
  Li  Li5  1  0.50430002  0.51810173  0.31208578  1
  Ti  Ti6  1  0.47641147  0.86478287  0.57499738  1
  Ti  Ti7  1  0.53785584  0.48934253  0.75402676  1
  P  P8  1  0.15319430  0.25299198  0.83749988  1
  P  P9  1  0.07290948  0.28506681  0.16491399  1
  P  P10  1  0.08511150  0.79563250  0.80053516  1
