# generated using pymatgen
data_Li2Ti(P3O2)2
_symmetry_space_group_name_H-M   'P 1'
_cell_length_a   8.64775332
_cell_length_b   8.43352387
_cell_length_c   7.57186532
_cell_angle_alpha   90.08671119
_cell_angle_beta   90.41254552
_cell_angle_gamma   90.09913405
_symmetry_Int_Tables_number   1
_chemical_formula_structural   Li2Ti(P3O2)2
_chemical_formula_sum   'Li2 Ti1 P6 O4'
_cell_volume   552.20818334
_cell_formula_units_Z   1
loop_
 _symmetry_equiv_pos_site_id
 _symmetry_equiv_pos_as_xyz
  1  'x, y, z'
loop_
 _atom_site_type_symbol
 _atom_site_label
 _atom_site_symmetry_multiplicity
 _atom_site_fract_x
 _atom_site_fract_y
 _atom_site_fract_z
 _atom_site_occupancy
  P  P0  1  0.00000000  0.00000000  0.00000000  1
  P  P1  1  0.33300000  0.66700000  0.25000000  1
  P  P2  1  0.66700000  0.33300000  0.50000000  1
  P  P3  1  0.00000000  0.00000000  0.75000000  1
  P  P4  1  0.63249925  0.33204706  0.79480312  1
  P  P5  1  0.20314274  0.80481748  0.04871335  1
  Li  Li6  1  0.34620757  0.93196530  0.51311368  1
  Li  Li7  1  0.28126542  0.94290002  0.66598200  1
  Ti  Ti8  1  0.88851242  0.51181959  0.10218159  1
  O  O9  1  0.82611326  0.42743089  0.32566769  1
  O  O10  1  0.30902539  0.81704795  0.10503003  1
  O  O11  1  0.23241164  0.95702718  0.90154117  1
  O  O12  1  0.38611093  0.38128588  0.77558198  1
