# generated using pymatgen
data_LiMnSb4(MoP)2
_symmetry_space_group_name_H-M   'P 1'
_cell_length_a   4.77540936
_cell_length_b   5.03282091
_cell_length_c   6.44889654
_cell_angle_alpha   100.44372942
_cell_angle_beta   94.14323423
_cell_angle_gamma   100.71351895
_symmetry_Int_Tables_number   1
_chemical_formula_structural   LiMnSb4(MoP)2
_chemical_formula_sum   'Li1 Mn1 Sb4 Mo2 P2'
_cell_volume   148.86382673
_cell_formula_units_Z   1
loop_
 _symmetry_equiv_pos_site_id
 _symmetry_equiv_pos_as_xyz
  1  'x, y, z'
loop_
 _atom_site_type_symbol
 _atom_site_label
 _atom_site_symmetry_multiplicity
 _atom_site_fract_x
 _atom_site_fract_y
 _atom_site_fract_z
 _atom_site_occupancy
  Mn  Mn0  1  0.00000000  0.00000000  0.00000000  1
  Sb  Sb1  1  0.50000000  0.50000000  0.50000000  1
  Sb  Sb2  1  0.25000000  0.25000000  0.25000000  1
  Sb  Sb3  1  0.75000000  0.25000000  0.00000000  1
  Sb  Sb4  1  0.25000000  0.75000000  0.50000000  1
  P  P5  1  0.16728622  0.53476538  0.15887803  1
  P  P6  1  0.83857787  0.25382130  0.50829586  1
  Mo  Mo7  1  0.39332205  0.67522693  0.28204038  1
  Mo  Mo8  1  0.95740401  0.03542610  0.84049283  1
  Li  Li9  1  0.88693734  0.35831137  0.54832903  1
