# generated using pymatgen
data_Li3TiNi2(PI)4
_symmetry_space_group_name_H-M   'P 1'
_cell_length_a   8.23748098
_cell_length_b   8.08628490
_cell_length_c   7.88489406
_cell_angle_alpha   91.11848141
_cell_angle_beta   90.70911355
_cell_angle_gamma   91.29611986
_symmetry_Int_Tables_number   1
_chemical_formula_structural   Li3TiNi2(PI)4
_chemical_formula_sum   'Li3 Ti1 Ni2 P4 I4'
_cell_volume   524.94007542
_cell_formula_units_Z   1
loop_
 _symmetry_equiv_pos_site_id
 _symmetry_equiv_pos_as_xyz
  1  'x, y, z'
loop_
 _atom_site_type_symbol
 _atom_site_label
 _atom_site_symmetry_multiplicity
 _atom_site_fract_x
 _atom_site_fract_y
 _atom_site_fract_z
 _atom_site_occupancy
  P  P0  1  0.00000000  0.00000000  0.00000000  1
  P  P1  1  0.50000000  0.50000000  0.50000000  1
  P  P2  1  0.50000000  0.50000000  0.00000000  1
  P  P3  1  0.50000000  0.00000000  0.50000000  1
  I  I4  1  0.00000000  0.50000000  0.50000000  1
  I  I5  1  0.21947883  0.40410572  0.84604736  1
  I  I6  1  0.15974226  0.41058708  0.48838366  1
  I  I7  1  0.93776478  0.74695990  0.66495932  1
  Li  Li8  1  0.66036208  0.08477397  0.58087962  1
  Li  Li9  1  0.46207197  0.28014347  0.32411179  1
  Li  Li10  1  0.37670033  0.96505411  0.98611463  1
  Ni  Ni11  1  0.39994052  0.06855476  0.04806761  1
  Ni  Ni12  1  0.45765206  0.31421592  0.67099723  1
  Ti  Ti13  1  0.99002294  0.48943996  0.94540109  1
