# generated using pymatgen
data_Li2TiCu2(As3P2)2
_symmetry_space_group_name_H-M   'P 1'
_cell_length_a   7.38925216
_cell_length_b   7.48683297
_cell_length_c   8.18010638
_cell_angle_alpha   90.71656215
_cell_angle_beta   92.09895682
_cell_angle_gamma   90.69935882
_symmetry_Int_Tables_number   1
_chemical_formula_structural   Li2TiCu2(As3P2)2
_chemical_formula_sum   'Li2 Ti1 Cu2 As6 P4'
_cell_volume   452.16532559
_cell_formula_units_Z   1
loop_
 _symmetry_equiv_pos_site_id
 _symmetry_equiv_pos_as_xyz
  1  'x, y, z'
loop_
 _atom_site_type_symbol
 _atom_site_label
 _atom_site_symmetry_multiplicity
 _atom_site_fract_x
 _atom_site_fract_y
 _atom_site_fract_z
 _atom_site_occupancy
  Ti  Ti0  1  0.00000000  0.00000000  0.00000000  1
  P  P1  1  0.50000000  0.50000000  0.50000000  1
  P  P2  1  0.50000000  0.50000000  0.00000000  1
  P  P3  1  0.50000000  0.00000000  0.50000000  1
  P  P4  1  0.00000000  0.50000000  0.50000000  1
  As  As5  1  0.35246081  0.41461693  0.25659456  1
  As  As6  1  0.58417501  0.42851007  0.99407880  1
  As  As7  1  0.11327055  0.94947145  0.31763751  1
  As  As8  1  0.69326525  0.53488785  0.79477131  1
  As  As9  1  0.77819061  0.16241193  0.02850775  1
  As  As10  1  0.62821323  0.15190212  0.62469089  1
  Li  Li11  1  0.31274598  0.10353128  0.41910812  1
  Li  Li12  1  0.21594225  0.67160818  0.54847652  1
  Cu  Cu13  1  0.02990099  0.99625087  0.30033967  1
  Cu  Cu14  1  0.16696454  0.47057756  0.94204869  1
