# generated using pymatgen
data_Li2MnMo2P3
_symmetry_space_group_name_H-M   'P 1'
_cell_length_a   5.09706370
_cell_length_b   5.39995385
_cell_length_c   6.41593991
_cell_angle_alpha   100.79814126
_cell_angle_beta   91.87974127
_cell_angle_gamma   100.77002137
_symmetry_Int_Tables_number   1
_chemical_formula_structural   Li2MnMo2P3
_chemical_formula_sum   'Li2 Mn1 Mo2 P3'
_cell_volume   169.98806860
_cell_formula_units_Z   1
loop_
 _symmetry_equiv_pos_site_id
 _symmetry_equiv_pos_as_xyz
  1  'x, y, z'
loop_
 _atom_site_type_symbol
 _atom_site_label
 _atom_site_symmetry_multiplicity
 _atom_site_fract_x
 _atom_site_fract_y
 _atom_site_fract_z
 _atom_site_occupancy
  Mn  Mn0  1  0.12500000  0.00000000  0.25000000  1
  P  P1  1  0.00000000  0.00000000  0.00000000  1
  P  P2  1  0.37500000  0.00000000  0.25000000  1
  P  P3  1  0.25000000  0.25000000  0.25000000  1
  Mo  Mo4  1  0.00000000  0.25000000  0.12500000  1
  Mo  Mo5  1  0.27162142  0.60996734  0.22341461  1
  Li  Li6  1  0.04548449  0.40969237  0.43970615  1
  Li  Li7  1  0.87382852  0.27096955  0.85060933  1
