# generated using pymatgen
data_Li2MnSb4P3
_symmetry_space_group_name_H-M   'P 1'
_cell_length_a   5.62216411
_cell_length_b   5.68053227
_cell_length_c   7.36557642
_cell_angle_alpha   95.71192424
_cell_angle_beta   96.76630203
_cell_angle_gamma   96.50087503
_symmetry_Int_Tables_number   1
_chemical_formula_structural   Li2MnSb4P3
_chemical_formula_sum   'Li2 Mn1 Sb4 P3'
_cell_volume   230.56960103
_cell_formula_units_Z   1
loop_
 _symmetry_equiv_pos_site_id
 _symmetry_equiv_pos_as_xyz
  1  'x, y, z'
loop_
 _atom_site_type_symbol
 _atom_site_label
 _atom_site_symmetry_multiplicity
 _atom_site_fract_x
 _atom_site_fract_y
 _atom_site_fract_z
 _atom_site_occupancy
  Mn  Mn0  1  0.00000000  0.00000000  0.00000000  1
  Sb  Sb1  1  0.50000000  0.50000000  0.50000000  1
  Sb  Sb2  1  0.25000000  0.25000000  0.25000000  1
  Sb  Sb3  1  0.75000000  0.25000000  0.00000000  1
  Sb  Sb4  1  0.25000000  0.75000000  0.50000000  1
  P  P5  1  0.72598520  0.68068028  0.48155503  1
  P  P6  1  0.29673512  0.50286444  0.33090490  1
  P  P7  1  0.98340155  0.88531772  0.25333190  1
  Li  Li8  1  0.13704117  0.10365038  0.80172242  1
  Li  Li9  1  0.63705932  0.57719511  0.52884622  1
