# generated using pymatgen
data_LiMn2Sb4Mo2P3
_symmetry_space_group_name_H-M   'P 1'
_cell_length_a   4.69222841
_cell_length_b   4.74014593
_cell_length_c   5.61836634
_cell_angle_alpha   97.88188292
_cell_angle_beta   89.70131278
_cell_angle_gamma   97.30653341
_symmetry_Int_Tables_number   1
_chemical_formula_structural   LiMn2Sb4Mo2P3
_chemical_formula_sum   'Li1 Mn2 Sb4 Mo2 P3'
_cell_volume   122.76768054
_cell_formula_units_Z   1
loop_
 _symmetry_equiv_pos_site_id
 _symmetry_equiv_pos_as_xyz
  1  'x, y, z'
loop_
 _atom_site_type_symbol
 _atom_site_label
 _atom_site_symmetry_multiplicity
 _atom_site_fract_x
 _atom_site_fract_y
 _atom_site_fract_z
 _atom_site_occupancy
  Mn  Mn0  1  0.12500000  0.00000000  0.25000000  1
  Mn  Mn1  1  0.00000000  0.00000000  0.00000000  1
  Sb  Sb2  1  0.37500000  0.00000000  0.25000000  1
  Sb  Sb3  1  0.25000000  0.25000000  0.25000000  1
  Sb  Sb4  1  0.00000000  0.25000000  0.12500000  1
  Sb  Sb5  1  0.68577368  0.65041372  0.44915528  1
  P  P6  1  0.93101886  0.94273493  0.94248850  1
  P  P7  1  0.45789810  0.31577480  0.42827468  1
  P  P8  1  0.32009459  0.43882693  0.53573235  1
  Mo  Mo9  1  0.42814822  0.75404899  0.18970723  1
  Mo  Mo10  1  0.84246923  0.96870104  0.72381853  1
  Li  Li11  1  0.08970337  0.17864973  0.43969845  1
