# generated using pymatgen
data_LiTiMnNF6
_symmetry_space_group_name_H-M   'P 1'
_cell_length_a   3.38692319
_cell_length_b   3.39716707
_cell_length_c   5.42841454
_cell_angle_alpha   97.26867304
_cell_angle_beta   95.19302700
_cell_angle_gamma   98.54061886
_symmetry_Int_Tables_number   1
_chemical_formula_structural   LiTiMnNF6
_chemical_formula_sum   'Li1 Ti1 Mn1 N1 F6'
_cell_volume   60.88852531
_cell_formula_units_Z   1
loop_
 _symmetry_equiv_pos_site_id
 _symmetry_equiv_pos_as_xyz
  1  'x, y, z'
loop_
 _atom_site_type_symbol
 _atom_site_label
 _atom_site_symmetry_multiplicity
 _atom_site_fract_x
 _atom_site_fract_y
 _atom_site_fract_z
 _atom_site_occupancy
  F  F0  1  0.00000000  0.00000000  0.00000000  1
  F  F1  1  0.50000000  0.50000000  0.50000000  1
  F  F2  1  0.50000000  0.50000000  0.00000000  1
  F  F3  1  0.50000000  0.00000000  0.50000000  1
  F  F4  1  0.00000000  0.50000000  0.50000000  1
  F  F5  1  0.13560855  0.79036274  0.68862297  1
  N  N6  1  0.24225083  0.09460327  0.17778938  1
  Ti  Ti7  1  0.00510727  0.14768729  0.38207357  1
  Mn  Mn8  1  0.76544288  0.39500936  0.70749397  1
  Li  Li9  1  0.63686417  0.09523294  0.73312818  1
