# generated using pymatgen
data_Li2MnSb4P3
_symmetry_space_group_name_H-M   'P 1'
_cell_length_a   6.71435284
_cell_length_b   7.16670336
_cell_length_c   7.44988367
_cell_angle_alpha   92.45857769
_cell_angle_beta   92.91241244
_cell_angle_gamma   92.79816497
_symmetry_Int_Tables_number   1
_chemical_formula_structural   Li2MnSb4P3
_chemical_formula_sum   'Li2 Mn1 Sb4 P3'
_cell_volume   357.22663051
_cell_formula_units_Z   1
loop_
 _symmetry_equiv_pos_site_id
 _symmetry_equiv_pos_as_xyz
  1  'x, y, z'
loop_
 _atom_site_type_symbol
 _atom_site_label
 _atom_site_symmetry_multiplicity
 _atom_site_fract_x
 _atom_site_fract_y
 _atom_site_fract_z
 _atom_site_occupancy
  Mn  Mn0  1  0.12500000  0.12500000  0.12500000  1
  Sb  Sb1  1  0.50000000  0.50000000  0.50000000  1
  Sb  Sb2  1  0.25000000  0.25000000  0.25000000  1
  Sb  Sb3  1  0.75000000  0.75000000  0.75000000  1
  Sb  Sb4  1  0.01085895  0.71972937  0.62064894  1
  P  P5  1  0.14192605  0.64732363  0.80124237  1
  P  P6  1  0.95332561  0.55780648  0.00803202  1
  P  P7  1  0.41801807  0.76317851  0.18776052  1
  Li  Li8  1  0.39952109  0.02133087  0.16538992  1
  Li  Li9  1  0.47745990  0.05542007  0.23537781  1
