# generated using pymatgen
data_LiMn2(Sb2P)2
_symmetry_space_group_name_H-M   'P 1'
_cell_length_a   5.75882877
_cell_length_b   6.25526115
_cell_length_c   6.98134819
_cell_angle_alpha   94.97992000
_cell_angle_beta   95.57160211
_cell_angle_gamma   94.89605941
_symmetry_Int_Tables_number   1
_chemical_formula_structural   LiMn2(Sb2P)2
_chemical_formula_sum   'Li1 Mn2 Sb4 P2'
_cell_volume   248.23822465
_cell_formula_units_Z   1
loop_
 _symmetry_equiv_pos_site_id
 _symmetry_equiv_pos_as_xyz
  1  'x, y, z'
loop_
 _atom_site_type_symbol
 _atom_site_label
 _atom_site_symmetry_multiplicity
 _atom_site_fract_x
 _atom_site_fract_y
 _atom_site_fract_z
 _atom_site_occupancy
  Mn  Mn0  1  0.00000000  0.00000000  0.00000000  1
  Mn  Mn1  1  0.33300000  0.66700000  0.25000000  1
  Sb  Sb2  1  0.66700000  0.33300000  0.50000000  1
  Sb  Sb3  1  0.00000000  0.00000000  0.75000000  1
  Sb  Sb4  1  0.78747637  0.35782475  0.04040764  1
  Sb  Sb5  1  0.75847297  0.10001349  0.80005112  1
  P  P6  1  0.20607211  0.02613642  0.93178542  1
  P  P7  1  0.63989413  0.19914158  0.52965682  1
  Li  Li8  1  0.51376993  0.00437656  0.99522355  1
