# generated using pymatgen
data_Li2Mn2Sb4Mo2P3
_symmetry_space_group_name_H-M   'P 1'
_cell_length_a   5.84947426
_cell_length_b   6.28864858
_cell_length_c   6.85904023
_cell_angle_alpha   96.90667813
_cell_angle_beta   92.11721200
_cell_angle_gamma   97.01610403
_symmetry_Int_Tables_number   1
_chemical_formula_structural   Li2Mn2Sb4Mo2P3
_chemical_formula_sum   'Li2 Mn2 Sb4 Mo2 P3'
_cell_volume   248.26362129
_cell_formula_units_Z   1
loop_
 _symmetry_equiv_pos_site_id
 _symmetry_equiv_pos_as_xyz
  1  'x, y, z'
loop_
 _atom_site_type_symbol
 _atom_site_label
 _atom_site_symmetry_multiplicity
 _atom_site_fract_x
 _atom_site_fract_y
 _atom_site_fract_z
 _atom_site_occupancy
  Mn  Mn0  1  0.12500000  0.00000000  0.25000000  1
  Mn  Mn1  1  0.00000000  0.00000000  0.00000000  1
  Sb  Sb2  1  0.37500000  0.00000000  0.25000000  1
  Sb  Sb3  1  0.25000000  0.25000000  0.25000000  1
  Sb  Sb4  1  0.00000000  0.25000000  0.12500000  1
  Sb  Sb5  1  0.83206139  0.77051893  0.81393775  1
  P  P6  1  0.95790897  0.78351643  0.85985069  1
  P  P7  1  0.31716189  0.75289479  0.31340114  1
  P  P8  1  0.49536597  0.44367425  0.77919249  1
  Mo  Mo9  1  0.83197050  0.33337772  0.76422926  1
  Mo  Mo10  1  0.13151103  0.35692739  0.22463741  1
  Li  Li11  1  0.70421867  0.94668804  0.59728313  1
  Li  Li12  1  0.23553314  0.12415632  0.61957453  1
