# generated using pymatgen
data_Li3Ti2Te6(SI2)2
_symmetry_space_group_name_H-M   'P 1'
_cell_length_a   7.23137858
_cell_length_b   7.27685983
_cell_length_c   6.97388806
_cell_angle_alpha   92.13225388
_cell_angle_beta   93.59721499
_cell_angle_gamma   92.00204672
_symmetry_Int_Tables_number   1
_chemical_formula_structural   Li3Ti2Te6(SI2)2
_chemical_formula_sum   'Li3 Ti2 Te6 S2 I4'
_cell_volume   365.74578346
_cell_formula_units_Z   1
loop_
 _symmetry_equiv_pos_site_id
 _symmetry_equiv_pos_as_xyz
  1  'x, y, z'
loop_
 _atom_site_type_symbol
 _atom_site_label
 _atom_site_symmetry_multiplicity
 _atom_site_fract_x
 _atom_site_fract_y
 _atom_site_fract_z
 _atom_site_occupancy
  I  I0  1  0.12500000  0.00000000  0.25000000  1
  I  I1  1  0.00000000  0.00000000  0.00000000  1
  I  I2  1  0.37500000  0.00000000  0.25000000  1
  I  I3  1  0.25000000  0.25000000  0.25000000  1
  Li  Li4  1  0.00000000  0.25000000  0.12500000  1
  Li  Li5  1  0.76076050  0.11016241  0.62017713  1
  Li  Li6  1  0.13851508  0.01108866  0.57887504  1
  Te  Te7  1  0.92682206  0.65952207  0.74456908  1
  Te  Te8  1  0.30600233  0.21348266  0.05763270  1
  Te  Te9  1  0.92931811  0.28218992  0.95689618  1
  Te  Te10  1  0.50854780  0.29368083  0.50803453  1
  Te  Te11  1  0.09823872  0.42768744  0.96206099  1
  Te  Te12  1  0.31754338  0.17658582  0.89100708  1
  S  S13  1  0.63005068  0.59046471  0.65449189  1
  S  S14  1  0.32268937  0.31651646  0.26087537  1
  Ti  Ti15  1  0.69723503  0.12325722  0.72565939  1
  Ti  Ti16  1  0.94719376  0.28351806  0.64283973  1
