# generated using pymatgen
data_Li3Cu2Ni2P4N5
_symmetry_space_group_name_H-M   'P 1'
_cell_length_a   7.78916806
_cell_length_b   7.54924633
_cell_length_c   8.05503707
_cell_angle_alpha   91.78555768
_cell_angle_beta   91.12336717
_cell_angle_gamma   92.06917462
_symmetry_Int_Tables_number   1
_chemical_formula_structural   Li3Cu2Ni2P4N5
_chemical_formula_sum   'Li3 Cu2 Ni2 P4 N5'
_cell_volume   473.01451903
_cell_formula_units_Z   1
loop_
 _symmetry_equiv_pos_site_id
 _symmetry_equiv_pos_as_xyz
  1  'x, y, z'
loop_
 _atom_site_type_symbol
 _atom_site_label
 _atom_site_symmetry_multiplicity
 _atom_site_fract_x
 _atom_site_fract_y
 _atom_site_fract_z
 _atom_site_occupancy
  P  P0  1  0.12500000  0.00000000  0.25000000  1
  P  P1  1  0.00000000  0.00000000  0.00000000  1
  P  P2  1  0.37500000  0.00000000  0.25000000  1
  P  P3  1  0.25000000  0.25000000  0.25000000  1
  Li  Li4  1  0.00000000  0.25000000  0.12500000  1
  Li  Li5  1  0.75093475  0.93284384  0.16681964  1
  Li  Li6  1  0.73793896  0.99336687  0.33321287  1
  Cu  Cu7  1  0.01061903  0.31229098  0.37163713  1
  Cu  Cu8  1  0.85850677  0.40286684  0.47713469  1
  Ni  Ni9  1  0.75252939  0.04132365  0.22063716  1
  Ni  Ni10  1  0.60330450  0.71575272  0.66171958  1
  N  N11  1  0.17105179  0.42941593  0.82042559  1
  N  N12  1  0.84056792  0.08514756  0.59530955  1
  N  N13  1  0.45542537  0.60265537  0.00832038  1
  N  N14  1  0.03477319  0.86039109  0.28781304  1
  N  N15  1  0.47831033  0.43710758  0.40273678  1
