# generated using pymatgen
data_Li2MnSb4Mo2P3
_symmetry_space_group_name_H-M   'P 1'
_cell_length_a   5.30518073
_cell_length_b   5.54772702
_cell_length_c   6.79614399
_cell_angle_alpha   98.73382857
_cell_angle_beta   94.37042955
_cell_angle_gamma   99.14164499
_symmetry_Int_Tables_number   1
_chemical_formula_structural   Li2MnSb4Mo2P3
_chemical_formula_sum   'Li2 Mn1 Sb4 Mo2 P3'
_cell_volume   194.15720461
_cell_formula_units_Z   1
loop_
 _symmetry_equiv_pos_site_id
 _symmetry_equiv_pos_as_xyz
  1  'x, y, z'
loop_
 _atom_site_type_symbol
 _atom_site_label
 _atom_site_symmetry_multiplicity
 _atom_site_fract_x
 _atom_site_fract_y
 _atom_site_fract_z
 _atom_site_occupancy
  Mn  Mn0  1  0.00000000  0.00000000  0.00000000  1
  Sb  Sb1  1  0.50000000  0.50000000  0.50000000  1
  Sb  Sb2  1  0.25000000  0.25000000  0.25000000  1
  Sb  Sb3  1  0.75000000  0.25000000  0.00000000  1
  Sb  Sb4  1  0.25000000  0.75000000  0.50000000  1
  P  P5  1  0.04793097  0.19365005  0.45475814  1
  P  P6  1  0.18949090  0.35161859  0.53085569  1
  P  P7  1  0.26502074  0.22053806  0.94388192  1
  Mo  Mo8  1  0.21980531  0.75252261  0.63073030  1
  Mo  Mo9  1  0.04915119  0.36451879  0.89467499  1
  Li  Li10  1  0.90684565  0.47659148  0.51710394  1
  Li  Li11  1  0.51213100  0.47528260  0.49716806  1
