# generated using pymatgen
data_Li3Lu(CuP2)2
_symmetry_space_group_name_H-M   'P 1'
_cell_length_a   7.04081122
_cell_length_b   6.78804521
_cell_length_c   7.86516963
_cell_angle_alpha   93.63675184
_cell_angle_beta   93.54894480
_cell_angle_gamma   93.63625167
_symmetry_Int_Tables_number   1
_chemical_formula_structural   Li3Lu(CuP2)2
_chemical_formula_sum   'Li3 Lu1 Cu2 P4'
_cell_volume   373.56951273
_cell_formula_units_Z   1
loop_
 _symmetry_equiv_pos_site_id
 _symmetry_equiv_pos_as_xyz
  1  'x, y, z'
loop_
 _atom_site_type_symbol
 _atom_site_label
 _atom_site_symmetry_multiplicity
 _atom_site_fract_x
 _atom_site_fract_y
 _atom_site_fract_z
 _atom_site_occupancy
  P  P0  1  0.00000000  0.00000000  0.00000000  1
  P  P1  1  0.33300000  0.66700000  0.25000000  1
  P  P2  1  0.66700000  0.33300000  0.50000000  1
  P  P3  1  0.00000000  0.00000000  0.75000000  1
  Lu  Lu4  1  0.37504142  0.40900814  0.20204314  1
  Li  Li5  1  0.68236744  0.07632859  0.02435680  1
  Li  Li6  1  0.48333052  0.65314230  0.61558632  1
  Li  Li7  1  0.28211322  0.55519092  0.05318313  1
  Cu  Cu8  1  0.74119668  0.49565729  0.63821747  1
  Cu  Cu9  1  0.87800058  0.75194151  0.79393565  1
