# generated using pymatgen
data_LiMn2Sb4P3
_symmetry_space_group_name_H-M   'P 1'
_cell_length_a   5.17649943
_cell_length_b   5.39241195
_cell_length_c   6.17709728
_cell_angle_alpha   93.43001401
_cell_angle_beta   92.23252337
_cell_angle_gamma   93.72751213
_symmetry_Int_Tables_number   1
_chemical_formula_structural   LiMn2Sb4P3
_chemical_formula_sum   'Li1 Mn2 Sb4 P3'
_cell_volume   171.59442173
_cell_formula_units_Z   1
loop_
 _symmetry_equiv_pos_site_id
 _symmetry_equiv_pos_as_xyz
  1  'x, y, z'
loop_
 _atom_site_type_symbol
 _atom_site_label
 _atom_site_symmetry_multiplicity
 _atom_site_fract_x
 _atom_site_fract_y
 _atom_site_fract_z
 _atom_site_occupancy
  Mn  Mn0  1  0.00000000  0.00000000  0.00000000  1
  Mn  Mn1  1  0.50000000  0.50000000  0.50000000  1
  Sb  Sb2  1  0.25000000  0.25000000  0.25000000  1
  Sb  Sb3  1  0.75000000  0.25000000  0.00000000  1
  Sb  Sb4  1  0.25000000  0.75000000  0.50000000  1
  Sb  Sb5  1  0.79060990  0.30664517  0.62594882  1
  P  P6  1  0.67341217  0.08374700  0.23816022  1
  P  P7  1  0.20357373  0.62459665  0.58995620  1
  P  P8  1  0.52189652  0.90151059  0.83691571  1
  Li  Li9  1  0.50091021  0.63174080  0.86502250  1
