# generated using pymatgen
data_LiSb4Mo2P3N5
_symmetry_space_group_name_H-M   'P 1'
_cell_length_a   7.52810948
_cell_length_b   8.19959278
_cell_length_c   7.80698587
_cell_angle_alpha   90.01811464
_cell_angle_beta   89.70100646
_cell_angle_gamma   89.87881784
_symmetry_Int_Tables_number   1
_chemical_formula_structural   LiSb4Mo2P3N5
_chemical_formula_sum   'Li1 Sb4 Mo2 P3 N5'
_cell_volume   481.89752576
_cell_formula_units_Z   1
loop_
 _symmetry_equiv_pos_site_id
 _symmetry_equiv_pos_as_xyz
  1  'x, y, z'
loop_
 _atom_site_type_symbol
 _atom_site_label
 _atom_site_symmetry_multiplicity
 _atom_site_fract_x
 _atom_site_fract_y
 _atom_site_fract_z
 _atom_site_occupancy
  N  N0  1  0.12500000  0.00000000  0.25000000  1
  N  N1  1  0.00000000  0.00000000  0.00000000  1
  N  N2  1  0.37500000  0.00000000  0.25000000  1
  N  N3  1  0.25000000  0.25000000  0.25000000  1
  N  N4  1  0.00000000  0.25000000  0.12500000  1
  Sb  Sb5  1  0.45823258  0.68474896  0.85879180  1
  Sb  Sb6  1  0.91081225  0.24657392  0.30793966  1
  Sb  Sb7  1  0.91674553  0.00754520  0.47479321  1
  Sb  Sb8  1  0.92568644  0.57581013  0.52078826  1
  P  P9  1  0.59616538  0.35010893  0.41837127  1
  P  P10  1  0.77778121  0.88706539  0.52522490  1
  P  P11  1  0.54086571  0.82388258  0.78366049  1
  Mo  Mo12  1  0.84475042  0.68632797  0.29909789  1
  Mo  Mo13  1  0.55737148  0.52192381  0.77256404  1
  Li  Li14  1  0.13329220  0.26185209  0.53111979  1
