# generated using pymatgen
data_LiCuP3F
_symmetry_space_group_name_H-M   'P 1'
_cell_length_a   7.33800360
_cell_length_b   7.41968970
_cell_length_c   7.69254672
_cell_angle_alpha   90.93167453
_cell_angle_beta   91.89354576
_cell_angle_gamma   90.62883460
_symmetry_Int_Tables_number   1
_chemical_formula_structural   LiCuP3F
_chemical_formula_sum   'Li2 Cu2 P6 F2'
_cell_volume   418.51434965
_cell_formula_units_Z   2
loop_
 _symmetry_equiv_pos_site_id
 _symmetry_equiv_pos_as_xyz
  1  'x, y, z'
loop_
 _atom_site_type_symbol
 _atom_site_label
 _atom_site_symmetry_multiplicity
 _atom_site_fract_x
 _atom_site_fract_y
 _atom_site_fract_z
 _atom_site_occupancy
  P  P0  1  0.12500000  0.00000000  0.25000000  1
  P  P1  1  0.00000000  0.00000000  0.00000000  1
  P  P2  1  0.37500000  0.00000000  0.25000000  1
  P  P3  1  0.25000000  0.25000000  0.25000000  1
  P  P4  1  0.00000000  0.25000000  0.12500000  1
  P  P5  1  0.44524579  0.36288136  0.81883673  1
  Li  Li6  1  0.28965234  0.10479419  0.77142652  1
  Li  Li7  1  0.55869009  0.31905063  0.12702194  1
  Cu  Cu8  1  0.81915376  0.31694121  0.15571255  1
  Cu  Cu9  1  0.79251011  0.93943720  0.97877537  1
  F  F10  1  0.41679969  0.07635186  0.20699524  1
  F  F11  1  0.87558299  0.07947571  0.93665523  1
