# generated using pymatgen
data_LiMnSb4Mo2P3
_symmetry_space_group_name_H-M   'P 1'
_cell_length_a   5.70739306
_cell_length_b   6.08106220
_cell_length_c   7.00464627
_cell_angle_alpha   94.23595105
_cell_angle_beta   94.62180286
_cell_angle_gamma   94.64577462
_symmetry_Int_Tables_number   1
_chemical_formula_structural   LiMnSb4Mo2P3
_chemical_formula_sum   'Li1 Mn1 Sb4 Mo2 P3'
_cell_volume   240.73165006
_cell_formula_units_Z   1
loop_
 _symmetry_equiv_pos_site_id
 _symmetry_equiv_pos_as_xyz
  1  'x, y, z'
loop_
 _atom_site_type_symbol
 _atom_site_label
 _atom_site_symmetry_multiplicity
 _atom_site_fract_x
 _atom_site_fract_y
 _atom_site_fract_z
 _atom_site_occupancy
  Mn  Mn0  1  0.00000000  0.00000000  0.00000000  1
  Sb  Sb1  1  0.50000000  0.50000000  0.50000000  1
  Sb  Sb2  1  0.25000000  0.25000000  0.25000000  1
  Sb  Sb3  1  0.75000000  0.25000000  0.00000000  1
  Sb  Sb4  1  0.25000000  0.75000000  0.50000000  1
  P  P5  1  0.60628749  0.18434377  0.16171212  1
  P  P6  1  0.03459741  0.86005539  0.44056705  1
  P  P7  1  0.67474932  0.36281840  0.27098958  1
  Mo  Mo8  1  0.63167455  0.08657614  0.05047159  1
  Mo  Mo9  1  0.12006749  0.18455638  0.64285248  1
  Li  Li10  1  0.41076264  0.17626589  0.45739883  1
