# generated using pymatgen
data_Li2Cu2As6(PN)5
_symmetry_space_group_name_H-M   'P 1'
_cell_length_a   7.74241649
_cell_length_b   7.58140846
_cell_length_c   8.23799426
_cell_angle_alpha   91.81161577
_cell_angle_beta   92.17686049
_cell_angle_gamma   91.92776622
_symmetry_Int_Tables_number   1
_chemical_formula_structural   Li2Cu2As6(PN)5
_chemical_formula_sum   'Li2 Cu2 As6 P5 N5'
_cell_volume   482.67284531
_cell_formula_units_Z   1
loop_
 _symmetry_equiv_pos_site_id
 _symmetry_equiv_pos_as_xyz
  1  'x, y, z'
loop_
 _atom_site_type_symbol
 _atom_site_label
 _atom_site_symmetry_multiplicity
 _atom_site_fract_x
 _atom_site_fract_y
 _atom_site_fract_z
 _atom_site_occupancy
  P  P0  1  0.12500000  0.00000000  0.25000000  1
  P  P1  1  0.00000000  0.00000000  0.00000000  1
  P  P2  1  0.37500000  0.00000000  0.25000000  1
  P  P3  1  0.25000000  0.25000000  0.25000000  1
  P  P4  1  0.00000000  0.25000000  0.12500000  1
  Li  Li5  1  0.93750357  0.99209366  0.85417626  1
  Li  Li6  1  0.23283644  0.58603425  0.43352864  1
  Cu  Cu7  1  0.53614924  0.50389513  0.16439833  1
  Cu  Cu8  1  0.91208280  0.27349926  0.54747915  1
  As  As9  1  0.72420829  0.82092821  0.45192869  1
  As  As10  1  0.71145679  0.32865614  0.42595226  1
  As  As11  1  0.78293032  0.34634804  0.22647875  1
  As  As12  1  0.26812168  0.71540037  0.87252709  1
  As  As13  1  0.22448523  0.82764132  0.54591634  1
  As  As14  1  0.56773502  0.52245927  0.20759767  1
  N  N15  1  0.24093927  0.96459789  0.46448855  1
  N  N16  1  0.46678016  0.60275412  0.85594475  1
  N  N17  1  0.22540078  0.27911937  0.43825354  1
  N  N18  1  0.49513135  0.63426006  0.25990728  1
  N  N19  1  0.25076681  0.22763406  0.17881047  1
