# generated using pymatgen
data_Li2Sb4P3
_symmetry_space_group_name_H-M   'P 1'
_cell_length_a   6.77583459
_cell_length_b   7.34294611
_cell_length_c   7.20824823
_cell_angle_alpha   93.32301335
_cell_angle_beta   90.81753671
_cell_angle_gamma   93.34765299
_symmetry_Int_Tables_number   1
_chemical_formula_structural   Li2Sb4P3
_chemical_formula_sum   'Li2 Sb4 P3'
_cell_volume   357.37336680
_cell_formula_units_Z   1
loop_
 _symmetry_equiv_pos_site_id
 _symmetry_equiv_pos_as_xyz
  1  'x, y, z'
loop_
 _atom_site_type_symbol
 _atom_site_label
 _atom_site_symmetry_multiplicity
 _atom_site_fract_x
 _atom_site_fract_y
 _atom_site_fract_z
 _atom_site_occupancy
  Sb  Sb0  1  0.12500000  0.12500000  0.12500000  1
  Sb  Sb1  1  0.50000000  0.50000000  0.50000000  1
  Sb  Sb2  1  0.25000000  0.25000000  0.25000000  1
  Sb  Sb3  1  0.75000000  0.75000000  0.75000000  1
  P  P4  1  0.25879949  0.18766991  0.64267350  1
  P  P5  1  0.04699846  0.69955037  0.37366522  1
  P  P6  1  0.20375290  0.71519730  0.43142500  1
  Li  Li7  1  0.98442543  0.00106279  0.45178451  1
  Li  Li8  1  0.22508694  0.02568132  0.83424087  1
