# generated using pymatgen
data_Li3TiI4N5
_symmetry_space_group_name_H-M   'P 1'
_cell_length_a   8.11721607
_cell_length_b   7.86066603
_cell_length_c   8.08061798
_cell_angle_alpha   91.83952674
_cell_angle_beta   90.65034995
_cell_angle_gamma   92.13362833
_symmetry_Int_Tables_number   1
_chemical_formula_structural   Li3TiI4N5
_chemical_formula_sum   'Li3 Ti1 I4 N5'
_cell_volume   514.93415579
_cell_formula_units_Z   1
loop_
 _symmetry_equiv_pos_site_id
 _symmetry_equiv_pos_as_xyz
  1  'x, y, z'
loop_
 _atom_site_type_symbol
 _atom_site_label
 _atom_site_symmetry_multiplicity
 _atom_site_fract_x
 _atom_site_fract_y
 _atom_site_fract_z
 _atom_site_occupancy
  I  I0  1  0.00000000  0.00000000  0.00000000  1
  I  I1  1  0.33300000  0.66700000  0.25000000  1
  I  I2  1  0.66700000  0.33300000  0.50000000  1
  I  I3  1  0.00000000  0.00000000  0.75000000  1
  Li  Li4  1  0.16846740  0.74828085  0.72747055  1
  Li  Li5  1  0.78016191  0.98596267  0.96803469  1
  Li  Li6  1  0.80252868  0.65257041  0.09879229  1
  Ti  Ti7  1  0.93708712  0.00890602  0.53657478  1
  N  N8  1  0.38302166  0.90413730  0.11276034  1
  N  N9  1  0.40361363  0.81317999  0.31343764  1
  N  N10  1  0.21355850  0.21812081  0.33319622  1
  N  N11  1  0.69029996  0.17944884  0.46879464  1
  N  N12  1  0.37075005  0.71905854  0.74560524  1
