# generated using pymatgen
data_LiCuAs3(PO)2
_symmetry_space_group_name_H-M   'P 1'
_cell_length_a   7.29630957
_cell_length_b   7.42020184
_cell_length_c   8.33768364
_cell_angle_alpha   91.71901743
_cell_angle_beta   93.34895375
_cell_angle_gamma   92.06154520
_symmetry_Int_Tables_number   1
_chemical_formula_structural   LiCuAs3(PO)2
_chemical_formula_sum   'Li2 Cu2 As6 P4 O4'
_cell_volume   450.10723361
_cell_formula_units_Z   2
loop_
 _symmetry_equiv_pos_site_id
 _symmetry_equiv_pos_as_xyz
  1  'x, y, z'
loop_
 _atom_site_type_symbol
 _atom_site_label
 _atom_site_symmetry_multiplicity
 _atom_site_fract_x
 _atom_site_fract_y
 _atom_site_fract_z
 _atom_site_occupancy
  O  O0  1  0.12500000  0.00000000  0.25000000  1
  O  O1  1  0.00000000  0.00000000  0.00000000  1
  O  O2  1  0.37500000  0.00000000  0.25000000  1
  O  O3  1  0.25000000  0.25000000  0.25000000  1
  P  P4  1  0.00000000  0.25000000  0.12500000  1
  P  P5  1  0.37674814  0.11161616  0.65709322  1
  P  P6  1  0.98599649  0.12333748  0.45338693  1
  P  P7  1  0.45178784  0.78979495  0.85791040  1
  As  As8  1  0.91754656  0.98288773  0.81335897  1
  As  As9  1  0.15881563  0.88765373  0.78778536  1
  As  As10  1  0.46385650  0.46959111  0.63877824  1
  As  As11  1  0.37020288  0.70262280  0.82166452  1
  As  As12  1  0.80823256  0.90607694  0.42178238  1
  As  As13  1  0.42930360  0.80848777  0.61146175  1
  Li  Li14  1  0.27736857  0.49710412  0.59558864  1
  Li  Li15  1  0.33566924  0.37883033  0.87055057  1
  Cu  Cu16  1  0.64571603  0.70650773  0.25665289  1
  Cu  Cu17  1  0.57854106  0.26762260  0.74600615  1
