# generated using pymatgen
data_Li3TiTe6P3Se
_symmetry_space_group_name_H-M   'P 1'
_cell_length_a   7.79145616
_cell_length_b   7.92847702
_cell_length_c   7.06667846
_cell_angle_alpha   93.63232680
_cell_angle_beta   94.63764707
_cell_angle_gamma   93.41698752
_symmetry_Int_Tables_number   1
_chemical_formula_structural   Li3TiTe6P3Se
_chemical_formula_sum   'Li3 Ti1 Te6 P3 Se1'
_cell_volume   433.31614756
_cell_formula_units_Z   1
loop_
 _symmetry_equiv_pos_site_id
 _symmetry_equiv_pos_as_xyz
  1  'x, y, z'
loop_
 _atom_site_type_symbol
 _atom_site_label
 _atom_site_symmetry_multiplicity
 _atom_site_fract_x
 _atom_site_fract_y
 _atom_site_fract_z
 _atom_site_occupancy
  P  P0  1  0.00000000  0.00000000  0.00000000  1
  P  P1  1  0.50000000  0.50000000  0.50000000  1
  P  P2  1  0.25000000  0.25000000  0.25000000  1
  Li  Li3  1  0.75000000  0.25000000  0.00000000  1
  Li  Li4  1  0.25000000  0.75000000  0.50000000  1
  Li  Li5  1  0.24881245  0.11191290  0.68726167  1
  Se  Se6  1  0.44439177  0.35457561  0.70780134  1
  Te  Te7  1  0.74783979  0.84647616  0.46148626  1
  Te  Te8  1  0.54261188  0.69205716  0.55674796  1
  Te  Te9  1  0.86820399  0.91672210  0.03987761  1
  Te  Te10  1  0.13835550  0.62099359  0.64655600  1
  Te  Te11  1  0.74635507  0.84901180  0.63771062  1
  Te  Te12  1  0.09295865  0.97196398  0.66477036  1
  Ti  Ti13  1  0.40289244  0.27191683  0.59599310  1
