# generated using pymatgen
data_LiMnSb4Mo2P3
_symmetry_space_group_name_H-M   'P 1'
_cell_length_a   4.83695312
_cell_length_b   5.05363095
_cell_length_c   6.53186242
_cell_angle_alpha   98.03266514
_cell_angle_beta   94.77390946
_cell_angle_gamma   98.33507134
_symmetry_Int_Tables_number   1
_chemical_formula_structural   LiMnSb4Mo2P3
_chemical_formula_sum   'Li1 Mn1 Sb4 Mo2 P3'
_cell_volume   155.55446902
_cell_formula_units_Z   1
loop_
 _symmetry_equiv_pos_site_id
 _symmetry_equiv_pos_as_xyz
  1  'x, y, z'
loop_
 _atom_site_type_symbol
 _atom_site_label
 _atom_site_symmetry_multiplicity
 _atom_site_fract_x
 _atom_site_fract_y
 _atom_site_fract_z
 _atom_site_occupancy
  Mn  Mn0  1  0.00000000  0.00000000  0.00000000  1
  Sb  Sb1  1  0.50000000  0.50000000  0.50000000  1
  Sb  Sb2  1  0.50000000  0.50000000  0.00000000  1
  Sb  Sb3  1  0.50000000  0.00000000  0.50000000  1
  Sb  Sb4  1  0.00000000  0.50000000  0.50000000  1
  P  P5  1  0.82920491  0.00313514  0.74083403  1
  P  P6  1  0.78131827  0.76556210  0.63780288  1
  P  P7  1  0.24561130  0.18717467  0.07411533  1
  Mo  Mo8  1  0.83712812  0.99456086  0.07781030  1
  Mo  Mo9  1  0.57077191  0.24523161  0.96340163  1
  Li  Li10  1  0.67096449  0.75920546  0.56186125  1
