# generated using pymatgen
data_Li3Ti2As6O7
_symmetry_space_group_name_H-M   'P 1'
_cell_length_a   7.02097587
_cell_length_b   6.74064462
_cell_length_c   8.23914097
_cell_angle_alpha   92.66479890
_cell_angle_beta   93.35872948
_cell_angle_gamma   92.73946960
_symmetry_Int_Tables_number   1
_chemical_formula_structural   Li3Ti2As6O7
_chemical_formula_sum   'Li3 Ti2 As6 O7'
_cell_volume   388.33479813
_cell_formula_units_Z   1
loop_
 _symmetry_equiv_pos_site_id
 _symmetry_equiv_pos_as_xyz
  1  'x, y, z'
loop_
 _atom_site_type_symbol
 _atom_site_label
 _atom_site_symmetry_multiplicity
 _atom_site_fract_x
 _atom_site_fract_y
 _atom_site_fract_z
 _atom_site_occupancy
  Li  Li0  1  0.00000000  0.00000000  0.00000000  1
  Li  Li1  1  0.33300000  0.66700000  0.25000000  1
  Li  Li2  1  0.66700000  0.33300000  0.50000000  1
  Ti  Ti3  1  0.00000000  0.00000000  0.75000000  1
  Ti  Ti4  1  0.50451737  0.97761128  0.31292318  1
  As  As5  1  0.39744850  0.67304265  0.70416015  1
  As  As6  1  0.23469761  0.35326302  0.09379286  1
  As  As7  1  0.65520478  0.53125176  0.56652342  1
  As  As8  1  0.73993657  0.91225057  0.19366921  1
  As  As9  1  0.30170841  0.10032354  0.69448537  1
  As  As10  1  0.37627893  0.97363869  0.82409226  1
  O  O11  1  0.70867943  0.86397757  0.03799307  1
  O  O12  1  0.73222330  0.71366943  0.30153276  1
  O  O13  1  0.06963107  0.35376879  0.71283915  1
  O  O14  1  0.93403674  0.75551078  0.48988059  1
  O  O15  1  0.19080321  0.76138306  0.96285244  1
  O  O16  1  0.61117854  0.23054934  0.42363653  1
  O  O17  1  0.95576277  0.04959859  0.67826708  1
