# generated using pymatgen
data_Li2TiCu2(NiP2)2
_symmetry_space_group_name_H-M   'P 1'
_cell_length_a   7.05419605
_cell_length_b   6.98207496
_cell_length_c   7.43085307
_cell_angle_alpha   91.01736045
_cell_angle_beta   91.72285129
_cell_angle_gamma   90.59346016
_symmetry_Int_Tables_number   1
_chemical_formula_structural   Li2TiCu2(NiP2)2
_chemical_formula_sum   'Li2 Ti1 Cu2 Ni2 P4'
_cell_volume   365.74641691
_cell_formula_units_Z   1
loop_
 _symmetry_equiv_pos_site_id
 _symmetry_equiv_pos_as_xyz
  1  'x, y, z'
loop_
 _atom_site_type_symbol
 _atom_site_label
 _atom_site_symmetry_multiplicity
 _atom_site_fract_x
 _atom_site_fract_y
 _atom_site_fract_z
 _atom_site_occupancy
  P  P0  1  0.12500000  0.00000000  0.25000000  1
  P  P1  1  0.00000000  0.00000000  0.00000000  1
  P  P2  1  0.37500000  0.00000000  0.25000000  1
  P  P3  1  0.25000000  0.25000000  0.25000000  1
  Li  Li4  1  0.00000000  0.25000000  0.12500000  1
  Li  Li5  1  0.42458042  0.76187881  0.48648030  1
  Cu  Cu6  1  0.37424884  0.61167877  0.28945110  1
  Cu  Cu7  1  0.21608743  0.90666528  0.31310272  1
  Ni  Ni8  1  0.93891745  0.54982191  0.65174518  1
  Ni  Ni9  1  0.10146419  0.02101731  0.87351765  1
  Ti  Ti10  1  0.10073317  0.80587403  0.10251056  1
