# generated using pymatgen
data_Li2TiCu2(As3O2)2
_symmetry_space_group_name_H-M   'P 1'
_cell_length_a   7.06591117
_cell_length_b   7.00605780
_cell_length_c   8.27076035
_cell_angle_alpha   93.66169584
_cell_angle_beta   94.36932731
_cell_angle_gamma   94.42884370
_symmetry_Int_Tables_number   1
_chemical_formula_structural   Li2TiCu2(As3O2)2
_chemical_formula_sum   'Li2 Ti1 Cu2 As6 O4'
_cell_volume   406.02519702
_cell_formula_units_Z   1
loop_
 _symmetry_equiv_pos_site_id
 _symmetry_equiv_pos_as_xyz
  1  'x, y, z'
loop_
 _atom_site_type_symbol
 _atom_site_label
 _atom_site_symmetry_multiplicity
 _atom_site_fract_x
 _atom_site_fract_y
 _atom_site_fract_z
 _atom_site_occupancy
  Li  Li0  1  0.00000000  0.00000000  0.00000000  1
  Li  Li1  1  0.50000000  0.50000000  0.50000000  1
  Cu  Cu2  1  0.50000000  0.50000000  0.00000000  1
  Cu  Cu3  1  0.50000000  0.00000000  0.50000000  1
  Ti  Ti4  1  0.00000000  0.50000000  0.50000000  1
  As  As5  1  0.72528753  0.55203505  0.46273671  1
  As  As6  1  0.52770213  0.77106541  0.88527338  1
  As  As7  1  0.51675753  0.76795856  0.68555913  1
  As  As8  1  0.60430219  0.33202296  0.34479035  1
  As  As9  1  0.72698392  0.92968425  0.70226763  1
  As  As10  1  0.80040414  0.21252070  0.81428204  1
  O  O11  1  0.31284975  0.42474988  0.36465589  1
  O  O12  1  0.13412817  0.65568492  0.90652702  1
  O  O13  1  0.64499352  0.94466134  0.94997842  1
  O  O14  1  0.44790504  0.65110565  0.52707655  1
