# generated using pymatgen
data_LiMn2Sb4P3
_symmetry_space_group_name_H-M   'P 1'
_cell_length_a   5.84273984
_cell_length_b   6.01610324
_cell_length_c   6.94601725
_cell_angle_alpha   96.07519811
_cell_angle_beta   93.85630540
_cell_angle_gamma   96.43340726
_symmetry_Int_Tables_number   1
_chemical_formula_structural   LiMn2Sb4P3
_chemical_formula_sum   'Li1 Mn2 Sb4 P3'
_cell_volume   240.48157057
_cell_formula_units_Z   1
loop_
 _symmetry_equiv_pos_site_id
 _symmetry_equiv_pos_as_xyz
  1  'x, y, z'
loop_
 _atom_site_type_symbol
 _atom_site_label
 _atom_site_symmetry_multiplicity
 _atom_site_fract_x
 _atom_site_fract_y
 _atom_site_fract_z
 _atom_site_occupancy
  Mn  Mn0  1  0.00000000  0.00000000  0.00000000  1
  Mn  Mn1  1  0.33300000  0.66700000  0.25000000  1
  Sb  Sb2  1  0.66700000  0.33300000  0.50000000  1
  Sb  Sb3  1  0.00000000  0.00000000  0.75000000  1
  Sb  Sb4  1  0.88943253  0.52832813  0.67494048  1
  Sb  Sb5  1  0.08500070  0.93235090  0.02951893  1
  P  P6  1  0.87519073  0.19097163  0.85453581  1
  P  P7  1  0.86329944  0.95531404  0.11658499  1
  P  P8  1  0.18493955  0.29893611  0.86062887  1
  Li  Li9  1  0.15410164  0.76036140  0.93705744  1
