# generated using pymatgen
data_Li3TiS2
_symmetry_space_group_name_H-M   'P 1'
_cell_length_a   3.13414374
_cell_length_b   3.19634959
_cell_length_c   6.53663482
_cell_angle_alpha   104.04951935
_cell_angle_beta   101.54647467
_cell_angle_gamma   105.38545958
_symmetry_Int_Tables_number   1
_chemical_formula_structural   Li3TiS2
_chemical_formula_sum   'Li3 Ti1 S2'
_cell_volume   58.74609813
_cell_formula_units_Z   1
loop_
 _symmetry_equiv_pos_site_id
 _symmetry_equiv_pos_as_xyz
  1  'x, y, z'
loop_
 _atom_site_type_symbol
 _atom_site_label
 _atom_site_symmetry_multiplicity
 _atom_site_fract_x
 _atom_site_fract_y
 _atom_site_fract_z
 _atom_site_occupancy
  Li  Li0  1  0.12500000  0.12500000  0.12500000  1
  Li  Li1  1  0.50000000  0.50000000  0.50000000  1
  Li  Li2  1  0.25000000  0.25000000  0.25000000  1
  Ti  Ti3  1  0.75000000  0.75000000  0.75000000  1
  S  S4  1  0.83526748  0.22264020  0.36718239  1
  S  S5  1  0.55346501  0.73805655  0.43247302  1
