# generated using pymatgen
data_Li2Ti2Cu2P5
_symmetry_space_group_name_H-M   'P 1'
_cell_length_a   8.01385214
_cell_length_b   7.74721180
_cell_length_c   8.10776093
_cell_angle_alpha   91.45197577
_cell_angle_beta   91.69725245
_cell_angle_gamma   91.54401178
_symmetry_Int_Tables_number   1
_chemical_formula_structural   Li2Ti2Cu2P5
_chemical_formula_sum   'Li2 Ti2 Cu2 P5'
_cell_volume   502.79479080
_cell_formula_units_Z   1
loop_
 _symmetry_equiv_pos_site_id
 _symmetry_equiv_pos_as_xyz
  1  'x, y, z'
loop_
 _atom_site_type_symbol
 _atom_site_label
 _atom_site_symmetry_multiplicity
 _atom_site_fract_x
 _atom_site_fract_y
 _atom_site_fract_z
 _atom_site_occupancy
  P  P0  1  0.00000000  0.00000000  0.00000000  1
  P  P1  1  0.50000000  0.50000000  0.50000000  1
  P  P2  1  0.25000000  0.25000000  0.25000000  1
  P  P3  1  0.75000000  0.25000000  0.00000000  1
  P  P4  1  0.25000000  0.75000000  0.50000000  1
  Li  Li5  1  0.02053886  0.43270881  0.62249649  1
  Li  Li6  1  0.71914894  0.16075712  0.94356314  1
  Cu  Cu7  1  0.37199282  0.61688866  0.39086720  1
  Cu  Cu8  1  0.07606409  0.40640387  0.39424973  1
  Ti  Ti9  1  0.18473848  0.85293720  0.59154543  1
  Ti  Ti10  1  0.06788523  0.02814633  0.25788081  1
