# generated using pymatgen
data_LiCuAs3O
_symmetry_space_group_name_H-M   'P 1'
_cell_length_a   6.87073687
_cell_length_b   7.09212917
_cell_length_c   8.01844832
_cell_angle_alpha   93.96784756
_cell_angle_beta   96.26990581
_cell_angle_gamma   94.64396412
_symmetry_Int_Tables_number   1
_chemical_formula_structural   LiCuAs3O
_chemical_formula_sum   'Li2 Cu2 As6 O2'
_cell_volume   385.90924986
_cell_formula_units_Z   2
loop_
 _symmetry_equiv_pos_site_id
 _symmetry_equiv_pos_as_xyz
  1  'x, y, z'
loop_
 _atom_site_type_symbol
 _atom_site_label
 _atom_site_symmetry_multiplicity
 _atom_site_fract_x
 _atom_site_fract_y
 _atom_site_fract_z
 _atom_site_occupancy
  Li  Li0  1  0.12500000  0.00000000  0.25000000  1
  Li  Li1  1  0.00000000  0.00000000  0.00000000  1
  Cu  Cu2  1  0.37500000  0.00000000  0.25000000  1
  Cu  Cu3  1  0.25000000  0.25000000  0.25000000  1
  As  As4  1  0.00000000  0.25000000  0.12500000  1
  As  As5  1  0.98510834  0.97309375  0.74748655  1
  As  As6  1  0.75137457  0.53938865  0.27235326  1
  As  As7  1  0.57133826  0.03433216  0.32033987  1
  As  As8  1  0.21629244  0.33811323  0.22956385  1
  As  As9  1  0.26146162  0.96650311  0.18838402  1
  O  O10  1  0.99247820  0.99369899  0.34253302  1
  O  O11  1  0.44736027  0.36700572  0.18796398  1
