# generated using pymatgen
data_LiMn2Sb4Mo2P3
_symmetry_space_group_name_H-M   'P 1'
_cell_length_a   6.24655023
_cell_length_b   6.55989912
_cell_length_c   6.54672753
_cell_angle_alpha   91.08628770
_cell_angle_beta   89.98153206
_cell_angle_gamma   90.65874955
_symmetry_Int_Tables_number   1
_chemical_formula_structural   LiMn2Sb4Mo2P3
_chemical_formula_sum   'Li1 Mn2 Sb4 Mo2 P3'
_cell_volume   268.19760557
_cell_formula_units_Z   1
loop_
 _symmetry_equiv_pos_site_id
 _symmetry_equiv_pos_as_xyz
  1  'x, y, z'
loop_
 _atom_site_type_symbol
 _atom_site_label
 _atom_site_symmetry_multiplicity
 _atom_site_fract_x
 _atom_site_fract_y
 _atom_site_fract_z
 _atom_site_occupancy
  Mn  Mn0  1  0.00000000  0.00000000  0.00000000  1
  Mn  Mn1  1  0.50000000  0.50000000  0.50000000  1
  Sb  Sb2  1  0.25000000  0.25000000  0.25000000  1
  Sb  Sb3  1  0.75000000  0.25000000  0.00000000  1
  Sb  Sb4  1  0.25000000  0.75000000  0.50000000  1
  Sb  Sb5  1  0.64301525  0.57803458  0.72578610  1
  P  P6  1  0.99231890  0.84183354  0.73340804  1
  P  P7  1  0.60537951  0.36208882  0.42937917  1
  P  P8  1  0.49230868  0.05399370  0.53631008  1
  Mo  Mo9  1  0.12220365  0.15875950  0.01138024  1
  Mo  Mo10  1  0.13118243  0.16328768  0.59493348  1
  Li  Li11  1  0.37309136  0.85830462  0.48743165  1
