# generated using pymatgen
data_Li2As6P5
_symmetry_space_group_name_H-M   'P 1'
_cell_length_a   7.21803831
_cell_length_b   7.00703813
_cell_length_c   7.87398537
_cell_angle_alpha   93.25692052
_cell_angle_beta   93.85855621
_cell_angle_gamma   93.09011151
_symmetry_Int_Tables_number   1
_chemical_formula_structural   Li2As6P5
_chemical_formula_sum   'Li2 As6 P5'
_cell_volume   396.03183842
_cell_formula_units_Z   1
loop_
 _symmetry_equiv_pos_site_id
 _symmetry_equiv_pos_as_xyz
  1  'x, y, z'
loop_
 _atom_site_type_symbol
 _atom_site_label
 _atom_site_symmetry_multiplicity
 _atom_site_fract_x
 _atom_site_fract_y
 _atom_site_fract_z
 _atom_site_occupancy
  P  P0  1  0.12500000  0.00000000  0.25000000  1
  P  P1  1  0.00000000  0.00000000  0.00000000  1
  P  P2  1  0.37500000  0.00000000  0.25000000  1
  P  P3  1  0.25000000  0.25000000  0.25000000  1
  P  P4  1  0.00000000  0.25000000  0.12500000  1
  Li  Li5  1  0.01362064  0.03709100  0.54134833  1
  Li  Li6  1  0.60535847  0.11298299  0.16925892  1
  As  As7  1  0.00324808  0.14617616  0.34335349  1
  As  As8  1  0.91113322  0.48940638  0.09390596  1
  As  As9  1  0.07013540  0.58420114  0.58387574  1
  As  As10  1  0.30534962  0.75859351  0.37341256  1
  As  As11  1  0.56480331  0.38947969  0.80879462  1
  As  As12  1  0.72115768  0.36076253  0.23944447  1
