# generated using pymatgen
data_LiCu2F2
_symmetry_space_group_name_H-M   'P 1'
_cell_length_a   6.58976484
_cell_length_b   6.68311413
_cell_length_c   7.83692824
_cell_angle_alpha   91.08522725
_cell_angle_beta   95.16318168
_cell_angle_gamma   91.24070453
_symmetry_Int_Tables_number   1
_chemical_formula_structural   LiCu2F2
_chemical_formula_sum   'Li1 Cu2 F2'
_cell_volume   343.58285584
_cell_formula_units_Z   1
loop_
 _symmetry_equiv_pos_site_id
 _symmetry_equiv_pos_as_xyz
  1  'x, y, z'
loop_
 _atom_site_type_symbol
 _atom_site_label
 _atom_site_symmetry_multiplicity
 _atom_site_fract_x
 _atom_site_fract_y
 _atom_site_fract_z
 _atom_site_occupancy
  F  F0  1  0.00000000  0.00000000  0.00000000  1
  F  F1  1  0.33300000  0.66700000  0.25000000  1
  Li  Li2  1  0.66700000  0.33300000  0.50000000  1
  Cu  Cu3  1  0.00000000  0.00000000  0.75000000  1
  Cu  Cu4  1  0.47709932  0.55334989  0.98795216  1
