# generated using pymatgen
data_LiMn(Sb2P)2
_symmetry_space_group_name_H-M   'P 1'
_cell_length_a   5.72109300
_cell_length_b   6.11800575
_cell_length_c   6.84852525
_cell_angle_alpha   96.58006417
_cell_angle_beta   93.12888100
_cell_angle_gamma   96.81463667
_symmetry_Int_Tables_number   1
_chemical_formula_structural   LiMn(Sb2P)2
_chemical_formula_sum   'Li1 Mn1 Sb4 P2'
_cell_volume   235.88301034
_cell_formula_units_Z   1
loop_
 _symmetry_equiv_pos_site_id
 _symmetry_equiv_pos_as_xyz
  1  'x, y, z'
loop_
 _atom_site_type_symbol
 _atom_site_label
 _atom_site_symmetry_multiplicity
 _atom_site_fract_x
 _atom_site_fract_y
 _atom_site_fract_z
 _atom_site_occupancy
  Mn  Mn0  1  0.00000000  0.00000000  0.00000000  1
  Sb  Sb1  1  0.33300000  0.66700000  0.25000000  1
  Sb  Sb2  1  0.66700000  0.33300000  0.50000000  1
  Sb  Sb3  1  0.00000000  0.00000000  0.75000000  1
  Sb  Sb4  1  0.89190124  0.47835995  0.35663839  1
  P  P5  1  0.20429525  0.10764346  0.95689244  1
  P  P6  1  0.49150015  0.26700738  0.88759768  1
  Li  Li7  1  0.34115466  0.63628085  0.83651756  1
