# generated using pymatgen
data_Li2Mn2Sb4Mo2P3
_symmetry_space_group_name_H-M   'P 1'
_cell_length_a   5.93679661
_cell_length_b   6.38693796
_cell_length_c   6.88419467
_cell_angle_alpha   96.61590737
_cell_angle_beta   91.92971830
_cell_angle_gamma   96.70702859
_symmetry_Int_Tables_number   1
_chemical_formula_structural   Li2Mn2Sb4Mo2P3
_chemical_formula_sum   'Li2 Mn2 Sb4 Mo2 P3'
_cell_volume   257.22771813
_cell_formula_units_Z   1
loop_
 _symmetry_equiv_pos_site_id
 _symmetry_equiv_pos_as_xyz
  1  'x, y, z'
loop_
 _atom_site_type_symbol
 _atom_site_label
 _atom_site_symmetry_multiplicity
 _atom_site_fract_x
 _atom_site_fract_y
 _atom_site_fract_z
 _atom_site_occupancy
  Mn  Mn0  1  0.00000000  0.00000000  0.00000000  1
  Mn  Mn1  1  0.50000000  0.50000000  0.50000000  1
  Sb  Sb2  1  0.25000000  0.25000000  0.25000000  1
  Sb  Sb3  1  0.75000000  0.25000000  0.00000000  1
  Sb  Sb4  1  0.25000000  0.75000000  0.50000000  1
  Sb  Sb5  1  0.55579973  0.39006136  0.11077862  1
  P  P6  1  0.25279880  0.25614327  0.69034619  1
  P  P7  1  0.40910904  0.35237852  0.50745508  1
  P  P8  1  0.48276766  0.52174715  0.16273974  1
  Mo  Mo9  1  0.67308648  0.37033535  0.28724832  1
  Mo  Mo10  1  0.49905606  0.24486945  0.99118262  1
  Li  Li11  1  0.02136891  0.86798723  0.26450721  1
  Li  Li12  1  0.37490920  0.55200284  0.34156871  1
