# generated using pymatgen
data_Li3Lu(CuP2)2
_symmetry_space_group_name_H-M   'P 1'
_cell_length_a   7.12194662
_cell_length_b   7.02952370
_cell_length_c   7.67418150
_cell_angle_alpha   93.88643104
_cell_angle_beta   94.91781650
_cell_angle_gamma   94.87423494
_symmetry_Int_Tables_number   1
_chemical_formula_structural   Li3Lu(CuP2)2
_chemical_formula_sum   'Li3 Lu1 Cu2 P4'
_cell_volume   380.30885270
_cell_formula_units_Z   1
loop_
 _symmetry_equiv_pos_site_id
 _symmetry_equiv_pos_as_xyz
  1  'x, y, z'
loop_
 _atom_site_type_symbol
 _atom_site_label
 _atom_site_symmetry_multiplicity
 _atom_site_fract_x
 _atom_site_fract_y
 _atom_site_fract_z
 _atom_site_occupancy
  P  P0  1  0.12500000  0.00000000  0.25000000  1
  P  P1  1  0.00000000  0.00000000  0.00000000  1
  P  P2  1  0.37500000  0.00000000  0.25000000  1
  P  P3  1  0.25000000  0.25000000  0.25000000  1
  Lu  Lu4  1  0.00000000  0.25000000  0.12500000  1
  Li  Li5  1  0.25850211  0.63855547  0.35364041  1
  Li  Li6  1  0.98696175  0.83296805  0.37741132  1
  Li  Li7  1  0.10807446  0.78297646  0.70052006  1
  Cu  Cu8  1  0.70218601  0.21612669  0.49093218  1
  Cu  Cu9  1  0.09837232  0.88190298  0.53491686  1
