# generated using pymatgen
data_Li2TiP6(O2F)2
_symmetry_space_group_name_H-M   'P 1'
_cell_length_a   8.55555516
_cell_length_b   8.30310874
_cell_length_c   7.71871363
_cell_angle_alpha   90.12160410
_cell_angle_beta   90.57855540
_cell_angle_gamma   90.13902596
_symmetry_Int_Tables_number   1
_chemical_formula_structural   Li2TiP6(O2F)2
_chemical_formula_sum   'Li2 Ti1 P6 O4 F2'
_cell_volume   548.28886856
_cell_formula_units_Z   1
loop_
 _symmetry_equiv_pos_site_id
 _symmetry_equiv_pos_as_xyz
  1  'x, y, z'
loop_
 _atom_site_type_symbol
 _atom_site_label
 _atom_site_symmetry_multiplicity
 _atom_site_fract_x
 _atom_site_fract_y
 _atom_site_fract_z
 _atom_site_occupancy
  P  P0  1  0.00000000  0.00000000  0.00000000  1
  P  P1  1  0.50000000  0.50000000  0.50000000  1
  P  P2  1  0.50000000  0.50000000  0.00000000  1
  P  P3  1  0.50000000  0.00000000  0.50000000  1
  P  P4  1  0.00000000  0.50000000  0.50000000  1
  P  P5  1  0.99444070  0.30888735  0.34760804  1
  Li  Li6  1  0.89802304  0.41392420  0.10121041  1
  Li  Li7  1  0.20863727  0.97056058  0.19985587  1
  F  F8  1  0.49438180  0.43651346  0.97118634  1
  F  F9  1  0.88454851  0.50880266  0.53155886  1
  Ti  Ti10  1  0.76944585  0.93589485  0.35810844  1
  O  O11  1  0.94384128  0.32630153  0.05893280  1
  O  O12  1  0.65505956  0.46647059  0.42506183  1
  O  O13  1  0.38045361  0.42145514  0.40383725  1
  O  O14  1  0.18319051  0.74041806  0.97954188  1
