# generated using pymatgen
data_LiMn2(Sb2P)2
_symmetry_space_group_name_H-M   'P 1'
_cell_length_a   5.42862919
_cell_length_b   5.83318172
_cell_length_c   6.40450975
_cell_angle_alpha   96.59896092
_cell_angle_beta   96.61459355
_cell_angle_gamma   94.15219245
_symmetry_Int_Tables_number   1
_chemical_formula_structural   LiMn2(Sb2P)2
_chemical_formula_sum   'Li1 Mn2 Sb4 P2'
_cell_volume   199.36651764
_cell_formula_units_Z   1
loop_
 _symmetry_equiv_pos_site_id
 _symmetry_equiv_pos_as_xyz
  1  'x, y, z'
loop_
 _atom_site_type_symbol
 _atom_site_label
 _atom_site_symmetry_multiplicity
 _atom_site_fract_x
 _atom_site_fract_y
 _atom_site_fract_z
 _atom_site_occupancy
  Mn  Mn0  1  0.00000000  0.00000000  0.00000000  1
  Mn  Mn1  1  0.33300000  0.66700000  0.25000000  1
  Sb  Sb2  1  0.66700000  0.33300000  0.50000000  1
  Sb  Sb3  1  0.00000000  0.00000000  0.75000000  1
  Sb  Sb4  1  0.22349427  0.19098707  0.63213534  1
  Sb  Sb5  1  0.00018789  0.16860089  0.13328979  1
  P  P6  1  0.07729567  0.05520009  0.35581099  1
  P  P7  1  0.63009034  0.41774786  0.71468800  1
  Li  Li8  1  0.04546794  0.43482865  0.44258559  1
