# generated using pymatgen
data_Li2Ti(CuP2)2
_symmetry_space_group_name_H-M   'P 1'
_cell_length_a   6.67691653
_cell_length_b   6.45785384
_cell_length_c   7.36009434
_cell_angle_alpha   93.27299706
_cell_angle_beta   94.29309172
_cell_angle_gamma   92.82920447
_symmetry_Int_Tables_number   1
_chemical_formula_structural   Li2Ti(CuP2)2
_chemical_formula_sum   'Li2 Ti1 Cu2 P4'
_cell_volume   315.49114551
_cell_formula_units_Z   1
loop_
 _symmetry_equiv_pos_site_id
 _symmetry_equiv_pos_as_xyz
  1  'x, y, z'
loop_
 _atom_site_type_symbol
 _atom_site_label
 _atom_site_symmetry_multiplicity
 _atom_site_fract_x
 _atom_site_fract_y
 _atom_site_fract_z
 _atom_site_occupancy
  P  P0  1  0.12500000  0.12500000  0.12500000  1
  P  P1  1  0.50000000  0.50000000  0.50000000  1
  P  P2  1  0.25000000  0.25000000  0.25000000  1
  P  P3  1  0.75000000  0.75000000  0.75000000  1
  Li  Li4  1  0.76151899  0.69004912  0.44609780  1
  Li  Li5  1  0.28818332  0.84636376  0.58465471  1
  Cu  Cu6  1  0.90967722  0.29544219  0.59874185  1
  Cu  Cu7  1  0.01975731  0.22785382  0.98064539  1
  Ti  Ti8  1  0.23342680  0.81930756  0.63545563  1
