# generated using pymatgen
data_Li2MnSb4Mo2P3
_symmetry_space_group_name_H-M   'P 1'
_cell_length_a   4.05431370
_cell_length_b   4.23930404
_cell_length_c   6.13785908
_cell_angle_alpha   104.12074858
_cell_angle_beta   94.26363193
_cell_angle_gamma   104.33541537
_symmetry_Int_Tables_number   1
_chemical_formula_structural   Li2MnSb4Mo2P3
_chemical_formula_sum   'Li2 Mn1 Sb4 Mo2 P3'
_cell_volume   98.09642636
_cell_formula_units_Z   1
loop_
 _symmetry_equiv_pos_site_id
 _symmetry_equiv_pos_as_xyz
  1  'x, y, z'
loop_
 _atom_site_type_symbol
 _atom_site_label
 _atom_site_symmetry_multiplicity
 _atom_site_fract_x
 _atom_site_fract_y
 _atom_site_fract_z
 _atom_site_occupancy
  Mn  Mn0  1  0.12500000  0.00000000  0.25000000  1
  Sb  Sb1  1  0.00000000  0.00000000  0.00000000  1
  Sb  Sb2  1  0.37500000  0.00000000  0.25000000  1
  Sb  Sb3  1  0.25000000  0.25000000  0.25000000  1
  Sb  Sb4  1  0.00000000  0.25000000  0.12500000  1
  P  P5  1  0.90143555  0.61043641  0.19678577  1
  P  P6  1  0.40963469  0.20175294  0.94269449  1
  P  P7  1  0.19071024  0.62596169  0.09519926  1
  Mo  Mo8  1  0.35187517  0.05755221  0.56306988  1
  Mo  Mo9  1  0.34319454  0.73051159  0.58262283  1
  Li  Li10  1  0.89569215  0.28238801  0.42248236  1
  Li  Li11  1  0.83749729  0.28960564  0.10803657  1
