# generated using pymatgen
data_Li3LuNi2(IO)4
_symmetry_space_group_name_H-M   'P 1'
_cell_length_a   8.38855470
_cell_length_b   8.23567862
_cell_length_c   7.69445842
_cell_angle_alpha   90.66319338
_cell_angle_beta   90.50619777
_cell_angle_gamma   90.76819910
_symmetry_Int_Tables_number   1
_chemical_formula_structural   Li3LuNi2(IO)4
_chemical_formula_sum   'Li3 Lu1 Ni2 I4 O4'
_cell_volume   531.47018121
_cell_formula_units_Z   1
loop_
 _symmetry_equiv_pos_site_id
 _symmetry_equiv_pos_as_xyz
  1  'x, y, z'
loop_
 _atom_site_type_symbol
 _atom_site_label
 _atom_site_symmetry_multiplicity
 _atom_site_fract_x
 _atom_site_fract_y
 _atom_site_fract_z
 _atom_site_occupancy
  I  I0  1  0.00000000  0.00000000  0.00000000  1
  I  I1  1  0.50000000  0.50000000  0.50000000  1
  I  I2  1  0.50000000  0.50000000  0.00000000  1
  I  I3  1  0.50000000  0.00000000  0.50000000  1
  Lu  Lu4  1  0.00000000  0.50000000  0.50000000  1
  Li  Li5  1  0.09082994  0.98060352  0.88166497  1
  Li  Li6  1  0.77473867  0.39604498  0.63157694  1
  Li  Li7  1  0.69243802  0.95393291  0.46587029  1
  Ni  Ni8  1  0.45399752  0.01084871  0.47171319  1
  Ni  Ni9  1  0.00529603  0.29729478  0.43903663  1
  O  O10  1  0.10449095  0.91208502  0.24124804  1
  O  O11  1  0.68562661  0.12609108  0.23700958  1
  O  O12  1  0.83660233  0.54964941  0.42681545  1
  O  O13  1  0.28439273  0.47911274  0.82224575  1
