# generated using pymatgen
data_LiAs3P3F
_symmetry_space_group_name_H-M   'P 1'
_cell_length_a   8.14948949
_cell_length_b   7.89272264
_cell_length_c   8.38256755
_cell_angle_alpha   90.75314781
_cell_angle_beta   90.91321776
_cell_angle_gamma   90.87112007
_symmetry_Int_Tables_number   1
_chemical_formula_structural   LiAs3P3F
_chemical_formula_sum   'Li2 As6 P6 F2'
_cell_volume   539.00154031
_cell_formula_units_Z   2
loop_
 _symmetry_equiv_pos_site_id
 _symmetry_equiv_pos_as_xyz
  1  'x, y, z'
loop_
 _atom_site_type_symbol
 _atom_site_label
 _atom_site_symmetry_multiplicity
 _atom_site_fract_x
 _atom_site_fract_y
 _atom_site_fract_z
 _atom_site_occupancy
  P  P0  1  0.00000000  0.00000000  0.00000000  1
  P  P1  1  0.33300000  0.66700000  0.25000000  1
  P  P2  1  0.66700000  0.33300000  0.50000000  1
  P  P3  1  0.00000000  0.00000000  0.75000000  1
  P  P4  1  0.11995151  0.31278788  0.34981786  1
  P  P5  1  0.10587442  0.97489392  0.40236597  1
  Li  Li6  1  0.90329525  0.21676816  0.34848700  1
  Li  Li7  1  0.03289795  0.80466835  0.52005128  1
  F  F8  1  0.90828850  0.65668313  0.63415618  1
  F  F9  1  0.05377511  0.50310554  0.35731348  1
  As  As10  1  0.07824496  0.99504955  0.89621988  1
  As  As11  1  0.46922878  0.89180718  0.32008199  1
  As  As12  1  0.96231809  0.60773528  0.02864660  1
  As  As13  1  0.78084440  0.27097899  0.63587271  1
  As  As14  1  0.16255446  0.71247221  0.24371935  1
  As  As15  1  0.55384696  0.87600642  0.31325828  1
