# generated using pymatgen
data_Li3LuNi2P4N5
_symmetry_space_group_name_H-M   'P 1'
_cell_length_a   7.47457768
_cell_length_b   7.15341886
_cell_length_c   8.54623308
_cell_angle_alpha   92.81980164
_cell_angle_beta   91.33097372
_cell_angle_gamma   93.26936853
_symmetry_Int_Tables_number   1
_chemical_formula_structural   Li3LuNi2P4N5
_chemical_formula_sum   'Li3 Lu1 Ni2 P4 N5'
_cell_volume   455.50527840
_cell_formula_units_Z   1
loop_
 _symmetry_equiv_pos_site_id
 _symmetry_equiv_pos_as_xyz
  1  'x, y, z'
loop_
 _atom_site_type_symbol
 _atom_site_label
 _atom_site_symmetry_multiplicity
 _atom_site_fract_x
 _atom_site_fract_y
 _atom_site_fract_z
 _atom_site_occupancy
  P  P0  1  0.00000000  0.00000000  0.00000000  1
  P  P1  1  0.50000000  0.50000000  0.50000000  1
  P  P2  1  0.25000000  0.25000000  0.25000000  1
  P  P3  1  0.75000000  0.25000000  0.00000000  1
  Lu  Lu4  1  0.25000000  0.75000000  0.50000000  1
  Li  Li5  1  0.06409695  0.40751974  0.93821211  1
  Li  Li6  1  0.80576255  0.51421878  0.38775887  1
  Li  Li7  1  0.60831162  0.30556344  0.33845169  1
  Ni  Ni8  1  0.60336067  0.18491974  0.87387261  1
  Ni  Ni9  1  0.62430993  0.35755695  0.81245254  1
  N  N10  1  0.38955664  0.17241043  0.72061505  1
  N  N11  1  0.97341831  0.27649115  0.47722966  1
  N  N12  1  0.45104027  0.76945226  0.96668925  1
  N  N13  1  0.28882083  0.87792358  0.43082560  1
  N  N14  1  0.88266638  0.95025512  0.15419963  1
