# generated using pymatgen
data_Li3Ni2O5
_symmetry_space_group_name_H-M   'P 1'
_cell_length_a   8.48269950
_cell_length_b   8.34682209
_cell_length_c   8.91642737
_cell_angle_alpha   90.00000000
_cell_angle_beta   90.00000000
_cell_angle_gamma   90.00000000
_symmetry_Int_Tables_number   1
_chemical_formula_structural   Li3Ni2O5
_chemical_formula_sum   'Li3 Ni2 O5'
_cell_volume   631.31501095
_cell_formula_units_Z   1
loop_
 _symmetry_equiv_pos_site_id
 _symmetry_equiv_pos_as_xyz
  1  'x, y, z'
loop_
 _atom_site_type_symbol
 _atom_site_label
 _atom_site_symmetry_multiplicity
 _atom_site_fract_x
 _atom_site_fract_y
 _atom_site_fract_z
 _atom_site_occupancy
  Li  Li0  1  0.00000000  0.00000000  0.00000000  1
  Li  Li1  1  0.50000000  0.50000000  0.50000000  1
  Li  Li2  1  0.50000000  0.50000000  0.00000000  1
  Ni  Ni3  1  0.50000000  0.00000000  0.50000000  1
  Ni  Ni4  1  0.00000000  0.50000000  0.50000000  1
  O  O5  1  0.05570927  0.67282979  0.15833939  1
  O  O6  1  0.53904293  0.00951833  0.99748391  1
  O  O7  1  0.55493883  0.72274567  0.85333012  1
  O  O8  1  0.48499465  0.75593540  0.58719598  1
  O  O9  1  0.13209767  0.21959146  0.23453813  1
