# generated using pymatgen
data_LiTiNiAs3F
_symmetry_space_group_name_H-M   'P 1'
_cell_length_a   8.35899730
_cell_length_b   8.13145548
_cell_length_c   7.85757898
_cell_angle_alpha   90.81262578
_cell_angle_beta   90.63744455
_cell_angle_gamma   90.94122682
_symmetry_Int_Tables_number   1
_chemical_formula_structural   LiTiNiAs3F
_chemical_formula_sum   'Li2 Ti2 Ni2 As6 F2'
_cell_volume   533.92580897
_cell_formula_units_Z   2
loop_
 _symmetry_equiv_pos_site_id
 _symmetry_equiv_pos_as_xyz
  1  'x, y, z'
loop_
 _atom_site_type_symbol
 _atom_site_label
 _atom_site_symmetry_multiplicity
 _atom_site_fract_x
 _atom_site_fract_y
 _atom_site_fract_z
 _atom_site_occupancy
  Li  Li0  1  0.00000000  0.00000000  0.00000000  1
  Li  Li1  1  0.50000000  0.50000000  0.50000000  1
  F  F2  1  0.25000000  0.25000000  0.25000000  1
  F  F3  1  0.75000000  0.25000000  0.00000000  1
  Ni  Ni4  1  0.25000000  0.75000000  0.50000000  1
  Ni  Ni5  1  0.38026826  0.98127094  0.15355318  1
  Ti  Ti6  1  0.87092788  0.80946295  0.40060853  1
  Ti  Ti7  1  0.65294541  0.54049346  0.32323916  1
  As  As8  1  0.67919182  0.12470151  0.21897310  1
  As  As9  1  0.10942961  0.75245100  0.41048676  1
  As  As10  1  0.92855143  0.02543243  0.70414300  1
  As  As11  1  0.14819289  0.15246182  0.99556533  1
  As  As12  1  0.93067114  0.74063695  0.60493437  1
  As  As13  1  0.05888806  0.72762389  0.53911800  1
