# generated using pymatgen
data_Li4LuNi2P4N5
_symmetry_space_group_name_H-M   'P 1'
_cell_length_a   7.43249497
_cell_length_b   7.05219556
_cell_length_c   8.86811598
_cell_angle_alpha   93.49759716
_cell_angle_beta   91.23654746
_cell_angle_gamma   94.05678930
_symmetry_Int_Tables_number   1
_chemical_formula_structural   Li4LuNi2P4N5
_chemical_formula_sum   'Li4 Lu1 Ni2 P4 N5'
_cell_volume   462.64105756
_cell_formula_units_Z   1
loop_
 _symmetry_equiv_pos_site_id
 _symmetry_equiv_pos_as_xyz
  1  'x, y, z'
loop_
 _atom_site_type_symbol
 _atom_site_label
 _atom_site_symmetry_multiplicity
 _atom_site_fract_x
 _atom_site_fract_y
 _atom_site_fract_z
 _atom_site_occupancy
  P  P0  1  0.00000000  0.00000000  0.00000000  1
  P  P1  1  0.50000000  0.50000000  0.50000000  1
  P  P2  1  0.50000000  0.50000000  0.00000000  1
  P  P3  1  0.50000000  0.00000000  0.50000000  1
  Lu  Lu4  1  0.00000000  0.50000000  0.50000000  1
  Li  Li5  1  0.87403643  0.18977285  0.27697436  1
  Li  Li6  1  0.33532694  0.87523780  0.49384388  1
  Li  Li7  1  0.74551331  0.84146011  0.93419252  1
  Li  Li8  1  0.37874979  0.70548183  0.64418387  1
  Ni  Ni9  1  0.30732845  0.13796110  0.09325646  1
  Ni  Ni10  1  0.79642308  0.81939757  0.19182374  1
  N  N11  1  0.68764118  0.13632673  0.54174263  1
  N  N12  1  0.57604684  0.20412413  0.58647111  1
  N  N13  1  0.66886558  0.68897297  0.56024104  1
  N  N14  1  0.61683867  0.90895718  0.71634856  1
  N  N15  1  0.02971347  0.54051946  0.81647971  1
