# generated using pymatgen
data_Li3Cu2As6O7F3
_symmetry_space_group_name_H-M   'P 1'
_cell_length_a   8.14990149
_cell_length_b   8.04011424
_cell_length_c   9.40988974
_cell_angle_alpha   90.09509773
_cell_angle_beta   90.55292631
_cell_angle_gamma   90.10531022
_symmetry_Int_Tables_number   1
_chemical_formula_structural   Li3Cu2As6O7F3
_chemical_formula_sum   'Li3 Cu2 As6 O7 F3'
_cell_volume   616.56312285
_cell_formula_units_Z   1
loop_
 _symmetry_equiv_pos_site_id
 _symmetry_equiv_pos_as_xyz
  1  'x, y, z'
loop_
 _atom_site_type_symbol
 _atom_site_label
 _atom_site_symmetry_multiplicity
 _atom_site_fract_x
 _atom_site_fract_y
 _atom_site_fract_z
 _atom_site_occupancy
  Li  Li0  1  0.00000000  0.00000000  0.00000000  1
  Li  Li1  1  0.50000000  0.50000000  0.50000000  1
  Li  Li2  1  0.25000000  0.25000000  0.25000000  1
  Cu  Cu3  1  0.75000000  0.25000000  0.00000000  1
  Cu  Cu4  1  0.25000000  0.75000000  0.50000000  1
  F  F5  1  0.35167132  0.71946468  0.87515469  1
  F  F6  1  0.31282474  0.45655779  0.01478378  1
  F  F7  1  0.24400907  0.62704019  0.44559635  1
  As  As8  1  0.18022820  0.64532766  0.02633856  1
  As  As9  1  0.49364548  0.22934118  0.96731922  1
  As  As10  1  0.90290044  0.69851136  0.19485672  1
  As  As11  1  0.11632132  0.58212073  0.17652622  1
  As  As12  1  0.60832860  0.32142006  0.16752852  1
  As  As13  1  0.46163632  0.30008109  0.44645768  1
  O  O14  1  0.17947638  0.10980741  0.61487087  1
  O  O15  1  0.12480737  0.04929268  0.99670712  1
  O  O16  1  0.80462896  0.60012205  0.63629994  1
  O  O17  1  0.63369480  0.54600755  0.23012859  1
  O  O18  1  0.28056438  0.91913592  0.34124588  1
  O  O19  1  0.76668073  0.71275910  0.25426115  1
  O  O20  1  0.45456541  0.90315867  0.00061750  1
