# generated using pymatgen
data_LiMnSb2P
_symmetry_space_group_name_H-M   'P 1'
_cell_length_a   5.25011311
_cell_length_b   5.52723888
_cell_length_c   6.61373371
_cell_angle_alpha   99.21598492
_cell_angle_beta   98.36837408
_cell_angle_gamma   96.56833803
_symmetry_Int_Tables_number   1
_chemical_formula_structural   LiMnSb2P
_chemical_formula_sum   'Li2 Mn2 Sb4 P2'
_cell_volume   185.55460505
_cell_formula_units_Z   2
loop_
 _symmetry_equiv_pos_site_id
 _symmetry_equiv_pos_as_xyz
  1  'x, y, z'
loop_
 _atom_site_type_symbol
 _atom_site_label
 _atom_site_symmetry_multiplicity
 _atom_site_fract_x
 _atom_site_fract_y
 _atom_site_fract_z
 _atom_site_occupancy
  Mn  Mn0  1  0.00000000  0.00000000  0.00000000  1
  Mn  Mn1  1  0.50000000  0.50000000  0.50000000  1
  Sb  Sb2  1  0.25000000  0.25000000  0.25000000  1
  Sb  Sb3  1  0.75000000  0.25000000  0.00000000  1
  Sb  Sb4  1  0.25000000  0.75000000  0.50000000  1
  Sb  Sb5  1  0.65172402  0.10247758  0.62503974  1
  P  P6  1  0.33881458  0.76867332  0.43598484  1
  P  P7  1  0.82884323  0.08539371  0.81818362  1
  Li  Li8  1  0.07916340  0.79777909  0.30604279  1
  Li  Li9  1  0.53355396  0.44353211  0.04870463  1
