# generated using pymatgen
data_Li2Mn2Sb4P3
_symmetry_space_group_name_H-M   'P 1'
_cell_length_a   7.05073484
_cell_length_b   7.03127031
_cell_length_c   7.70062811
_cell_angle_alpha   92.28079737
_cell_angle_beta   92.70181522
_cell_angle_gamma   92.59582901
_symmetry_Int_Tables_number   1
_chemical_formula_structural   Li2Mn2Sb4P3
_chemical_formula_sum   'Li2 Mn2 Sb4 P3'
_cell_volume   380.61126326
_cell_formula_units_Z   1
loop_
 _symmetry_equiv_pos_site_id
 _symmetry_equiv_pos_as_xyz
  1  'x, y, z'
loop_
 _atom_site_type_symbol
 _atom_site_label
 _atom_site_symmetry_multiplicity
 _atom_site_fract_x
 _atom_site_fract_y
 _atom_site_fract_z
 _atom_site_occupancy
  Mn  Mn0  1  0.00000000  0.00000000  0.00000000  1
  Mn  Mn1  1  0.33300000  0.66700000  0.25000000  1
  Sb  Sb2  1  0.66700000  0.33300000  0.50000000  1
  Sb  Sb3  1  0.00000000  0.00000000  0.75000000  1
  Sb  Sb4  1  0.27145451  0.12527636  0.84456961  1
  Sb  Sb5  1  0.72118501  0.34065708  0.39597440  1
  P  P6  1  0.15812697  0.71874797  0.07817392  1
  P  P7  1  0.39866761  0.27912573  0.46906097  1
  P  P8  1  0.83974465  0.67963300  0.00099695  1
  Li  Li9  1  0.35669291  0.33882505  0.67321905  1
  Li  Li10  1  0.04492076  0.03298375  0.88401947  1
