# generated using pymatgen
data_LiMn2Mo2P3
_symmetry_space_group_name_H-M   'P 1'
_cell_length_a   6.51846016
_cell_length_b   6.95997470
_cell_length_c   6.93216794
_cell_angle_alpha   91.43108869
_cell_angle_beta   90.96325018
_cell_angle_gamma   91.30484533
_symmetry_Int_Tables_number   1
_chemical_formula_structural   LiMn2Mo2P3
_chemical_formula_sum   'Li1 Mn2 Mo2 P3'
_cell_volume   314.27364306
_cell_formula_units_Z   1
loop_
 _symmetry_equiv_pos_site_id
 _symmetry_equiv_pos_as_xyz
  1  'x, y, z'
loop_
 _atom_site_type_symbol
 _atom_site_label
 _atom_site_symmetry_multiplicity
 _atom_site_fract_x
 _atom_site_fract_y
 _atom_site_fract_z
 _atom_site_occupancy
  Mn  Mn0  1  0.12500000  0.12500000  0.12500000  1
  Mn  Mn1  1  0.50000000  0.50000000  0.50000000  1
  P  P2  1  0.25000000  0.25000000  0.25000000  1
  P  P3  1  0.75000000  0.75000000  0.75000000  1
  P  P4  1  0.44468232  0.61743329  0.19418122  1
  Mo  Mo5  1  0.60698724  0.18892520  0.60697428  1
  Mo  Mo6  1  0.10495723  0.90521136  0.56211102  1
  Li  Li7  1  0.80599403  0.84791317  0.16392201  1
