# generated using pymatgen
data_Li3LuTiNi2N5
_symmetry_space_group_name_H-M   'P 1'
_cell_length_a   8.21788454
_cell_length_b   7.99507605
_cell_length_c   8.32241422
_cell_angle_alpha   91.32404859
_cell_angle_beta   90.46810677
_cell_angle_gamma   91.53573607
_symmetry_Int_Tables_number   1
_chemical_formula_structural   Li3LuTiNi2N5
_chemical_formula_sum   'Li3 Lu1 Ti1 Ni2 N5'
_cell_volume   546.44086223
_cell_formula_units_Z   1
loop_
 _symmetry_equiv_pos_site_id
 _symmetry_equiv_pos_as_xyz
  1  'x, y, z'
loop_
 _atom_site_type_symbol
 _atom_site_label
 _atom_site_symmetry_multiplicity
 _atom_site_fract_x
 _atom_site_fract_y
 _atom_site_fract_z
 _atom_site_occupancy
  Lu  Lu0  1  0.00000000  0.00000000  0.00000000  1
  Li  Li1  1  0.50000000  0.50000000  0.50000000  1
  Li  Li2  1  0.25000000  0.25000000  0.25000000  1
  Li  Li3  1  0.75000000  0.25000000  0.00000000  1
  Ni  Ni4  1  0.25000000  0.75000000  0.50000000  1
  Ni  Ni5  1  0.75802853  0.67631515  0.93051626  1
  Ti  Ti6  1  0.91093029  0.51324377  0.00665705  1
  N  N7  1  0.27135999  0.34612426  0.39576698  1
  N  N8  1  0.89149997  0.25084500  0.52572253  1
  N  N9  1  0.03088585  0.86739819  0.74156691  1
  N  N10  1  0.25051596  0.77450827  0.16696633  1
  N  N11  1  0.61249298  0.87645527  0.58667808  1
