# generated using pymatgen
data_Li2TiI4O3
_symmetry_space_group_name_H-M   'P 1'
_cell_length_a   8.52231739
_cell_length_b   8.40687014
_cell_length_c   7.25444065
_cell_angle_alpha   90.09992014
_cell_angle_beta   90.47538969
_cell_angle_gamma   90.11423540
_symmetry_Int_Tables_number   1
_chemical_formula_structural   Li2TiI4O3
_chemical_formula_sum   'Li2 Ti1 I4 O3'
_cell_volume   519.73203890
_cell_formula_units_Z   1
loop_
 _symmetry_equiv_pos_site_id
 _symmetry_equiv_pos_as_xyz
  1  'x, y, z'
loop_
 _atom_site_type_symbol
 _atom_site_label
 _atom_site_symmetry_multiplicity
 _atom_site_fract_x
 _atom_site_fract_y
 _atom_site_fract_z
 _atom_site_occupancy
  I  I0  1  0.00000000  0.00000000  0.00000000  1
  I  I1  1  0.50000000  0.50000000  0.50000000  1
  I  I2  1  0.25000000  0.25000000  0.25000000  1
  I  I3  1  0.75000000  0.25000000  0.00000000  1
  Li  Li4  1  0.25000000  0.75000000  0.50000000  1
  Li  Li5  1  0.71493073  0.55468535  0.88654907  1
  Ti  Ti6  1  0.76483007  0.35464554  0.09838482  1
  O  O7  1  0.36765040  0.72717171  0.09744673  1
  O  O8  1  0.94677513  0.71753764  0.98042926  1
  O  O9  1  0.45469081  0.10348066  0.78112087  1
