# generated using pymatgen
data_LiMn(Sb2P)2
_symmetry_space_group_name_H-M   'P 1'
_cell_length_a   5.52240323
_cell_length_b   5.92193919
_cell_length_c   6.70328399
_cell_angle_alpha   96.67938482
_cell_angle_beta   94.48616471
_cell_angle_gamma   96.49831692
_symmetry_Int_Tables_number   1
_chemical_formula_structural   LiMn(Sb2P)2
_chemical_formula_sum   'Li1 Mn1 Sb4 P2'
_cell_volume   215.40339412
_cell_formula_units_Z   1
loop_
 _symmetry_equiv_pos_site_id
 _symmetry_equiv_pos_as_xyz
  1  'x, y, z'
loop_
 _atom_site_type_symbol
 _atom_site_label
 _atom_site_symmetry_multiplicity
 _atom_site_fract_x
 _atom_site_fract_y
 _atom_site_fract_z
 _atom_site_occupancy
  Mn  Mn0  1  0.12500000  0.12500000  0.12500000  1
  Sb  Sb1  1  0.50000000  0.50000000  0.50000000  1
  Sb  Sb2  1  0.25000000  0.25000000  0.25000000  1
  Sb  Sb3  1  0.75000000  0.75000000  0.75000000  1
  Sb  Sb4  1  0.50857249  0.84320906  0.31931406  1
  P  P5  1  0.07450551  0.17427233  0.77208157  1
  P  P6  1  0.12321764  0.71429216  0.72829050  1
  Li  Li7  1  0.00133947  0.86820378  0.60552648  1
