# generated using pymatgen
data_Li2Mn3Sb4P3
_symmetry_space_group_name_H-M   'P 1'
_cell_length_a   6.12598480
_cell_length_b   6.41397766
_cell_length_c   6.56322589
_cell_angle_alpha   96.26333445
_cell_angle_beta   92.27455547
_cell_angle_gamma   95.57585728
_symmetry_Int_Tables_number   1
_chemical_formula_structural   Li2Mn3Sb4P3
_chemical_formula_sum   'Li2 Mn3 Sb4 P3'
_cell_volume   254.79979178
_cell_formula_units_Z   1
loop_
 _symmetry_equiv_pos_site_id
 _symmetry_equiv_pos_as_xyz
  1  'x, y, z'
loop_
 _atom_site_type_symbol
 _atom_site_label
 _atom_site_symmetry_multiplicity
 _atom_site_fract_x
 _atom_site_fract_y
 _atom_site_fract_z
 _atom_site_occupancy
  Mn  Mn0  1  0.12500000  0.00000000  0.25000000  1
  Mn  Mn1  1  0.00000000  0.00000000  0.00000000  1
  Mn  Mn2  1  0.37500000  0.00000000  0.25000000  1
  Sb  Sb3  1  0.25000000  0.25000000  0.25000000  1
  Sb  Sb4  1  0.00000000  0.25000000  0.12500000  1
  Sb  Sb5  1  0.72871320  0.87853986  0.83356419  1
  Sb  Sb6  1  0.48581771  0.80014044  0.04028575  1
  P  P7  1  0.87614004  0.51815290  0.28176918  1
  P  P8  1  0.14221313  0.91583347  0.12387009  1
  P  P9  1  0.88568873  0.32205466  0.96660872  1
  Li  Li10  1  0.58115130  0.95725427  0.92794393  1
  Li  Li11  1  0.39455013  0.98650335  0.51755626  1
