# generated using pymatgen
data_LiSb4Mo2P3
_symmetry_space_group_name_H-M   'P 1'
_cell_length_a   4.91760313
_cell_length_b   5.01668691
_cell_length_c   6.04662696
_cell_angle_alpha   99.67611578
_cell_angle_beta   93.55852844
_cell_angle_gamma   99.07994970
_symmetry_Int_Tables_number   1
_chemical_formula_structural   LiSb4Mo2P3
_chemical_formula_sum   'Li1 Sb4 Mo2 P3'
_cell_volume   144.60329559
_cell_formula_units_Z   1
loop_
 _symmetry_equiv_pos_site_id
 _symmetry_equiv_pos_as_xyz
  1  'x, y, z'
loop_
 _atom_site_type_symbol
 _atom_site_label
 _atom_site_symmetry_multiplicity
 _atom_site_fract_x
 _atom_site_fract_y
 _atom_site_fract_z
 _atom_site_occupancy
  Sb  Sb0  1  0.00000000  0.00000000  0.00000000  1
  Sb  Sb1  1  0.33300000  0.66700000  0.25000000  1
  Sb  Sb2  1  0.66700000  0.33300000  0.50000000  1
  Sb  Sb3  1  0.00000000  0.00000000  0.75000000  1
  P  P4  1  0.15654977  0.64802244  0.20751143  1
  P  P5  1  0.06092052  0.87631602  0.58412382  1
  P  P6  1  0.58474447  0.85656308  0.41732276  1
  Mo  Mo7  1  0.25361672  0.41874223  0.45893156  1
  Mo  Mo8  1  0.64209590  0.95204093  0.93055994  1
  Li  Li9  1  0.19567902  0.97297732  0.67226128  1
