# generated using pymatgen
data_Li3Cu2Ni2I4N5
_symmetry_space_group_name_H-M   'P 1'
_cell_length_a   7.78474572
_cell_length_b   7.54504814
_cell_length_c   8.05469222
_cell_angle_alpha   91.78483013
_cell_angle_beta   91.12974381
_cell_angle_gamma   92.06830573
_symmetry_Int_Tables_number   1
_chemical_formula_structural   Li3Cu2Ni2I4N5
_chemical_formula_sum   'Li3 Cu2 Ni2 I4 N5'
_cell_volume   472.46219695
_cell_formula_units_Z   1
loop_
 _symmetry_equiv_pos_site_id
 _symmetry_equiv_pos_as_xyz
  1  'x, y, z'
loop_
 _atom_site_type_symbol
 _atom_site_label
 _atom_site_symmetry_multiplicity
 _atom_site_fract_x
 _atom_site_fract_y
 _atom_site_fract_z
 _atom_site_occupancy
  I  I0  1  0.12500000  0.00000000  0.25000000  1
  I  I1  1  0.00000000  0.00000000  0.00000000  1
  I  I2  1  0.37500000  0.00000000  0.25000000  1
  I  I3  1  0.25000000  0.25000000  0.25000000  1
  Li  Li4  1  0.00000000  0.25000000  0.12500000  1
  Li  Li5  1  0.99114981  0.89803216  0.96858011  1
  Li  Li6  1  0.95610150  0.54143990  0.46062042  1
  Cu  Cu7  1  0.30476779  0.77809602  0.09092013  1
  Cu  Cu8  1  0.45807388  0.88134854  0.99421148  1
  Ni  Ni9  1  0.38356613  0.63376977  0.48209156  1
  Ni  Ni10  1  0.60105190  0.36556591  0.25369163  1
  N  N11  1  0.33205746  0.65132659  0.60965502  1
  N  N12  1  0.33866533  0.32445354  0.15669856  1
  N  N13  1  0.18462903  0.98471120  0.07797725  1
  N  N14  1  0.94527216  0.28979580  0.21877689  1
  N  N15  1  0.04116518  0.59702444  0.39415579  1
