# generated using pymatgen
data_LiMn3Mo2P3
_symmetry_space_group_name_H-M   'P 1'
_cell_length_a   6.42171135
_cell_length_b   6.59188459
_cell_length_c   6.84512178
_cell_angle_alpha   96.13790060
_cell_angle_beta   91.56692167
_cell_angle_gamma   96.26017758
_symmetry_Int_Tables_number   1
_chemical_formula_structural   LiMn3Mo2P3
_chemical_formula_sum   'Li1 Mn3 Mo2 P3'
_cell_volume   286.15995915
_cell_formula_units_Z   1
loop_
 _symmetry_equiv_pos_site_id
 _symmetry_equiv_pos_as_xyz
  1  'x, y, z'
loop_
 _atom_site_type_symbol
 _atom_site_label
 _atom_site_symmetry_multiplicity
 _atom_site_fract_x
 _atom_site_fract_y
 _atom_site_fract_z
 _atom_site_occupancy
  Mn  Mn0  1  0.00000000  0.00000000  0.00000000  1
  Mn  Mn1  1  0.50000000  0.50000000  0.50000000  1
  Mn  Mn2  1  0.50000000  0.50000000  0.00000000  1
  P  P3  1  0.50000000  0.00000000  0.50000000  1
  P  P4  1  0.00000000  0.50000000  0.50000000  1
  P  P5  1  0.63725348  0.81065681  0.18456730  1
  Mo  Mo6  1  0.91434017  0.55107040  0.27317336  1
  Mo  Mo7  1  0.52279920  0.69062452  0.95261138  1
  Li  Li8  1  0.56369413  0.37670447  0.70624176  1
