# generated using pymatgen
data_Li2Mn2Sb4Mo2P3
_symmetry_space_group_name_H-M   'P 1'
_cell_length_a   6.26713907
_cell_length_b   6.30398495
_cell_length_c   7.13410160
_cell_angle_alpha   96.24579833
_cell_angle_beta   91.82533049
_cell_angle_gamma   96.33231850
_symmetry_Int_Tables_number   1
_chemical_formula_structural   Li2Mn2Sb4Mo2P3
_chemical_formula_sum   'Li2 Mn2 Sb4 Mo2 P3'
_cell_volume   278.19689749
_cell_formula_units_Z   1
loop_
 _symmetry_equiv_pos_site_id
 _symmetry_equiv_pos_as_xyz
  1  'x, y, z'
loop_
 _atom_site_type_symbol
 _atom_site_label
 _atom_site_symmetry_multiplicity
 _atom_site_fract_x
 _atom_site_fract_y
 _atom_site_fract_z
 _atom_site_occupancy
  Mn  Mn0  1  0.12500000  0.00000000  0.25000000  1
  Mn  Mn1  1  0.00000000  0.00000000  0.00000000  1
  Sb  Sb2  1  0.37500000  0.00000000  0.25000000  1
  Sb  Sb3  1  0.25000000  0.25000000  0.25000000  1
  Sb  Sb4  1  0.00000000  0.25000000  0.12500000  1
  Sb  Sb5  1  0.45396955  0.14495507  0.15712767  1
  P  P6  1  0.25304837  0.17044102  0.06912796  1
  P  P7  1  0.88253125  0.95063097  0.37817802  1
  P  P8  1  0.93507959  0.35239788  0.08984036  1
  Mo  Mo9  1  0.63680195  0.49096149  0.05923689  1
  Mo  Mo10  1  0.80778727  0.72531878  0.96269169  1
  Li  Li11  1  0.32094693  0.25703782  0.42851419  1
  Li  Li12  1  0.62923781  0.80268872  0.99095150  1
