# generated using pymatgen
data_LiMn2(SbP)3
_symmetry_space_group_name_H-M   'P 1'
_cell_length_a   5.83338608
_cell_length_b   6.24293367
_cell_length_c   6.90823403
_cell_angle_alpha   94.26608357
_cell_angle_beta   93.40836815
_cell_angle_gamma   94.49259853
_symmetry_Int_Tables_number   1
_chemical_formula_structural   LiMn2(SbP)3
_chemical_formula_sum   'Li1 Mn2 Sb3 P3'
_cell_volume   249.57255945
_cell_formula_units_Z   1
loop_
 _symmetry_equiv_pos_site_id
 _symmetry_equiv_pos_as_xyz
  1  'x, y, z'
loop_
 _atom_site_type_symbol
 _atom_site_label
 _atom_site_symmetry_multiplicity
 _atom_site_fract_x
 _atom_site_fract_y
 _atom_site_fract_z
 _atom_site_occupancy
  Mn  Mn0  1  0.12500000  0.00000000  0.25000000  1
  Mn  Mn1  1  0.00000000  0.00000000  0.00000000  1
  Sb  Sb2  1  0.37500000  0.00000000  0.25000000  1
  Sb  Sb3  1  0.25000000  0.25000000  0.25000000  1
  Sb  Sb4  1  0.00000000  0.25000000  0.12500000  1
  P  P5  1  0.44961512  0.66263323  0.10285162  1
  P  P6  1  0.55881613  0.62032533  0.94582891  1
  P  P7  1  0.34929937  0.11183387  0.25704009  1
  Li  Li8  1  0.31489647  0.57862174  0.47100147  1
