# generated using pymatgen
data_Li3LuTiP3Se
_symmetry_space_group_name_H-M   'P 1'
_cell_length_a   7.11766989
_cell_length_b   6.82533076
_cell_length_c   7.45656267
_cell_angle_alpha   95.10152478
_cell_angle_beta   96.12268433
_cell_angle_gamma   94.99744171
_symmetry_Int_Tables_number   1
_chemical_formula_structural   Li3LuTiP3Se
_chemical_formula_sum   'Li3 Lu1 Ti1 P3 Se1'
_cell_volume   357.03958349
_cell_formula_units_Z   1
loop_
 _symmetry_equiv_pos_site_id
 _symmetry_equiv_pos_as_xyz
  1  'x, y, z'
loop_
 _atom_site_type_symbol
 _atom_site_label
 _atom_site_symmetry_multiplicity
 _atom_site_fract_x
 _atom_site_fract_y
 _atom_site_fract_z
 _atom_site_occupancy
  P  P0  1  0.12500000  0.00000000  0.25000000  1
  P  P1  1  0.00000000  0.00000000  0.00000000  1
  P  P2  1  0.37500000  0.00000000  0.25000000  1
  Lu  Lu3  1  0.25000000  0.25000000  0.25000000  1
  Li  Li4  1  0.00000000  0.25000000  0.12500000  1
  Li  Li5  1  0.38747782  0.16899022  0.56996118  1
  Li  Li6  1  0.13147321  0.94634819  0.28450659  1
  Se  Se7  1  0.17688504  0.19090965  0.63403507  1
  Ti  Ti8  1  0.37781364  0.96225469  0.19591222  1
