# generated using pymatgen
data_Li2Mn2Sb4P2N
_symmetry_space_group_name_H-M   'P 1'
_cell_length_a   6.58719770
_cell_length_b   7.13351226
_cell_length_c   7.09809896
_cell_angle_alpha   94.20012750
_cell_angle_beta   91.51381142
_cell_angle_gamma   93.83214727
_symmetry_Int_Tables_number   1
_chemical_formula_structural   Li2Mn2Sb4P2N
_chemical_formula_sum   'Li2 Mn2 Sb4 P2 N1'
_cell_volume   331.73475272
_cell_formula_units_Z   1
loop_
 _symmetry_equiv_pos_site_id
 _symmetry_equiv_pos_as_xyz
  1  'x, y, z'
loop_
 _atom_site_type_symbol
 _atom_site_label
 _atom_site_symmetry_multiplicity
 _atom_site_fract_x
 _atom_site_fract_y
 _atom_site_fract_z
 _atom_site_occupancy
  N  N0  1  0.00000000  0.00000000  0.00000000  1
  Mn  Mn1  1  0.50000000  0.50000000  0.50000000  1
  Mn  Mn2  1  0.25000000  0.25000000  0.25000000  1
  Sb  Sb3  1  0.75000000  0.25000000  0.00000000  1
  Sb  Sb4  1  0.25000000  0.75000000  0.50000000  1
  Sb  Sb5  1  0.00235908  0.44838718  0.54893593  1
  Sb  Sb6  1  0.07657278  0.57122124  0.31887278  1
  P  P7  1  0.35440858  0.39962089  0.57872661  1
  P  P8  1  0.89546065  0.90423426  0.24438106  1
  Li  Li9  1  0.84811841  0.77134716  0.59564121  1
  Li  Li10  1  0.54530436  0.26036539  0.64159764  1
