# generated using pymatgen
data_Li2Mn2Sb4P3
_symmetry_space_group_name_H-M   'P 1'
_cell_length_a   6.28751059
_cell_length_b   6.79086034
_cell_length_c   7.05030352
_cell_angle_alpha   95.05374123
_cell_angle_beta   91.72143240
_cell_angle_gamma   95.15779552
_symmetry_Int_Tables_number   1
_chemical_formula_structural   Li2Mn2Sb4P3
_chemical_formula_sum   'Li2 Mn2 Sb4 P3'
_cell_volume   298.42796793
_cell_formula_units_Z   1
loop_
 _symmetry_equiv_pos_site_id
 _symmetry_equiv_pos_as_xyz
  1  'x, y, z'
loop_
 _atom_site_type_symbol
 _atom_site_label
 _atom_site_symmetry_multiplicity
 _atom_site_fract_x
 _atom_site_fract_y
 _atom_site_fract_z
 _atom_site_occupancy
  Mn  Mn0  1  0.00000000  0.00000000  0.00000000  1
  Mn  Mn1  1  0.50000000  0.50000000  0.50000000  1
  Sb  Sb2  1  0.50000000  0.50000000  0.00000000  1
  Sb  Sb3  1  0.50000000  0.00000000  0.50000000  1
  Sb  Sb4  1  0.00000000  0.50000000  0.50000000  1
  Sb  Sb5  1  0.88863201  0.39548632  0.52377874  1
  P  P6  1  0.15215383  0.70975593  0.17158812  1
  P  P7  1  0.03423823  0.74741368  0.71448444  1
  P  P8  1  0.04721780  0.25515708  0.57387878  1
  Li  Li9  1  0.81318674  0.42677236  0.79790027  1
  Li  Li10  1  0.37036887  0.60574823  0.77354176  1
