# generated using pymatgen
data_Li2MnP2N
_symmetry_space_group_name_H-M   'P 1'
_cell_length_a   4.21121859
_cell_length_b   4.50230483
_cell_length_c   6.73251566
_cell_angle_alpha   100.19396302
_cell_angle_beta   99.16382945
_cell_angle_gamma   100.80444934
_symmetry_Int_Tables_number   1
_chemical_formula_structural   Li2MnP2N
_chemical_formula_sum   'Li2 Mn1 P2 N1'
_cell_volume   120.93810962
_cell_formula_units_Z   1
loop_
 _symmetry_equiv_pos_site_id
 _symmetry_equiv_pos_as_xyz
  1  'x, y, z'
loop_
 _atom_site_type_symbol
 _atom_site_label
 _atom_site_symmetry_multiplicity
 _atom_site_fract_x
 _atom_site_fract_y
 _atom_site_fract_z
 _atom_site_occupancy
  Mn  Mn0  1  0.12500000  0.00000000  0.25000000  1
  P  P1  1  0.00000000  0.00000000  0.00000000  1
  P  P2  1  0.37500000  0.00000000  0.25000000  1
  Li  Li3  1  0.25000000  0.25000000  0.25000000  1
  Li  Li4  1  0.00000000  0.25000000  0.12500000  1
  N  N5  1  0.24984917  0.34623068  0.65951510  1
