# generated using pymatgen
data_LiMn3Sb4P3
_symmetry_space_group_name_H-M   'P 1'
_cell_length_a   6.31814424
_cell_length_b   6.79553745
_cell_length_c   6.90921152
_cell_angle_alpha   93.52852834
_cell_angle_beta   91.13484893
_cell_angle_gamma   93.69267099
_symmetry_Int_Tables_number   1
_chemical_formula_structural   LiMn3Sb4P3
_chemical_formula_sum   'Li1 Mn3 Sb4 P3'
_cell_volume   295.38705646
_cell_formula_units_Z   1
loop_
 _symmetry_equiv_pos_site_id
 _symmetry_equiv_pos_as_xyz
  1  'x, y, z'
loop_
 _atom_site_type_symbol
 _atom_site_label
 _atom_site_symmetry_multiplicity
 _atom_site_fract_x
 _atom_site_fract_y
 _atom_site_fract_z
 _atom_site_occupancy
  Mn  Mn0  1  0.12500000  0.12500000  0.12500000  1
  Mn  Mn1  1  0.50000000  0.50000000  0.50000000  1
  Mn  Mn2  1  0.25000000  0.25000000  0.25000000  1
  Sb  Sb3  1  0.75000000  0.75000000  0.75000000  1
  Sb  Sb4  1  0.78217990  0.41200195  0.65590728  1
  Sb  Sb5  1  0.11110992  0.83926411  0.43881530  1
  Sb  Sb6  1  0.74265898  0.80548797  0.95656280  1
  P  P7  1  0.53947492  0.77768239  0.43427899  1
  P  P8  1  0.04868582  0.59184069  0.25463384  1
  P  P9  1  0.49102807  0.58541396  0.40842832  1
  Li  Li10  1  0.79301438  0.02771330  0.61527594  1
