# generated using pymatgen
data_LiTi3Zn2I4F3
_symmetry_space_group_name_H-M   'P 1'
_cell_length_a   6.87057635
_cell_length_b   7.05673935
_cell_length_c   7.31958763
_cell_angle_alpha   90.79667252
_cell_angle_beta   93.79032588
_cell_angle_gamma   90.91080942
_symmetry_Int_Tables_number   1
_chemical_formula_structural   LiTi3Zn2I4F3
_chemical_formula_sum   'Li1 Ti3 Zn2 I4 F3'
_cell_volume   354.02113697
_cell_formula_units_Z   1
loop_
 _symmetry_equiv_pos_site_id
 _symmetry_equiv_pos_as_xyz
  1  'x, y, z'
loop_
 _atom_site_type_symbol
 _atom_site_label
 _atom_site_symmetry_multiplicity
 _atom_site_fract_x
 _atom_site_fract_y
 _atom_site_fract_z
 _atom_site_occupancy
  I  I0  1  0.12500000  0.00000000  0.25000000  1
  I  I1  1  0.00000000  0.00000000  0.00000000  1
  I  I2  1  0.37500000  0.00000000  0.25000000  1
  I  I3  1  0.25000000  0.25000000  0.25000000  1
  Li  Li4  1  0.00000000  0.25000000  0.12500000  1
  Zn  Zn5  1  0.71491408  0.15469018  0.28512964  1
  Zn  Zn6  1  0.12884712  0.62218808  0.71760192  1
  F  F7  1  0.57772277  0.05344267  0.11343268  1
  F  F8  1  0.31598723  0.20916984  0.06634210  1
  F  F9  1  0.00216855  0.24412730  0.25337680  1
  Ti  Ti10  1  0.09313512  0.65164329  0.24397440  1
  Ti  Ti11  1  0.33473207  0.32393027  0.22328010  1
  Ti  Ti12  1  0.03680661  0.92319863  0.32344360  1
