# generated using pymatgen
data_LiNiP2F
_symmetry_space_group_name_H-M   'P 1'
_cell_length_a   6.90835268
_cell_length_b   6.78856844
_cell_length_c   7.49954073
_cell_angle_alpha   92.20145708
_cell_angle_beta   93.68349213
_cell_angle_gamma   92.11069057
_symmetry_Int_Tables_number   1
_chemical_formula_structural   LiNiP2F
_chemical_formula_sum   'Li2 Ni2 P4 F2'
_cell_volume   350.45407257
_cell_formula_units_Z   2
loop_
 _symmetry_equiv_pos_site_id
 _symmetry_equiv_pos_as_xyz
  1  'x, y, z'
loop_
 _atom_site_type_symbol
 _atom_site_label
 _atom_site_symmetry_multiplicity
 _atom_site_fract_x
 _atom_site_fract_y
 _atom_site_fract_z
 _atom_site_occupancy
  P  P0  1  0.12500000  0.12500000  0.12500000  1
  P  P1  1  0.50000000  0.50000000  0.50000000  1
  P  P2  1  0.25000000  0.25000000  0.25000000  1
  P  P3  1  0.75000000  0.75000000  0.75000000  1
  Li  Li4  1  0.31177886  0.46954883  0.43263559  1
  Li  Li5  1  0.77572537  0.89014436  0.69568406  1
  F  F6  1  0.03057460  0.51842612  0.62116227  1
  F  F7  1  0.04260382  0.45445774  0.24203482  1
  Ni  Ni8  1  0.79284102  0.98274709  0.96902138  1
  Ni  Ni9  1  0.88491894  0.70850323  0.73314825  1
