# generated using pymatgen
data_Li3Cu2P3SeCl2
_symmetry_space_group_name_H-M   'P 1'
_cell_length_a   7.07459173
_cell_length_b   6.99808142
_cell_length_c   7.65007876
_cell_angle_alpha   94.51376512
_cell_angle_beta   96.62872525
_cell_angle_gamma   94.29654371
_symmetry_Int_Tables_number   1
_chemical_formula_structural   Li3Cu2P3SeCl2
_chemical_formula_sum   'Li3 Cu2 P3 Se1 Cl2'
_cell_volume   373.69378490
_cell_formula_units_Z   1
loop_
 _symmetry_equiv_pos_site_id
 _symmetry_equiv_pos_as_xyz
  1  'x, y, z'
loop_
 _atom_site_type_symbol
 _atom_site_label
 _atom_site_symmetry_multiplicity
 _atom_site_fract_x
 _atom_site_fract_y
 _atom_site_fract_z
 _atom_site_occupancy
  Se  Se0  1  0.00000000  0.00000000  0.00000000  1
  Cl  Cl1  1  0.50000000  0.50000000  0.50000000  1
  Cl  Cl2  1  0.50000000  0.50000000  0.00000000  1
  P  P3  1  0.50000000  0.00000000  0.50000000  1
  P  P4  1  0.00000000  0.50000000  0.50000000  1
  P  P5  1  0.80883050  0.99272867  0.70102079  1
  Li  Li6  1  0.33326958  0.88553167  0.55593806  1
  Li  Li7  1  0.41617471  0.44555947  0.82924669  1
  Li  Li8  1  0.91174908  0.53549041  0.07653544  1
  Cu  Cu9  1  0.15008099  0.93874009  0.55952805  1
  Cu  Cu10  1  0.31322929  0.57876710  0.65000508  1
