# generated using pymatgen
data_Li3LuTi2P4N5
_symmetry_space_group_name_H-M   'P 1'
_cell_length_a   6.24605128
_cell_length_b   5.86732132
_cell_length_c   7.29484410
_cell_angle_alpha   94.27759232
_cell_angle_beta   96.14103417
_cell_angle_gamma   94.17287025
_symmetry_Int_Tables_number   1
_chemical_formula_structural   Li3LuTi2P4N5
_chemical_formula_sum   'Li3 Lu1 Ti2 P4 N5'
_cell_volume   264.18349074
_cell_formula_units_Z   1
loop_
 _symmetry_equiv_pos_site_id
 _symmetry_equiv_pos_as_xyz
  1  'x, y, z'
loop_
 _atom_site_type_symbol
 _atom_site_label
 _atom_site_symmetry_multiplicity
 _atom_site_fract_x
 _atom_site_fract_y
 _atom_site_fract_z
 _atom_site_occupancy
  P  P0  1  0.00000000  0.00000000  0.00000000  1
  P  P1  1  0.50000000  0.50000000  0.50000000  1
  P  P2  1  0.25000000  0.25000000  0.25000000  1
  P  P3  1  0.75000000  0.25000000  0.00000000  1
  Lu  Lu4  1  0.25000000  0.75000000  0.50000000  1
  Li  Li5  1  0.81532715  0.10963657  0.70202572  1
  Li  Li6  1  0.13146362  0.91991849  0.78998642  1
  Li  Li7  1  0.98244896  0.45109474  0.34264247  1
  Ti  Ti8  1  0.23491123  0.76459943  0.51657636  1
  Ti  Ti9  1  0.98448578  0.36780213  0.59756365  1
  N  N10  1  0.35771704  0.92031259  0.19824192  1
  N  N11  1  0.15265524  0.75325509  0.73411229  1
  N  N12  1  0.49277650  0.46591913  0.88867770  1
  N  N13  1  0.48574352  0.66102412  0.08749428  1
  N  N14  1  0.31886266  0.54232937  0.31926269  1
