# generated using pymatgen
data_Li3Ti(CuI2)2
_symmetry_space_group_name_H-M   'P 1'
_cell_length_a   8.15869358
_cell_length_b   8.07596697
_cell_length_c   7.45404324
_cell_angle_alpha   92.03006643
_cell_angle_beta   92.31469313
_cell_angle_gamma   92.55731181
_symmetry_Int_Tables_number   1
_chemical_formula_structural   Li3Ti(CuI2)2
_chemical_formula_sum   'Li3 Ti1 Cu2 I4'
_cell_volume   489.91147472
_cell_formula_units_Z   1
loop_
 _symmetry_equiv_pos_site_id
 _symmetry_equiv_pos_as_xyz
  1  'x, y, z'
loop_
 _atom_site_type_symbol
 _atom_site_label
 _atom_site_symmetry_multiplicity
 _atom_site_fract_x
 _atom_site_fract_y
 _atom_site_fract_z
 _atom_site_occupancy
  I  I0  1  0.00000000  0.00000000  0.00000000  1
  I  I1  1  0.50000000  0.50000000  0.50000000  1
  I  I2  1  0.25000000  0.25000000  0.25000000  1
  I  I3  1  0.75000000  0.25000000  0.00000000  1
  Li  Li4  1  0.25000000  0.75000000  0.50000000  1
  Li  Li5  1  0.02684105  0.63882809  0.40564875  1
  Li  Li6  1  0.97048820  0.36297074  0.43154405  1
  Cu  Cu7  1  0.68285420  0.05569780  0.43071992  1
  Cu  Cu8  1  0.80704379  0.10349728  0.59306686  1
  Ti  Ti9  1  0.38538532  0.30047959  0.57660695  1
