# generated using pymatgen
data_Li3Zr2MnP2F4
_symmetry_space_group_name_H-M   'P 1'
_cell_length_a   6.48146760
_cell_length_b   6.49616930
_cell_length_c   7.18081607
_cell_angle_alpha   94.23024421
_cell_angle_beta   95.01111514
_cell_angle_gamma   94.81454022
_symmetry_Int_Tables_number   1
_chemical_formula_structural   Li3Zr2MnP2F4
_chemical_formula_sum   'Li3 Zr2 Mn1 P2 F4'
_cell_volume   299.12460346
_cell_formula_units_Z   1
loop_
 _symmetry_equiv_pos_site_id
 _symmetry_equiv_pos_as_xyz
  1  'x, y, z'
loop_
 _atom_site_type_symbol
 _atom_site_label
 _atom_site_symmetry_multiplicity
 _atom_site_fract_x
 _atom_site_fract_y
 _atom_site_fract_z
 _atom_site_occupancy
  Mn  Mn0  1  0.00000000  0.00000000  0.00000000  1
  Zr  Zr1  1  0.50000000  0.50000000  0.50000000  1
  Zr  Zr2  1  0.25000000  0.25000000  0.25000000  1
  F  F3  1  0.75000000  0.25000000  0.00000000  1
  F  F4  1  0.25000000  0.75000000  0.50000000  1
  F  F5  1  0.17575038  0.23162169  0.54334985  1
  F  F6  1  0.62472427  0.69231047  0.66765287  1
  P  P7  1  0.72342568  0.24395478  0.37564372  1
  P  P8  1  0.19128141  0.59526809  0.10160254  1
  Li  Li9  1  0.21008121  0.13560785  0.87422900  1
  Li  Li10  1  0.19725225  0.07028264  0.23257582  1
  Li  Li11  1  0.48224048  0.06849149  0.37685227  1
