# generated using pymatgen
data_Li2Ti(As2O)3
_symmetry_space_group_name_H-M   'P 1'
_cell_length_a   7.24339811
_cell_length_b   7.18796255
_cell_length_c   7.54765351
_cell_angle_alpha   94.00725069
_cell_angle_beta   95.91511344
_cell_angle_gamma   93.80261227
_symmetry_Int_Tables_number   1
_chemical_formula_structural   Li2Ti(As2O)3
_chemical_formula_sum   'Li2 Ti1 As6 O3'
_cell_volume   388.85088206
_cell_formula_units_Z   1
loop_
 _symmetry_equiv_pos_site_id
 _symmetry_equiv_pos_as_xyz
  1  'x, y, z'
loop_
 _atom_site_type_symbol
 _atom_site_label
 _atom_site_symmetry_multiplicity
 _atom_site_fract_x
 _atom_site_fract_y
 _atom_site_fract_z
 _atom_site_occupancy
  Li  Li0  1  0.12500000  0.00000000  0.25000000  1
  Li  Li1  1  0.00000000  0.00000000  0.00000000  1
  Ti  Ti2  1  0.37500000  0.00000000  0.25000000  1
  As  As3  1  0.25000000  0.25000000  0.25000000  1
  As  As4  1  0.00000000  0.25000000  0.12500000  1
  As  As5  1  0.82398119  0.34083153  0.68623629  1
  As  As6  1  0.87618914  0.51625438  0.72903077  1
  As  As7  1  0.96219993  0.03430654  0.15053199  1
  As  As8  1  0.03875049  0.49825089  0.56685427  1
  O  O9  1  0.86276609  0.41266652  0.19956897  1
  O  O10  1  0.11655266  0.22474324  0.84335725  1
  O  O11  1  0.79308953  0.94881734  0.31531317  1
