# generated using pymatgen
data_Li2Ti2P5O
_symmetry_space_group_name_H-M   'P 1'
_cell_length_a   7.90247429
_cell_length_b   7.72484095
_cell_length_c   7.57365701
_cell_angle_alpha   90.29024883
_cell_angle_beta   91.38091581
_cell_angle_gamma   90.33183192
_symmetry_Int_Tables_number   1
_chemical_formula_structural   Li2Ti2P5O
_chemical_formula_sum   'Li2 Ti2 P5 O1'
_cell_volume   462.18830270
_cell_formula_units_Z   1
loop_
 _symmetry_equiv_pos_site_id
 _symmetry_equiv_pos_as_xyz
  1  'x, y, z'
loop_
 _atom_site_type_symbol
 _atom_site_label
 _atom_site_symmetry_multiplicity
 _atom_site_fract_x
 _atom_site_fract_y
 _atom_site_fract_z
 _atom_site_occupancy
  P  P0  1  0.00000000  0.00000000  0.00000000  1
  P  P1  1  0.50000000  0.50000000  0.50000000  1
  P  P2  1  0.25000000  0.25000000  0.25000000  1
  P  P3  1  0.75000000  0.25000000  0.00000000  1
  P  P4  1  0.25000000  0.75000000  0.50000000  1
  Li  Li5  1  0.45252095  0.28853793  0.39230544  1
  Li  Li6  1  0.00246930  0.07534659  0.70599827  1
  Ti  Ti7  1  0.30782181  0.31792649  0.48320328  1
  Ti  Ti8  1  0.66073298  0.51157555  0.47751034  1
  O  O9  1  0.01079744  0.36815695  0.65913063  1
