# generated using pymatgen
data_LiMn3P3Se7F4
_symmetry_space_group_name_H-M   'P 1'
_cell_length_a   7.56914258
_cell_length_b   7.32788291
_cell_length_c   7.21371600
_cell_angle_alpha   90.03124497
_cell_angle_beta   89.48428229
_cell_angle_gamma   89.79097948
_symmetry_Int_Tables_number   1
_chemical_formula_structural   LiMn3P3Se7F4
_chemical_formula_sum   'Li1 Mn3 P3 Se7 F4'
_cell_volume   400.09552353
_cell_formula_units_Z   1
loop_
 _symmetry_equiv_pos_site_id
 _symmetry_equiv_pos_as_xyz
  1  'x, y, z'
loop_
 _atom_site_type_symbol
 _atom_site_label
 _atom_site_symmetry_multiplicity
 _atom_site_fract_x
 _atom_site_fract_y
 _atom_site_fract_z
 _atom_site_occupancy
  Se  Se0  1  0.00000000  0.00000000  0.00000000  1
  Se  Se1  1  0.50000000  0.50000000  0.50000000  1
  Se  Se2  1  0.25000000  0.25000000  0.25000000  1
  Se  Se3  1  0.75000000  0.25000000  0.00000000  1
  Se  Se4  1  0.25000000  0.75000000  0.50000000  1
  Se  Se5  1  0.12551611  0.07741640  0.80475809  1
  Se  Se6  1  0.13068883  0.15944194  0.54980658  1
  F  F7  1  0.15033308  0.29978302  0.61631044  1
  F  F8  1  0.13761191  0.55765885  0.33241253  1
  F  F9  1  0.72623188  0.65696462  0.42432610  1
  F  F10  1  0.11894281  0.08212346  0.18807997  1
  Mn  Mn11  1  0.71433194  0.64543622  0.18698972  1
  Mn  Mn12  1  0.21031819  0.78982857  0.62782658  1
  Mn  Mn13  1  0.30712593  0.94114550  0.30007938  1
  P  P14  1  0.52571868  0.52915291  0.39998456  1
  P  P15  1  0.78902033  0.96844769  0.21334939  1
  P  P16  1  0.55716394  0.11867564  0.73170748  1
  Li  Li17  1  0.12225857  0.52731998  0.37353662  1
