# generated using pymatgen
data_Li2Ti(As3I2)2
_symmetry_space_group_name_H-M   'P 1'
_cell_length_a   7.72196658
_cell_length_b   7.74195176
_cell_length_c   8.29630138
_cell_angle_alpha   91.00798677
_cell_angle_beta   91.66172163
_cell_angle_gamma   91.16421898
_symmetry_Int_Tables_number   1
_chemical_formula_structural   Li2Ti(As3I2)2
_chemical_formula_sum   'Li2 Ti1 As6 I4'
_cell_volume   495.58560047
_cell_formula_units_Z   1
loop_
 _symmetry_equiv_pos_site_id
 _symmetry_equiv_pos_as_xyz
  1  'x, y, z'
loop_
 _atom_site_type_symbol
 _atom_site_label
 _atom_site_symmetry_multiplicity
 _atom_site_fract_x
 _atom_site_fract_y
 _atom_site_fract_z
 _atom_site_occupancy
  Ti  Ti0  1  0.12500000  0.00000000  0.25000000  1
  I  I1  1  0.00000000  0.00000000  0.00000000  1
  I  I2  1  0.37500000  0.00000000  0.25000000  1
  I  I3  1  0.25000000  0.25000000  0.25000000  1
  I  I4  1  0.00000000  0.25000000  0.12500000  1
  As  As5  1  0.14135109  0.04244550  0.74728548  1
  As  As6  1  0.42211731  0.18336416  0.30625254  1
  As  As7  1  0.70274091  0.25089070  0.34589610  1
  As  As8  1  0.30415549  0.93699770  0.63579632  1
  As  As9  1  0.49371024  0.84403538  0.26653757  1
  As  As10  1  0.61858323  0.63091344  0.86866262  1
  Li  Li11  1  0.77789681  0.74844157  0.79361505  1
  Li  Li12  1  0.79908568  0.32039896  0.35112166  1
