# generated using pymatgen
data_Li3LuTiI4N5
_symmetry_space_group_name_H-M   'P 1'
_cell_length_a   7.85120122
_cell_length_b   7.61683801
_cell_length_c   8.18390324
_cell_angle_alpha   92.44009131
_cell_angle_beta   91.51034580
_cell_angle_gamma   92.70264487
_symmetry_Int_Tables_number   1
_chemical_formula_structural   Li3LuTiI4N5
_chemical_formula_sum   'Li3 Lu1 Ti1 I4 N5'
_cell_volume   488.22333109
_cell_formula_units_Z   1
loop_
 _symmetry_equiv_pos_site_id
 _symmetry_equiv_pos_as_xyz
  1  'x, y, z'
loop_
 _atom_site_type_symbol
 _atom_site_label
 _atom_site_symmetry_multiplicity
 _atom_site_fract_x
 _atom_site_fract_y
 _atom_site_fract_z
 _atom_site_occupancy
  I  I0  1  0.12500000  0.00000000  0.25000000  1
  I  I1  1  0.00000000  0.00000000  0.00000000  1
  I  I2  1  0.37500000  0.00000000  0.25000000  1
  I  I3  1  0.25000000  0.25000000  0.25000000  1
  Lu  Lu4  1  0.00000000  0.25000000  0.12500000  1
  Li  Li5  1  0.23118765  0.51550265  0.12476425  1
  Li  Li6  1  0.48285476  0.48082811  0.85709076  1
  Li  Li7  1  0.44127889  0.36584800  0.88856241  1
  Ti  Ti8  1  0.35294728  0.09894277  0.48627985  1
  N  N9  1  0.32472177  0.72747768  0.26998011  1
  N  N10  1  0.66957201  0.90024141  0.59275689  1
  N  N11  1  0.74252113  0.46771636  0.86158923  1
  N  N12  1  0.35220088  0.48263256  0.38586918  1
  N  N13  1  0.19925156  0.01528555  0.96364824  1
