# generated using pymatgen
data_Li3TiAs6P4O7
_symmetry_space_group_name_H-M   'P 1'
_cell_length_a   7.62724725
_cell_length_b   7.43343743
_cell_length_c   8.93768129
_cell_angle_alpha   92.17982973
_cell_angle_beta   92.23208612
_cell_angle_gamma   92.04911216
_symmetry_Int_Tables_number   1
_chemical_formula_structural   Li3TiAs6P4O7
_chemical_formula_sum   'Li3 Ti1 As6 P4 O7'
_cell_volume   505.63385781
_cell_formula_units_Z   1
loop_
 _symmetry_equiv_pos_site_id
 _symmetry_equiv_pos_as_xyz
  1  'x, y, z'
loop_
 _atom_site_type_symbol
 _atom_site_label
 _atom_site_symmetry_multiplicity
 _atom_site_fract_x
 _atom_site_fract_y
 _atom_site_fract_z
 _atom_site_occupancy
  P  P0  1  0.12500000  0.00000000  0.25000000  1
  P  P1  1  0.00000000  0.00000000  0.00000000  1
  P  P2  1  0.37500000  0.00000000  0.25000000  1
  P  P3  1  0.25000000  0.25000000  0.25000000  1
  Li  Li4  1  0.00000000  0.25000000  0.12500000  1
  Li  Li5  1  0.90649988  0.61950395  0.86081176  1
  Li  Li6  1  0.29660548  0.55605434  0.65067111  1
  Ti  Ti7  1  0.95624746  0.55652672  0.20105575  1
  As  As8  1  0.97108578  0.74523010  0.14337533  1
  As  As9  1  0.22362622  0.60359606  0.03896761  1
  As  As10  1  0.12909299  0.58510026  0.56660180  1
  As  As11  1  0.11278994  0.77845033  0.51407444  1
  As  As12  1  0.51866354  0.32128710  0.64285768  1
  As  As13  1  0.27617966  0.65857931  0.13732909  1
  O  O14  1  0.62767938  0.62773346  0.00015660  1
  O  O15  1  0.81410270  0.83823201  0.14081015  1
  O  O16  1  0.99888431  0.60656768  0.46604604  1
  O  O17  1  0.83349502  0.97613043  0.43102065  1
  O  O18  1  0.09666929  0.59780665  0.66569698  1
  O  O19  1  0.52782687  0.14197617  0.84614449  1
  O  O20  1  0.64225960  0.52795823  0.88140032  1
