# generated using pymatgen
data_Li2CuNi(PO)2
_symmetry_space_group_name_H-M   'P 1'
_cell_length_a   6.05774323
_cell_length_b   5.77273540
_cell_length_c   7.39340160
_cell_angle_alpha   99.02441108
_cell_angle_beta   101.24264524
_cell_angle_gamma   98.66931260
_symmetry_Int_Tables_number   1
_chemical_formula_structural   Li2CuNi(PO)2
_chemical_formula_sum   'Li4 Cu2 Ni2 P4 O4'
_cell_volume   246.01871817
_cell_formula_units_Z   2
loop_
 _symmetry_equiv_pos_site_id
 _symmetry_equiv_pos_as_xyz
  1  'x, y, z'
loop_
 _atom_site_type_symbol
 _atom_site_label
 _atom_site_symmetry_multiplicity
 _atom_site_fract_x
 _atom_site_fract_y
 _atom_site_fract_z
 _atom_site_occupancy
  P  P0  1  0.00000000  0.00000000  0.00000000  1
  P  P1  1  0.50000000  0.50000000  0.50000000  1
  P  P2  1  0.50000000  0.50000000  0.00000000  1
  P  P3  1  0.50000000  0.00000000  0.50000000  1
  Li  Li4  1  0.00000000  0.50000000  0.50000000  1
  Li  Li5  1  0.03667204  0.34927722  0.80561375  1
  Li  Li6  1  0.19303270  0.21684808  0.69878868  1
  Li  Li7  1  0.28931963  0.60983818  0.82789067  1
  Cu  Cu8  1  0.39623187  0.07820608  0.31260073  1
  Cu  Cu9  1  0.12909100  0.01758034  0.91574762  1
  Ni  Ni10  1  0.09186919  0.44913803  0.45741338  1
  Ni  Ni11  1  0.75002356  0.06134471  0.93521117  1
  O  O12  1  0.28548615  0.71625432  0.79480150  1
  O  O13  1  0.50048196  0.53589491  0.97036152  1
  O  O14  1  0.84815925  0.82435305  0.26253609  1
  O  O15  1  0.83222765  0.07292435  0.19000777  1
