# generated using pymatgen
data_Li2Mn2Sb4P3
_symmetry_space_group_name_H-M   'P 1'
_cell_length_a   4.99057829
_cell_length_b   5.17109452
_cell_length_c   6.66799048
_cell_angle_alpha   100.07989994
_cell_angle_beta   94.76818146
_cell_angle_gamma   100.51107009
_symmetry_Int_Tables_number   1
_chemical_formula_structural   Li2Mn2Sb4P3
_chemical_formula_sum   'Li2 Mn2 Sb4 P3'
_cell_volume   165.39939915
_cell_formula_units_Z   1
loop_
 _symmetry_equiv_pos_site_id
 _symmetry_equiv_pos_as_xyz
  1  'x, y, z'
loop_
 _atom_site_type_symbol
 _atom_site_label
 _atom_site_symmetry_multiplicity
 _atom_site_fract_x
 _atom_site_fract_y
 _atom_site_fract_z
 _atom_site_occupancy
  Mn  Mn0  1  0.12500000  0.12500000  0.12500000  1
  Mn  Mn1  1  0.50000000  0.50000000  0.50000000  1
  Sb  Sb2  1  0.25000000  0.25000000  0.25000000  1
  Sb  Sb3  1  0.75000000  0.75000000  0.75000000  1
  Sb  Sb4  1  0.42042753  0.09191029  0.25534031  1
  Sb  Sb5  1  0.35103633  0.82854684  0.98717492  1
  P  P6  1  0.30476869  0.28595350  0.67237679  1
  P  P7  1  0.51404665  0.68766001  0.60091586  1
  P  P8  1  0.40831103  0.15626583  0.31560936  1
  Li  Li9  1  0.09018057  0.33581149  0.46558085  1
  Li  Li10  1  0.16162606  0.94993800  0.42783253  1
