# generated using pymatgen
data_Li3TiI4(OF)3
_symmetry_space_group_name_H-M   'P 1'
_cell_length_a   5.03444742
_cell_length_b   4.72702379
_cell_length_c   6.77924988
_cell_angle_alpha   104.23933661
_cell_angle_beta   108.53072626
_cell_angle_gamma   103.36483818
_symmetry_Int_Tables_number   1
_chemical_formula_structural   Li3TiI4(OF)3
_chemical_formula_sum   'Li3 Ti1 I4 O3 F3'
_cell_volume   139.61736583
_cell_formula_units_Z   1
loop_
 _symmetry_equiv_pos_site_id
 _symmetry_equiv_pos_as_xyz
  1  'x, y, z'
loop_
 _atom_site_type_symbol
 _atom_site_label
 _atom_site_symmetry_multiplicity
 _atom_site_fract_x
 _atom_site_fract_y
 _atom_site_fract_z
 _atom_site_occupancy
  I  I0  1  0.12500000  0.00000000  0.25000000  1
  I  I1  1  0.00000000  0.00000000  0.00000000  1
  I  I2  1  0.37500000  0.00000000  0.25000000  1
  I  I3  1  0.25000000  0.25000000  0.25000000  1
  Li  Li4  1  0.00000000  0.25000000  0.12500000  1
  Li  Li5  1  0.10997671  0.34087032  0.90606776  1
  Li  Li6  1  0.06243652  0.71527728  0.44652946  1
  F  F7  1  0.16599810  0.02310361  0.51169057  1
  F  F8  1  0.63057008  0.30625592  0.73944492  1
  F  F9  1  0.83837455  0.98221438  0.27629224  1
  Ti  Ti10  1  0.04701931  0.34203246  0.25064616  1
  O  O11  1  0.90108046  0.43450413  0.87836792  1
  O  O12  1  0.47511239  0.71606423  0.96312967  1
  O  O13  1  0.35677664  0.59871457  0.72344797  1
