# generated using pymatgen
data_Li3LuTiI4N5
_symmetry_space_group_name_H-M   'P 1'
_cell_length_a   7.88320324
_cell_length_b   7.64617091
_cell_length_c   8.17147786
_cell_angle_alpha   92.36784243
_cell_angle_beta   91.40688692
_cell_angle_gamma   92.63419127
_symmetry_Int_Tables_number   1
_chemical_formula_structural   Li3LuTiI4N5
_chemical_formula_sum   'Li3 Lu1 Ti1 I4 N5'
_cell_volume   491.43337247
_cell_formula_units_Z   1
loop_
 _symmetry_equiv_pos_site_id
 _symmetry_equiv_pos_as_xyz
  1  'x, y, z'
loop_
 _atom_site_type_symbol
 _atom_site_label
 _atom_site_symmetry_multiplicity
 _atom_site_fract_x
 _atom_site_fract_y
 _atom_site_fract_z
 _atom_site_occupancy
  I  I0  1  0.12500000  0.00000000  0.25000000  1
  I  I1  1  0.00000000  0.00000000  0.00000000  1
  I  I2  1  0.37500000  0.00000000  0.25000000  1
  I  I3  1  0.25000000  0.25000000  0.25000000  1
  Lu  Lu4  1  0.00000000  0.25000000  0.12500000  1
  Li  Li5  1  0.83153067  0.45019025  0.05113488  1
  Li  Li6  1  0.84955068  0.77972330  0.97710854  1
  Li  Li7  1  0.64703572  0.86187688  0.67513156  1
  Ti  Ti8  1  0.75629505  0.75651436  0.82349618  1
  N  N9  1  0.65589569  0.76735147  0.96036011  1
  N  N10  1  0.86455394  0.65064184  0.72112723  1
  N  N11  1  0.32687729  0.48232821  0.97484546  1
  N  N12  1  0.23508909  0.74378211  0.09334838  1
  N  N13  1  0.71388771  0.14977146  0.93692106  1
