# generated using pymatgen
data_LiMnSb4P3
_symmetry_space_group_name_H-M   'P 1'
_cell_length_a   4.35214774
_cell_length_b   4.53544474
_cell_length_c   6.28324849
_cell_angle_alpha   101.82377306
_cell_angle_beta   94.94106665
_cell_angle_gamma   102.15547299
_symmetry_Int_Tables_number   1
_chemical_formula_structural   LiMnSb4P3
_chemical_formula_sum   'Li1 Mn1 Sb4 P3'
_cell_volume   117.58331397
_cell_formula_units_Z   1
loop_
 _symmetry_equiv_pos_site_id
 _symmetry_equiv_pos_as_xyz
  1  'x, y, z'
loop_
 _atom_site_type_symbol
 _atom_site_label
 _atom_site_symmetry_multiplicity
 _atom_site_fract_x
 _atom_site_fract_y
 _atom_site_fract_z
 _atom_site_occupancy
  Mn  Mn0  1  0.00000000  0.00000000  0.00000000  1
  Sb  Sb1  1  0.33300000  0.66700000  0.25000000  1
  Sb  Sb2  1  0.66700000  0.33300000  0.50000000  1
  Sb  Sb3  1  0.00000000  0.00000000  0.75000000  1
  Sb  Sb4  1  0.42129420  0.11016287  0.79366323  1
  P  P5  1  0.87397449  0.22468706  0.10970314  1
  P  P6  1  0.56352398  0.76132220  0.38253344  1
  P  P7  1  0.74209483  0.07412892  0.79729554  1
  Li  Li8  1  0.37133548  0.68039900  0.19187853  1
