# generated using pymatgen
data_Li3Cu2Ni2(As3P2)2
_symmetry_space_group_name_H-M   'P 1'
_cell_length_a   7.50063194
_cell_length_b   7.28885762
_cell_length_c   8.32885204
_cell_angle_alpha   92.06772681
_cell_angle_beta   91.52605660
_cell_angle_gamma   92.39531403
_symmetry_Int_Tables_number   1
_chemical_formula_structural   Li3Cu2Ni2(As3P2)2
_chemical_formula_sum   'Li3 Cu2 Ni2 As6 P4'
_cell_volume   454.47231093
_cell_formula_units_Z   1
loop_
 _symmetry_equiv_pos_site_id
 _symmetry_equiv_pos_as_xyz
  1  'x, y, z'
loop_
 _atom_site_type_symbol
 _atom_site_label
 _atom_site_symmetry_multiplicity
 _atom_site_fract_x
 _atom_site_fract_y
 _atom_site_fract_z
 _atom_site_occupancy
  P  P0  1  0.00000000  0.00000000  0.00000000  1
  P  P1  1  0.50000000  0.50000000  0.50000000  1
  P  P2  1  0.50000000  0.50000000  0.00000000  1
  P  P3  1  0.50000000  0.00000000  0.50000000  1
  Li  Li4  1  0.00000000  0.50000000  0.50000000  1
  Li  Li5  1  0.14729306  0.08238145  0.93504460  1
  Li  Li6  1  0.59987235  0.27180823  0.81509479  1
  Cu  Cu7  1  0.69693969  0.12289236  0.84554192  1
  Cu  Cu8  1  0.02406399  0.26836098  0.54168936  1
  Ni  Ni9  1  0.11329742  0.91938243  0.00626913  1
  Ni  Ni10  1  0.12883299  0.96195681  0.97092525  1
  As  As11  1  0.00912759  0.79925209  0.93013417  1
  As  As12  1  0.76909813  0.20524071  0.89169798  1
  As  As13  1  0.11618351  0.13439996  0.38267607  1
  As  As14  1  0.60578271  0.43749462  0.78143606  1
  As  As15  1  0.21314344  0.63672198  0.34862697  1
  As  As16  1  0.53235439  0.97785425  0.14577939  1
