# generated using pymatgen
data_Li2Lu(CuS)2
_symmetry_space_group_name_H-M   'P 1'
_cell_length_a   6.47291232
_cell_length_b   6.33200349
_cell_length_c   7.51072414
_cell_angle_alpha   95.06784109
_cell_angle_beta   96.57109983
_cell_angle_gamma   95.66554397
_symmetry_Int_Tables_number   1
_chemical_formula_structural   Li2Lu(CuS)2
_chemical_formula_sum   'Li2 Lu1 Cu2 S2'
_cell_volume   302.77263887
_cell_formula_units_Z   1
loop_
 _symmetry_equiv_pos_site_id
 _symmetry_equiv_pos_as_xyz
  1  'x, y, z'
loop_
 _atom_site_type_symbol
 _atom_site_label
 _atom_site_symmetry_multiplicity
 _atom_site_fract_x
 _atom_site_fract_y
 _atom_site_fract_z
 _atom_site_occupancy
  Lu  Lu0  1  0.00000000  0.00000000  0.00000000  1
  Li  Li1  1  0.33300000  0.66700000  0.25000000  1
  Li  Li2  1  0.66700000  0.33300000  0.50000000  1
  Cu  Cu3  1  0.00000000  0.00000000  0.75000000  1
  Cu  Cu4  1  0.29048559  0.10971831  0.89115753  1
  S  S5  1  0.20618842  0.02745952  0.71896850  1
  S  S6  1  0.00152552  0.11335182  0.98321782  1
