# generated using pymatgen
data_Li3Ni2(Te3I2)2
_symmetry_space_group_name_H-M   'P 1'
_cell_length_a   7.39265184
_cell_length_b   7.17288340
_cell_length_c   7.88103167
_cell_angle_alpha   95.17918385
_cell_angle_beta   95.65610927
_cell_angle_gamma   95.09920636
_symmetry_Int_Tables_number   1
_chemical_formula_structural   Li3Ni2(Te3I2)2
_chemical_formula_sum   'Li3 Ni2 Te6 I4'
_cell_volume   412.15143083
_cell_formula_units_Z   1
loop_
 _symmetry_equiv_pos_site_id
 _symmetry_equiv_pos_as_xyz
  1  'x, y, z'
loop_
 _atom_site_type_symbol
 _atom_site_label
 _atom_site_symmetry_multiplicity
 _atom_site_fract_x
 _atom_site_fract_y
 _atom_site_fract_z
 _atom_site_occupancy
  I  I0  1  0.12500000  0.12500000  0.12500000  1
  I  I1  1  0.50000000  0.50000000  0.50000000  1
  I  I2  1  0.25000000  0.25000000  0.25000000  1
  I  I3  1  0.75000000  0.75000000  0.75000000  1
  Li  Li4  1  0.85967426  0.89888317  0.01697185  1
  Li  Li5  1  0.00317304  0.40726259  0.10880448  1
  Li  Li6  1  0.28119329  0.72854459  0.97648164  1
  Ni  Ni7  1  0.43035899  0.19941067  0.76508426  1
  Ni  Ni8  1  0.84495924  0.93187284  0.26816192  1
  Te  Te9  1  0.41993687  0.87667729  0.13484272  1
  Te  Te10  1  0.38587885  0.81817433  0.86383996  1
  Te  Te11  1  0.29193976  0.31244742  0.83723386  1
  Te  Te12  1  0.70779946  0.49595707  0.04066113  1
  Te  Te13  1  0.84284711  0.73622588  0.77437675  1
  Te  Te14  1  0.54962136  0.05804752  0.29454263  1
