# generated using pymatgen
data_LiTi2Sb2Se3O
_symmetry_space_group_name_H-M   'P 1'
_cell_length_a   8.18394242
_cell_length_b   8.52905645
_cell_length_c   7.98837569
_cell_angle_alpha   90.00000000
_cell_angle_beta   90.00000000
_cell_angle_gamma   90.00000000
_symmetry_Int_Tables_number   1
_chemical_formula_structural   LiTi2Sb2Se3O
_chemical_formula_sum   'Li1 Ti2 Sb2 Se3 O1'
_cell_volume   557.59906235
_cell_formula_units_Z   1
loop_
 _symmetry_equiv_pos_site_id
 _symmetry_equiv_pos_as_xyz
  1  'x, y, z'
loop_
 _atom_site_type_symbol
 _atom_site_label
 _atom_site_symmetry_multiplicity
 _atom_site_fract_x
 _atom_site_fract_y
 _atom_site_fract_z
 _atom_site_occupancy
  Li  Li0  1  0.00000000  0.00000000  0.00000000  1
  Sb  Sb1  1  0.50000000  0.50000000  0.50000000  1
  Sb  Sb2  1  0.25000000  0.25000000  0.25000000  1
  Se  Se3  1  0.75000000  0.25000000  0.00000000  1
  Se  Se4  1  0.25000000  0.75000000  0.50000000  1
  Se  Se5  1  0.13502667  0.51663564  0.28133388  1
  Ti  Ti6  1  0.66079718  0.47266651  0.75258111  1
  Ti  Ti7  1  0.02904105  0.05173281  0.17858123  1
  O  O8  1  0.94045482  0.76086674  0.02246156  1
