# generated using pymatgen
data_Li3LuTiCu2P3
_symmetry_space_group_name_H-M   'P 1'
_cell_length_a   7.04594820
_cell_length_b   6.74260833
_cell_length_c   7.35851677
_cell_angle_alpha   95.66979907
_cell_angle_beta   96.90853525
_cell_angle_gamma   95.50142196
_symmetry_Int_Tables_number   1
_chemical_formula_structural   Li3LuTiCu2P3
_chemical_formula_sum   'Li3 Lu1 Ti1 Cu2 P3'
_cell_volume   343.29229544
_cell_formula_units_Z   1
loop_
 _symmetry_equiv_pos_site_id
 _symmetry_equiv_pos_as_xyz
  1  'x, y, z'
loop_
 _atom_site_type_symbol
 _atom_site_label
 _atom_site_symmetry_multiplicity
 _atom_site_fract_x
 _atom_site_fract_y
 _atom_site_fract_z
 _atom_site_occupancy
  P  P0  1  0.00000000  0.00000000  0.00000000  1
  P  P1  1  0.50000000  0.50000000  0.50000000  1
  P  P2  1  0.25000000  0.25000000  0.25000000  1
  Lu  Lu3  1  0.75000000  0.25000000  0.00000000  1
  Li  Li4  1  0.25000000  0.75000000  0.50000000  1
  Li  Li5  1  0.01057298  0.88339904  0.53348414  1
  Li  Li6  1  0.02836813  0.48987463  0.02658697  1
  Cu  Cu7  1  0.97963294  0.88699649  0.49405639  1
  Cu  Cu8  1  0.97223607  0.46081188  0.70239426  1
  Ti  Ti9  1  0.01924793  0.21136323  0.18412540  1
