# generated using pymatgen
data_Li2Mn2Sb4Mo2P3
_symmetry_space_group_name_H-M   'P 1'
_cell_length_a   5.16988306
_cell_length_b   5.56930628
_cell_length_c   6.98721320
_cell_angle_alpha   97.20679637
_cell_angle_beta   96.28787107
_cell_angle_gamma   97.88898606
_symmetry_Int_Tables_number   1
_chemical_formula_structural   Li2Mn2Sb4Mo2P3
_chemical_formula_sum   'Li2 Mn2 Sb4 Mo2 P3'
_cell_volume   196.05097929
_cell_formula_units_Z   1
loop_
 _symmetry_equiv_pos_site_id
 _symmetry_equiv_pos_as_xyz
  1  'x, y, z'
loop_
 _atom_site_type_symbol
 _atom_site_label
 _atom_site_symmetry_multiplicity
 _atom_site_fract_x
 _atom_site_fract_y
 _atom_site_fract_z
 _atom_site_occupancy
  Mn  Mn0  1  0.00000000  0.00000000  0.00000000  1
  Mn  Mn1  1  0.50000000  0.50000000  0.50000000  1
  Sb  Sb2  1  0.25000000  0.25000000  0.25000000  1
  Sb  Sb3  1  0.75000000  0.25000000  0.00000000  1
  Sb  Sb4  1  0.25000000  0.75000000  0.50000000  1
  Sb  Sb5  1  0.44731788  0.35714074  0.98291231  1
  P  P6  1  0.66092946  0.85601631  0.29342241  1
  P  P7  1  0.06336448  0.26814246  0.48738572  1
  P  P8  1  0.02581740  0.37122720  0.70526755  1
  Mo  Mo9  1  0.83897239  0.58641276  0.45998073  1
  Mo  Mo10  1  0.93020526  0.78080185  0.19475660  1
  Li  Li11  1  0.83594303  0.24248116  0.90604790  1
  Li  Li12  1  0.73702129  0.35497148  0.19536459  1
