# generated using pymatgen
data_Li2LuAs6P5
_symmetry_space_group_name_H-M   'P 1'
_cell_length_a   5.71612182
_cell_length_b   5.35663930
_cell_length_c   7.58979929
_cell_angle_alpha   97.28189597
_cell_angle_beta   97.92333180
_cell_angle_gamma   96.66018165
_symmetry_Int_Tables_number   1
_chemical_formula_structural   Li2LuAs6P5
_chemical_formula_sum   'Li2 Lu1 As6 P5'
_cell_volume   226.20240178
_cell_formula_units_Z   1
loop_
 _symmetry_equiv_pos_site_id
 _symmetry_equiv_pos_as_xyz
  1  'x, y, z'
loop_
 _atom_site_type_symbol
 _atom_site_label
 _atom_site_symmetry_multiplicity
 _atom_site_fract_x
 _atom_site_fract_y
 _atom_site_fract_z
 _atom_site_occupancy
  P  P0  1  0.12500000  0.12500000  0.12500000  1
  P  P1  1  0.50000000  0.50000000  0.50000000  1
  P  P2  1  0.25000000  0.25000000  0.25000000  1
  P  P3  1  0.75000000  0.75000000  0.75000000  1
  P  P4  1  0.71166703  0.31034693  0.82499233  1
  Lu  Lu5  1  0.49403087  0.31874365  0.04706931  1
  As  As6  1  0.55269098  0.05439374  0.05466899  1
  As  As7  1  0.51725056  0.38629669  0.93331867  1
  As  As8  1  0.48594174  0.22342161  0.72358367  1
  As  As9  1  0.66882054  0.47709797  0.68725749  1
  As  As10  1  0.31800165  0.01325564  0.59975268  1
  As  As11  1  0.75626850  0.37263667  0.78520955  1
  Li  Li12  1  0.47479919  0.65925400  0.67426826  1
  Li  Li13  1  0.46545247  0.48293469  0.82349321  1
