# generated using pymatgen
data_Li2Mn(SbP)3
_symmetry_space_group_name_H-M   'P 1'
_cell_length_a   5.60997520
_cell_length_b   5.88558611
_cell_length_c   7.11418624
_cell_angle_alpha   95.62406168
_cell_angle_beta   95.42522595
_cell_angle_gamma   96.18465807
_symmetry_Int_Tables_number   1
_chemical_formula_structural   Li2Mn(SbP)3
_chemical_formula_sum   'Li2 Mn1 Sb3 P3'
_cell_volume   231.08980820
_cell_formula_units_Z   1
loop_
 _symmetry_equiv_pos_site_id
 _symmetry_equiv_pos_as_xyz
  1  'x, y, z'
loop_
 _atom_site_type_symbol
 _atom_site_label
 _atom_site_symmetry_multiplicity
 _atom_site_fract_x
 _atom_site_fract_y
 _atom_site_fract_z
 _atom_site_occupancy
  Mn  Mn0  1  0.00000000  0.00000000  0.00000000  1
  Sb  Sb1  1  0.50000000  0.50000000  0.50000000  1
  Sb  Sb2  1  0.25000000  0.25000000  0.25000000  1
  Sb  Sb3  1  0.75000000  0.25000000  0.00000000  1
  P  P4  1  0.25000000  0.75000000  0.50000000  1
  P  P5  1  0.40798045  0.46021719  0.00877182  1
  P  P6  1  0.01523851  0.37382223  0.81239013  1
  Li  Li7  1  0.30181314  0.43455861  0.59916359  1
  Li  Li8  1  0.58564938  0.96446339  0.20421869  1
