# generated using pymatgen
data_Li2Sb4Mo2P3
_symmetry_space_group_name_H-M   'P 1'
_cell_length_a   4.72744264
_cell_length_b   4.77722371
_cell_length_c   6.48410604
_cell_angle_alpha   101.89311254
_cell_angle_beta   94.64811645
_cell_angle_gamma   102.27331162
_symmetry_Int_Tables_number   1
_chemical_formula_structural   Li2Sb4Mo2P3
_chemical_formula_sum   'Li2 Sb4 Mo2 P3'
_cell_volume   138.82024877
_cell_formula_units_Z   1
loop_
 _symmetry_equiv_pos_site_id
 _symmetry_equiv_pos_as_xyz
  1  'x, y, z'
loop_
 _atom_site_type_symbol
 _atom_site_label
 _atom_site_symmetry_multiplicity
 _atom_site_fract_x
 _atom_site_fract_y
 _atom_site_fract_z
 _atom_site_occupancy
  Sb  Sb0  1  0.12500000  0.12500000  0.12500000  1
  Sb  Sb1  1  0.50000000  0.50000000  0.50000000  1
  Sb  Sb2  1  0.25000000  0.25000000  0.25000000  1
  Sb  Sb3  1  0.75000000  0.75000000  0.75000000  1
  P  P4  1  0.33987424  0.12263090  0.59733026  1
  P  P5  1  0.54451807  0.92323038  0.01266197  1
  P  P6  1  0.48664843  0.34058110  0.18739364  1
  Mo  Mo7  1  0.99991304  0.31121681  0.39518462  1
  Mo  Mo8  1  0.09489211  0.02941564  0.65258691  1
  Li  Li9  1  0.19273863  0.14212183  0.66802828  1
  Li  Li10  1  0.82353569  0.92586412  0.09720310  1
