# generated using pymatgen
data_LiMn2Sb3Mo2P3
_symmetry_space_group_name_H-M   'P 1'
_cell_length_a   5.44961934
_cell_length_b   5.77429727
_cell_length_c   6.44300943
_cell_angle_alpha   94.41125082
_cell_angle_beta   92.34428178
_cell_angle_gamma   94.78593058
_symmetry_Int_Tables_number   1
_chemical_formula_structural   LiMn2Sb3Mo2P3
_chemical_formula_sum   'Li1 Mn2 Sb3 Mo2 P3'
_cell_volume   201.21281243
_cell_formula_units_Z   1
loop_
 _symmetry_equiv_pos_site_id
 _symmetry_equiv_pos_as_xyz
  1  'x, y, z'
loop_
 _atom_site_type_symbol
 _atom_site_label
 _atom_site_symmetry_multiplicity
 _atom_site_fract_x
 _atom_site_fract_y
 _atom_site_fract_z
 _atom_site_occupancy
  Mn  Mn0  1  0.12500000  0.00000000  0.25000000  1
  Mn  Mn1  1  0.00000000  0.00000000  0.00000000  1
  Sb  Sb2  1  0.37500000  0.00000000  0.25000000  1
  Sb  Sb3  1  0.25000000  0.25000000  0.25000000  1
  Sb  Sb4  1  0.00000000  0.25000000  0.12500000  1
  P  P5  1  0.24596028  0.29662526  0.60384253  1
  P  P6  1  0.22965415  0.20708584  0.26228332  1
  P  P7  1  0.16821805  0.27050817  0.36992626  1
  Mo  Mo8  1  0.08158925  0.42594782  0.29743337  1
  Mo  Mo9  1  0.59451772  0.91518140  0.68384140  1
  Li  Li10  1  0.77250331  0.27208895  0.63582004  1
