# generated using pymatgen
data_Li3TiP3N5
_symmetry_space_group_name_H-M   'P 1'
_cell_length_a   7.54320446
_cell_length_b   7.26509203
_cell_length_c   7.67187277
_cell_angle_alpha   92.79028140
_cell_angle_beta   92.59836654
_cell_angle_gamma   92.82337967
_symmetry_Int_Tables_number   1
_chemical_formula_structural   Li3TiP3N5
_chemical_formula_sum   'Li3 Ti1 P3 N5'
_cell_volume   418.94594780
_cell_formula_units_Z   1
loop_
 _symmetry_equiv_pos_site_id
 _symmetry_equiv_pos_as_xyz
  1  'x, y, z'
loop_
 _atom_site_type_symbol
 _atom_site_label
 _atom_site_symmetry_multiplicity
 _atom_site_fract_x
 _atom_site_fract_y
 _atom_site_fract_z
 _atom_site_occupancy
  P  P0  1  0.12500000  0.12500000  0.12500000  1
  P  P1  1  0.50000000  0.50000000  0.50000000  1
  P  P2  1  0.25000000  0.25000000  0.25000000  1
  Li  Li3  1  0.75000000  0.75000000  0.75000000  1
  Li  Li4  1  0.89733848  0.15037842  0.07557787  1
  Li  Li5  1  0.73782600  0.52209155  0.83401498  1
  Ti  Ti6  1  0.43356575  0.03927199  0.73979456  1
  N  N7  1  0.55729591  0.23405184  0.66454162  1
  N  N8  1  0.10170730  0.90221509  0.41000481  1
  N  N9  1  0.90683821  0.24965539  0.54336180  1
  N  N10  1  0.56491697  0.84435523  0.40533037  1
  N  N11  1  0.04917771  0.50784641  0.77499606  1
