# generated using pymatgen
data_LiMn2Sb4P3
_symmetry_space_group_name_H-M   'P 1'
_cell_length_a   5.40803437
_cell_length_b   5.65947811
_cell_length_c   6.40258817
_cell_angle_alpha   95.10732624
_cell_angle_beta   92.00958050
_cell_angle_gamma   94.95591210
_symmetry_Int_Tables_number   1
_chemical_formula_structural   LiMn2Sb4P3
_chemical_formula_sum   'Li1 Mn2 Sb4 P3'
_cell_volume   194.27346062
_cell_formula_units_Z   1
loop_
 _symmetry_equiv_pos_site_id
 _symmetry_equiv_pos_as_xyz
  1  'x, y, z'
loop_
 _atom_site_type_symbol
 _atom_site_label
 _atom_site_symmetry_multiplicity
 _atom_site_fract_x
 _atom_site_fract_y
 _atom_site_fract_z
 _atom_site_occupancy
  Mn  Mn0  1  0.00000000  0.00000000  0.00000000  1
  Mn  Mn1  1  0.33300000  0.66700000  0.25000000  1
  Sb  Sb2  1  0.66700000  0.33300000  0.50000000  1
  Sb  Sb3  1  0.00000000  0.00000000  0.75000000  1
  Sb  Sb4  1  0.32998164  0.44612998  0.94173108  1
  Sb  Sb5  1  0.41917144  0.80265871  0.90154724  1
  P  P6  1  0.51431906  0.91892681  0.06360503  1
  P  P7  1  0.26184794  0.79396411  0.03332644  1
  P  P8  1  0.39073813  0.37250129  0.60433215  1
  Li  Li9  1  0.33564947  0.76147184  0.76860632  1
