# generated using pymatgen
data_Li3Ni2(As3P2)2
_symmetry_space_group_name_H-M   'P 1'
_cell_length_a   7.96103845
_cell_length_b   7.79863663
_cell_length_c   9.27314323
_cell_angle_alpha   91.01739593
_cell_angle_beta   90.64502568
_cell_angle_gamma   91.17897987
_symmetry_Int_Tables_number   1
_chemical_formula_structural   Li3Ni2(As3P2)2
_chemical_formula_sum   'Li3 Ni2 As6 P4'
_cell_volume   575.47385000
_cell_formula_units_Z   1
loop_
 _symmetry_equiv_pos_site_id
 _symmetry_equiv_pos_as_xyz
  1  'x, y, z'
loop_
 _atom_site_type_symbol
 _atom_site_label
 _atom_site_symmetry_multiplicity
 _atom_site_fract_x
 _atom_site_fract_y
 _atom_site_fract_z
 _atom_site_occupancy
  P  P0  1  0.00000000  0.00000000  0.00000000  1
  P  P1  1  0.50000000  0.50000000  0.50000000  1
  P  P2  1  0.25000000  0.25000000  0.25000000  1
  P  P3  1  0.75000000  0.25000000  0.00000000  1
  Li  Li4  1  0.25000000  0.75000000  0.50000000  1
  Li  Li5  1  0.03130784  0.09182358  0.89452153  1
  Li  Li6  1  0.33513799  0.05259152  0.14806101  1
  Ni  Ni7  1  0.00716620  0.55607519  0.44241491  1
  Ni  Ni8  1  0.12772565  0.14641718  0.06620594  1
  As  As9  1  0.42713502  0.41917979  0.67456487  1
  As  As10  1  0.44299269  0.35673459  0.71871190  1
  As  As11  1  0.43569366  0.76427402  0.16927213  1
  As  As12  1  0.56229753  0.00368367  0.14330149  1
  As  As13  1  0.02915419  0.68385530  0.54500071  1
  As  As14  1  0.06888529  0.84005696  0.04640341  1
