# generated using pymatgen
data_Li(Sb2P)2
_symmetry_space_group_name_H-M   'P 1'
_cell_length_a   5.77614887
_cell_length_b   6.15727095
_cell_length_c   6.73964897
_cell_angle_alpha   97.05022282
_cell_angle_beta   92.05524537
_cell_angle_gamma   97.11843059
_symmetry_Int_Tables_number   1
_chemical_formula_structural   Li(Sb2P)2
_chemical_formula_sum   'Li1 Sb4 P2'
_cell_volume   235.73410923
_cell_formula_units_Z   1
loop_
 _symmetry_equiv_pos_site_id
 _symmetry_equiv_pos_as_xyz
  1  'x, y, z'
loop_
 _atom_site_type_symbol
 _atom_site_label
 _atom_site_symmetry_multiplicity
 _atom_site_fract_x
 _atom_site_fract_y
 _atom_site_fract_z
 _atom_site_occupancy
  Sb  Sb0  1  0.12500000  0.00000000  0.25000000  1
  Sb  Sb1  1  0.00000000  0.00000000  0.00000000  1
  Sb  Sb2  1  0.37500000  0.00000000  0.25000000  1
  Sb  Sb3  1  0.25000000  0.25000000  0.25000000  1
  P  P4  1  0.00000000  0.25000000  0.12500000  1
  P  P5  1  0.55071856  0.18913353  0.14586536  1
  Li  Li6  1  0.17198248  0.59161373  0.89040999  1
