# generated using pymatgen
data_Li2Mn2Sb4P3
_symmetry_space_group_name_H-M   'P 1'
_cell_length_a   5.93930224
_cell_length_b   6.22059236
_cell_length_c   6.97294869
_cell_angle_alpha   96.70943638
_cell_angle_beta   92.39818354
_cell_angle_gamma   96.86328678
_symmetry_Int_Tables_number   1
_chemical_formula_structural   Li2Mn2Sb4P3
_chemical_formula_sum   'Li2 Mn2 Sb4 P3'
_cell_volume   253.61745136
_cell_formula_units_Z   1
loop_
 _symmetry_equiv_pos_site_id
 _symmetry_equiv_pos_as_xyz
  1  'x, y, z'
loop_
 _atom_site_type_symbol
 _atom_site_label
 _atom_site_symmetry_multiplicity
 _atom_site_fract_x
 _atom_site_fract_y
 _atom_site_fract_z
 _atom_site_occupancy
  Mn  Mn0  1  0.12500000  0.12500000  0.12500000  1
  Mn  Mn1  1  0.50000000  0.50000000  0.50000000  1
  Sb  Sb2  1  0.25000000  0.25000000  0.25000000  1
  Sb  Sb3  1  0.75000000  0.75000000  0.75000000  1
  Sb  Sb4  1  0.27995419  0.52372514  0.65085889  1
  Sb  Sb5  1  0.16222598  0.61192559  0.59903825  1
  P  P6  1  0.80734562  0.75780577  0.89937248  1
  P  P7  1  0.30237625  0.18607098  0.12336883  1
  P  P8  1  0.04238548  0.69798981  0.30399886  1
  Li  Li9  1  0.29088336  0.64939254  0.02709621  1
  Li  Li10  1  0.29592701  0.75483160  0.94377610  1
