# generated using pymatgen
data_Li3NCl2
_symmetry_space_group_name_H-M   'P 1'
_cell_length_a   7.06249036
_cell_length_b   7.33508771
_cell_length_c   6.87952047
_cell_angle_alpha   95.07234423
_cell_angle_beta   98.66745881
_cell_angle_gamma   94.79790971
_symmetry_Int_Tables_number   1
_chemical_formula_structural   Li3NCl2
_chemical_formula_sum   'Li3 N1 Cl2'
_cell_volume   349.23121148
_cell_formula_units_Z   1
loop_
 _symmetry_equiv_pos_site_id
 _symmetry_equiv_pos_as_xyz
  1  'x, y, z'
loop_
 _atom_site_type_symbol
 _atom_site_label
 _atom_site_symmetry_multiplicity
 _atom_site_fract_x
 _atom_site_fract_y
 _atom_site_fract_z
 _atom_site_occupancy
  Li  Li0  1  0.12500000  0.00000000  0.25000000  1
  Li  Li1  1  0.00000000  0.00000000  0.00000000  1
  Li  Li2  1  0.37500000  0.00000000  0.25000000  1
  Cl  Cl3  1  0.25000000  0.25000000  0.25000000  1
  Cl  Cl4  1  0.00000000  0.25000000  0.12500000  1
  N  N5  1  0.15397377  0.19267411  0.01046582  1
