# generated using pymatgen
data_Li2TiP4Se
_symmetry_space_group_name_H-M   'P 1'
_cell_length_a   5.29703313
_cell_length_b   5.08137831
_cell_length_c   6.84031904
_cell_angle_alpha   100.98648166
_cell_angle_beta   104.56525001
_cell_angle_gamma   100.02825356
_symmetry_Int_Tables_number   1
_chemical_formula_structural   Li2TiP4Se
_chemical_formula_sum   'Li2 Ti1 P4 Se1'
_cell_volume   170.08762963
_cell_formula_units_Z   1
loop_
 _symmetry_equiv_pos_site_id
 _symmetry_equiv_pos_as_xyz
  1  'x, y, z'
loop_
 _atom_site_type_symbol
 _atom_site_label
 _atom_site_symmetry_multiplicity
 _atom_site_fract_x
 _atom_site_fract_y
 _atom_site_fract_z
 _atom_site_occupancy
  P  P0  1  0.00000000  0.00000000  0.00000000  1
  P  P1  1  0.33300000  0.66700000  0.25000000  1
  P  P2  1  0.66700000  0.33300000  0.50000000  1
  P  P3  1  0.00000000  0.00000000  0.75000000  1
  Li  Li4  1  0.03785904  0.50109052  0.17271515  1
  Li  Li5  1  0.04933738  0.23012727  0.13236952  1
  Se  Se6  1  0.57566371  0.43361988  0.67351903  1
  Ti  Ti7  1  0.34432379  0.51036436  0.67411262  1
