# generated using pymatgen
data_Li3Ti(IO)4
_symmetry_space_group_name_H-M   'P 1'
_cell_length_a   8.87687184
_cell_length_b   8.75761409
_cell_length_c   7.20693757
_cell_angle_alpha   90.00000000
_cell_angle_beta   90.00000000
_cell_angle_gamma   90.00000000
_symmetry_Int_Tables_number   1
_chemical_formula_structural   Li3Ti(IO)4
_chemical_formula_sum   'Li3 Ti1 I4 O4'
_cell_volume   560.26889682
_cell_formula_units_Z   1
loop_
 _symmetry_equiv_pos_site_id
 _symmetry_equiv_pos_as_xyz
  1  'x, y, z'
loop_
 _atom_site_type_symbol
 _atom_site_label
 _atom_site_symmetry_multiplicity
 _atom_site_fract_x
 _atom_site_fract_y
 _atom_site_fract_z
 _atom_site_occupancy
  I  I0  1  0.00000000  0.00000000  0.00000000  1
  I  I1  1  0.33300000  0.66700000  0.25000000  1
  I  I2  1  0.66700000  0.33300000  0.50000000  1
  I  I3  1  0.00000000  0.00000000  0.75000000  1
  Li  Li4  1  0.71290955  0.07758186  0.27058360  1
  Li  Li5  1  0.20539567  0.51157233  0.08618786  1
  Li  Li6  1  0.91351402  0.74746510  0.57839843  1
  Ti  Ti7  1  0.85449671  0.29328277  0.04294907  1
  O  O8  1  0.88558672  0.34556306  0.97917298  1
  O  O9  1  0.81138785  0.23507785  0.80961919  1
  O  O10  1  0.76941343  0.19054940  0.32224949  1
  O  O11  1  0.38993641  0.46963018  0.24383045  1
