# generated using pymatgen
data_LiTi2I4(OF)3
_symmetry_space_group_name_H-M   'P 1'
_cell_length_a   7.81408714
_cell_length_b   7.64004672
_cell_length_c   7.50673058
_cell_angle_alpha   90.39473763
_cell_angle_beta   91.87804177
_cell_angle_gamma   90.45129052
_symmetry_Int_Tables_number   1
_chemical_formula_structural   LiTi2I4(OF)3
_chemical_formula_sum   'Li1 Ti2 I4 O3 F3'
_cell_volume   447.88567357
_cell_formula_units_Z   1
loop_
 _symmetry_equiv_pos_site_id
 _symmetry_equiv_pos_as_xyz
  1  'x, y, z'
loop_
 _atom_site_type_symbol
 _atom_site_label
 _atom_site_symmetry_multiplicity
 _atom_site_fract_x
 _atom_site_fract_y
 _atom_site_fract_z
 _atom_site_occupancy
  I  I0  1  0.12500000  0.00000000  0.25000000  1
  I  I1  1  0.00000000  0.00000000  0.00000000  1
  I  I2  1  0.37500000  0.00000000  0.25000000  1
  I  I3  1  0.25000000  0.25000000  0.25000000  1
  Li  Li4  1  0.00000000  0.25000000  0.12500000  1
  F  F5  1  0.39682201  0.26281192  0.43466617  1
  F  F6  1  0.60999920  0.12737417  0.56639138  1
  F  F7  1  0.87400367  0.12076646  0.42740992  1
  Ti  Ti8  1  0.56323213  0.66426831  0.47198267  1
  Ti  Ti9  1  0.50186824  0.97914788  0.86672447  1
  O  O10  1  0.13459375  0.36070240  0.56340544  1
  O  O11  1  0.73794089  0.75588358  0.41025979  1
  O  O12  1  0.47604254  0.25000265  0.56791152  1
