# generated using pymatgen
data_Li2Mn2Sb4P3
_symmetry_space_group_name_H-M   'P 1'
_cell_length_a   5.60630314
_cell_length_b   6.01353059
_cell_length_c   6.77900050
_cell_angle_alpha   97.77693960
_cell_angle_beta   92.55570878
_cell_angle_gamma   97.92406810
_symmetry_Int_Tables_number   1
_chemical_formula_structural   Li2Mn2Sb4P3
_chemical_formula_sum   'Li2 Mn2 Sb4 P3'
_cell_volume   223.81452811
_cell_formula_units_Z   1
loop_
 _symmetry_equiv_pos_site_id
 _symmetry_equiv_pos_as_xyz
  1  'x, y, z'
loop_
 _atom_site_type_symbol
 _atom_site_label
 _atom_site_symmetry_multiplicity
 _atom_site_fract_x
 _atom_site_fract_y
 _atom_site_fract_z
 _atom_site_occupancy
  Mn  Mn0  1  0.00000000  0.00000000  0.00000000  1
  Mn  Mn1  1  0.50000000  0.50000000  0.50000000  1
  Sb  Sb2  1  0.25000000  0.25000000  0.25000000  1
  Sb  Sb3  1  0.75000000  0.25000000  0.00000000  1
  Sb  Sb4  1  0.25000000  0.75000000  0.50000000  1
  Sb  Sb5  1  0.82962327  0.55086739  0.45686386  1
  P  P6  1  0.95009093  0.69224667  0.23465993  1
  P  P7  1  0.58384122  0.56036227  0.82917529  1
  P  P8  1  0.59988656  0.22669510  0.38241172  1
  Li  Li9  1  0.54242068  0.56021596  0.18972091  1
  Li  Li10  1  0.85460852  0.91432111  0.53723242  1
