# generated using pymatgen
data_Li2Mn3Sb4P3
_symmetry_space_group_name_H-M   'P 1'
_cell_length_a   6.30494984
_cell_length_b   6.78720831
_cell_length_c   6.88993875
_cell_angle_alpha   95.99779838
_cell_angle_beta   90.29963059
_cell_angle_gamma   95.87850214
_symmetry_Int_Tables_number   1
_chemical_formula_structural   Li2Mn3Sb4P3
_chemical_formula_sum   'Li2 Mn3 Sb4 P3'
_cell_volume   291.64740366
_cell_formula_units_Z   1
loop_
 _symmetry_equiv_pos_site_id
 _symmetry_equiv_pos_as_xyz
  1  'x, y, z'
loop_
 _atom_site_type_symbol
 _atom_site_label
 _atom_site_symmetry_multiplicity
 _atom_site_fract_x
 _atom_site_fract_y
 _atom_site_fract_z
 _atom_site_occupancy
  Mn  Mn0  1  0.00000000  0.00000000  0.00000000  1
  Mn  Mn1  1  0.50000000  0.50000000  0.50000000  1
  Mn  Mn2  1  0.50000000  0.50000000  0.00000000  1
  Sb  Sb3  1  0.50000000  0.00000000  0.50000000  1
  Sb  Sb4  1  0.00000000  0.50000000  0.50000000  1
  Sb  Sb5  1  0.31191145  0.38013250  0.85751891  1
  Sb  Sb6  1  0.06707234  0.75940935  0.69020040  1
  P  P7  1  0.89973524  0.61275829  0.88930584  1
  P  P8  1  0.93628531  0.29654409  0.65634845  1
  P  P9  1  0.58506018  0.70883320  0.49333505  1
  Li  Li10  1  0.14841265  0.05527195  0.13446631  1
  Li  Li11  1  0.71608295  0.81298031  0.16278649  1
