# generated using pymatgen
data_Li3TiP3O
_symmetry_space_group_name_H-M   'P 1'
_cell_length_a   4.33550553
_cell_length_b   4.38341680
_cell_length_c   6.37700726
_cell_angle_alpha   108.78462038
_cell_angle_beta   91.68789682
_cell_angle_gamma   108.75821119
_symmetry_Int_Tables_number   1
_chemical_formula_structural   Li3TiP3O
_chemical_formula_sum   'Li3 Ti1 P3 O1'
_cell_volume   107.43886143
_cell_formula_units_Z   1
loop_
 _symmetry_equiv_pos_site_id
 _symmetry_equiv_pos_as_xyz
  1  'x, y, z'
loop_
 _atom_site_type_symbol
 _atom_site_label
 _atom_site_symmetry_multiplicity
 _atom_site_fract_x
 _atom_site_fract_y
 _atom_site_fract_z
 _atom_site_occupancy
  O  O0  1  0.00000000  0.00000000  0.00000000  1
  Ti  Ti1  1  0.50000000  0.50000000  0.50000000  1
  P  P2  1  0.25000000  0.25000000  0.25000000  1
  P  P3  1  0.75000000  0.25000000  0.00000000  1
  P  P4  1  0.25000000  0.75000000  0.50000000  1
  Li  Li5  1  0.43388427  0.07772113  0.52412998  1
  Li  Li6  1  0.52292356  0.13048016  0.68609023  1
  Li  Li7  1  0.42120681  0.81029320  0.33875510  1
