# generated using pymatgen
data_Li2TiMn3P4
_symmetry_space_group_name_H-M   'P 1'
_cell_length_a   5.83852442
_cell_length_b   6.28842412
_cell_length_c   6.91403777
_cell_angle_alpha   101.31119135
_cell_angle_beta   92.22417747
_cell_angle_gamma   99.22784368
_symmetry_Int_Tables_number   1
_chemical_formula_structural   Li2TiMn3P4
_chemical_formula_sum   'Li2 Ti1 Mn3 P4'
_cell_volume   245.04938331
_cell_formula_units_Z   1
loop_
 _symmetry_equiv_pos_site_id
 _symmetry_equiv_pos_as_xyz
  1  'x, y, z'
loop_
 _atom_site_type_symbol
 _atom_site_label
 _atom_site_symmetry_multiplicity
 _atom_site_fract_x
 _atom_site_fract_y
 _atom_site_fract_z
 _atom_site_occupancy
  Ti  Ti0  1  0.00000000  0.00000000  0.00000000  1
  Mn  Mn1  1  0.50000000  0.50000000  0.50000000  1
  Mn  Mn2  1  0.50000000  0.50000000  0.00000000  1
  Mn  Mn3  1  0.50000000  0.00000000  0.50000000  1
  P  P4  1  0.00000000  0.50000000  0.50000000  1
  P  P5  1  0.41584148  0.92814661  0.93749984  1
  P  P6  1  0.82154925  0.23878188  0.36114712  1
  P  P7  1  0.26683528  0.60347625  0.09884897  1
  Li  Li8  1  0.27305785  0.21753943  0.94118530  1
  Li  Li9  1  0.37692878  0.10177525  0.70247715  1
