# generated using pymatgen
data_Li3Zn2Te6P3I4
_symmetry_space_group_name_H-M   'P 1'
_cell_length_a   7.35861071
_cell_length_b   7.87966510
_cell_length_c   6.99924998
_cell_angle_alpha   90.53357454
_cell_angle_beta   92.53858564
_cell_angle_gamma   90.61001818
_symmetry_Int_Tables_number   1
_chemical_formula_structural   Li3Zn2Te6P3I4
_chemical_formula_sum   'Li3 Zn2 Te6 P3 I4'
_cell_volume   405.39951856
_cell_formula_units_Z   1
loop_
 _symmetry_equiv_pos_site_id
 _symmetry_equiv_pos_as_xyz
  1  'x, y, z'
loop_
 _atom_site_type_symbol
 _atom_site_label
 _atom_site_symmetry_multiplicity
 _atom_site_fract_x
 _atom_site_fract_y
 _atom_site_fract_z
 _atom_site_occupancy
  I  I0  1  0.00000000  0.00000000  0.00000000  1
  I  I1  1  0.50000000  0.50000000  0.50000000  1
  I  I2  1  0.50000000  0.50000000  0.00000000  1
  I  I3  1  0.50000000  0.00000000  0.50000000  1
  P  P4  1  0.00000000  0.50000000  0.50000000  1
  P  P5  1  0.98961110  0.06784092  0.32740304  1
  P  P6  1  0.75259572  0.27320965  0.11154793  1
  Li  Li7  1  0.81005945  0.85347210  0.35574139  1
  Li  Li8  1  0.01805519  0.13967167  0.39595215  1
  Li  Li9  1  0.31432071  0.07795235  0.94264249  1
  Zn  Zn10  1  0.65856149  0.99217873  0.40456969  1
  Zn  Zn11  1  0.34330781  0.64127903  0.25568692  1
  Te  Te12  1  0.73692996  0.86146706  0.77820013  1
  Te  Te13  1  0.74590886  0.48586716  0.04750602  1
  Te  Te14  1  0.92947015  0.43970274  0.68183796  1
  Te  Te15  1  0.55885077  0.78109167  0.89731327  1
  Te  Te16  1  0.92414055  0.13782576  0.43490285  1
  Te  Te17  1  0.88951464  0.91045301  0.41424527  1
