# generated using pymatgen
data_Li2TiNi2O3
_symmetry_space_group_name_H-M   'P 1'
_cell_length_a   6.83122742
_cell_length_b   6.86115423
_cell_length_c   7.98757103
_cell_angle_alpha   94.38102663
_cell_angle_beta   96.21083465
_cell_angle_gamma   95.38798242
_symmetry_Int_Tables_number   1
_chemical_formula_structural   Li2TiNi2O3
_chemical_formula_sum   'Li2 Ti1 Ni2 O3'
_cell_volume   369.11708008
_cell_formula_units_Z   1
loop_
 _symmetry_equiv_pos_site_id
 _symmetry_equiv_pos_as_xyz
  1  'x, y, z'
loop_
 _atom_site_type_symbol
 _atom_site_label
 _atom_site_symmetry_multiplicity
 _atom_site_fract_x
 _atom_site_fract_y
 _atom_site_fract_z
 _atom_site_occupancy
  Li  Li0  1  0.00000000  0.00000000  0.00000000  1
  Li  Li1  1  0.50000000  0.50000000  0.50000000  1
  Ni  Ni2  1  0.50000000  0.50000000  0.00000000  1
  Ni  Ni3  1  0.50000000  0.00000000  0.50000000  1
  Ti  Ti4  1  0.00000000  0.50000000  0.50000000  1
  O  O5  1  0.60733116  0.47644239  0.80873484  1
  O  O6  1  0.19055044  0.14228970  0.97123929  1
  O  O7  1  0.50803399  0.95196540  0.88792532  1
