# generated using pymatgen
data_Li2MnSb4P3
_symmetry_space_group_name_H-M   'P 1'
_cell_length_a   5.36486375
_cell_length_b   5.60063118
_cell_length_c   6.86250838
_cell_angle_alpha   98.22271865
_cell_angle_beta   94.11959009
_cell_angle_gamma   98.57567103
_symmetry_Int_Tables_number   1
_chemical_formula_structural   Li2MnSb4P3
_chemical_formula_sum   'Li2 Mn1 Sb4 P3'
_cell_volume   200.87736667
_cell_formula_units_Z   1
loop_
 _symmetry_equiv_pos_site_id
 _symmetry_equiv_pos_as_xyz
  1  'x, y, z'
loop_
 _atom_site_type_symbol
 _atom_site_label
 _atom_site_symmetry_multiplicity
 _atom_site_fract_x
 _atom_site_fract_y
 _atom_site_fract_z
 _atom_site_occupancy
  Mn  Mn0  1  0.12500000  0.00000000  0.25000000  1
  Sb  Sb1  1  0.00000000  0.00000000  0.00000000  1
  Sb  Sb2  1  0.37500000  0.00000000  0.25000000  1
  Sb  Sb3  1  0.25000000  0.25000000  0.25000000  1
  Sb  Sb4  1  0.00000000  0.25000000  0.12500000  1
  P  P5  1  0.75757499  0.20866046  0.73970349  1
  P  P6  1  0.72292101  0.97368662  0.35573185  1
  P  P7  1  0.97952872  0.10845488  0.09429223  1
  Li  Li8  1  0.06665590  0.66348359  0.69173085  1
  Li  Li9  1  0.81324714  0.32495683  0.79862951  1
