# generated using pymatgen
data_Li2Mn2Sb4P3
_symmetry_space_group_name_H-M   'P 1'
_cell_length_a   6.90632917
_cell_length_b   7.49571597
_cell_length_c   7.28765324
_cell_angle_alpha   92.63512319
_cell_angle_beta   90.88734509
_cell_angle_gamma   92.68795250
_symmetry_Int_Tables_number   1
_chemical_formula_structural   Li2Mn2Sb4P3
_chemical_formula_sum   'Li2 Mn2 Sb4 P3'
_cell_volume   376.39394995
_cell_formula_units_Z   1
loop_
 _symmetry_equiv_pos_site_id
 _symmetry_equiv_pos_as_xyz
  1  'x, y, z'
loop_
 _atom_site_type_symbol
 _atom_site_label
 _atom_site_symmetry_multiplicity
 _atom_site_fract_x
 _atom_site_fract_y
 _atom_site_fract_z
 _atom_site_occupancy
  Mn  Mn0  1  0.00000000  0.00000000  0.00000000  1
  Mn  Mn1  1  0.50000000  0.50000000  0.50000000  1
  Sb  Sb2  1  0.50000000  0.50000000  0.00000000  1
  Sb  Sb3  1  0.50000000  0.00000000  0.50000000  1
  Sb  Sb4  1  0.00000000  0.50000000  0.50000000  1
  Sb  Sb5  1  0.61181797  0.49954797  0.72307377  1
  P  P6  1  0.08295127  0.35005636  0.18980532  1
  P  P7  1  0.41399644  0.62310909  0.94157098  1
  P  P8  1  0.89375628  0.49087846  0.72930004  1
  Li  Li9  1  0.87723754  0.82840088  0.06262462  1
  Li  Li10  1  0.23866980  0.37713686  0.53576001  1
