# generated using pymatgen
data_Li2Mn3Sb4P3
_symmetry_space_group_name_H-M   'P 1'
_cell_length_a   6.72656934
_cell_length_b   7.28655962
_cell_length_c   7.18742244
_cell_angle_alpha   93.52725789
_cell_angle_beta   90.86778551
_cell_angle_gamma   93.55341198
_symmetry_Int_Tables_number   1
_chemical_formula_structural   Li2Mn3Sb4P3
_chemical_formula_sum   'Li2 Mn3 Sb4 P3'
_cell_volume   350.87418281
_cell_formula_units_Z   1
loop_
 _symmetry_equiv_pos_site_id
 _symmetry_equiv_pos_as_xyz
  1  'x, y, z'
loop_
 _atom_site_type_symbol
 _atom_site_label
 _atom_site_symmetry_multiplicity
 _atom_site_fract_x
 _atom_site_fract_y
 _atom_site_fract_z
 _atom_site_occupancy
  Mn  Mn0  1  0.12500000  0.12500000  0.12500000  1
  Mn  Mn1  1  0.50000000  0.50000000  0.50000000  1
  Mn  Mn2  1  0.25000000  0.25000000  0.25000000  1
  Sb  Sb3  1  0.75000000  0.75000000  0.75000000  1
  Sb  Sb4  1  0.45035962  0.21927946  0.57908827  1
  Sb  Sb5  1  0.44630569  0.05641020  0.14114739  1
  Sb  Sb6  1  0.09871474  0.16210350  0.26131535  1
  P  P7  1  0.89636484  0.45472626  0.82552665  1
  P  P8  1  0.32531331  0.59762020  0.30837281  1
  P  P9  1  0.84083527  0.69235453  0.64841937  1
  Li  Li10  1  0.72521030  0.06266880  0.89072824  1
  Li  Li11  1  0.17491266  0.99413457  0.82549158  1
