# generated using pymatgen
data_LiMn2Sb4Mo2P3
_symmetry_space_group_name_H-M   'P 1'
_cell_length_a   6.07449746
_cell_length_b   6.31137945
_cell_length_c   6.88575746
_cell_angle_alpha   92.72303347
_cell_angle_beta   92.44944943
_cell_angle_gamma   92.75566696
_symmetry_Int_Tables_number   1
_chemical_formula_structural   LiMn2Sb4Mo2P3
_chemical_formula_sum   'Li1 Mn2 Sb4 Mo2 P3'
_cell_volume   263.11802196
_cell_formula_units_Z   1
loop_
 _symmetry_equiv_pos_site_id
 _symmetry_equiv_pos_as_xyz
  1  'x, y, z'
loop_
 _atom_site_type_symbol
 _atom_site_label
 _atom_site_symmetry_multiplicity
 _atom_site_fract_x
 _atom_site_fract_y
 _atom_site_fract_z
 _atom_site_occupancy
  Mn  Mn0  1  0.00000000  0.00000000  0.00000000  1
  Mn  Mn1  1  0.50000000  0.50000000  0.50000000  1
  Sb  Sb2  1  0.50000000  0.50000000  0.00000000  1
  Sb  Sb3  1  0.50000000  0.00000000  0.50000000  1
  Sb  Sb4  1  0.00000000  0.50000000  0.50000000  1
  Sb  Sb5  1  0.46524626  0.95198890  0.23107314  1
  P  P6  1  0.88269032  0.21932513  0.02835489  1
  P  P7  1  0.06816640  0.27388013  0.89247505  1
  P  P8  1  0.46628506  0.96699519  0.03492681  1
  Mo  Mo9  1  0.50365020  0.00085343  0.66230046  1
  Mo  Mo10  1  0.69222275  0.93809844  0.83309323  1
  Li  Li11  1  0.35176925  0.77095426  0.38396498  1
