# generated using pymatgen
data_LiMn2Sb4Mo2P3
_symmetry_space_group_name_H-M   'P 1'
_cell_length_a   4.63583386
_cell_length_b   4.83565195
_cell_length_c   6.24326396
_cell_angle_alpha   98.91170103
_cell_angle_beta   93.66740465
_cell_angle_gamma   99.05880482
_symmetry_Int_Tables_number   1
_chemical_formula_structural   LiMn2Sb4Mo2P3
_chemical_formula_sum   'Li1 Mn2 Sb4 Mo2 P3'
_cell_volume   135.98178159
_cell_formula_units_Z   1
loop_
 _symmetry_equiv_pos_site_id
 _symmetry_equiv_pos_as_xyz
  1  'x, y, z'
loop_
 _atom_site_type_symbol
 _atom_site_label
 _atom_site_symmetry_multiplicity
 _atom_site_fract_x
 _atom_site_fract_y
 _atom_site_fract_z
 _atom_site_occupancy
  Mn  Mn0  1  0.00000000  0.00000000  0.00000000  1
  Mn  Mn1  1  0.50000000  0.50000000  0.50000000  1
  Sb  Sb2  1  0.50000000  0.50000000  0.00000000  1
  Sb  Sb3  1  0.50000000  0.00000000  0.50000000  1
  Sb  Sb4  1  0.00000000  0.50000000  0.50000000  1
  Sb  Sb5  1  0.92985860  0.28194347  0.06126612  1
  P  P6  1  0.41777878  0.13151388  0.16232856  1
  P  P7  1  0.20820085  0.13300652  0.99248782  1
  P  P8  1  0.58974996  0.95740356  0.48182600  1
  Mo  Mo9  1  0.74326509  0.72740436  0.23318063  1
  Mo  Mo10  1  0.53087755  0.13131747  0.10077860  1
  Li  Li11  1  0.59920662  0.05041583  0.11469573  1
