# generated using pymatgen
data_Li2TiZn2I4Br
_symmetry_space_group_name_H-M   'P 1'
_cell_length_a   5.06381571
_cell_length_b   5.52486251
_cell_length_c   6.69448905
_cell_angle_alpha   98.57200217
_cell_angle_beta   95.32343262
_cell_angle_gamma   100.61435065
_symmetry_Int_Tables_number   1
_chemical_formula_structural   Li2TiZn2I4Br
_chemical_formula_sum   'Li2 Ti1 Zn2 I4 Br1'
_cell_volume   180.63166930
_cell_formula_units_Z   1
loop_
 _symmetry_equiv_pos_site_id
 _symmetry_equiv_pos_as_xyz
  1  'x, y, z'
loop_
 _atom_site_type_symbol
 _atom_site_label
 _atom_site_symmetry_multiplicity
 _atom_site_fract_x
 _atom_site_fract_y
 _atom_site_fract_z
 _atom_site_occupancy
  I  I0  1  0.12500000  0.00000000  0.25000000  1
  I  I1  1  0.00000000  0.00000000  0.00000000  1
  I  I2  1  0.37500000  0.00000000  0.25000000  1
  I  I3  1  0.25000000  0.25000000  0.25000000  1
  Li  Li4  1  0.00000000  0.25000000  0.12500000  1
  Li  Li5  1  0.03120033  0.92068488  0.33850480  1
  Zn  Zn6  1  0.58809780  0.12900366  0.75615654  1
  Zn  Zn7  1  0.76257807  0.53200591  0.00844640  1
  Ti  Ti8  1  0.34387214  0.59851351  0.89121422  1
  Br  Br9  1  0.65662864  0.86325095  0.99099174  1
