# generated using pymatgen
data_Li2Ti3Nb2Ni2O5
_symmetry_space_group_name_H-M   'P 1'
_cell_length_a   7.35576888
_cell_length_b   7.16049294
_cell_length_c   8.66846430
_cell_angle_alpha   90.47039396
_cell_angle_beta   92.23799160
_cell_angle_gamma   90.53778590
_symmetry_Int_Tables_number   1
_chemical_formula_structural   Li2Ti3Nb2Ni2O5
_chemical_formula_sum   'Li2 Ti3 Nb2 Ni2 O5'
_cell_volume   456.19092728
_cell_formula_units_Z   1
loop_
 _symmetry_equiv_pos_site_id
 _symmetry_equiv_pos_as_xyz
  1  'x, y, z'
loop_
 _atom_site_type_symbol
 _atom_site_label
 _atom_site_symmetry_multiplicity
 _atom_site_fract_x
 _atom_site_fract_y
 _atom_site_fract_z
 _atom_site_occupancy
  Li  Li0  1  0.00000000  0.00000000  0.00000000  1
  Li  Li1  1  0.50000000  0.50000000  0.50000000  1
  Nb  Nb2  1  0.25000000  0.25000000  0.25000000  1
  Nb  Nb3  1  0.75000000  0.25000000  0.00000000  1
  Ni  Ni4  1  0.25000000  0.75000000  0.50000000  1
  Ni  Ni5  1  0.89435320  0.45220271  0.40769641  1
  Ti  Ti6  1  0.46422983  0.47211069  0.70409214  1
  Ti  Ti7  1  0.26076299  0.92756684  0.93543373  1
  Ti  Ti8  1  0.28537144  0.69516939  0.65103487  1
  O  O9  1  0.35044969  0.52979383  0.16933454  1
  O  O10  1  0.38139834  0.01857630  0.87202022  1
  O  O11  1  0.18572070  0.78302497  0.70625377  1
  O  O12  1  0.17371450  0.75766843  0.86459881  1
  O  O13  1  0.38078948  0.63325595  0.54923156  1
