# generated using pymatgen
data_Li3Ni2SeO5F3
_symmetry_space_group_name_H-M   'P 1'
_cell_length_a   5.73771815
_cell_length_b   5.45860318
_cell_length_c   7.62835839
_cell_angle_alpha   100.96047755
_cell_angle_beta   103.71998448
_cell_angle_gamma   100.42676093
_symmetry_Int_Tables_number   1
_chemical_formula_structural   Li3Ni2SeO5F3
_chemical_formula_sum   'Li3 Ni2 Se1 O5 F3'
_cell_volume   221.37438378
_cell_formula_units_Z   1
loop_
 _symmetry_equiv_pos_site_id
 _symmetry_equiv_pos_as_xyz
  1  'x, y, z'
loop_
 _atom_site_type_symbol
 _atom_site_label
 _atom_site_symmetry_multiplicity
 _atom_site_fract_x
 _atom_site_fract_y
 _atom_site_fract_z
 _atom_site_occupancy
  Li  Li0  1  0.00000000  0.00000000  0.00000000  1
  Li  Li1  1  0.50000000  0.50000000  0.50000000  1
  Li  Li2  1  0.50000000  0.50000000  0.00000000  1
  Se  Se3  1  0.50000000  0.00000000  0.50000000  1
  F  F4  1  0.00000000  0.50000000  0.50000000  1
  F  F5  1  0.70265715  0.44354033  0.42072623  1
  F  F6  1  0.93286820  0.96288428  0.69225122  1
  Ni  Ni7  1  0.85406983  0.70641761  0.68802066  1
  Ni  Ni8  1  0.31850623  0.24603395  0.99387476  1
  O  O9  1  0.73727022  0.30012035  0.63357669  1
  O  O10  1  0.17936038  0.00905794  0.09944197  1
  O  O11  1  0.79557258  0.48991989  0.74363035  1
  O  O12  1  0.07337383  0.54502581  0.09927037  1
  O  O13  1  0.82754780  0.77991254  0.74759185  1
