# generated using pymatgen
data_Li2Mn2Sb4P2N
_symmetry_space_group_name_H-M   'P 1'
_cell_length_a   4.31115500
_cell_length_b   4.65287320
_cell_length_c   5.97897835
_cell_angle_alpha   103.37200850
_cell_angle_beta   102.85599080
_cell_angle_gamma   97.98662623
_symmetry_Int_Tables_number   1
_chemical_formula_structural   Li2Mn2Sb4P2N
_chemical_formula_sum   'Li2 Mn2 Sb4 P2 N1'
_cell_volume   111.44184811
_cell_formula_units_Z   1
loop_
 _symmetry_equiv_pos_site_id
 _symmetry_equiv_pos_as_xyz
  1  'x, y, z'
loop_
 _atom_site_type_symbol
 _atom_site_label
 _atom_site_symmetry_multiplicity
 _atom_site_fract_x
 _atom_site_fract_y
 _atom_site_fract_z
 _atom_site_occupancy
  N  N0  1  0.00000000  0.00000000  0.00000000  1
  Mn  Mn1  1  0.50000000  0.50000000  0.50000000  1
  Mn  Mn2  1  0.25000000  0.25000000  0.25000000  1
  Sb  Sb3  1  0.75000000  0.25000000  0.00000000  1
  Sb  Sb4  1  0.25000000  0.75000000  0.50000000  1
  Sb  Sb5  1  0.13545387  0.13751540  0.01693347  1
  Sb  Sb6  1  0.83669091  0.09994578  0.89230346  1
  P  P7  1  0.97435325  0.58093960  0.46406329  1
  P  P8  1  0.41071685  0.38629545  0.59767655  1
  Li  Li9  1  0.93033017  0.40977523  0.32004382  1
  Li  Li10  1  0.28762338  0.42870963  0.13316816  1
