# generated using pymatgen
data_Li2Mn2Sb4P3N
_symmetry_space_group_name_H-M   'P 1'
_cell_length_a   5.51129405
_cell_length_b   5.72306580
_cell_length_c   6.42920499
_cell_angle_alpha   97.97304059
_cell_angle_beta   94.10340621
_cell_angle_gamma   97.46242994
_symmetry_Int_Tables_number   1
_chemical_formula_structural   Li2Mn2Sb4P3N
_chemical_formula_sum   'Li2 Mn2 Sb4 P3 N1'
_cell_volume   198.29538556
_cell_formula_units_Z   1
loop_
 _symmetry_equiv_pos_site_id
 _symmetry_equiv_pos_as_xyz
  1  'x, y, z'
loop_
 _atom_site_type_symbol
 _atom_site_label
 _atom_site_symmetry_multiplicity
 _atom_site_fract_x
 _atom_site_fract_y
 _atom_site_fract_z
 _atom_site_occupancy
  N  N0  1  0.00000000  0.00000000  0.00000000  1
  Mn  Mn1  1  0.50000000  0.50000000  0.50000000  1
  Mn  Mn2  1  0.50000000  0.50000000  0.00000000  1
  Sb  Sb3  1  0.50000000  0.00000000  0.50000000  1
  Sb  Sb4  1  0.00000000  0.50000000  0.50000000  1
  Sb  Sb5  1  0.06011461  0.20807793  0.35491202  1
  Sb  Sb6  1  0.46910387  0.70507000  0.17721696  1
  P  P7  1  0.38719718  0.19724331  0.92936838  1
  P  P8  1  0.82217473  0.61307655  0.14634724  1
  P  P9  1  0.82992170  0.69594168  0.75811873  1
  Li  Li10  1  0.34907149  0.05013710  0.66089666  1
  Li  Li11  1  0.92644549  0.65662857  0.50986954  1
