# generated using pymatgen
data_Li2Ti(IO)4
_symmetry_space_group_name_H-M   'P 1'
_cell_length_a   8.72904632
_cell_length_b   8.54851356
_cell_length_c   7.44238616
_cell_angle_alpha   90.05594540
_cell_angle_beta   90.26617121
_cell_angle_gamma   90.06396053
_symmetry_Int_Tables_number   1
_chemical_formula_structural   Li2Ti(IO)4
_chemical_formula_sum   'Li2 Ti1 I4 O4'
_cell_volume   555.34700928
_cell_formula_units_Z   1
loop_
 _symmetry_equiv_pos_site_id
 _symmetry_equiv_pos_as_xyz
  1  'x, y, z'
loop_
 _atom_site_type_symbol
 _atom_site_label
 _atom_site_symmetry_multiplicity
 _atom_site_fract_x
 _atom_site_fract_y
 _atom_site_fract_z
 _atom_site_occupancy
  I  I0  1  0.12500000  0.12500000  0.12500000  1
  I  I1  1  0.50000000  0.50000000  0.50000000  1
  I  I2  1  0.25000000  0.25000000  0.25000000  1
  I  I3  1  0.75000000  0.75000000  0.75000000  1
  Li  Li4  1  0.55183060  0.22257225  0.08363406  1
  Li  Li5  1  0.86963255  0.99312696  0.54895359  1
  Ti  Ti6  1  0.42991915  0.82215886  0.21137603  1
  O  O7  1  0.25535901  0.92275879  0.65678718  1
  O  O8  1  0.85319844  0.05072378  0.69138620  1
  O  O9  1  0.49795942  0.96790898  0.36631786  1
  O  O10  1  0.91643513  0.74580466  0.44862321  1
