# generated using pymatgen
data_Li2Mn2Sb4P3
_symmetry_space_group_name_H-M   'P 1'
_cell_length_a   5.32091505
_cell_length_b   5.68141225
_cell_length_c   6.61944627
_cell_angle_alpha   99.19588704
_cell_angle_beta   92.52108136
_cell_angle_gamma   99.30009848
_symmetry_Int_Tables_number   1
_chemical_formula_structural   Li2Mn2Sb4P3
_chemical_formula_sum   'Li2 Mn2 Sb4 P3'
_cell_volume   194.43833675
_cell_formula_units_Z   1
loop_
 _symmetry_equiv_pos_site_id
 _symmetry_equiv_pos_as_xyz
  1  'x, y, z'
loop_
 _atom_site_type_symbol
 _atom_site_label
 _atom_site_symmetry_multiplicity
 _atom_site_fract_x
 _atom_site_fract_y
 _atom_site_fract_z
 _atom_site_occupancy
  Mn  Mn0  1  0.12500000  0.12500000  0.12500000  1
  Mn  Mn1  1  0.50000000  0.50000000  0.50000000  1
  Sb  Sb2  1  0.25000000  0.25000000  0.25000000  1
  Sb  Sb3  1  0.75000000  0.75000000  0.75000000  1
  Sb  Sb4  1  0.02013149  0.58470780  0.15744904  1
  Sb  Sb5  1  0.01394267  0.08310400  0.26852586  1
  P  P6  1  0.41247146  0.43108703  0.98389838  1
  P  P7  1  0.89390347  0.10708517  0.42939161  1
  P  P8  1  0.89718690  0.74236799  0.13433371  1
  Li  Li9  1  0.27771169  0.60955856  0.17245058  1
  Li  Li10  1  0.53655930  0.71983344  0.80353773  1
