# generated using pymatgen
data_LiTiTe3O2F
_symmetry_space_group_name_H-M   'P 1'
_cell_length_a   7.38696781
_cell_length_b   7.66725440
_cell_length_c   7.25898115
_cell_angle_alpha   90.70272747
_cell_angle_beta   93.34336387
_cell_angle_gamma   90.80340514
_symmetry_Int_Tables_number   1
_chemical_formula_structural   LiTiTe3O2F
_chemical_formula_sum   'Li2 Ti2 Te6 O4 F2'
_cell_volume   410.35708468
_cell_formula_units_Z   2
loop_
 _symmetry_equiv_pos_site_id
 _symmetry_equiv_pos_as_xyz
  1  'x, y, z'
loop_
 _atom_site_type_symbol
 _atom_site_label
 _atom_site_symmetry_multiplicity
 _atom_site_fract_x
 _atom_site_fract_y
 _atom_site_fract_z
 _atom_site_occupancy
  Li  Li0  1  0.00000000  0.00000000  0.00000000  1
  Li  Li1  1  0.50000000  0.50000000  0.50000000  1
  F  F2  1  0.50000000  0.50000000  0.00000000  1
  F  F3  1  0.50000000  0.00000000  0.50000000  1
  Ti  Ti4  1  0.00000000  0.50000000  0.50000000  1
  Ti  Ti5  1  0.63457891  0.00445546  0.64232594  1
  Te  Te6  1  0.98045299  0.18441579  0.12645628  1
  Te  Te7  1  0.46054186  0.12231756  0.75176064  1
  Te  Te8  1  0.72009624  0.05518255  0.51136288  1
  Te  Te9  1  0.91939616  0.63566838  0.96184201  1
  Te  Te10  1  0.85009041  0.18076789  0.71724149  1
  Te  Te11  1  0.60829207  0.11889943  0.62379232  1
  O  O12  1  0.37107009  0.78032139  0.47646807  1
  O  O13  1  0.01657557  0.65706991  0.42792744  1
  O  O14  1  0.88977172  0.27383193  0.48258214  1
  O  O15  1  0.95667388  0.73270146  0.01653219  1
