# generated using pymatgen
data_LiMnSb4P2N
_symmetry_space_group_name_H-M   'P 1'
_cell_length_a   5.74682034
_cell_length_b   6.14380375
_cell_length_c   6.61768358
_cell_angle_alpha   94.27225785
_cell_angle_beta   92.72636537
_cell_angle_gamma   94.18406711
_symmetry_Int_Tables_number   1
_chemical_formula_structural   LiMnSb4P2N
_chemical_formula_sum   'Li1 Mn1 Sb4 P2 N1'
_cell_volume   232.05232330
_cell_formula_units_Z   1
loop_
 _symmetry_equiv_pos_site_id
 _symmetry_equiv_pos_as_xyz
  1  'x, y, z'
loop_
 _atom_site_type_symbol
 _atom_site_label
 _atom_site_symmetry_multiplicity
 _atom_site_fract_x
 _atom_site_fract_y
 _atom_site_fract_z
 _atom_site_occupancy
  N  N0  1  0.00000000  0.00000000  0.00000000  1
  Mn  Mn1  1  0.50000000  0.50000000  0.50000000  1
  Sb  Sb2  1  0.25000000  0.25000000  0.25000000  1
  Sb  Sb3  1  0.75000000  0.25000000  0.00000000  1
  Sb  Sb4  1  0.25000000  0.75000000  0.50000000  1
  Sb  Sb5  1  0.43146023  0.66498353  0.61533002  1
  P  P6  1  0.73934714  0.91614853  0.41097710  1
  P  P7  1  0.99652517  0.31733406  0.69255124  1
  Li  Li8  1  0.37806691  0.86884776  0.84669660  1
