# generated using pymatgen
data_Li3Cu2As6P8O5
_symmetry_space_group_name_H-M   'P 1'
_cell_length_a   7.46256894
_cell_length_b   7.38069320
_cell_length_c   8.66286277
_cell_angle_alpha   92.78781157
_cell_angle_beta   93.72687017
_cell_angle_gamma   92.78704219
_symmetry_Int_Tables_number   1
_chemical_formula_structural   Li3Cu2As6P8O5
_chemical_formula_sum   'Li3 Cu2 As6 P8 O5'
_cell_volume   474.92636313
_cell_formula_units_Z   1
loop_
 _symmetry_equiv_pos_site_id
 _symmetry_equiv_pos_as_xyz
  1  'x, y, z'
loop_
 _atom_site_type_symbol
 _atom_site_label
 _atom_site_symmetry_multiplicity
 _atom_site_fract_x
 _atom_site_fract_y
 _atom_site_fract_z
 _atom_site_occupancy
  P  P0  1  0.00000000  0.00000000  0.00000000  1
  P  P1  1  0.50000000  0.50000000  0.50000000  1
  P  P2  1  0.50000000  0.50000000  0.00000000  1
  P  P3  1  0.50000000  0.00000000  0.50000000  1
  P  P4  1  0.00000000  0.50000000  0.50000000  1
  P  P5  1  0.72566410  0.51917238  0.44530110  1
  P  P6  1  0.69864761  0.53138908  0.25917808  1
  P  P7  1  0.32060997  0.36591404  0.45815875  1
  Li  Li8  1  0.23130494  0.07656761  0.83644861  1
  Li  Li9  1  0.83707320  0.40007845  0.72472975  1
  Li  Li10  1  0.68896375  0.05102744  0.71388580  1
  Cu  Cu11  1  0.01031189  0.23036950  0.36547021  1
  Cu  Cu12  1  0.76390146  0.94935422  0.07302823  1
  As  As13  1  0.04300988  0.32869852  0.95308360  1
  As  As14  1  0.79915811  0.00236789  0.59749303  1
  As  As15  1  0.52691018  0.43855096  0.91689276  1
  As  As16  1  0.39482776  0.46935598  0.87790469  1
  As  As17  1  0.90891312  0.95298107  0.18471686  1
  As  As18  1  0.90798876  0.11225363  0.81904847  1
  O  O19  1  0.48749616  0.82906712  0.05927260  1
  O  O20  1  0.01366508  0.55586924  0.94766642  1
  O  O21  1  0.27066727  0.80011991  0.67605837  1
  O  O22  1  0.11325560  0.80702025  0.15437051  1
  O  O23  1  0.16877770  0.00797128  0.52209474  1
