# generated using pymatgen
data_Li2MnSb4P3
_symmetry_space_group_name_H-M   'P 1'
_cell_length_a   4.87597748
_cell_length_b   5.15969922
_cell_length_c   6.34284350
_cell_angle_alpha   101.57685036
_cell_angle_beta   92.23399865
_cell_angle_gamma   101.57715951
_symmetry_Int_Tables_number   1
_chemical_formula_structural   Li2MnSb4P3
_chemical_formula_sum   'Li2 Mn1 Sb4 P3'
_cell_volume   152.62695116
_cell_formula_units_Z   1
loop_
 _symmetry_equiv_pos_site_id
 _symmetry_equiv_pos_as_xyz
  1  'x, y, z'
loop_
 _atom_site_type_symbol
 _atom_site_label
 _atom_site_symmetry_multiplicity
 _atom_site_fract_x
 _atom_site_fract_y
 _atom_site_fract_z
 _atom_site_occupancy
  Mn  Mn0  1  0.12500000  0.12500000  0.12500000  1
  Sb  Sb1  1  0.50000000  0.50000000  0.50000000  1
  Sb  Sb2  1  0.25000000  0.25000000  0.25000000  1
  Sb  Sb3  1  0.75000000  0.75000000  0.75000000  1
  Sb  Sb4  1  0.35353393  0.97742672  0.80633380  1
  P  P5  1  0.65702831  0.24223085  0.53523808  1
  P  P6  1  0.32865645  0.12232413  0.18790437  1
  P  P7  1  0.94985675  0.08914263  0.92570015  1
  Li  Li8  1  0.74329632  0.92520677  0.01434449  1
  Li  Li9  1  0.19392075  0.69715458  0.15665890  1
