# generated using pymatgen
data_LiSbMo2P3
_symmetry_space_group_name_H-M   'P 1'
_cell_length_a   6.14164010
_cell_length_b   6.51192780
_cell_length_c   6.54195164
_cell_angle_alpha   94.50435613
_cell_angle_beta   89.54314566
_cell_angle_gamma   94.09886537
_symmetry_Int_Tables_number   1
_chemical_formula_structural   LiSbMo2P3
_chemical_formula_sum   'Li1 Sb1 Mo2 P3'
_cell_volume   260.16228099
_cell_formula_units_Z   1
loop_
 _symmetry_equiv_pos_site_id
 _symmetry_equiv_pos_as_xyz
  1  'x, y, z'
loop_
 _atom_site_type_symbol
 _atom_site_label
 _atom_site_symmetry_multiplicity
 _atom_site_fract_x
 _atom_site_fract_y
 _atom_site_fract_z
 _atom_site_occupancy
  Sb  Sb0  1  0.00000000  0.00000000  0.00000000  1
  P  P1  1  0.50000000  0.50000000  0.50000000  1
  P  P2  1  0.25000000  0.25000000  0.25000000  1
  P  P3  1  0.75000000  0.25000000  0.00000000  1
  Mo  Mo4  1  0.25000000  0.75000000  0.50000000  1
  Mo  Mo5  1  0.99496782  0.68660085  0.40542228  1
  Li  Li6  1  0.76709981  0.28300630  0.05126787  1
