# generated using pymatgen
data_LiMn3Mo2P3
_symmetry_space_group_name_H-M   'P 1'
_cell_length_a   5.98248328
_cell_length_b   6.23954108
_cell_length_c   6.28483084
_cell_angle_alpha   91.40886360
_cell_angle_beta   89.51673926
_cell_angle_gamma   91.05400467
_symmetry_Int_Tables_number   1
_chemical_formula_structural   LiMn3Mo2P3
_chemical_formula_sum   'Li1 Mn3 Mo2 P3'
_cell_volume   234.48177317
_cell_formula_units_Z   1
loop_
 _symmetry_equiv_pos_site_id
 _symmetry_equiv_pos_as_xyz
  1  'x, y, z'
loop_
 _atom_site_type_symbol
 _atom_site_label
 _atom_site_symmetry_multiplicity
 _atom_site_fract_x
 _atom_site_fract_y
 _atom_site_fract_z
 _atom_site_occupancy
  Mn  Mn0  1  0.12500000  0.12500000  0.12500000  1
  Mn  Mn1  1  0.50000000  0.50000000  0.50000000  1
  Mn  Mn2  1  0.25000000  0.25000000  0.25000000  1
  P  P3  1  0.75000000  0.75000000  0.75000000  1
  P  P4  1  0.31567974  0.42979394  0.11458684  1
  P  P5  1  0.93541134  0.78157068  0.40078237  1
  Mo  Mo6  1  0.25706071  0.38449128  0.07686859  1
  Mo  Mo7  1  0.30482053  0.74508689  0.50747334  1
  Li  Li8  1  0.60186366  0.47850640  0.53536298  1
