# generated using pymatgen
data_Li2TiNb2(OF)3
_symmetry_space_group_name_H-M   'P 1'
_cell_length_a   7.90009900
_cell_length_b   7.73026641
_cell_length_c   7.38489784
_cell_angle_alpha   90.37172860
_cell_angle_beta   91.76857179
_cell_angle_gamma   90.42498505
_symmetry_Int_Tables_number   1
_chemical_formula_structural   Li2TiNb2(OF)3
_chemical_formula_sum   'Li2 Ti1 Nb2 O3 F3'
_cell_volume   450.75733535
_cell_formula_units_Z   1
loop_
 _symmetry_equiv_pos_site_id
 _symmetry_equiv_pos_as_xyz
  1  'x, y, z'
loop_
 _atom_site_type_symbol
 _atom_site_label
 _atom_site_symmetry_multiplicity
 _atom_site_fract_x
 _atom_site_fract_y
 _atom_site_fract_z
 _atom_site_occupancy
  Li  Li0  1  0.12500000  0.00000000  0.25000000  1
  Li  Li1  1  0.00000000  0.00000000  0.00000000  1
  Nb  Nb2  1  0.37500000  0.00000000  0.25000000  1
  Nb  Nb3  1  0.25000000  0.25000000  0.25000000  1
  F  F4  1  0.00000000  0.25000000  0.12500000  1
  F  F5  1  0.23970722  0.58758297  0.35813924  1
  F  F6  1  0.05518993  0.67652139  0.40403770  1
  Ti  Ti7  1  0.41103490  0.90033012  0.91051035  1
  O  O8  1  0.98710800  0.28399885  0.51812662  1
  O  O9  1  0.58297553  0.57650532  0.29761245  1
  O  O10  1  0.84353606  0.24533489  0.91290495  1
