# generated using pymatgen
data_Li2Sb4P3W
_symmetry_space_group_name_H-M   'P 1'
_cell_length_a   5.88532806
_cell_length_b   5.58956624
_cell_length_c   7.00329013
_cell_angle_alpha   95.63598008
_cell_angle_beta   92.41263645
_cell_angle_gamma   95.23967073
_symmetry_Int_Tables_number   1
_chemical_formula_structural   Li2Sb4P3W
_chemical_formula_sum   'Li2 Sb4 P3 W1'
_cell_volume   228.00823717
_cell_formula_units_Z   1
loop_
 _symmetry_equiv_pos_site_id
 _symmetry_equiv_pos_as_xyz
  1  'x, y, z'
loop_
 _atom_site_type_symbol
 _atom_site_label
 _atom_site_symmetry_multiplicity
 _atom_site_fract_x
 _atom_site_fract_y
 _atom_site_fract_z
 _atom_site_occupancy
  W  W0  1  0.00000000  0.00000000  0.00000000  1
  Sb  Sb1  1  0.50000000  0.50000000  0.50000000  1
  Sb  Sb2  1  0.50000000  0.50000000  0.00000000  1
  Sb  Sb3  1  0.50000000  0.00000000  0.50000000  1
  Sb  Sb4  1  0.00000000  0.50000000  0.50000000  1
  P  P5  1  0.86616824  0.97397519  0.72601362  1
  P  P6  1  0.12966176  0.95163522  0.03304074  1
  P  P7  1  0.65932442  0.06267037  0.96629412  1
  Li  Li8  1  0.31796094  0.76179533  0.70759556  1
  Li  Li9  1  0.88369088  0.76590451  0.69401610  1
