# generated using pymatgen
data_LiMnSb4P3
_symmetry_space_group_name_H-M   'P 1'
_cell_length_a   6.01615988
_cell_length_b   6.29112570
_cell_length_c   6.82180173
_cell_angle_alpha   95.58751341
_cell_angle_beta   93.03770270
_cell_angle_gamma   95.83345377
_symmetry_Int_Tables_number   1
_chemical_formula_structural   LiMnSb4P3
_chemical_formula_sum   'Li1 Mn1 Sb4 P3'
_cell_volume   255.12071835
_cell_formula_units_Z   1
loop_
 _symmetry_equiv_pos_site_id
 _symmetry_equiv_pos_as_xyz
  1  'x, y, z'
loop_
 _atom_site_type_symbol
 _atom_site_label
 _atom_site_symmetry_multiplicity
 _atom_site_fract_x
 _atom_site_fract_y
 _atom_site_fract_z
 _atom_site_occupancy
  Mn  Mn0  1  0.12500000  0.12500000  0.12500000  1
  Sb  Sb1  1  0.50000000  0.50000000  0.50000000  1
  Sb  Sb2  1  0.25000000  0.25000000  0.25000000  1
  Sb  Sb3  1  0.75000000  0.75000000  0.75000000  1
  Sb  Sb4  1  0.24403436  0.09755942  0.72988157  1
  P  P5  1  0.80529646  0.79688684  0.23132770  1
  P  P6  1  0.10009508  0.57389080  0.67721645  1
  P  P7  1  0.04921037  0.91903659  0.28385117  1
  Li  Li8  1  0.33565473  0.85235448  0.88686322  1
