# generated using pymatgen
data_Li2Sb4Mo2P3
_symmetry_space_group_name_H-M   'P 1'
_cell_length_a   4.42572154
_cell_length_b   4.62612227
_cell_length_c   6.19846406
_cell_angle_alpha   103.20114443
_cell_angle_beta   93.18170561
_cell_angle_gamma   103.28982700
_symmetry_Int_Tables_number   1
_chemical_formula_structural   Li2Sb4Mo2P3
_chemical_formula_sum   'Li2 Sb4 Mo2 P3'
_cell_volume   119.46084022
_cell_formula_units_Z   1
loop_
 _symmetry_equiv_pos_site_id
 _symmetry_equiv_pos_as_xyz
  1  'x, y, z'
loop_
 _atom_site_type_symbol
 _atom_site_label
 _atom_site_symmetry_multiplicity
 _atom_site_fract_x
 _atom_site_fract_y
 _atom_site_fract_z
 _atom_site_occupancy
  Sb  Sb0  1  0.12500000  0.00000000  0.25000000  1
  Sb  Sb1  1  0.00000000  0.00000000  0.00000000  1
  Sb  Sb2  1  0.37500000  0.00000000  0.25000000  1
  Sb  Sb3  1  0.25000000  0.25000000  0.25000000  1
  P  P4  1  0.00000000  0.25000000  0.12500000  1
  P  P5  1  0.23460024  0.51869213  0.17485130  1
  P  P6  1  0.34026645  0.66426323  0.82640530  1
  Mo  Mo7  1  0.25022554  0.05741622  0.24932995  1
  Mo  Mo8  1  0.58168983  0.27035708  0.23439053  1
  Li  Li9  1  0.16745426  0.34196003  0.05342149  1
  Li  Li10  1  0.86080366  0.73856297  0.44426736  1
