# generated using pymatgen
data_Li2Ti(IO)4
_symmetry_space_group_name_H-M   'P 1'
_cell_length_a   8.10428250
_cell_length_b   7.87191051
_cell_length_c   7.22950748
_cell_angle_alpha   91.01361503
_cell_angle_beta   91.81072306
_cell_angle_gamma   90.95841945
_symmetry_Int_Tables_number   1
_chemical_formula_structural   Li2Ti(IO)4
_chemical_formula_sum   'Li2 Ti1 I4 O4'
_cell_volume   460.84361634
_cell_formula_units_Z   1
loop_
 _symmetry_equiv_pos_site_id
 _symmetry_equiv_pos_as_xyz
  1  'x, y, z'
loop_
 _atom_site_type_symbol
 _atom_site_label
 _atom_site_symmetry_multiplicity
 _atom_site_fract_x
 _atom_site_fract_y
 _atom_site_fract_z
 _atom_site_occupancy
  I  I0  1  0.12500000  0.12500000  0.12500000  1
  I  I1  1  0.50000000  0.50000000  0.50000000  1
  I  I2  1  0.25000000  0.25000000  0.25000000  1
  I  I3  1  0.75000000  0.75000000  0.75000000  1
  Li  Li4  1  0.55172565  0.95319753  0.32881570  1
  Li  Li5  1  0.94404076  0.26774872  0.10771811  1
  Ti  Ti6  1  0.99612586  0.14042718  0.63492283  1
  O  O7  1  0.94475640  0.09227918  0.58886917  1
  O  O8  1  0.06102145  0.47215177  0.71041835  1
  O  O9  1  0.69902889  0.32354049  0.56789510  1
  O  O10  1  0.08334454  0.56982346  0.39815812  1
