# generated using pymatgen
data_Li2Mn2Sb4P3N
_symmetry_space_group_name_H-M   'P 1'
_cell_length_a   5.35031106
_cell_length_b   5.74251081
_cell_length_c   6.48165679
_cell_angle_alpha   96.34395652
_cell_angle_beta   94.96224584
_cell_angle_gamma   95.67525752
_symmetry_Int_Tables_number   1
_chemical_formula_structural   Li2Mn2Sb4P3N
_chemical_formula_sum   'Li2 Mn2 Sb4 P3 N1'
_cell_volume   195.99626583
_cell_formula_units_Z   1
loop_
 _symmetry_equiv_pos_site_id
 _symmetry_equiv_pos_as_xyz
  1  'x, y, z'
loop_
 _atom_site_type_symbol
 _atom_site_label
 _atom_site_symmetry_multiplicity
 _atom_site_fract_x
 _atom_site_fract_y
 _atom_site_fract_z
 _atom_site_occupancy
  N  N0  1  0.12500000  0.00000000  0.25000000  1
  Mn  Mn1  1  0.00000000  0.00000000  0.00000000  1
  Mn  Mn2  1  0.37500000  0.00000000  0.25000000  1
  Sb  Sb3  1  0.25000000  0.25000000  0.25000000  1
  Sb  Sb4  1  0.00000000  0.25000000  0.12500000  1
  Sb  Sb5  1  0.00902232  0.60935657  0.05197719  1
  Sb  Sb6  1  0.07470680  0.38542104  0.80858108  1
  P  P7  1  0.63618196  0.29555586  0.54839791  1
  P  P8  1  0.26288891  0.71806097  0.69471914  1
  P  P9  1  0.07404359  0.04182921  0.12041720  1
  Li  Li10  1  0.39484891  0.05161150  0.25320984  1
  Li  Li11  1  0.21022986  0.35248765  0.00866194  1
