# generated using pymatgen
data_LiMnSb4Mo2P3
_symmetry_space_group_name_H-M   'P 1'
_cell_length_a   5.10395885
_cell_length_b   5.44403580
_cell_length_c   6.60890788
_cell_angle_alpha   96.01065259
_cell_angle_beta   95.07261289
_cell_angle_gamma   96.36466290
_symmetry_Int_Tables_number   1
_chemical_formula_structural   LiMnSb4Mo2P3
_chemical_formula_sum   'Li1 Mn1 Sb4 Mo2 P3'
_cell_volume   180.56897102
_cell_formula_units_Z   1
loop_
 _symmetry_equiv_pos_site_id
 _symmetry_equiv_pos_as_xyz
  1  'x, y, z'
loop_
 _atom_site_type_symbol
 _atom_site_label
 _atom_site_symmetry_multiplicity
 _atom_site_fract_x
 _atom_site_fract_y
 _atom_site_fract_z
 _atom_site_occupancy
  Mn  Mn0  1  0.12500000  0.00000000  0.25000000  1
  Sb  Sb1  1  0.00000000  0.00000000  0.00000000  1
  Sb  Sb2  1  0.37500000  0.00000000  0.25000000  1
  Sb  Sb3  1  0.25000000  0.25000000  0.25000000  1
  Sb  Sb4  1  0.00000000  0.25000000  0.12500000  1
  P  P5  1  0.62907383  0.55639229  0.16274133  1
  P  P6  1  0.45355925  0.92494144  0.44124087  1
  P  P7  1  0.65180041  0.20054898  0.53431226  1
  Mo  Mo8  1  0.25335247  0.61259574  0.91273435  1
  Mo  Mo9  1  0.96629275  0.33800099  0.52916036  1
  Li  Li10  1  0.36674055  0.42354414  0.19806278  1
