# generated using pymatgen
data_Li3TiP3(SI2)2
_symmetry_space_group_name_H-M   'P 1'
_cell_length_a   6.70067242
_cell_length_b   6.33755771
_cell_length_c   6.90781837
_cell_angle_alpha   93.09044530
_cell_angle_beta   95.21373007
_cell_angle_gamma   92.90172570
_symmetry_Int_Tables_number   1
_chemical_formula_structural   Li3TiP3(SI2)2
_chemical_formula_sum   'Li3 Ti1 P3 S2 I4'
_cell_volume   291.25313276
_cell_formula_units_Z   1
loop_
 _symmetry_equiv_pos_site_id
 _symmetry_equiv_pos_as_xyz
  1  'x, y, z'
loop_
 _atom_site_type_symbol
 _atom_site_label
 _atom_site_symmetry_multiplicity
 _atom_site_fract_x
 _atom_site_fract_y
 _atom_site_fract_z
 _atom_site_occupancy
  P  P0  1  0.00000000  0.00000000  0.00000000  1
  P  P1  1  0.50000000  0.50000000  0.50000000  1
  P  P2  1  0.25000000  0.25000000  0.25000000  1
  I  I3  1  0.75000000  0.25000000  0.00000000  1
  I  I4  1  0.25000000  0.75000000  0.50000000  1
  I  I5  1  0.67146443  0.08960392  0.64582238  1
  I  I6  1  0.37491404  0.20249915  0.15963731  1
  Li  Li7  1  0.87475984  0.66038355  0.76631959  1
  Li  Li8  1  0.26483896  0.24324886  0.60491185  1
  Li  Li9  1  0.96199119  0.14952507  0.65367053  1
  S  S10  1  0.19244839  0.80769278  0.28800670  1
  S  S11  1  0.84439365  0.27124770  0.37212797  1
  Ti  Ti12  1  0.49914323  0.67266275  0.03859742  1
