# generated using pymatgen
data_LiMo2P3
_symmetry_space_group_name_H-M   'P 1'
_cell_length_a   4.91070685
_cell_length_b   5.03966031
_cell_length_c   5.96983113
_cell_angle_alpha   96.66966285
_cell_angle_beta   91.24408688
_cell_angle_gamma   96.35213459
_symmetry_Int_Tables_number   1
_chemical_formula_structural   LiMo2P3
_chemical_formula_sum   'Li1 Mo2 P3'
_cell_volume   145.75293477
_cell_formula_units_Z   1
loop_
 _symmetry_equiv_pos_site_id
 _symmetry_equiv_pos_as_xyz
  1  'x, y, z'
loop_
 _atom_site_type_symbol
 _atom_site_label
 _atom_site_symmetry_multiplicity
 _atom_site_fract_x
 _atom_site_fract_y
 _atom_site_fract_z
 _atom_site_occupancy
  P  P0  1  0.12500000  0.12500000  0.12500000  1
  P  P1  1  0.50000000  0.50000000  0.50000000  1
  P  P2  1  0.25000000  0.25000000  0.25000000  1
  Mo  Mo3  1  0.75000000  0.75000000  0.75000000  1
  Mo  Mo4  1  0.85501549  0.99184434  0.36405830  1
  Li  Li5  1  0.13121260  0.95070332  0.53903084  1
