# generated using pymatgen
data_LiMn3Mo2P3
_symmetry_space_group_name_H-M   'P 1'
_cell_length_a   5.50288499
_cell_length_b   5.62119587
_cell_length_c   5.88260713
_cell_angle_alpha   93.94183183
_cell_angle_beta   88.57066658
_cell_angle_gamma   93.11002010
_symmetry_Int_Tables_number   1
_chemical_formula_structural   LiMn3Mo2P3
_chemical_formula_sum   'Li1 Mn3 Mo2 P3'
_cell_volume   181.22653650
_cell_formula_units_Z   1
loop_
 _symmetry_equiv_pos_site_id
 _symmetry_equiv_pos_as_xyz
  1  'x, y, z'
loop_
 _atom_site_type_symbol
 _atom_site_label
 _atom_site_symmetry_multiplicity
 _atom_site_fract_x
 _atom_site_fract_y
 _atom_site_fract_z
 _atom_site_occupancy
  Mn  Mn0  1  0.00000000  0.00000000  0.00000000  1
  Mn  Mn1  1  0.50000000  0.50000000  0.50000000  1
  Mn  Mn2  1  0.25000000  0.25000000  0.25000000  1
  P  P3  1  0.75000000  0.25000000  0.00000000  1
  P  P4  1  0.25000000  0.75000000  0.50000000  1
  P  P5  1  0.97204636  0.12164469  0.17600295  1
  Mo  Mo6  1  0.55611286  0.89901645  0.99377960  1
  Mo  Mo7  1  0.88898197  0.10943307  0.30362092  1
  Li  Li8  1  0.93543424  0.33352578  0.68965667  1
