# generated using pymatgen
data_LiTi2S3
_symmetry_space_group_name_H-M   'P 1'
_cell_length_a   7.01290211
_cell_length_b   6.87540751
_cell_length_c   8.06741697
_cell_angle_alpha   91.67942075
_cell_angle_beta   93.45426327
_cell_angle_gamma   91.93713524
_symmetry_Int_Tables_number   1
_chemical_formula_structural   LiTi2S3
_chemical_formula_sum   'Li1 Ti2 S3'
_cell_volume   387.86291919
_cell_formula_units_Z   1
loop_
 _symmetry_equiv_pos_site_id
 _symmetry_equiv_pos_as_xyz
  1  'x, y, z'
loop_
 _atom_site_type_symbol
 _atom_site_label
 _atom_site_symmetry_multiplicity
 _atom_site_fract_x
 _atom_site_fract_y
 _atom_site_fract_z
 _atom_site_occupancy
  Li  Li0  1  0.00000000  0.00000000  0.00000000  1
  S  S1  1  0.50000000  0.50000000  0.50000000  1
  S  S2  1  0.50000000  0.50000000  0.00000000  1
  S  S3  1  0.50000000  0.00000000  0.50000000  1
  Ti  Ti4  1  0.00000000  0.50000000  0.50000000  1
  Ti  Ti5  1  0.59258971  0.45948646  0.86165313  1
