# generated using pymatgen
data_Li2Mn2Sb4P3
_symmetry_space_group_name_H-M   'P 1'
_cell_length_a   4.92310851
_cell_length_b   5.19820408
_cell_length_c   6.25309139
_cell_angle_alpha   102.04600493
_cell_angle_beta   91.26790360
_cell_angle_gamma   101.89917671
_symmetry_Int_Tables_number   1
_chemical_formula_structural   Li2Mn2Sb4P3
_chemical_formula_sum   'Li2 Mn2 Sb4 P3'
_cell_volume   152.78288887
_cell_formula_units_Z   1
loop_
 _symmetry_equiv_pos_site_id
 _symmetry_equiv_pos_as_xyz
  1  'x, y, z'
loop_
 _atom_site_type_symbol
 _atom_site_label
 _atom_site_symmetry_multiplicity
 _atom_site_fract_x
 _atom_site_fract_y
 _atom_site_fract_z
 _atom_site_occupancy
  Mn  Mn0  1  0.00000000  0.00000000  0.00000000  1
  Mn  Mn1  1  0.50000000  0.50000000  0.50000000  1
  Sb  Sb2  1  0.25000000  0.25000000  0.25000000  1
  Sb  Sb3  1  0.75000000  0.25000000  0.00000000  1
  Sb  Sb4  1  0.25000000  0.75000000  0.50000000  1
  Sb  Sb5  1  0.67548500  0.74972727  0.13306038  1
  P  P6  1  0.49828177  0.18148740  0.61065296  1
  P  P7  1  0.06406871  0.91274715  0.01379161  1
  P  P8  1  0.89083449  0.37478405  0.94175923  1
  Li  Li9  1  0.39499662  0.05332659  0.13231179  1
  Li  Li10  1  0.49713221  0.86425957  0.12196926  1
