# generated using pymatgen
data_LiTi2P6F2
_symmetry_space_group_name_H-M   'P 1'
_cell_length_a   7.55556798
_cell_length_b   7.27053888
_cell_length_c   7.82626305
_cell_angle_alpha   90.50227913
_cell_angle_beta   92.38969155
_cell_angle_gamma   90.57423916
_symmetry_Int_Tables_number   1
_chemical_formula_structural   LiTi2P6F2
_chemical_formula_sum   'Li1 Ti2 P6 F2'
_cell_volume   429.50690217
_cell_formula_units_Z   1
loop_
 _symmetry_equiv_pos_site_id
 _symmetry_equiv_pos_as_xyz
  1  'x, y, z'
loop_
 _atom_site_type_symbol
 _atom_site_label
 _atom_site_symmetry_multiplicity
 _atom_site_fract_x
 _atom_site_fract_y
 _atom_site_fract_z
 _atom_site_occupancy
  P  P0  1  0.12500000  0.00000000  0.25000000  1
  P  P1  1  0.00000000  0.00000000  0.00000000  1
  P  P2  1  0.37500000  0.00000000  0.25000000  1
  P  P3  1  0.25000000  0.25000000  0.25000000  1
  P  P4  1  0.00000000  0.25000000  0.12500000  1
  P  P5  1  0.55057188  0.63776507  0.80877411  1
  Li  Li6  1  0.60208002  0.58952752  0.62553447  1
  F  F7  1  0.33534971  0.67012664  0.62921594  1
  F  F8  1  0.57909516  0.78467994  0.62187824  1
  Ti  Ti9  1  0.74708954  0.26136821  0.77774794  1
  Ti  Ti10  1  0.06251849  0.77840497  0.09633112  1
