# generated using pymatgen
data_Li2Mn2Ni3Sb4P3
_symmetry_space_group_name_H-M   'P 1'
_cell_length_a   6.25121378
_cell_length_b   6.06449545
_cell_length_c   7.14716070
_cell_angle_alpha   94.21037131
_cell_angle_beta   92.00598608
_cell_angle_gamma   93.83989391
_symmetry_Int_Tables_number   1
_chemical_formula_structural   Li2Mn2Ni3Sb4P3
_chemical_formula_sum   'Li2 Mn2 Ni3 Sb4 P3'
_cell_volume   269.39720266
_cell_formula_units_Z   1
loop_
 _symmetry_equiv_pos_site_id
 _symmetry_equiv_pos_as_xyz
  1  'x, y, z'
loop_
 _atom_site_type_symbol
 _atom_site_label
 _atom_site_symmetry_multiplicity
 _atom_site_fract_x
 _atom_site_fract_y
 _atom_site_fract_z
 _atom_site_occupancy
  Ni  Ni0  1  0.00000000  0.00000000  0.00000000  1
  Ni  Ni1  1  0.50000000  0.50000000  0.50000000  1
  Ni  Ni2  1  0.25000000  0.25000000  0.25000000  1
  Mn  Mn3  1  0.75000000  0.25000000  0.00000000  1
  Mn  Mn4  1  0.25000000  0.75000000  0.50000000  1
  Sb  Sb5  1  0.84036027  0.35400379  0.89615934  1
  Sb  Sb6  1  0.63085186  0.95496008  0.78198034  1
  Sb  Sb7  1  0.35100224  0.39069035  0.03604139  1
  Sb  Sb8  1  0.74287758  0.06695628  0.08892992  1
  P  P9  1  0.98749354  0.56799650  0.67783319  1
  P  P10  1  0.74087722  0.30949554  0.00098528  1
  P  P11  1  0.16215573  0.44704252  0.10029651  1
  Li  Li12  1  0.83473228  0.39406829  0.69725989  1
  Li  Li13  1  0.47582146  0.41662692  0.01085915  1
