# generated using pymatgen
data_LiTiS3(I2F)2
_symmetry_space_group_name_H-M   'P 1'
_cell_length_a   6.70036333
_cell_length_b   6.65540207
_cell_length_c   7.29695253
_cell_angle_alpha   91.07093900
_cell_angle_beta   95.09520252
_cell_angle_gamma   91.22436924
_symmetry_Int_Tables_number   1
_chemical_formula_structural   LiTiS3(I2F)2
_chemical_formula_sum   'Li1 Ti1 S3 I4 F2'
_cell_volume   323.96840482
_cell_formula_units_Z   1
loop_
 _symmetry_equiv_pos_site_id
 _symmetry_equiv_pos_as_xyz
  1  'x, y, z'
loop_
 _atom_site_type_symbol
 _atom_site_label
 _atom_site_symmetry_multiplicity
 _atom_site_fract_x
 _atom_site_fract_y
 _atom_site_fract_z
 _atom_site_occupancy
  I  I0  1  0.12500000  0.00000000  0.25000000  1
  I  I1  1  0.00000000  0.00000000  0.00000000  1
  I  I2  1  0.37500000  0.00000000  0.25000000  1
  I  I3  1  0.25000000  0.25000000  0.25000000  1
  Li  Li4  1  0.00000000  0.25000000  0.12500000  1
  F  F5  1  0.01948567  0.57194227  0.00656167  1
  F  F6  1  0.05730410  0.98241191  0.29824264  1
  S  S7  1  0.63461016  0.45041916  0.94573389  1
  S  S8  1  0.60285303  0.72832534  0.54541479  1
  S  S9  1  0.61332977  0.40610988  0.70866433  1
  Ti  Ti10  1  0.79440244  0.30746391  0.71710315  1
