# generated using pymatgen
data_LiSb4Mo2P3
_symmetry_space_group_name_H-M   'P 1'
_cell_length_a   6.12393273
_cell_length_b   6.54612469
_cell_length_c   6.71773302
_cell_angle_alpha   96.07639195
_cell_angle_beta   90.08771339
_cell_angle_gamma   95.85553686
_symmetry_Int_Tables_number   1
_chemical_formula_structural   LiSb4Mo2P3
_chemical_formula_sum   'Li1 Sb4 Mo2 P3'
_cell_volume   266.36970253
_cell_formula_units_Z   1
loop_
 _symmetry_equiv_pos_site_id
 _symmetry_equiv_pos_as_xyz
  1  'x, y, z'
loop_
 _atom_site_type_symbol
 _atom_site_label
 _atom_site_symmetry_multiplicity
 _atom_site_fract_x
 _atom_site_fract_y
 _atom_site_fract_z
 _atom_site_occupancy
  Sb  Sb0  1  0.00000000  0.00000000  0.00000000  1
  Sb  Sb1  1  0.33300000  0.66700000  0.25000000  1
  Sb  Sb2  1  0.66700000  0.33300000  0.50000000  1
  Sb  Sb3  1  0.00000000  0.00000000  0.75000000  1
  P  P4  1  0.15675114  0.11741734  0.81350839  1
  P  P5  1  0.80125665  0.09208816  0.93447984  1
  P  P6  1  0.46298722  0.07874926  0.93640752  1
  Mo  Mo7  1  0.80304035  0.36826054  0.11675484  1
  Mo  Mo8  1  0.36776306  0.56721711  0.56238830  1
  Li  Li9  1  0.86660192  0.62230976  0.82433990  1
