# generated using pymatgen
data_LiMnSb4Mo2P3
_symmetry_space_group_name_H-M   'P 1'
_cell_length_a   5.68106138
_cell_length_b   5.91722273
_cell_length_c   6.66302995
_cell_angle_alpha   94.48485472
_cell_angle_beta   93.23305641
_cell_angle_gamma   94.60889334
_symmetry_Int_Tables_number   1
_chemical_formula_structural   LiMnSb4Mo2P3
_chemical_formula_sum   'Li1 Mn1 Sb4 Mo2 P3'
_cell_volume   222.13399697
_cell_formula_units_Z   1
loop_
 _symmetry_equiv_pos_site_id
 _symmetry_equiv_pos_as_xyz
  1  'x, y, z'
loop_
 _atom_site_type_symbol
 _atom_site_label
 _atom_site_symmetry_multiplicity
 _atom_site_fract_x
 _atom_site_fract_y
 _atom_site_fract_z
 _atom_site_occupancy
  Mn  Mn0  1  0.12500000  0.00000000  0.25000000  1
  Sb  Sb1  1  0.00000000  0.00000000  0.00000000  1
  Sb  Sb2  1  0.37500000  0.00000000  0.25000000  1
  Sb  Sb3  1  0.25000000  0.25000000  0.25000000  1
  Sb  Sb4  1  0.00000000  0.25000000  0.12500000  1
  P  P5  1  0.64130804  0.62008408  0.13235603  1
  P  P6  1  0.21836648  0.09890397  0.52446819  1
  P  P7  1  0.34246190  0.14467506  0.81088980  1
  Mo  Mo8  1  0.77117882  0.81501311  0.54574947  1
  Mo  Mo9  1  0.97019990  0.50463545  0.20515373  1
  Li  Li10  1  0.49831989  0.11523546  0.88841021  1
