# generated using pymatgen
data_Li2TiP5SeF2
_symmetry_space_group_name_H-M   'P 1'
_cell_length_a   7.31556973
_cell_length_b   7.00728524
_cell_length_c   7.03736410
_cell_angle_alpha   95.96210517
_cell_angle_beta   97.68778729
_cell_angle_gamma   95.61304311
_symmetry_Int_Tables_number   1
_chemical_formula_structural   Li2TiP5SeF2
_chemical_formula_sum   'Li2 Ti1 P5 Se1 F2'
_cell_volume   353.28413083
_cell_formula_units_Z   1
loop_
 _symmetry_equiv_pos_site_id
 _symmetry_equiv_pos_as_xyz
  1  'x, y, z'
loop_
 _atom_site_type_symbol
 _atom_site_label
 _atom_site_symmetry_multiplicity
 _atom_site_fract_x
 _atom_site_fract_y
 _atom_site_fract_z
 _atom_site_occupancy
  P  P0  1  0.00000000  0.00000000  0.00000000  1
  P  P1  1  0.50000000  0.50000000  0.50000000  1
  P  P2  1  0.50000000  0.50000000  0.00000000  1
  P  P3  1  0.50000000  0.00000000  0.50000000  1
  P  P4  1  0.00000000  0.50000000  0.50000000  1
  Li  Li5  1  0.16140035  0.12752509  0.43081053  1
  Li  Li6  1  0.31608796  0.59560437  0.35177284  1
  F  F7  1  0.85262551  0.69895702  0.26658123  1
  F  F8  1  0.19633157  0.14016032  0.61526693  1
  Se  Se9  1  0.09726357  0.02248121  0.80811254  1
  Ti  Ti10  1  0.16967655  0.38948323  0.76815603  1
