# generated using pymatgen
data_LiZr2Mn3P4F4
_symmetry_space_group_name_H-M   'P 1'
_cell_length_a   7.10820568
_cell_length_b   7.99912438
_cell_length_c   6.98858388
_cell_angle_alpha   90.50827168
_cell_angle_beta   90.95423894
_cell_angle_gamma   91.49648910
_symmetry_Int_Tables_number   1
_chemical_formula_structural   LiZr2Mn3P4F4
_chemical_formula_sum   'Li1 Zr2 Mn3 P4 F4'
_cell_volume   397.15900030
_cell_formula_units_Z   1
loop_
 _symmetry_equiv_pos_site_id
 _symmetry_equiv_pos_as_xyz
  1  'x, y, z'
loop_
 _atom_site_type_symbol
 _atom_site_label
 _atom_site_symmetry_multiplicity
 _atom_site_fract_x
 _atom_site_fract_y
 _atom_site_fract_z
 _atom_site_occupancy
  F  F0  1  0.00000000  0.00000000  0.00000000  1
  F  F1  1  0.50000000  0.50000000  0.50000000  1
  F  F2  1  0.25000000  0.25000000  0.25000000  1
  F  F3  1  0.75000000  0.25000000  0.00000000  1
  Mn  Mn4  1  0.25000000  0.75000000  0.50000000  1
  Mn  Mn5  1  0.89508973  0.42524444  0.34353324  1
  Mn  Mn6  1  0.70385800  0.08576053  0.73289870  1
  Zr  Zr7  1  0.80195107  0.53132403  0.61972577  1
  Zr  Zr8  1  0.64781850  0.84197024  0.23606292  1
  P  P9  1  0.98558525  0.85837230  0.95369637  1
  P  P10  1  0.21742176  0.90235265  0.79305197  1
  P  P11  1  0.42553918  0.56576085  0.62417385  1
  P  P12  1  0.93411489  0.34796670  0.84363163  1
  Li  Li13  1  0.75266722  0.39728470  0.54388808  1
