# generated using pymatgen
data_Li3TiZn2(I2O)2
_symmetry_space_group_name_H-M   'P 1'
_cell_length_a   7.44874478
_cell_length_b   8.08923345
_cell_length_c   6.58380823
_cell_angle_alpha   90.31811041
_cell_angle_beta   90.42476211
_cell_angle_gamma   89.63356216
_symmetry_Int_Tables_number   1
_chemical_formula_structural   Li3TiZn2(I2O)2
_chemical_formula_sum   'Li3 Ti1 Zn2 I4 O2'
_cell_volume   396.67993984
_cell_formula_units_Z   1
loop_
 _symmetry_equiv_pos_site_id
 _symmetry_equiv_pos_as_xyz
  1  'x, y, z'
loop_
 _atom_site_type_symbol
 _atom_site_label
 _atom_site_symmetry_multiplicity
 _atom_site_fract_x
 _atom_site_fract_y
 _atom_site_fract_z
 _atom_site_occupancy
  I  I0  1  0.12500000  0.00000000  0.25000000  1
  I  I1  1  0.00000000  0.00000000  0.00000000  1
  I  I2  1  0.37500000  0.00000000  0.25000000  1
  I  I3  1  0.25000000  0.25000000  0.25000000  1
  Li  Li4  1  0.00000000  0.25000000  0.12500000  1
  Li  Li5  1  0.73662997  0.35574086  0.37976182  1
  Li  Li6  1  0.97813604  0.41180008  0.67896904  1
  Zn  Zn7  1  0.92225535  0.48726700  0.15838076  1
  Zn  Zn8  1  0.55449238  0.59224432  0.33843014  1
  Ti  Ti9  1  0.74728640  0.89202133  0.00817094  1
  O  O10  1  0.40093444  0.12563157  0.03290848  1
  O  O11  1  0.03083921  0.30648863  0.67782675  1
