# generated using pymatgen
data_Li2Mn2Sb4P3
_symmetry_space_group_name_H-M   'P 1'
_cell_length_a   5.82948146
_cell_length_b   6.32137580
_cell_length_c   7.24563343
_cell_angle_alpha   94.59589539
_cell_angle_beta   95.44426274
_cell_angle_gamma   95.23069640
_symmetry_Int_Tables_number   1
_chemical_formula_structural   Li2Mn2Sb4P3
_chemical_formula_sum   'Li2 Mn2 Sb4 P3'
_cell_volume   263.62923947
_cell_formula_units_Z   1
loop_
 _symmetry_equiv_pos_site_id
 _symmetry_equiv_pos_as_xyz
  1  'x, y, z'
loop_
 _atom_site_type_symbol
 _atom_site_label
 _atom_site_symmetry_multiplicity
 _atom_site_fract_x
 _atom_site_fract_y
 _atom_site_fract_z
 _atom_site_occupancy
  Mn  Mn0  1  0.00000000  0.00000000  0.00000000  1
  Mn  Mn1  1  0.50000000  0.50000000  0.50000000  1
  Sb  Sb2  1  0.25000000  0.25000000  0.25000000  1
  Sb  Sb3  1  0.75000000  0.25000000  0.00000000  1
  Sb  Sb4  1  0.25000000  0.75000000  0.50000000  1
  Sb  Sb5  1  0.82325113  0.77620247  0.64031096  1
  P  P6  1  0.32719032  0.97689524  0.78900811  1
  P  P7  1  0.34957698  0.53821112  0.70719378  1
  P  P8  1  0.99457853  0.84628041  0.46763382  1
  Li  Li9  1  0.00044237  0.07945662  0.20138445  1
  Li  Li10  1  0.28005106  0.76732717  0.54276473  1
