# generated using pymatgen
data_Li2Mn2Sb4P3
_symmetry_space_group_name_H-M   'P 1'
_cell_length_a   4.75928242
_cell_length_b   5.05810317
_cell_length_c   6.52060306
_cell_angle_alpha   100.68465563
_cell_angle_beta   94.25384242
_cell_angle_gamma   100.99020845
_symmetry_Int_Tables_number   1
_chemical_formula_structural   Li2Mn2Sb4P3
_chemical_formula_sum   'Li2 Mn2 Sb4 P3'
_cell_volume   150.44058165
_cell_formula_units_Z   1
loop_
 _symmetry_equiv_pos_site_id
 _symmetry_equiv_pos_as_xyz
  1  'x, y, z'
loop_
 _atom_site_type_symbol
 _atom_site_label
 _atom_site_symmetry_multiplicity
 _atom_site_fract_x
 _atom_site_fract_y
 _atom_site_fract_z
 _atom_site_occupancy
  Mn  Mn0  1  0.00000000  0.00000000  0.00000000  1
  Mn  Mn1  1  0.50000000  0.50000000  0.50000000  1
  Sb  Sb2  1  0.50000000  0.50000000  0.00000000  1
  Sb  Sb3  1  0.50000000  0.00000000  0.50000000  1
  Sb  Sb4  1  0.00000000  0.50000000  0.50000000  1
  Sb  Sb5  1  0.35693668  0.53365785  0.24192236  1
  P  P6  1  0.68393303  0.13788169  0.14977346  1
  P  P7  1  0.33705327  0.85353347  0.37137614  1
  P  P8  1  0.44292036  0.44776045  0.56814135  1
  Li  Li9  1  0.55102082  0.09806488  0.12944931  1
  Li  Li10  1  0.23705224  0.66789089  0.89967611  1
