# generated using pymatgen
data_Li2TiCu2P4F2
_symmetry_space_group_name_H-M   'P 1'
_cell_length_a   7.68674404
_cell_length_b   7.45726862
_cell_length_c   7.77506854
_cell_angle_alpha   91.72448942
_cell_angle_beta   91.47696248
_cell_angle_gamma   91.74969116
_symmetry_Int_Tables_number   1
_chemical_formula_structural   Li2TiCu2P4F2
_chemical_formula_sum   'Li2 Ti1 Cu2 P4 F2'
_cell_volume   445.11485263
_cell_formula_units_Z   1
loop_
 _symmetry_equiv_pos_site_id
 _symmetry_equiv_pos_as_xyz
  1  'x, y, z'
loop_
 _atom_site_type_symbol
 _atom_site_label
 _atom_site_symmetry_multiplicity
 _atom_site_fract_x
 _atom_site_fract_y
 _atom_site_fract_z
 _atom_site_occupancy
  P  P0  1  0.12500000  0.00000000  0.25000000  1
  P  P1  1  0.00000000  0.00000000  0.00000000  1
  P  P2  1  0.37500000  0.00000000  0.25000000  1
  P  P3  1  0.25000000  0.25000000  0.25000000  1
  Li  Li4  1  0.00000000  0.25000000  0.12500000  1
  Li  Li5  1  0.66481892  0.54944719  0.81022489  1
  Cu  Cu6  1  0.95558474  0.43908406  0.37652280  1
  Cu  Cu7  1  0.76311580  0.75377226  0.55054836  1
  F  F8  1  0.42841286  0.72206005  0.89696899  1
  F  F9  1  0.19485836  0.53389371  0.11331365  1
  Ti  Ti10  1  0.85675308  0.42887360  0.13378940  1
