# generated using pymatgen
data_LiTiCu2P4F2
_symmetry_space_group_name_H-M   'P 1'
_cell_length_a   6.44876322
_cell_length_b   6.33836036
_cell_length_c   7.22639005
_cell_angle_alpha   91.55724188
_cell_angle_beta   94.86515222
_cell_angle_gamma   91.34322554
_symmetry_Int_Tables_number   1
_chemical_formula_structural   LiTiCu2P4F2
_chemical_formula_sum   'Li1 Ti1 Cu2 P4 F2'
_cell_volume   294.10447322
_cell_formula_units_Z   1
loop_
 _symmetry_equiv_pos_site_id
 _symmetry_equiv_pos_as_xyz
  1  'x, y, z'
loop_
 _atom_site_type_symbol
 _atom_site_label
 _atom_site_symmetry_multiplicity
 _atom_site_fract_x
 _atom_site_fract_y
 _atom_site_fract_z
 _atom_site_occupancy
  P  P0  1  0.00000000  0.00000000  0.00000000  1
  P  P1  1  0.50000000  0.50000000  0.50000000  1
  P  P2  1  0.25000000  0.25000000  0.25000000  1
  P  P3  1  0.75000000  0.25000000  0.00000000  1
  Li  Li4  1  0.25000000  0.75000000  0.50000000  1
  Cu  Cu5  1  0.73154106  0.21446083  0.08295847  1
  Cu  Cu6  1  0.92311975  0.70834204  0.60126332  1
  F  F7  1  0.58777033  0.06234518  0.43013866  1
  F  F8  1  0.38483012  0.29793866  0.51212429  1
  Ti  Ti9  1  0.94448708  0.96970277  0.77255970  1
