# generated using pymatgen
data_Li4Ti2Cu2P8O3
_symmetry_space_group_name_H-M   'P 1'
_cell_length_a   5.39727415
_cell_length_b   5.44263151
_cell_length_c   7.13414878
_cell_angle_alpha   102.09423173
_cell_angle_beta   105.84158270
_cell_angle_gamma   102.74411223
_symmetry_Int_Tables_number   1
_chemical_formula_structural   Li4Ti2Cu2P8O3
_chemical_formula_sum   'Li4 Ti2 Cu2 P8 O3'
_cell_volume   188.34197813
_cell_formula_units_Z   1
loop_
 _symmetry_equiv_pos_site_id
 _symmetry_equiv_pos_as_xyz
  1  'x, y, z'
loop_
 _atom_site_type_symbol
 _atom_site_label
 _atom_site_symmetry_multiplicity
 _atom_site_fract_x
 _atom_site_fract_y
 _atom_site_fract_z
 _atom_site_occupancy
  P  P0  1  0.00000000  0.00000000  0.00000000  1
  P  P1  1  0.50000000  0.50000000  0.50000000  1
  P  P2  1  0.25000000  0.25000000  0.25000000  1
  P  P3  1  0.75000000  0.25000000  0.00000000  1
  P  P4  1  0.25000000  0.75000000  0.50000000  1
  P  P5  1  0.64149913  0.38386095  0.93126326  1
  P  P6  1  0.82909021  0.19345489  0.19363063  1
  P  P7  1  0.30797202  0.70548334  0.48020291  1
  Li  Li8  1  0.83749941  0.49294463  0.17534871  1
  Li  Li9  1  0.87090639  0.08751875  0.89953668  1
  Li  Li10  1  0.99259625  0.20408188  0.96518093  1
  Li  Li11  1  0.01315055  0.68893096  0.72800843  1
  Cu  Cu12  1  0.54722710  0.63306014  0.06714360  1
  Cu  Cu13  1  0.52205915  0.70156815  0.74953457  1
  Ti  Ti14  1  0.35031639  0.92470172  0.80031358  1
  Ti  Ti15  1  0.66110589  0.06830927  0.25991296  1
  O  O16  1  0.53146023  0.20785420  0.03492531  1
  O  O17  1  0.19937153  0.19378741  0.01934016  1
  O  O18  1  0.43820068  0.86132053  0.65197832  1
