# generated using pymatgen
data_Li3Ti2(CuO)2
_symmetry_space_group_name_H-M   'P 1'
_cell_length_a   7.43432650
_cell_length_b   7.62216062
_cell_length_c   7.92912337
_cell_angle_alpha   93.35418792
_cell_angle_beta   93.82446386
_cell_angle_gamma   94.22533186
_symmetry_Int_Tables_number   1
_chemical_formula_structural   Li3Ti2(CuO)2
_chemical_formula_sum   'Li3 Ti2 Cu2 O2'
_cell_volume   446.18063529
_cell_formula_units_Z   1
loop_
 _symmetry_equiv_pos_site_id
 _symmetry_equiv_pos_as_xyz
  1  'x, y, z'
loop_
 _atom_site_type_symbol
 _atom_site_label
 _atom_site_symmetry_multiplicity
 _atom_site_fract_x
 _atom_site_fract_y
 _atom_site_fract_z
 _atom_site_occupancy
  Li  Li0  1  0.00000000  0.00000000  0.00000000  1
  Li  Li1  1  0.50000000  0.50000000  0.50000000  1
  Li  Li2  1  0.50000000  0.50000000  0.00000000  1
  Cu  Cu3  1  0.50000000  0.00000000  0.50000000  1
  Cu  Cu4  1  0.00000000  0.50000000  0.50000000  1
  Ti  Ti5  1  0.68163141  0.55006233  0.01580023  1
  Ti  Ti6  1  0.50879231  0.25376348  0.20590954  1
  O  O7  1  0.50460787  0.52382459  0.79770365  1
  O  O8  1  0.23292579  0.10662517  0.24053995  1
