# generated using pymatgen
data_Li3Ni2As6(I2O3)2
_symmetry_space_group_name_H-M   'P 1'
_cell_length_a   8.65847551
_cell_length_b   8.53000942
_cell_length_c   8.15410270
_cell_angle_alpha   90.00000000
_cell_angle_beta   90.00000000
_cell_angle_gamma   90.00000000
_symmetry_Int_Tables_number   1
_chemical_formula_structural   Li3Ni2As6(I2O3)2
_chemical_formula_sum   'Li3 Ni2 As6 I4 O6'
_cell_volume   602.23656581
_cell_formula_units_Z   1
loop_
 _symmetry_equiv_pos_site_id
 _symmetry_equiv_pos_as_xyz
  1  'x, y, z'
loop_
 _atom_site_type_symbol
 _atom_site_label
 _atom_site_symmetry_multiplicity
 _atom_site_fract_x
 _atom_site_fract_y
 _atom_site_fract_z
 _atom_site_occupancy
  I  I0  1  0.00000000  0.00000000  0.00000000  1
  I  I1  1  0.50000000  0.50000000  0.50000000  1
  I  I2  1  0.25000000  0.25000000  0.25000000  1
  I  I3  1  0.75000000  0.25000000  0.00000000  1
  Li  Li4  1  0.25000000  0.75000000  0.50000000  1
  Li  Li5  1  0.96671102  0.34692152  0.56839217  1
  Li  Li6  1  0.82348999  0.41891334  0.40527413  1
  Ni  Ni7  1  0.14486800  0.05330887  0.27972656  1
  Ni  Ni8  1  0.24037228  0.69475820  0.12899459  1
  As  As9  1  0.35438596  0.07043976  0.06964013  1
  As  As10  1  0.86332145  0.55328813  0.34737886  1
  As  As11  1  0.48107962  0.32373559  0.58403486  1
  As  As12  1  0.16001247  0.91013705  0.97229125  1
  As  As13  1  0.40837809  0.45072390  0.49058325  1
  As  As14  1  0.82269425  0.99328704  0.14547189  1
  O  O15  1  0.72485450  0.67577236  0.22361647  1
  O  O16  1  0.75274451  0.03841470  0.41547178  1
  O  O17  1  0.68139212  0.48764177  0.22907621  1
  O  O18  1  0.21572354  0.15375390  0.05007743  1
  O  O19  1  0.03548431  0.89979753  0.02954844  1
  O  O20  1  0.88996898  0.02341908  0.69925213  1
