# generated using pymatgen
data_Li2LuCu2(NiP2)2
_symmetry_space_group_name_H-M   'P 1'
_cell_length_a   7.19466596
_cell_length_b   6.99270550
_cell_length_c   7.60355819
_cell_angle_alpha   91.62188959
_cell_angle_beta   92.28729200
_cell_angle_gamma   91.50646902
_symmetry_Int_Tables_number   1
_chemical_formula_structural   Li2LuCu2(NiP2)2
_chemical_formula_sum   'Li2 Lu1 Cu2 Ni2 P4'
_cell_volume   381.93447411
_cell_formula_units_Z   1
loop_
 _symmetry_equiv_pos_site_id
 _symmetry_equiv_pos_as_xyz
  1  'x, y, z'
loop_
 _atom_site_type_symbol
 _atom_site_label
 _atom_site_symmetry_multiplicity
 _atom_site_fract_x
 _atom_site_fract_y
 _atom_site_fract_z
 _atom_site_occupancy
  P  P0  1  0.12500000  0.00000000  0.25000000  1
  P  P1  1  0.00000000  0.00000000  0.00000000  1
  P  P2  1  0.37500000  0.00000000  0.25000000  1
  P  P3  1  0.25000000  0.25000000  0.25000000  1
  Lu  Lu4  1  0.00000000  0.25000000  0.12500000  1
  Li  Li5  1  0.02566793  0.65700502  0.38707948  1
  Li  Li6  1  0.75036056  0.54332077  0.86505820  1
  Cu  Cu7  1  0.42422076  0.11844288  0.07105484  1
  Cu  Cu8  1  0.71704236  0.55767412  0.59468293  1
  Ni  Ni9  1  0.36708735  0.33016705  0.00246151  1
  Ni  Ni10  1  0.52817867  0.15395804  0.97277457  1
