# generated using pymatgen
data_LiTiZnTe3
_symmetry_space_group_name_H-M   'P 1'
_cell_length_a   8.50142766
_cell_length_b   8.57970701
_cell_length_c   7.60200147
_cell_angle_alpha   90.09007461
_cell_angle_beta   90.42854762
_cell_angle_gamma   90.10297933
_symmetry_Int_Tables_number   1
_chemical_formula_structural   LiTiZnTe3
_chemical_formula_sum   'Li2 Ti2 Zn2 Te6'
_cell_volume   554.47104877
_cell_formula_units_Z   2
loop_
 _symmetry_equiv_pos_site_id
 _symmetry_equiv_pos_as_xyz
  1  'x, y, z'
loop_
 _atom_site_type_symbol
 _atom_site_label
 _atom_site_symmetry_multiplicity
 _atom_site_fract_x
 _atom_site_fract_y
 _atom_site_fract_z
 _atom_site_occupancy
  Li  Li0  1  0.00000000  0.00000000  0.00000000  1
  Li  Li1  1  0.50000000  0.50000000  0.50000000  1
  Zn  Zn2  1  0.50000000  0.50000000  0.00000000  1
  Zn  Zn3  1  0.50000000  0.00000000  0.50000000  1
  Te  Te4  1  0.00000000  0.50000000  0.50000000  1
  Te  Te5  1  0.48247930  0.24800822  0.98950918  1
  Te  Te6  1  0.93436590  0.07096000  0.57963781  1
  Te  Te7  1  0.20181746  0.53120212  0.76825548  1
  Te  Te8  1  0.03499348  0.33589875  0.36735012  1
  Te  Te9  1  0.44018363  0.68105816  0.06866322  1
  Ti  Ti10  1  0.74889954  0.41453621  0.33044935  1
  Ti  Ti11  1  0.70801517  0.72109362  0.82692162  1
