# generated using pymatgen
data_Li2Mn2P8I4O3
_symmetry_space_group_name_H-M   'P 1'
_cell_length_a   8.36773032
_cell_length_b   8.10635053
_cell_length_c   7.57504819
_cell_angle_alpha   90.00000000
_cell_angle_beta   90.00000000
_cell_angle_gamma   90.00000000
_symmetry_Int_Tables_number   1
_chemical_formula_structural   Li2Mn2P8I4O3
_chemical_formula_sum   'Li2 Mn2 P8 I4 O3'
_cell_volume   513.82881367
_cell_formula_units_Z   1
loop_
 _symmetry_equiv_pos_site_id
 _symmetry_equiv_pos_as_xyz
  1  'x, y, z'
loop_
 _atom_site_type_symbol
 _atom_site_label
 _atom_site_symmetry_multiplicity
 _atom_site_fract_x
 _atom_site_fract_y
 _atom_site_fract_z
 _atom_site_occupancy
  I  I0  1  0.12500000  0.00000000  0.25000000  1
  I  I1  1  0.00000000  0.00000000  0.00000000  1
  I  I2  1  0.37500000  0.00000000  0.25000000  1
  I  I3  1  0.25000000  0.25000000  0.25000000  1
  P  P4  1  0.00000000  0.25000000  0.12500000  1
  P  P5  1  0.35312163  0.76778511  0.05446542  1
  P  P6  1  0.73120262  0.69787528  0.31014186  1
  P  P7  1  0.61357194  0.52935547  0.24223074  1
  P  P8  1  0.52043095  0.52369888  0.48821948  1
  P  P9  1  0.74801425  0.36821724  0.87815822  1
  P  P10  1  0.77552540  0.14976707  0.21730422  1
  P  P11  1  0.01532313  0.87578173  0.88494160  1
  Li  Li12  1  0.85510460  0.15250786  0.49414478  1
  Li  Li13  1  0.29635838  0.97780752  0.70057431  1
  Mn  Mn14  1  0.26402559  0.24796755  0.13488406  1
  Mn  Mn15  1  0.45272673  0.18295464  0.12408151  1
  O  O16  1  0.66550497  0.70666437  0.84125742  1
  O  O17  1  0.80961811  0.38870083  0.28892406  1
  O  O18  1  0.51250910  0.31203253  0.56372988  1
