# generated using pymatgen
data_Li3Lu(CuI2)2
_symmetry_space_group_name_H-M   'P 1'
_cell_length_a   6.72887372
_cell_length_b   6.49237126
_cell_length_c   7.46274217
_cell_angle_alpha   95.98187426
_cell_angle_beta   97.54390110
_cell_angle_gamma   95.80313354
_symmetry_Int_Tables_number   1
_chemical_formula_structural   Li3Lu(CuI2)2
_chemical_formula_sum   'Li3 Lu1 Cu2 I4'
_cell_volume   319.25216552
_cell_formula_units_Z   1
loop_
 _symmetry_equiv_pos_site_id
 _symmetry_equiv_pos_as_xyz
  1  'x, y, z'
loop_
 _atom_site_type_symbol
 _atom_site_label
 _atom_site_symmetry_multiplicity
 _atom_site_fract_x
 _atom_site_fract_y
 _atom_site_fract_z
 _atom_site_occupancy
  I  I0  1  0.00000000  0.00000000  0.00000000  1
  I  I1  1  0.50000000  0.50000000  0.50000000  1
  I  I2  1  0.50000000  0.50000000  0.00000000  1
  I  I3  1  0.50000000  0.00000000  0.50000000  1
  Lu  Lu4  1  0.00000000  0.50000000  0.50000000  1
  Li  Li5  1  0.14416202  0.57081993  0.93842012  1
  Li  Li6  1  0.86587839  0.72613656  0.98536261  1
  Li  Li7  1  0.57305465  0.14304914  0.31295730  1
  Cu  Cu8  1  0.90850142  0.92141666  0.04821364  1
  Cu  Cu9  1  0.50023126  0.50893822  0.81132697  1
