# generated using pymatgen
data_LiTiNOF6
_symmetry_space_group_name_H-M   'P 1'
_cell_length_a   3.67331405
_cell_length_b   3.24442747
_cell_length_c   4.63687852
_cell_angle_alpha   89.51628927
_cell_angle_beta   91.14029741
_cell_angle_gamma   88.28887121
_symmetry_Int_Tables_number   1
_chemical_formula_structural   LiTiNOF6
_chemical_formula_sum   'Li1 Ti1 N1 O1 F6'
_cell_volume   55.22355670
_cell_formula_units_Z   1
loop_
 _symmetry_equiv_pos_site_id
 _symmetry_equiv_pos_as_xyz
  1  'x, y, z'
loop_
 _atom_site_type_symbol
 _atom_site_label
 _atom_site_symmetry_multiplicity
 _atom_site_fract_x
 _atom_site_fract_y
 _atom_site_fract_z
 _atom_site_occupancy
  F  F0  1  0.12500000  0.00000000  0.25000000  1
  F  F1  1  0.00000000  0.00000000  0.00000000  1
  F  F2  1  0.37500000  0.00000000  0.25000000  1
  F  F3  1  0.25000000  0.25000000  0.25000000  1
  F  F4  1  0.00000000  0.25000000  0.12500000  1
  F  F5  1  0.60438556  0.62773558  0.58115116  1
  O  O6  1  0.61617630  0.68239849  0.92100965  1
  N  N7  1  0.94565828  0.43568777  0.72884082  1
  Ti  Ti8  1  0.11980152  0.80349914  0.16425351  1
  Li  Li9  1  0.42678915  0.54119205  0.33280700  1
