# generated using pymatgen
data_Li2Ti2Ni2P6O7
_symmetry_space_group_name_H-M   'P 1'
_cell_length_a   8.35977272
_cell_length_b   8.13934554
_cell_length_c   8.86462193
_cell_angle_alpha   90.08066912
_cell_angle_beta   90.38379918
_cell_angle_gamma   90.09222635
_symmetry_Int_Tables_number   1
_chemical_formula_structural   Li2Ti2Ni2P6O7
_chemical_formula_sum   'Li2 Ti2 Ni2 P6 O7'
_cell_volume   603.16124736
_cell_formula_units_Z   1
loop_
 _symmetry_equiv_pos_site_id
 _symmetry_equiv_pos_as_xyz
  1  'x, y, z'
loop_
 _atom_site_type_symbol
 _atom_site_label
 _atom_site_symmetry_multiplicity
 _atom_site_fract_x
 _atom_site_fract_y
 _atom_site_fract_z
 _atom_site_occupancy
  P  P0  1  0.12500000  0.00000000  0.25000000  1
  P  P1  1  0.00000000  0.00000000  0.00000000  1
  P  P2  1  0.37500000  0.00000000  0.25000000  1
  P  P3  1  0.25000000  0.25000000  0.25000000  1
  P  P4  1  0.00000000  0.25000000  0.12500000  1
  P  P5  1  0.09983861  0.04949063  0.02062515  1
  Li  Li6  1  0.64435695  0.16203214  0.33806028  1
  Li  Li7  1  0.06480473  0.25294749  0.46239474  1
  Ni  Ni8  1  0.21926337  0.85087295  0.24533864  1
  Ni  Ni9  1  0.78918395  0.89617930  0.59991025  1
  Ti  Ti10  1  0.29664325  0.64228532  0.98870179  1
  Ti  Ti11  1  0.67279377  0.02241554  0.05669029  1
  O  O12  1  0.58730870  0.39870472  0.82096274  1
  O  O13  1  0.25379281  0.76941557  0.21453931  1
  O  O14  1  0.30196114  0.58593893  0.20191409  1
  O  O15  1  0.84969370  0.77892888  0.44010611  1
  O  O16  1  0.62055201  0.36110677  0.10454634  1
  O  O17  1  0.27255656  0.32325555  0.54731484  1
  O  O18  1  0.28583290  0.01976783  0.00345278  1
