# generated using pymatgen
data_Li3Ni2As6O7
_symmetry_space_group_name_H-M   'P 1'
_cell_length_a   8.10991616
_cell_length_b   7.95570295
_cell_length_c   9.43167741
_cell_angle_alpha   90.58805165
_cell_angle_beta   90.37282282
_cell_angle_gamma   90.68144667
_symmetry_Int_Tables_number   1
_chemical_formula_structural   Li3Ni2As6O7
_chemical_formula_sum   'Li3 Ni2 As6 O7'
_cell_volume   608.44415755
_cell_formula_units_Z   1
loop_
 _symmetry_equiv_pos_site_id
 _symmetry_equiv_pos_as_xyz
  1  'x, y, z'
loop_
 _atom_site_type_symbol
 _atom_site_label
 _atom_site_symmetry_multiplicity
 _atom_site_fract_x
 _atom_site_fract_y
 _atom_site_fract_z
 _atom_site_occupancy
  Li  Li0  1  0.00000000  0.00000000  0.00000000  1
  Li  Li1  1  0.50000000  0.50000000  0.50000000  1
  Li  Li2  1  0.50000000  0.50000000  0.00000000  1
  Ni  Ni3  1  0.50000000  0.00000000  0.50000000  1
  Ni  Ni4  1  0.00000000  0.50000000  0.50000000  1
  As  As5  1  0.45629580  0.16426465  0.60664489  1
  As  As6  1  0.41013976  0.52463230  0.18159632  1
  As  As7  1  0.16856866  0.30391236  0.22891415  1
  As  As8  1  0.82556076  0.76501045  0.48342215  1
  As  As9  1  0.94433840  0.57740046  0.79722117  1
  As  As10  1  0.08214917  0.35135865  0.79802073  1
  O  O11  1  0.82914204  0.24868689  0.42097663  1
  O  O12  1  0.09500861  0.10399209  0.17648278  1
  O  O13  1  0.54377581  0.77035312  0.15543618  1
  O  O14  1  0.32075130  0.69267852  0.10321161  1
  O  O15  1  0.58266575  0.76848509  0.32415225  1
  O  O16  1  0.39183856  0.78107885  0.70998806  1
  O  O17  1  0.87133104  0.59577562  0.17196185  1
