# generated using pymatgen
data_Li5Ti2SeO4F3
_symmetry_space_group_name_H-M   'P 1'
_cell_length_a   4.36707186
_cell_length_b   4.01636783
_cell_length_c   6.66143356
_cell_angle_alpha   107.32019578
_cell_angle_beta   112.36720788
_cell_angle_gamma   106.24625117
_symmetry_Int_Tables_number   1
_chemical_formula_structural   Li5Ti2SeO4F3
_chemical_formula_sum   'Li5 Ti2 Se1 O4 F3'
_cell_volume   92.36251186
_cell_formula_units_Z   1
loop_
 _symmetry_equiv_pos_site_id
 _symmetry_equiv_pos_as_xyz
  1  'x, y, z'
loop_
 _atom_site_type_symbol
 _atom_site_label
 _atom_site_symmetry_multiplicity
 _atom_site_fract_x
 _atom_site_fract_y
 _atom_site_fract_z
 _atom_site_occupancy
  Li  Li0  1  0.12500000  0.00000000  0.25000000  1
  Li  Li1  1  0.00000000  0.00000000  0.00000000  1
  Li  Li2  1  0.37500000  0.00000000  0.25000000  1
  Li  Li3  1  0.25000000  0.25000000  0.25000000  1
  Li  Li4  1  0.00000000  0.25000000  0.12500000  1
  Se  Se5  1  0.89639310  0.75848870  0.17155390  1
  F  F6  1  0.87011118  0.75015415  0.50091995  1
  F  F7  1  0.32856418  0.41035110  0.58409528  1
  F  F8  1  0.02487625  0.00517987  0.75808419  1
  Ti  Ti9  1  0.71598613  0.50280865  0.76724193  1
  Ti  Ti10  1  0.79915197  0.89354699  0.31477171  1
  O  O11  1  0.18290467  0.99327642  0.30395225  1
  O  O12  1  0.61019611  0.59947384  0.70010914  1
  O  O13  1  0.31728097  0.06465913  0.86596002  1
  O  O14  1  0.21111382  0.62533994  0.25129872  1
