# generated using pymatgen
data_LiSb4P3
_symmetry_space_group_name_H-M   'P 1'
_cell_length_a   5.72464852
_cell_length_b   5.86419429
_cell_length_c   6.80098911
_cell_angle_alpha   96.21352614
_cell_angle_beta   93.44232152
_cell_angle_gamma   96.45846086
_symmetry_Int_Tables_number   1
_chemical_formula_structural   LiSb4P3
_chemical_formula_sum   'Li1 Sb4 P3'
_cell_volume   224.92707653
_cell_formula_units_Z   1
loop_
 _symmetry_equiv_pos_site_id
 _symmetry_equiv_pos_as_xyz
  1  'x, y, z'
loop_
 _atom_site_type_symbol
 _atom_site_label
 _atom_site_symmetry_multiplicity
 _atom_site_fract_x
 _atom_site_fract_y
 _atom_site_fract_z
 _atom_site_occupancy
  Sb  Sb0  1  0.12500000  0.12500000  0.12500000  1
  Sb  Sb1  1  0.50000000  0.50000000  0.50000000  1
  Sb  Sb2  1  0.25000000  0.25000000  0.25000000  1
  Sb  Sb3  1  0.75000000  0.75000000  0.75000000  1
  P  P4  1  0.46555966  0.83212534  0.71988528  1
  P  P5  1  0.18531088  0.42204454  0.39533463  1
  P  P6  1  0.57663957  0.53804091  0.77422309  1
  Li  Li7  1  0.74169474  0.05875516  0.67515842  1
