# generated using pymatgen
data_LiMn2Sb4P2N
_symmetry_space_group_name_H-M   'P 1'
_cell_length_a   5.55801889
_cell_length_b   5.87384374
_cell_length_c   6.32123838
_cell_angle_alpha   92.74939125
_cell_angle_beta   91.85509984
_cell_angle_gamma   92.99741516
_symmetry_Int_Tables_number   1
_chemical_formula_structural   LiMn2Sb4P2N
_chemical_formula_sum   'Li1 Mn2 Sb4 P2 N1'
_cell_volume   205.72360041
_cell_formula_units_Z   1
loop_
 _symmetry_equiv_pos_site_id
 _symmetry_equiv_pos_as_xyz
  1  'x, y, z'
loop_
 _atom_site_type_symbol
 _atom_site_label
 _atom_site_symmetry_multiplicity
 _atom_site_fract_x
 _atom_site_fract_y
 _atom_site_fract_z
 _atom_site_occupancy
  N  N0  1  0.12500000  0.00000000  0.25000000  1
  Mn  Mn1  1  0.00000000  0.00000000  0.00000000  1
  Mn  Mn2  1  0.37500000  0.00000000  0.25000000  1
  Sb  Sb3  1  0.25000000  0.25000000  0.25000000  1
  Sb  Sb4  1  0.00000000  0.25000000  0.12500000  1
  Sb  Sb5  1  0.28323476  0.74033200  0.21647466  1
  Sb  Sb6  1  0.54707946  0.31852915  0.39377384  1
  P  P7  1  0.94364291  0.65992316  0.44988835  1
  P  P8  1  0.40388639  0.64197455  0.07930862  1
  Li  Li9  1  0.03856154  0.67942452  0.60384244  1
