# generated using pymatgen
data_Li2Sb4P3
_symmetry_space_group_name_H-M   'P 1'
_cell_length_a   6.09245136
_cell_length_b   6.31083059
_cell_length_c   7.03388027
_cell_angle_alpha   96.55991089
_cell_angle_beta   93.03464966
_cell_angle_gamma   96.86969808
_symmetry_Int_Tables_number   1
_chemical_formula_structural   Li2Sb4P3
_chemical_formula_sum   'Li2 Sb4 P3'
_cell_volume   266.13330905
_cell_formula_units_Z   1
loop_
 _symmetry_equiv_pos_site_id
 _symmetry_equiv_pos_as_xyz
  1  'x, y, z'
loop_
 _atom_site_type_symbol
 _atom_site_label
 _atom_site_symmetry_multiplicity
 _atom_site_fract_x
 _atom_site_fract_y
 _atom_site_fract_z
 _atom_site_occupancy
  Sb  Sb0  1  0.12500000  0.12500000  0.12500000  1
  Sb  Sb1  1  0.50000000  0.50000000  0.50000000  1
  Sb  Sb2  1  0.25000000  0.25000000  0.25000000  1
  Sb  Sb3  1  0.75000000  0.75000000  0.75000000  1
  P  P4  1  0.74350132  0.76100515  0.98113836  1
  P  P5  1  0.74220919  0.16852112  0.97120350  1
  P  P6  1  0.44192519  0.44560659  0.54174200  1
  Li  Li7  1  0.43115093  0.53266885  0.68354592  1
  Li  Li8  1  0.80717967  0.99474335  0.92364955  1
