# generated using pymatgen
data_LiTi2P6F2
_symmetry_space_group_name_H-M   'P 1'
_cell_length_a   7.52981335
_cell_length_b   7.32251340
_cell_length_c   7.72394703
_cell_angle_alpha   90.66631576
_cell_angle_beta   93.17012802
_cell_angle_gamma   90.76177683
_symmetry_Int_Tables_number   1
_chemical_formula_structural   LiTi2P6F2
_chemical_formula_sum   'Li1 Ti2 P6 F2'
_cell_volume   425.15460110
_cell_formula_units_Z   1
loop_
 _symmetry_equiv_pos_site_id
 _symmetry_equiv_pos_as_xyz
  1  'x, y, z'
loop_
 _atom_site_type_symbol
 _atom_site_label
 _atom_site_symmetry_multiplicity
 _atom_site_fract_x
 _atom_site_fract_y
 _atom_site_fract_z
 _atom_site_occupancy
  P  P0  1  0.12500000  0.12500000  0.12500000  1
  P  P1  1  0.50000000  0.50000000  0.50000000  1
  P  P2  1  0.25000000  0.25000000  0.25000000  1
  P  P3  1  0.75000000  0.75000000  0.75000000  1
  P  P4  1  0.12162339  0.45742779  0.33200523  1
  P  P5  1  0.87383788  0.93911703  0.63915591  1
  Li  Li6  1  0.77450514  0.15457231  0.47200970  1
  F  F7  1  0.50172440  0.74690597  0.17480625  1
  F  F8  1  0.23429238  0.49865082  0.27481287  1
  Ti  Ti9  1  0.61832651  0.52093896  0.98804839  1
  Ti  Ti10  1  0.44236213  0.31144139  0.34790922  1
