# generated using pymatgen
data_LiMn3Sb4P3
_symmetry_space_group_name_H-M   'P 1'
_cell_length_a   5.85355573
_cell_length_b   6.13743901
_cell_length_c   6.33432158
_cell_angle_alpha   92.14511553
_cell_angle_beta   90.23865776
_cell_angle_gamma   92.05325000
_symmetry_Int_Tables_number   1
_chemical_formula_structural   LiMn3Sb4P3
_chemical_formula_sum   'Li1 Mn3 Sb4 P3'
_cell_volume   227.25690206
_cell_formula_units_Z   1
loop_
 _symmetry_equiv_pos_site_id
 _symmetry_equiv_pos_as_xyz
  1  'x, y, z'
loop_
 _atom_site_type_symbol
 _atom_site_label
 _atom_site_symmetry_multiplicity
 _atom_site_fract_x
 _atom_site_fract_y
 _atom_site_fract_z
 _atom_site_occupancy
  Mn  Mn0  1  0.00000000  0.00000000  0.00000000  1
  Mn  Mn1  1  0.50000000  0.50000000  0.50000000  1
  Mn  Mn2  1  0.50000000  0.50000000  0.00000000  1
  Sb  Sb3  1  0.50000000  0.00000000  0.50000000  1
  Sb  Sb4  1  0.00000000  0.50000000  0.50000000  1
  Sb  Sb5  1  0.97089210  0.55748373  0.56197908  1
  Sb  Sb6  1  0.60020395  0.49794807  0.76968826  1
  P  P7  1  0.06169770  0.49309280  0.17442389  1
  P  P8  1  0.23083895  0.73345533  0.22052311  1
  P  P9  1  0.05849612  0.97776638  0.18136782  1
  Li  Li10  1  0.10222306  0.54433978  0.72058351  1
