# generated using pymatgen
data_Li4TiN5O4F3
_symmetry_space_group_name_H-M   'P 1'
_cell_length_a   6.02614646
_cell_length_b   5.71709643
_cell_length_c   7.28928484
_cell_angle_alpha   100.47150319
_cell_angle_beta   102.75960736
_cell_angle_gamma   100.00278616
_symmetry_Int_Tables_number   1
_chemical_formula_structural   Li4TiN5O4F3
_chemical_formula_sum   'Li4 Ti1 N5 O4 F3'
_cell_volume   234.78706321
_cell_formula_units_Z   1
loop_
 _symmetry_equiv_pos_site_id
 _symmetry_equiv_pos_as_xyz
  1  'x, y, z'
loop_
 _atom_site_type_symbol
 _atom_site_label
 _atom_site_symmetry_multiplicity
 _atom_site_fract_x
 _atom_site_fract_y
 _atom_site_fract_z
 _atom_site_occupancy
  Li  Li0  1  0.00000000  0.00000000  0.00000000  1
  Li  Li1  1  0.50000000  0.50000000  0.50000000  1
  Li  Li2  1  0.25000000  0.25000000  0.25000000  1
  Li  Li3  1  0.75000000  0.25000000  0.00000000  1
  F  F4  1  0.25000000  0.75000000  0.50000000  1
  F  F5  1  0.01426099  0.63775492  0.50756333  1
  F  F6  1  0.93306082  0.55601537  0.29557767  1
  Ti  Ti7  1  0.72986647  0.84766859  0.89764197  1
  O  O8  1  0.64657714  0.78717513  0.66082851  1
  O  O9  1  0.06546870  0.20245885  0.87347581  1
  O  O10  1  0.02223235  0.27428462  0.84498735  1
  O  O11  1  0.70813893  0.87045884  0.64838917  1
  N  N12  1  0.69242254  0.97332078  0.43645796  1
  N  N13  1  0.75307743  0.87833620  0.95457538  1
  N  N14  1  0.06768346  0.44561804  0.36951321  1
  N  N15  1  0.06433654  0.64256524  0.21906266  1
  N  N16  1  0.47541405  0.59256707  0.53032577  1
