# generated using pymatgen
data_Li2TiCu2(As3O)2
_symmetry_space_group_name_H-M   'P 1'
_cell_length_a   6.92297041
_cell_length_b   7.10122177
_cell_length_c   7.90839631
_cell_angle_alpha   92.77941781
_cell_angle_beta   95.01306905
_cell_angle_gamma   93.39044447
_symmetry_Int_Tables_number   1
_chemical_formula_structural   Li2TiCu2(As3O)2
_chemical_formula_sum   'Li2 Ti1 Cu2 As6 O2'
_cell_volume   386.06065724
_cell_formula_units_Z   1
loop_
 _symmetry_equiv_pos_site_id
 _symmetry_equiv_pos_as_xyz
  1  'x, y, z'
loop_
 _atom_site_type_symbol
 _atom_site_label
 _atom_site_symmetry_multiplicity
 _atom_site_fract_x
 _atom_site_fract_y
 _atom_site_fract_z
 _atom_site_occupancy
  Li  Li0  1  0.00000000  0.00000000  0.00000000  1
  Li  Li1  1  0.50000000  0.50000000  0.50000000  1
  Cu  Cu2  1  0.50000000  0.50000000  0.00000000  1
  Cu  Cu3  1  0.50000000  0.00000000  0.50000000  1
  Ti  Ti4  1  0.00000000  0.50000000  0.50000000  1
  As  As5  1  0.91646961  0.22089310  0.30394964  1
  As  As6  1  0.87994674  0.62410669  0.30671261  1
  As  As7  1  0.33784011  0.42700407  0.78437813  1
  As  As8  1  0.05796580  0.55758241  0.12826450  1
  As  As9  1  0.51551172  0.22838117  0.04520712  1
  As  As10  1  0.09401585  0.84272367  0.04011597  1
  O  O11  1  0.48199221  0.89337486  0.33326193  1
  O  O12  1  0.56285662  0.49395708  0.67568187  1
