# generated using pymatgen
data_Li2Sb3Mo2P3
_symmetry_space_group_name_H-M   'P 1'
_cell_length_a   5.02042507
_cell_length_b   5.26808942
_cell_length_c   6.06783915
_cell_angle_alpha   101.03170058
_cell_angle_beta   90.18291971
_cell_angle_gamma   100.64170629
_symmetry_Int_Tables_number   1
_chemical_formula_structural   Li2Sb3Mo2P3
_chemical_formula_sum   'Li2 Sb3 Mo2 P3'
_cell_volume   154.68438282
_cell_formula_units_Z   1
loop_
 _symmetry_equiv_pos_site_id
 _symmetry_equiv_pos_as_xyz
  1  'x, y, z'
loop_
 _atom_site_type_symbol
 _atom_site_label
 _atom_site_symmetry_multiplicity
 _atom_site_fract_x
 _atom_site_fract_y
 _atom_site_fract_z
 _atom_site_occupancy
  Sb  Sb0  1  0.12500000  0.12500000  0.12500000  1
  Sb  Sb1  1  0.50000000  0.50000000  0.50000000  1
  Sb  Sb2  1  0.25000000  0.25000000  0.25000000  1
  P  P3  1  0.75000000  0.75000000  0.75000000  1
  P  P4  1  0.82304032  0.26415806  0.53669327  1
  P  P5  1  0.92065123  0.70244898  0.76539393  1
  Mo  Mo6  1  0.89496340  0.58321517  0.00514214  1
  Mo  Mo7  1  0.22251052  0.64429334  0.51267195  1
  Li  Li8  1  0.52788007  0.17669537  0.82427981  1
  Li  Li9  1  0.50290826  0.85836621  0.53179306  1
