# generated using pymatgen
data_LiTiS3I4
_symmetry_space_group_name_H-M   'P 1'
_cell_length_a   5.80880897
_cell_length_b   5.71664026
_cell_length_c   6.58897197
_cell_angle_alpha   91.38406876
_cell_angle_beta   95.49377936
_cell_angle_gamma   90.85056809
_symmetry_Int_Tables_number   1
_chemical_formula_structural   LiTiS3I4
_chemical_formula_sum   'Li1 Ti1 S3 I4'
_cell_volume   217.69820476
_cell_formula_units_Z   1
loop_
 _symmetry_equiv_pos_site_id
 _symmetry_equiv_pos_as_xyz
  1  'x, y, z'
loop_
 _atom_site_type_symbol
 _atom_site_label
 _atom_site_symmetry_multiplicity
 _atom_site_fract_x
 _atom_site_fract_y
 _atom_site_fract_z
 _atom_site_occupancy
  I  I0  1  0.00000000  0.00000000  0.00000000  1
  I  I1  1  0.50000000  0.50000000  0.50000000  1
  I  I2  1  0.25000000  0.25000000  0.25000000  1
  I  I3  1  0.75000000  0.25000000  0.00000000  1
  Li  Li4  1  0.25000000  0.75000000  0.50000000  1
  S  S5  1  0.18035141  0.65715032  0.14847660  1
  S  S6  1  0.08217755  0.75779249  0.74351881  1
  S  S7  1  0.24116175  0.41574370  0.87763999  1
  Ti  Ti8  1  0.71181614  0.65569655  0.77518901  1
