# generated using pymatgen
data_LiP3F
_symmetry_space_group_name_H-M   'P 1'
_cell_length_a   8.04907745
_cell_length_b   7.78694257
_cell_length_c   8.18106756
_cell_angle_alpha   90.88082615
_cell_angle_beta   91.04792746
_cell_angle_gamma   91.01887364
_symmetry_Int_Tables_number   1
_chemical_formula_structural   LiP3F
_chemical_formula_sum   'Li2 P6 F2'
_cell_volume   512.54050367
_cell_formula_units_Z   2
loop_
 _symmetry_equiv_pos_site_id
 _symmetry_equiv_pos_as_xyz
  1  'x, y, z'
loop_
 _atom_site_type_symbol
 _atom_site_label
 _atom_site_symmetry_multiplicity
 _atom_site_fract_x
 _atom_site_fract_y
 _atom_site_fract_z
 _atom_site_occupancy
  P  P0  1  0.00000000  0.00000000  0.00000000  1
  P  P1  1  0.33300000  0.66700000  0.25000000  1
  P  P2  1  0.66700000  0.33300000  0.50000000  1
  P  P3  1  0.00000000  0.00000000  0.75000000  1
  P  P4  1  0.93152935  0.22556251  0.37262225  1
  P  P5  1  0.11007142  0.43842324  0.95938365  1
  Li  Li6  1  0.44788334  0.39166018  0.35480807  1
  Li  Li7  1  0.44106178  0.82096780  0.95251979  1
  F  F8  1  0.87059067  0.52781659  0.87403340  1
  F  F9  1  0.34677142  0.51371989  0.06640518  1
