# generated using pymatgen
data_Li3Ti2Nb2(OF)3
_symmetry_space_group_name_H-M   'P 1'
_cell_length_a   5.75889263
_cell_length_b   5.47882453
_cell_length_c   7.35634413
_cell_angle_alpha   95.96500043
_cell_angle_beta   99.99447781
_cell_angle_gamma   95.73082850
_symmetry_Int_Tables_number   1
_chemical_formula_structural   Li3Ti2Nb2(OF)3
_chemical_formula_sum   'Li3 Ti2 Nb2 O3 F3'
_cell_volume   225.69436717
_cell_formula_units_Z   1
loop_
 _symmetry_equiv_pos_site_id
 _symmetry_equiv_pos_as_xyz
  1  'x, y, z'
loop_
 _atom_site_type_symbol
 _atom_site_label
 _atom_site_symmetry_multiplicity
 _atom_site_fract_x
 _atom_site_fract_y
 _atom_site_fract_z
 _atom_site_occupancy
  Li  Li0  1  0.12500000  0.00000000  0.25000000  1
  Li  Li1  1  0.00000000  0.00000000  0.00000000  1
  Li  Li2  1  0.37500000  0.00000000  0.25000000  1
  Nb  Nb3  1  0.25000000  0.25000000  0.25000000  1
  Nb  Nb4  1  0.00000000  0.25000000  0.12500000  1
  F  F5  1  0.32232833  0.81815882  0.25624159  1
  F  F6  1  0.95190628  0.27960416  0.71954610  1
  F  F7  1  0.23592506  0.17758715  0.02305457  1
  Ti  Ti8  1  0.01914399  0.25589175  0.65721899  1
  Ti  Ti9  1  0.82875019  0.01569157  0.51202394  1
  O  O10  1  0.11969865  0.63011937  0.24335807  1
  O  O11  1  0.03228889  0.73527228  0.25741164  1
  O  O12  1  0.88987173  0.72625222  0.82038085  1
