# generated using pymatgen
data_Li2Sb4P3
_symmetry_space_group_name_H-M   'P 1'
_cell_length_a   4.69552339
_cell_length_b   4.79878069
_cell_length_c   6.59242869
_cell_angle_alpha   101.05115881
_cell_angle_beta   94.85558719
_cell_angle_gamma   101.43067322
_symmetry_Int_Tables_number   1
_chemical_formula_structural   Li2Sb4P3
_chemical_formula_sum   'Li2 Sb4 P3'
_cell_volume   141.73361056
_cell_formula_units_Z   1
loop_
 _symmetry_equiv_pos_site_id
 _symmetry_equiv_pos_as_xyz
  1  'x, y, z'
loop_
 _atom_site_type_symbol
 _atom_site_label
 _atom_site_symmetry_multiplicity
 _atom_site_fract_x
 _atom_site_fract_y
 _atom_site_fract_z
 _atom_site_occupancy
  Sb  Sb0  1  0.00000000  0.00000000  0.00000000  1
  Sb  Sb1  1  0.33300000  0.66700000  0.25000000  1
  Sb  Sb2  1  0.66700000  0.33300000  0.50000000  1
  Sb  Sb3  1  0.00000000  0.00000000  0.75000000  1
  P  P4  1  0.96933116  0.18893675  0.03371679  1
  P  P5  1  0.54247637  0.49426623  0.00080447  1
  P  P6  1  0.32969877  0.14426473  0.55209321  1
  Li  Li7  1  0.26739287  0.99876886  0.12090412  1
  Li  Li8  1  0.26836192  0.40209073  0.36080556  1
