# generated using pymatgen
data_LiMn(Sb2P)2
_symmetry_space_group_name_H-M   'P 1'
_cell_length_a   4.55101722
_cell_length_b   4.81053686
_cell_length_c   6.11656283
_cell_angle_alpha   102.13336972
_cell_angle_beta   95.88497890
_cell_angle_gamma   100.38218678
_symmetry_Int_Tables_number   1
_chemical_formula_structural   LiMn(Sb2P)2
_chemical_formula_sum   'Li1 Mn1 Sb4 P2'
_cell_volume   127.39403051
_cell_formula_units_Z   1
loop_
 _symmetry_equiv_pos_site_id
 _symmetry_equiv_pos_as_xyz
  1  'x, y, z'
loop_
 _atom_site_type_symbol
 _atom_site_label
 _atom_site_symmetry_multiplicity
 _atom_site_fract_x
 _atom_site_fract_y
 _atom_site_fract_z
 _atom_site_occupancy
  Mn  Mn0  1  0.00000000  0.00000000  0.00000000  1
  Sb  Sb1  1  0.33300000  0.66700000  0.25000000  1
  Sb  Sb2  1  0.66700000  0.33300000  0.50000000  1
  Sb  Sb3  1  0.00000000  0.00000000  0.75000000  1
  Sb  Sb4  1  0.24440890  0.20850154  0.71535168  1
  P  P5  1  0.02759822  0.36338250  0.21869446  1
  P  P6  1  0.21707286  0.38040919  0.56234676  1
  Li  Li7  1  0.28068134  0.42874155  0.38884405  1
