# generated using pymatgen
data_LiMnSb4Mo2P3
_symmetry_space_group_name_H-M   'P 1'
_cell_length_a   5.13016515
_cell_length_b   5.43945881
_cell_length_c   6.37506876
_cell_angle_alpha   96.68655609
_cell_angle_beta   93.31722040
_cell_angle_gamma   96.74076371
_symmetry_Int_Tables_number   1
_chemical_formula_structural   LiMnSb4Mo2P3
_chemical_formula_sum   'Li1 Mn1 Sb4 Mo2 P3'
_cell_volume   175.00486226
_cell_formula_units_Z   1
loop_
 _symmetry_equiv_pos_site_id
 _symmetry_equiv_pos_as_xyz
  1  'x, y, z'
loop_
 _atom_site_type_symbol
 _atom_site_label
 _atom_site_symmetry_multiplicity
 _atom_site_fract_x
 _atom_site_fract_y
 _atom_site_fract_z
 _atom_site_occupancy
  Mn  Mn0  1  0.00000000  0.00000000  0.00000000  1
  Sb  Sb1  1  0.50000000  0.50000000  0.50000000  1
  Sb  Sb2  1  0.25000000  0.25000000  0.25000000  1
  Sb  Sb3  1  0.75000000  0.25000000  0.00000000  1
  Sb  Sb4  1  0.25000000  0.75000000  0.50000000  1
  P  P5  1  0.91152059  0.94992718  0.66004584  1
  P  P6  1  0.63703817  0.90501080  0.52193112  1
  P  P7  1  0.90045546  0.99936838  0.73583694  1
  Mo  Mo8  1  0.38916276  0.32644822  0.30723491  1
  Mo  Mo9  1  0.24622974  0.77858348  0.36075458  1
  Li  Li10  1  0.24022361  0.51386772  0.10005694  1
