# generated using pymatgen
data_Li2TiCu2(NiP3)2
_symmetry_space_group_name_H-M   'P 1'
_cell_length_a   7.80436779
_cell_length_b   8.09824413
_cell_length_c   8.20790042
_cell_angle_alpha   90.41700934
_cell_angle_beta   90.55510032
_cell_angle_gamma   90.34603326
_symmetry_Int_Tables_number   1
_chemical_formula_structural   Li2TiCu2(NiP3)2
_chemical_formula_sum   'Li2 Ti1 Cu2 Ni2 P6'
_cell_volume   518.70529185
_cell_formula_units_Z   1
loop_
 _symmetry_equiv_pos_site_id
 _symmetry_equiv_pos_as_xyz
  1  'x, y, z'
loop_
 _atom_site_type_symbol
 _atom_site_label
 _atom_site_symmetry_multiplicity
 _atom_site_fract_x
 _atom_site_fract_y
 _atom_site_fract_z
 _atom_site_occupancy
  P  P0  1  0.00000000  0.00000000  0.00000000  1
  P  P1  1  0.50000000  0.50000000  0.50000000  1
  P  P2  1  0.25000000  0.25000000  0.25000000  1
  P  P3  1  0.75000000  0.25000000  0.00000000  1
  P  P4  1  0.25000000  0.75000000  0.50000000  1
  P  P5  1  0.34062411  0.77974255  0.42985362  1
  Li  Li6  1  0.32858998  0.58996730  0.67224087  1
  Li  Li7  1  0.58228870  0.65033064  0.34053305  1
  Cu  Cu8  1  0.52914535  0.87043197  0.46060336  1
  Cu  Cu9  1  0.32013150  0.52142740  0.56180887  1
  Ni  Ni10  1  0.50958754  0.51605341  0.25767376  1
  Ni  Ni11  1  0.64848454  0.86101232  0.08148962  1
  Ti  Ti12  1  0.31908308  0.79826754  0.63669252  1
