# generated using pymatgen
data_LiMn2(SbP)3
_symmetry_space_group_name_H-M   'P 1'
_cell_length_a   6.05039873
_cell_length_b   6.49490150
_cell_length_c   6.86417329
_cell_angle_alpha   93.34139997
_cell_angle_beta   92.31820343
_cell_angle_gamma   93.66938268
_symmetry_Int_Tables_number   1
_chemical_formula_structural   LiMn2(SbP)3
_chemical_formula_sum   'Li1 Mn2 Sb3 P3'
_cell_volume   268.46469197
_cell_formula_units_Z   1
loop_
 _symmetry_equiv_pos_site_id
 _symmetry_equiv_pos_as_xyz
  1  'x, y, z'
loop_
 _atom_site_type_symbol
 _atom_site_label
 _atom_site_symmetry_multiplicity
 _atom_site_fract_x
 _atom_site_fract_y
 _atom_site_fract_z
 _atom_site_occupancy
  Mn  Mn0  1  0.00000000  0.00000000  0.00000000  1
  Mn  Mn1  1  0.33300000  0.66700000  0.25000000  1
  Sb  Sb2  1  0.66700000  0.33300000  0.50000000  1
  Sb  Sb3  1  0.00000000  0.00000000  0.75000000  1
  Sb  Sb4  1  0.18278551  0.55865952  0.09672129  1
  P  P5  1  0.66095806  0.08738113  0.83820403  1
  P  P6  1  0.61282405  0.11444082  0.32663248  1
  P  P7  1  0.88396746  0.39996334  0.70331380  1
  Li  Li8  1  0.95989436  0.30900846  0.50431100  1
