# generated using pymatgen
data_LiCuF
_symmetry_space_group_name_H-M   'P 1'
_cell_length_a   6.52327016
_cell_length_b   6.68974399
_cell_length_c   7.52735831
_cell_angle_alpha   94.44910613
_cell_angle_beta   96.98618489
_cell_angle_gamma   95.45411336
_symmetry_Int_Tables_number   1
_chemical_formula_structural   LiCuF
_chemical_formula_sum   'Li2 Cu2 F2'
_cell_volume   323.24812787
_cell_formula_units_Z   2
loop_
 _symmetry_equiv_pos_site_id
 _symmetry_equiv_pos_as_xyz
  1  'x, y, z'
loop_
 _atom_site_type_symbol
 _atom_site_label
 _atom_site_symmetry_multiplicity
 _atom_site_fract_x
 _atom_site_fract_y
 _atom_site_fract_z
 _atom_site_occupancy
  F  F0  1  0.12500000  0.00000000  0.25000000  1
  F  F1  1  0.00000000  0.00000000  0.00000000  1
  Li  Li2  1  0.37500000  0.00000000  0.25000000  1
  Li  Li3  1  0.25000000  0.25000000  0.25000000  1
  Cu  Cu4  1  0.00000000  0.25000000  0.12500000  1
  Cu  Cu5  1  0.63328907  0.77527503  0.79032750  1
