# generated using pymatgen
data_Li2Cu2P4N5
_symmetry_space_group_name_H-M   'P 1'
_cell_length_a   7.13386892
_cell_length_b   7.02075133
_cell_length_c   7.87611333
_cell_angle_alpha   92.39717700
_cell_angle_beta   92.61124169
_cell_angle_gamma   92.20830062
_symmetry_Int_Tables_number   1
_chemical_formula_structural   Li2Cu2P4N5
_chemical_formula_sum   'Li2 Cu2 P4 N5'
_cell_volume   393.39834112
_cell_formula_units_Z   1
loop_
 _symmetry_equiv_pos_site_id
 _symmetry_equiv_pos_as_xyz
  1  'x, y, z'
loop_
 _atom_site_type_symbol
 _atom_site_label
 _atom_site_symmetry_multiplicity
 _atom_site_fract_x
 _atom_site_fract_y
 _atom_site_fract_z
 _atom_site_occupancy
  P  P0  1  0.12500000  0.12500000  0.12500000  1
  P  P1  1  0.50000000  0.50000000  0.50000000  1
  P  P2  1  0.25000000  0.25000000  0.25000000  1
  P  P3  1  0.75000000  0.75000000  0.75000000  1
  Li  Li4  1  0.27671829  0.33785009  0.95714969  1
  Li  Li5  1  0.43734679  0.88992763  0.52814673  1
  Cu  Cu6  1  0.48591158  0.38446431  0.36559666  1
  Cu  Cu7  1  0.99260807  0.11081064  0.18424079  1
  N  N8  1  0.83790919  0.76712916  0.41213209  1
  N  N9  1  0.80512296  0.47037377  0.37384186  1
  N  N10  1  0.97049571  0.84656270  0.38362719  1
  N  N11  1  0.61370598  0.33991408  0.11219213  1
  N  N12  1  0.21838424  0.99708797  0.74649297  1
