# generated using pymatgen
data_Li2TiP3(OF)3
_symmetry_space_group_name_H-M   'P 1'
_cell_length_a   6.85871507
_cell_length_b   5.96851590
_cell_length_c   7.88490239
_cell_angle_alpha   90.63173730
_cell_angle_beta   93.00561422
_cell_angle_gamma   90.72224442
_symmetry_Int_Tables_number   1
_chemical_formula_structural   Li2TiP3(OF)3
_chemical_formula_sum   'Li2 Ti1 P3 O3 F3'
_cell_volume   322.28742493
_cell_formula_units_Z   1
loop_
 _symmetry_equiv_pos_site_id
 _symmetry_equiv_pos_as_xyz
  1  'x, y, z'
loop_
 _atom_site_type_symbol
 _atom_site_label
 _atom_site_symmetry_multiplicity
 _atom_site_fract_x
 _atom_site_fract_y
 _atom_site_fract_z
 _atom_site_occupancy
  P  P0  1  0.00000000  0.00000000  0.00000000  1
  P  P1  1  0.50000000  0.50000000  0.50000000  1
  P  P2  1  0.25000000  0.25000000  0.25000000  1
  Li  Li3  1  0.75000000  0.25000000  0.00000000  1
  Li  Li4  1  0.25000000  0.75000000  0.50000000  1
  F  F5  1  0.81228747  0.60438556  0.62773558  1
  F  F6  1  0.58115116  0.61617630  0.68239849  1
  F  F7  1  0.92100965  0.94565828  0.43568777  1
  Ti  Ti8  1  0.72884082  0.11980152  0.80349914  1
  O  O9  1  0.16425351  0.42678915  0.54119205  1
  O  O10  1  0.33280700  0.41301509  0.97605901  1
  O  O11  1  0.74353005  0.65119210  0.35580370  1
