# generated using pymatgen
data_LiMo2P3OF4
_symmetry_space_group_name_H-M   'P 1'
_cell_length_a   5.36368425
_cell_length_b   5.30840519
_cell_length_c   5.20272313
_cell_angle_alpha   90.18716476
_cell_angle_beta   86.91072865
_cell_angle_gamma   88.74791752
_symmetry_Int_Tables_number   1
_chemical_formula_structural   LiMo2P3OF4
_chemical_formula_sum   'Li1 Mo2 P3 O1 F4'
_cell_volume   147.88304593
_cell_formula_units_Z   1
loop_
 _symmetry_equiv_pos_site_id
 _symmetry_equiv_pos_as_xyz
  1  'x, y, z'
loop_
 _atom_site_type_symbol
 _atom_site_label
 _atom_site_symmetry_multiplicity
 _atom_site_fract_x
 _atom_site_fract_y
 _atom_site_fract_z
 _atom_site_occupancy
  F  F0  1  0.00000000  0.00000000  0.00000000  1
  F  F1  1  0.50000000  0.50000000  0.50000000  1
  F  F2  1  0.50000000  0.50000000  0.00000000  1
  F  F3  1  0.50000000  0.00000000  0.50000000  1
  O  O4  1  0.00000000  0.50000000  0.50000000  1
  P  P5  1  0.43159115  0.64044698  0.12937359  1
  P  P6  1  0.65538716  0.56575544  0.20462986  1
  P  P7  1  0.39435600  0.55779974  0.44761163  1
  Mo  Mo8  1  0.35888270  0.07062187  0.67353749  1
  Mo  Mo9  1  0.10930267  0.59026637  0.71288071  1
  Li  Li10  1  0.14067223  0.28062166  0.69022541  1
