# generated using pymatgen
data_Li4Ti2Ni2SeO5
_symmetry_space_group_name_H-M   'P 1'
_cell_length_a   6.97289143
_cell_length_b   6.75932419
_cell_length_c   8.63383228
_cell_angle_alpha   95.88464735
_cell_angle_beta   97.59940201
_cell_angle_gamma   95.51976779
_symmetry_Int_Tables_number   1
_chemical_formula_structural   Li4Ti2Ni2SeO5
_chemical_formula_sum   'Li4 Ti2 Ni2 Se1 O5'
_cell_volume   398.73720912
_cell_formula_units_Z   1
loop_
 _symmetry_equiv_pos_site_id
 _symmetry_equiv_pos_as_xyz
  1  'x, y, z'
loop_
 _atom_site_type_symbol
 _atom_site_label
 _atom_site_symmetry_multiplicity
 _atom_site_fract_x
 _atom_site_fract_y
 _atom_site_fract_z
 _atom_site_occupancy
  Li  Li0  1  0.00000000  0.00000000  0.00000000  1
  Li  Li1  1  0.50000000  0.50000000  0.50000000  1
  Li  Li2  1  0.25000000  0.25000000  0.25000000  1
  Li  Li3  1  0.75000000  0.25000000  0.00000000  1
  Se  Se4  1  0.25000000  0.75000000  0.50000000  1
  Ni  Ni5  1  0.60313286  0.97472775  0.77140553  1
  Ni  Ni6  1  0.83837958  0.59217607  0.72819757  1
  Ti  Ti7  1  0.62475723  0.20771306  0.20096478  1
  Ti  Ti8  1  0.63330057  0.46146326  0.67095207  1
  O  O9  1  0.60236862  0.03931218  0.29939682  1
  O  O10  1  0.67131697  0.68105110  0.42051310  1
  O  O11  1  0.43978809  0.68700524  0.22328179  1
  O  O12  1  0.78923853  0.74072256  0.92227758  1
  O  O13  1  0.33723795  0.90605749  0.44223036  1
