# generated using pymatgen
data_Li2Mn3Sb4P3
_symmetry_space_group_name_H-M   'P 1'
_cell_length_a   6.81329638
_cell_length_b   7.38582296
_cell_length_c   7.22408437
_cell_angle_alpha   93.16770374
_cell_angle_beta   90.77932702
_cell_angle_gamma   93.19119179
_symmetry_Int_Tables_number   1
_chemical_formula_structural   Li2Mn3Sb4P3
_chemical_formula_sum   'Li2 Mn3 Sb4 P3'
_cell_volume   362.35992242
_cell_formula_units_Z   1
loop_
 _symmetry_equiv_pos_site_id
 _symmetry_equiv_pos_as_xyz
  1  'x, y, z'
loop_
 _atom_site_type_symbol
 _atom_site_label
 _atom_site_symmetry_multiplicity
 _atom_site_fract_x
 _atom_site_fract_y
 _atom_site_fract_z
 _atom_site_occupancy
  Mn  Mn0  1  0.00000000  0.00000000  0.00000000  1
  Mn  Mn1  1  0.50000000  0.50000000  0.50000000  1
  Mn  Mn2  1  0.50000000  0.50000000  0.00000000  1
  Sb  Sb3  1  0.50000000  0.00000000  0.50000000  1
  Sb  Sb4  1  0.00000000  0.50000000  0.50000000  1
  Sb  Sb5  1  0.45166171  0.01824267  0.75384847  1
  Sb  Sb6  1  0.12846981  0.33367748  0.27716846  1
  P  P7  1  0.98716646  0.67035914  0.90994711  1
  P  P8  1  0.55887846  0.57640042  0.11076462  1
  P  P9  1  0.80383214  0.72155116  0.23636810  1
  Li  Li10  1  0.34208900  0.08457219  0.91107545  1
  Li  Li11  1  0.84307448  0.16606841  0.60688496  1
