# generated using pymatgen
data_Li3Ti(IO)4
_symmetry_space_group_name_H-M   'P 1'
_cell_length_a   8.84664652
_cell_length_b   8.72611436
_cell_length_c   7.33802205
_cell_angle_alpha   90.00000000
_cell_angle_beta   90.00000000
_cell_angle_gamma   90.00000000
_symmetry_Int_Tables_number   1
_chemical_formula_structural   Li3Ti(IO)4
_chemical_formula_sum   'Li3 Ti1 I4 O4'
_cell_volume   566.47218209
_cell_formula_units_Z   1
loop_
 _symmetry_equiv_pos_site_id
 _symmetry_equiv_pos_as_xyz
  1  'x, y, z'
loop_
 _atom_site_type_symbol
 _atom_site_label
 _atom_site_symmetry_multiplicity
 _atom_site_fract_x
 _atom_site_fract_y
 _atom_site_fract_z
 _atom_site_occupancy
  I  I0  1  0.00000000  0.00000000  0.00000000  1
  I  I1  1  0.33300000  0.66700000  0.25000000  1
  I  I2  1  0.66700000  0.33300000  0.50000000  1
  I  I3  1  0.00000000  0.00000000  0.75000000  1
  Li  Li4  1  0.94169453  0.76472390  0.54634065  1
  Li  Li5  1  0.58219193  0.34168876  0.04608462  1
  Li  Li6  1  0.98624019  0.02018370  0.36738768  1
  Ti  Ti7  1  0.21987528  0.53602035  0.70687794  1
  O  O8  1  0.17936093  0.58223147  0.96644684  1
  O  O9  1  0.48244554  0.18276701  0.13329152  1
  O  O10  1  0.22313130  0.85690283  0.36289789  1
  O  O11  1  0.67610597  0.18801989  0.80494600  1
