# generated using pymatgen
data_LiS3O7F2
_symmetry_space_group_name_H-M   'P 1'
_cell_length_a   6.91387933
_cell_length_b   6.87973836
_cell_length_c   8.23789612
_cell_angle_alpha   90.89105668
_cell_angle_beta   94.36639671
_cell_angle_gamma   91.01440267
_symmetry_Int_Tables_number   1
_chemical_formula_structural   LiS3O7F2
_chemical_formula_sum   'Li1 S3 O7 F2'
_cell_volume   390.58648901
_cell_formula_units_Z   1
loop_
 _symmetry_equiv_pos_site_id
 _symmetry_equiv_pos_as_xyz
  1  'x, y, z'
loop_
 _atom_site_type_symbol
 _atom_site_label
 _atom_site_symmetry_multiplicity
 _atom_site_fract_x
 _atom_site_fract_y
 _atom_site_fract_z
 _atom_site_occupancy
  Li  Li0  1  0.00000000  0.00000000  0.00000000  1
  F  F1  1  0.50000000  0.50000000  0.50000000  1
  F  F2  1  0.25000000  0.25000000  0.25000000  1
  S  S3  1  0.75000000  0.25000000  0.00000000  1
  S  S4  1  0.25000000  0.75000000  0.50000000  1
  S  S5  1  0.38405498  0.82274618  0.66052459  1
  O  O6  1  0.11727294  0.80369487  0.71661885  1
  O  O7  1  0.81000109  0.97349123  0.03521101  1
  O  O8  1  0.70021974  0.72880680  0.35226488  1
  O  O9  1  0.44288924  0.39914115  0.30068459  1
  O  O10  1  0.57179496  0.54294988  0.98851686  1
  O  O11  1  0.43953239  0.09414924  0.19366095  1
  O  O12  1  0.34372792  0.47750251  0.32295052  1
