# generated using pymatgen
data_Li2TiCl2(OF)2
_symmetry_space_group_name_H-M   'P 1'
_cell_length_a   6.27194160
_cell_length_b   6.14559750
_cell_length_c   6.84421476
_cell_angle_alpha   98.10586412
_cell_angle_beta   100.82978364
_cell_angle_gamma   98.61124638
_symmetry_Int_Tables_number   1
_chemical_formula_structural   Li2TiCl2(OF)2
_chemical_formula_sum   'Li2 Ti1 Cl2 O2 F2'
_cell_volume   252.27410189
_cell_formula_units_Z   1
loop_
 _symmetry_equiv_pos_site_id
 _symmetry_equiv_pos_as_xyz
  1  'x, y, z'
loop_
 _atom_site_type_symbol
 _atom_site_label
 _atom_site_symmetry_multiplicity
 _atom_site_fract_x
 _atom_site_fract_y
 _atom_site_fract_z
 _atom_site_occupancy
  Li  Li0  1  0.00000000  0.00000000  0.00000000  1
  Li  Li1  1  0.50000000  0.50000000  0.50000000  1
  F  F2  1  0.50000000  0.50000000  0.00000000  1
  F  F3  1  0.50000000  0.00000000  0.50000000  1
  Cl  Cl4  1  0.00000000  0.50000000  0.50000000  1
  Cl  Cl5  1  0.74959748  0.54793961  0.49624640  1
  Ti  Ti6  1  0.13545281  0.99867732  0.71450489  1
  O  O7  1  0.62476419  0.00603856  0.24880335  1
  O  O8  1  0.92228542  0.12488756  0.34671610  1
