# generated using pymatgen
data_Li3Zn2Cu2(PN)5
_symmetry_space_group_name_H-M   'P 1'
_cell_length_a   7.78155756
_cell_length_b   7.82568992
_cell_length_c   7.98357844
_cell_angle_alpha   92.33281301
_cell_angle_beta   92.04470039
_cell_angle_gamma   92.46549805
_symmetry_Int_Tables_number   1
_chemical_formula_structural   Li3Zn2Cu2(PN)5
_chemical_formula_sum   'Li3 Zn2 Cu2 P5 N5'
_cell_volume   484.97457758
_cell_formula_units_Z   1
loop_
 _symmetry_equiv_pos_site_id
 _symmetry_equiv_pos_as_xyz
  1  'x, y, z'
loop_
 _atom_site_type_symbol
 _atom_site_label
 _atom_site_symmetry_multiplicity
 _atom_site_fract_x
 _atom_site_fract_y
 _atom_site_fract_z
 _atom_site_occupancy
  P  P0  1  0.12500000  0.00000000  0.25000000  1
  P  P1  1  0.00000000  0.00000000  0.00000000  1
  P  P2  1  0.37500000  0.00000000  0.25000000  1
  P  P3  1  0.25000000  0.25000000  0.25000000  1
  P  P4  1  0.00000000  0.25000000  0.12500000  1
  Li  Li5  1  0.68687516  0.13777387  0.29780173  1
  Li  Li6  1  0.23633984  0.76279255  0.34739153  1
  Li  Li7  1  0.36635822  0.40130663  0.04607315  1
  Cu  Cu8  1  0.67185743  0.04642457  0.05506474  1
  Cu  Cu9  1  0.86221707  0.11391045  0.73106919  1
  Zn  Zn10  1  0.60985588  0.90963573  0.16121448  1
  Zn  Zn11  1  0.38928475  0.02364354  0.13900507  1
  N  N12  1  0.76042150  0.85722425  0.66898309  1
  N  N13  1  0.24320412  0.42486299  0.35967899  1
  N  N14  1  0.23561195  0.25979034  0.44183594  1
  N  N15  1  0.96612292  0.07825260  0.84731429  1
  N  N16  1  0.15259052  0.15073809  0.14940112  1
