# generated using pymatgen
data_LiMnSb2P
_symmetry_space_group_name_H-M   'P 1'
_cell_length_a   4.80630301
_cell_length_b   5.10817517
_cell_length_c   6.24715725
_cell_angle_alpha   101.86266418
_cell_angle_beta   95.41512700
_cell_angle_gamma   100.08156367
_symmetry_Int_Tables_number   1
_chemical_formula_structural   LiMnSb2P
_chemical_formula_sum   'Li2 Mn2 Sb4 P2'
_cell_volume   146.42472297
_cell_formula_units_Z   2
loop_
 _symmetry_equiv_pos_site_id
 _symmetry_equiv_pos_as_xyz
  1  'x, y, z'
loop_
 _atom_site_type_symbol
 _atom_site_label
 _atom_site_symmetry_multiplicity
 _atom_site_fract_x
 _atom_site_fract_y
 _atom_site_fract_z
 _atom_site_occupancy
  Mn  Mn0  1  0.00000000  0.00000000  0.00000000  1
  Mn  Mn1  1  0.50000000  0.50000000  0.50000000  1
  Sb  Sb2  1  0.25000000  0.25000000  0.25000000  1
  Sb  Sb3  1  0.75000000  0.25000000  0.00000000  1
  Sb  Sb4  1  0.25000000  0.75000000  0.50000000  1
  Sb  Sb5  1  0.17400826  0.56900034  0.85771851  1
  P  P6  1  0.24004644  0.73062414  0.37376967  1
  P  P7  1  0.92610095  0.87850647  0.21348090  1
  Li  Li8  1  0.25652611  0.95624624  0.62720374  1
  Li  Li9  1  0.21162323  0.46948499  0.15821005  1
