# generated using pymatgen
data_Li2MnSb4P3N
_symmetry_space_group_name_H-M   'P 1'
_cell_length_a   5.11025343
_cell_length_b   5.17806411
_cell_length_c   6.42977890
_cell_angle_alpha   97.46402477
_cell_angle_beta   95.83836377
_cell_angle_gamma   96.67726245
_symmetry_Int_Tables_number   1
_chemical_formula_structural   Li2MnSb4P3N
_chemical_formula_sum   'Li2 Mn1 Sb4 P3 N1'
_cell_volume   166.37065222
_cell_formula_units_Z   1
loop_
 _symmetry_equiv_pos_site_id
 _symmetry_equiv_pos_as_xyz
  1  'x, y, z'
loop_
 _atom_site_type_symbol
 _atom_site_label
 _atom_site_symmetry_multiplicity
 _atom_site_fract_x
 _atom_site_fract_y
 _atom_site_fract_z
 _atom_site_occupancy
  N  N0  1  0.00000000  0.00000000  0.00000000  1
  Mn  Mn1  1  0.50000000  0.50000000  0.50000000  1
  Sb  Sb2  1  0.25000000  0.25000000  0.25000000  1
  Sb  Sb3  1  0.75000000  0.25000000  0.00000000  1
  Sb  Sb4  1  0.25000000  0.75000000  0.50000000  1
  Sb  Sb5  1  0.72755084  0.70401463  0.33956366  1
  P  P6  1  0.05565267  0.02394299  0.20232813  1
  P  P7  1  0.74698333  0.43958403  0.26606375  1
  P  P8  1  0.17708727  0.02541972  0.85770695  1
  Li  Li9  1  0.51806148  0.14561589  0.39248798  1
  Li  Li10  1  0.97025120  0.74856526  0.87098242  1
