# generated using pymatgen
data_Li2Ti2Se2NO
_symmetry_space_group_name_H-M   'P 1'
_cell_length_a   5.40765071
_cell_length_b   5.17020775
_cell_length_c   6.42070313
_cell_angle_alpha   100.36170937
_cell_angle_beta   107.70575596
_cell_angle_gamma   99.80109861
_symmetry_Int_Tables_number   1
_chemical_formula_structural   Li2Ti2Se2NO
_chemical_formula_sum   'Li2 Ti2 Se2 N1 O1'
_cell_volume   163.30424704
_cell_formula_units_Z   1
loop_
 _symmetry_equiv_pos_site_id
 _symmetry_equiv_pos_as_xyz
  1  'x, y, z'
loop_
 _atom_site_type_symbol
 _atom_site_label
 _atom_site_symmetry_multiplicity
 _atom_site_fract_x
 _atom_site_fract_y
 _atom_site_fract_z
 _atom_site_occupancy
  Li  Li0  1  0.00000000  0.00000000  0.00000000  1
  Li  Li1  1  0.50000000  0.50000000  0.50000000  1
  Se  Se2  1  0.50000000  0.50000000  0.00000000  1
  Se  Se3  1  0.50000000  0.00000000  0.50000000  1
  Ti  Ti4  1  0.00000000  0.50000000  0.50000000  1
  Ti  Ti5  1  0.64052030  0.26808977  0.46732171  1
  O  O6  1  0.28349238  0.95758595  0.80767931  1
  N  N7  1  0.43244649  0.57141141  0.98766506  1
