# generated using pymatgen
data_LiMnSb2P
_symmetry_space_group_name_H-M   'P 1'
_cell_length_a   5.60854324
_cell_length_b   6.05782293
_cell_length_c   6.81783393
_cell_angle_alpha   97.23616849
_cell_angle_beta   95.43798774
_cell_angle_gamma   96.22149699
_symmetry_Int_Tables_number   1
_chemical_formula_structural   LiMnSb2P
_chemical_formula_sum   'Li2 Mn2 Sb4 P2'
_cell_volume   227.05673139
_cell_formula_units_Z   2
loop_
 _symmetry_equiv_pos_site_id
 _symmetry_equiv_pos_as_xyz
  1  'x, y, z'
loop_
 _atom_site_type_symbol
 _atom_site_label
 _atom_site_symmetry_multiplicity
 _atom_site_fract_x
 _atom_site_fract_y
 _atom_site_fract_z
 _atom_site_occupancy
  Mn  Mn0  1  0.12500000  0.00000000  0.25000000  1
  Mn  Mn1  1  0.00000000  0.00000000  0.00000000  1
  Sb  Sb2  1  0.37500000  0.00000000  0.25000000  1
  Sb  Sb3  1  0.25000000  0.25000000  0.25000000  1
  Sb  Sb4  1  0.00000000  0.25000000  0.12500000  1
  Sb  Sb5  1  0.34221779  0.14844628  0.30305599  1
  P  P6  1  0.30486855  0.45909959  0.76377222  1
  P  P7  1  0.20977274  0.93681656  0.14261687  1
  Li  Li8  1  0.01470159  0.97292081  0.71509148  1
  Li  Li9  1  0.10078320  0.50226118  0.58869357  1
