# generated using pymatgen
data_LiTiAs3F
_symmetry_space_group_name_H-M   'P 1'
_cell_length_a   8.04850983
_cell_length_b   7.93348097
_cell_length_c   8.13393148
_cell_angle_alpha   90.29484567
_cell_angle_beta   91.40278614
_cell_angle_gamma   90.33708733
_symmetry_Int_Tables_number   1
_chemical_formula_structural   LiTiAs3F
_chemical_formula_sum   'Li2 Ti2 As6 F2'
_cell_volume   519.20157222
_cell_formula_units_Z   2
loop_
 _symmetry_equiv_pos_site_id
 _symmetry_equiv_pos_as_xyz
  1  'x, y, z'
loop_
 _atom_site_type_symbol
 _atom_site_label
 _atom_site_symmetry_multiplicity
 _atom_site_fract_x
 _atom_site_fract_y
 _atom_site_fract_z
 _atom_site_occupancy
  F  F0  1  0.00000000  0.00000000  0.00000000  1
  F  F1  1  0.50000000  0.50000000  0.50000000  1
  Ti  Ti2  1  0.25000000  0.25000000  0.25000000  1
  Ti  Ti3  1  0.75000000  0.25000000  0.00000000  1
  As  As4  1  0.25000000  0.75000000  0.50000000  1
  As  As5  1  0.95382993  0.75964423  0.54261612  1
  As  As6  1  0.20001412  0.19642903  0.64318551  1
  As  As7  1  0.89100919  0.83650172  0.81496511  1
  As  As8  1  0.79298153  0.85605454  0.90926576  1
  As  As9  1  0.00007850  0.68509852  0.27075260  1
  Li  Li10  1  0.11833378  0.70620568  0.39099028  1
  Li  Li11  1  0.55591954  0.05896979  0.87453549  1
