# generated using pymatgen
data_Li2Sb4Mo2P3
_symmetry_space_group_name_H-M   'P 1'
_cell_length_a   4.92301316
_cell_length_b   5.26068070
_cell_length_c   6.69765082
_cell_angle_alpha   99.35246544
_cell_angle_beta   94.98945218
_cell_angle_gamma   99.79622747
_symmetry_Int_Tables_number   1
_chemical_formula_structural   Li2Sb4Mo2P3
_chemical_formula_sum   'Li2 Sb4 Mo2 P3'
_cell_volume   167.48114867
_cell_formula_units_Z   1
loop_
 _symmetry_equiv_pos_site_id
 _symmetry_equiv_pos_as_xyz
  1  'x, y, z'
loop_
 _atom_site_type_symbol
 _atom_site_label
 _atom_site_symmetry_multiplicity
 _atom_site_fract_x
 _atom_site_fract_y
 _atom_site_fract_z
 _atom_site_occupancy
  Sb  Sb0  1  0.00000000  0.00000000  0.00000000  1
  Sb  Sb1  1  0.33300000  0.66700000  0.25000000  1
  Sb  Sb2  1  0.66700000  0.33300000  0.50000000  1
  Sb  Sb3  1  0.00000000  0.00000000  0.75000000  1
  P  P4  1  0.18574814  0.89742625  0.32919353  1
  P  P5  1  0.20818656  0.26847716  0.58055050  1
  P  P6  1  0.74135854  0.55719182  0.30479274  1
  Mo  Mo7  1  0.55375735  0.48342608  0.16351131  1
  Mo  Mo8  1  0.52344328  0.86826047  0.76136515  1
  Li  Li9  1  0.38666665  0.70166224  0.97571638  1
  Li  Li10  1  0.95945672  0.07983878  0.95287102  1
