# generated using pymatgen
data_LiMn2Sb4P3
_symmetry_space_group_name_H-M   'P 1'
_cell_length_a   6.10161480
_cell_length_b   6.46064944
_cell_length_c   6.77485400
_cell_angle_alpha   93.39708831
_cell_angle_beta   92.30596636
_cell_angle_gamma   93.64522031
_symmetry_Int_Tables_number   1
_chemical_formula_structural   LiMn2Sb4P3
_chemical_formula_sum   'Li1 Mn2 Sb4 P3'
_cell_volume   265.79910479
_cell_formula_units_Z   1
loop_
 _symmetry_equiv_pos_site_id
 _symmetry_equiv_pos_as_xyz
  1  'x, y, z'
loop_
 _atom_site_type_symbol
 _atom_site_label
 _atom_site_symmetry_multiplicity
 _atom_site_fract_x
 _atom_site_fract_y
 _atom_site_fract_z
 _atom_site_occupancy
  Mn  Mn0  1  0.00000000  0.00000000  0.00000000  1
  Mn  Mn1  1  0.33300000  0.66700000  0.25000000  1
  Sb  Sb2  1  0.66700000  0.33300000  0.50000000  1
  Sb  Sb3  1  0.00000000  0.00000000  0.75000000  1
  Sb  Sb4  1  0.10787207  0.72694539  0.88435846  1
  Sb  Sb5  1  0.45323595  0.56816600  0.07453412  1
  P  P6  1  0.02070786  0.44931959  0.19808207  1
  P  P7  1  0.67509964  0.75522347  0.41982046  1
  P  P8  1  0.40311432  0.50528583  0.36192662  1
  Li  Li9  1  0.15602440  0.06205288  0.00229442  1
