# generated using pymatgen
data_LiMn2P3
_symmetry_space_group_name_H-M   'P 1'
_cell_length_a   6.98948131
_cell_length_b   7.23549797
_cell_length_c   7.19637760
_cell_angle_alpha   90.82033044
_cell_angle_beta   90.37607603
_cell_angle_gamma   90.67005055
_symmetry_Int_Tables_number   1
_chemical_formula_structural   LiMn2P3
_chemical_formula_sum   'Li1 Mn2 P3'
_cell_volume   363.86749599
_cell_formula_units_Z   1
loop_
 _symmetry_equiv_pos_site_id
 _symmetry_equiv_pos_as_xyz
  1  'x, y, z'
loop_
 _atom_site_type_symbol
 _atom_site_label
 _atom_site_symmetry_multiplicity
 _atom_site_fract_x
 _atom_site_fract_y
 _atom_site_fract_z
 _atom_site_occupancy
  Mn  Mn0  1  0.00000000  0.00000000  0.00000000  1
  Mn  Mn1  1  0.33300000  0.66700000  0.25000000  1
  P  P2  1  0.66700000  0.33300000  0.50000000  1
  P  P3  1  0.00000000  0.00000000  0.75000000  1
  P  P4  1  0.27849410  0.71496170  0.22335266  1
  Li  Li5  1  0.80954378  0.18779301  0.17824853  1
