# generated using pymatgen
data_Li3Ti2Nb2(OF)3
_symmetry_space_group_name_H-M   'P 1'
_cell_length_a   5.01440957
_cell_length_b   4.69655840
_cell_length_c   6.98463740
_cell_angle_alpha   102.03887918
_cell_angle_beta   106.61263452
_cell_angle_gamma   101.35551397
_symmetry_Int_Tables_number   1
_chemical_formula_structural   Li3Ti2Nb2(OF)3
_chemical_formula_sum   'Li3 Ti2 Nb2 O3 F3'
_cell_volume   148.27125970
_cell_formula_units_Z   1
loop_
 _symmetry_equiv_pos_site_id
 _symmetry_equiv_pos_as_xyz
  1  'x, y, z'
loop_
 _atom_site_type_symbol
 _atom_site_label
 _atom_site_symmetry_multiplicity
 _atom_site_fract_x
 _atom_site_fract_y
 _atom_site_fract_z
 _atom_site_occupancy
  Li  Li0  1  0.00000000  0.00000000  0.00000000  1
  Li  Li1  1  0.50000000  0.50000000  0.50000000  1
  Li  Li2  1  0.50000000  0.50000000  0.00000000  1
  Nb  Nb3  1  0.50000000  0.00000000  0.50000000  1
  Nb  Nb4  1  0.00000000  0.50000000  0.50000000  1
  F  F5  1  0.80199894  0.78520275  0.61752637  1
  F  F6  1  0.75817982  0.28224822  0.55870423  1
  F  F7  1  0.62096886  0.59311112  0.43385797  1
  Ti  Ti8  1  0.51487606  0.76095634  0.76059800  1
  Ti  Ti9  1  0.85595593  0.22805432  0.33661351  1
  O  O10  1  0.33371001  0.42687781  0.63137971  1
  O  O11  1  0.18396413  0.72756299  0.43963843  1
  O  O12  1  0.17762557  0.38752727  0.93912171  1
