# generated using pymatgen
data_Li2Sb2Mo2P3
_symmetry_space_group_name_H-M   'P 1'
_cell_length_a   4.92740828
_cell_length_b   5.17469485
_cell_length_c   6.09076300
_cell_angle_alpha   101.92665101
_cell_angle_beta   90.39225549
_cell_angle_gamma   101.59512427
_symmetry_Int_Tables_number   1
_chemical_formula_structural   Li2Sb2Mo2P3
_chemical_formula_sum   'Li2 Sb2 Mo2 P3'
_cell_volume   148.65807605
_cell_formula_units_Z   1
loop_
 _symmetry_equiv_pos_site_id
 _symmetry_equiv_pos_as_xyz
  1  'x, y, z'
loop_
 _atom_site_type_symbol
 _atom_site_label
 _atom_site_symmetry_multiplicity
 _atom_site_fract_x
 _atom_site_fract_y
 _atom_site_fract_z
 _atom_site_occupancy
  Sb  Sb0  1  0.12500000  0.12500000  0.12500000  1
  Sb  Sb1  1  0.50000000  0.50000000  0.50000000  1
  P  P2  1  0.25000000  0.25000000  0.25000000  1
  P  P3  1  0.75000000  0.75000000  0.75000000  1
  P  P4  1  0.84393761  0.73818536  0.65964374  1
  Mo  Mo5  1  0.41128123  0.32289295  0.86201967  1
  Mo  Mo6  1  0.82559898  0.08371876  0.56598204  1
  Li  Li7  1  0.65104422  0.04983609  0.33193097  1
  Li  Li8  1  0.68343569  0.46816288  0.31539443  1
