# generated using pymatgen
data_Li3Ti3Cu2(As3O2)2
_symmetry_space_group_name_H-M   'P 1'
_cell_length_a   6.66264177
_cell_length_b   6.75356396
_cell_length_c   8.04203992
_cell_angle_alpha   96.24974084
_cell_angle_beta   97.86012060
_cell_angle_gamma   97.31932533
_symmetry_Int_Tables_number   1
_chemical_formula_structural   Li3Ti3Cu2(As3O2)2
_chemical_formula_sum   'Li3 Ti3 Cu2 As6 O4'
_cell_volume   352.59457024
_cell_formula_units_Z   1
loop_
 _symmetry_equiv_pos_site_id
 _symmetry_equiv_pos_as_xyz
  1  'x, y, z'
loop_
 _atom_site_type_symbol
 _atom_site_label
 _atom_site_symmetry_multiplicity
 _atom_site_fract_x
 _atom_site_fract_y
 _atom_site_fract_z
 _atom_site_occupancy
  Li  Li0  1  0.00000000  0.00000000  0.00000000  1
  Li  Li1  1  0.50000000  0.50000000  0.50000000  1
  Li  Li2  1  0.25000000  0.25000000  0.25000000  1
  Cu  Cu3  1  0.75000000  0.25000000  0.00000000  1
  Cu  Cu4  1  0.25000000  0.75000000  0.50000000  1
  Ti  Ti5  1  0.49186583  0.32600473  0.66457823  1
  Ti  Ti6  1  0.25541280  0.29687076  0.18005403  1
  Ti  Ti7  1  0.21162972  0.66209590  0.42256325  1
  As  As8  1  0.59255409  0.57338401  0.50165803  1
  As  As9  1  0.25073069  0.79472818  0.21248592  1
  As  As10  1  0.70324061  0.87214919  0.41480531  1
  As  As11  1  0.22142606  0.56190525  0.50434358  1
  As  As12  1  0.92084995  0.15347889  0.77021911  1
  As  As13  1  0.37262689  0.84688065  0.19067894  1
  O  O14  1  0.98357382  0.08264712  0.02016173  1
  O  O15  1  0.89087905  0.92312656  0.85158236  1
  O  O16  1  0.66210771  0.00652930  0.37747807  1
  O  O17  1  0.32104906  0.60004831  0.97959378  1
