# generated using pymatgen
data_LiNiAs3
_symmetry_space_group_name_H-M   'P 1'
_cell_length_a   7.60702513
_cell_length_b   7.62200972
_cell_length_c   8.73165780
_cell_angle_alpha   91.04171572
_cell_angle_beta   91.68308386
_cell_angle_gamma   91.20330490
_symmetry_Int_Tables_number   1
_chemical_formula_structural   LiNiAs3
_chemical_formula_sum   'Li2 Ni2 As6'
_cell_volume   505.84915306
_cell_formula_units_Z   2
loop_
 _symmetry_equiv_pos_site_id
 _symmetry_equiv_pos_as_xyz
  1  'x, y, z'
loop_
 _atom_site_type_symbol
 _atom_site_label
 _atom_site_symmetry_multiplicity
 _atom_site_fract_x
 _atom_site_fract_y
 _atom_site_fract_z
 _atom_site_occupancy
  Ni  Ni0  1  0.00000000  0.00000000  0.00000000  1
  Ni  Ni1  1  0.50000000  0.50000000  0.50000000  1
  As  As2  1  0.50000000  0.50000000  0.00000000  1
  As  As3  1  0.50000000  0.00000000  0.50000000  1
  As  As4  1  0.00000000  0.50000000  0.50000000  1
  As  As5  1  0.80839784  0.95102954  0.29300417  1
  As  As6  1  0.50385378  0.84121187  0.67439602  1
  As  As7  1  0.98724121  0.02993089  0.70988267  1
  Li  Li8  1  0.32903123  0.91914287  0.69712084  1
  Li  Li9  1  0.93184937  0.83451223  0.66662491  1
