# generated using pymatgen
data_Li3LuNi2N5
_symmetry_space_group_name_H-M   'P 1'
_cell_length_a   7.45344955
_cell_length_b   7.37337746
_cell_length_c   8.64049900
_cell_angle_alpha   91.92307655
_cell_angle_beta   91.79194298
_cell_angle_gamma   92.22634147
_symmetry_Int_Tables_number   1
_chemical_formula_structural   Li3LuNi2N5
_chemical_formula_sum   'Li3 Lu1 Ni2 N5'
_cell_volume   473.97873044
_cell_formula_units_Z   1
loop_
 _symmetry_equiv_pos_site_id
 _symmetry_equiv_pos_as_xyz
  1  'x, y, z'
loop_
 _atom_site_type_symbol
 _atom_site_label
 _atom_site_symmetry_multiplicity
 _atom_site_fract_x
 _atom_site_fract_y
 _atom_site_fract_z
 _atom_site_occupancy
  Lu  Lu0  1  0.00000000  0.00000000  0.00000000  1
  Li  Li1  1  0.50000000  0.50000000  0.50000000  1
  Li  Li2  1  0.25000000  0.25000000  0.25000000  1
  Li  Li3  1  0.75000000  0.25000000  0.00000000  1
  Ni  Ni4  1  0.25000000  0.75000000  0.50000000  1
  Ni  Ni5  1  0.07437692  0.31745573  0.77625371  1
  N  N6  1  0.84157289  0.44719815  0.60573508  1
  N  N7  1  0.57228605  0.78923763  0.58116948  1
  N  N8  1  0.80228736  0.74997346  0.81973292  1
  N  N9  1  0.35863516  0.56521316  0.10782610  1
  N  N10  1  0.95209993  0.33228162  0.41752911  1
