# generated using pymatgen
data_LiCuNiO2
_symmetry_space_group_name_H-M   'P 1'
_cell_length_a   6.80660924
_cell_length_b   6.66830918
_cell_length_c   7.98635791
_cell_angle_alpha   93.82920708
_cell_angle_beta   94.97898738
_cell_angle_gamma   94.40149313
_symmetry_Int_Tables_number   1
_chemical_formula_structural   LiCuNiO2
_chemical_formula_sum   'Li2 Cu2 Ni2 O4'
_cell_volume   359.07097531
_cell_formula_units_Z   2
loop_
 _symmetry_equiv_pos_site_id
 _symmetry_equiv_pos_as_xyz
  1  'x, y, z'
loop_
 _atom_site_type_symbol
 _atom_site_label
 _atom_site_symmetry_multiplicity
 _atom_site_fract_x
 _atom_site_fract_y
 _atom_site_fract_z
 _atom_site_occupancy
  Li  Li0  1  0.00000000  0.00000000  0.00000000  1
  Li  Li1  1  0.50000000  0.50000000  0.50000000  1
  Cu  Cu2  1  0.25000000  0.25000000  0.25000000  1
  Cu  Cu3  1  0.75000000  0.25000000  0.00000000  1
  Ni  Ni4  1  0.25000000  0.75000000  0.50000000  1
  Ni  Ni5  1  0.18464183  0.88596695  0.18598956  1
  O  O6  1  0.94380118  0.01078099  0.07990441  1
  O  O7  1  0.69052744  0.94492342  0.21904364  1
  O  O8  1  0.91621098  0.32509573  0.77621090  1
  O  O9  1  0.80040499  0.69109878  0.88125457  1
