# generated using pymatgen
data_Li2Ni3Mo2P3
_symmetry_space_group_name_H-M   'P 1'
_cell_length_a   4.79121734
_cell_length_b   4.46009415
_cell_length_c   5.52264221
_cell_angle_alpha   96.53183963
_cell_angle_beta   88.66152150
_cell_angle_gamma   95.35921626
_symmetry_Int_Tables_number   1
_chemical_formula_structural   Li2Ni3Mo2P3
_chemical_formula_sum   'Li2 Ni3 Mo2 P3'
_cell_volume   116.72662774
_cell_formula_units_Z   1
loop_
 _symmetry_equiv_pos_site_id
 _symmetry_equiv_pos_as_xyz
  1  'x, y, z'
loop_
 _atom_site_type_symbol
 _atom_site_label
 _atom_site_symmetry_multiplicity
 _atom_site_fract_x
 _atom_site_fract_y
 _atom_site_fract_z
 _atom_site_occupancy
  P  P0  1  0.12500000  0.12500000  0.12500000  1
  P  P1  1  0.50000000  0.50000000  0.50000000  1
  P  P2  1  0.25000000  0.25000000  0.25000000  1
  Mo  Mo3  1  0.75000000  0.75000000  0.75000000  1
  Mo  Mo4  1  0.42742411  0.22865846  0.05427317  1
  Li  Li5  1  0.36979772  0.96521789  0.58043685  1
  Li  Li6  1  0.44665100  0.03970131  0.56729021  1
  Ni  Ni7  1  0.14457078  0.18170326  0.02443696  1
  Ni  Ni8  1  0.98958445  0.54039448  0.68610395  1
  Ni  Ni9  1  0.74901223  0.33962600  0.35680655  1
