# generated using pymatgen
data_LiAl3Cl(OF)3
_symmetry_space_group_name_H-M   'P 1'
_cell_length_a   6.13303870
_cell_length_b   5.31791464
_cell_length_c   7.19025804
_cell_angle_alpha   91.11633684
_cell_angle_beta   95.31119164
_cell_angle_gamma   91.27627109
_symmetry_Int_Tables_number   1
_chemical_formula_structural   LiAl3Cl(OF)3
_chemical_formula_sum   'Li1 Al3 Cl1 O3 F3'
_cell_volume   233.39065176
_cell_formula_units_Z   1
loop_
 _symmetry_equiv_pos_site_id
 _symmetry_equiv_pos_as_xyz
  1  'x, y, z'
loop_
 _atom_site_type_symbol
 _atom_site_label
 _atom_site_symmetry_multiplicity
 _atom_site_fract_x
 _atom_site_fract_y
 _atom_site_fract_z
 _atom_site_occupancy
  O  O0  1  0.00000000  0.00000000  0.00000000  1
  O  O1  1  0.50000000  0.50000000  0.50000000  1
  O  O2  1  0.25000000  0.25000000  0.25000000  1
  Li  Li3  1  0.75000000  0.25000000  0.00000000  1
  F  F4  1  0.25000000  0.75000000  0.50000000  1
  F  F5  1  0.53564346  0.94797827  0.66506067  1
  F  F6  1  0.72014310  0.26499200  0.60810146  1
  Cl  Cl7  1  0.24561892  0.49347248  0.23912190  1
  Al  Al8  1  0.44389167  0.45943608  0.31491304  1
  Al  Al9  1  0.02742934  0.87218214  0.02605723  1
  Al  Al10  1  0.57405146  0.25391926  0.25955277  1
