# generated using pymatgen
data_Li2As6P3SeCl2
_symmetry_space_group_name_H-M   'P 1'
_cell_length_a   6.99894385
_cell_length_b   6.70536640
_cell_length_c   7.35208698
_cell_angle_alpha   95.53783682
_cell_angle_beta   96.83962734
_cell_angle_gamma   95.32598855
_symmetry_Int_Tables_number   1
_chemical_formula_structural   Li2As6P3SeCl2
_chemical_formula_sum   'Li2 As6 P3 Se1 Cl2'
_cell_volume   339.07764244
_cell_formula_units_Z   1
loop_
 _symmetry_equiv_pos_site_id
 _symmetry_equiv_pos_as_xyz
  1  'x, y, z'
loop_
 _atom_site_type_symbol
 _atom_site_label
 _atom_site_symmetry_multiplicity
 _atom_site_fract_x
 _atom_site_fract_y
 _atom_site_fract_z
 _atom_site_occupancy
  P  P0  1  0.12500000  0.00000000  0.25000000  1
  P  P1  1  0.00000000  0.00000000  0.00000000  1
  P  P2  1  0.37500000  0.00000000  0.25000000  1
  Li  Li3  1  0.25000000  0.25000000  0.25000000  1
  Li  Li4  1  0.00000000  0.25000000  0.12500000  1
  Se  Se5  1  0.27198846  0.75884265  0.07179234  1
  Cl  Cl6  1  0.41010351  0.56015237  0.94920513  1
  Cl  Cl7  1  0.43930927  0.08465184  0.31718608  1
  As  As8  1  0.47378099  0.83867583  0.64529248  1
  As  As9  1  0.60752249  0.97531226  0.53576734  1
  As  As10  1  0.27323722  0.91258260  0.20435494  1
  As  As11  1  0.18568430  0.25881002  0.08797979  1
  As  As12  1  0.53803029  0.44549234  0.20767736  1
  As  As13  1  0.97994780  0.67285093  0.23185978  1
