# generated using pymatgen
data_Li4LaZr2ZnF3
_symmetry_space_group_name_H-M   'P 1'
_cell_length_a   6.52153616
_cell_length_b   6.52340165
_cell_length_c   6.01920824
_cell_angle_alpha   92.91850867
_cell_angle_beta   93.35599507
_cell_angle_gamma   90.60619145
_symmetry_Int_Tables_number   1
_chemical_formula_structural   Li4LaZr2ZnF3
_chemical_formula_sum   'Li4 La1 Zr2 Zn1 F3'
_cell_volume   255.27844069
_cell_formula_units_Z   1
loop_
 _symmetry_equiv_pos_site_id
 _symmetry_equiv_pos_as_xyz
  1  'x, y, z'
loop_
 _atom_site_type_symbol
 _atom_site_label
 _atom_site_symmetry_multiplicity
 _atom_site_fract_x
 _atom_site_fract_y
 _atom_site_fract_z
 _atom_site_occupancy
  Zn  Zn0  1  0.00000000  0.00000000  0.00000000  1
  F  F1  1  0.50000000  0.50000000  0.50000000  1
  F  F2  1  0.25000000  0.25000000  0.25000000  1
  F  F3  1  0.75000000  0.25000000  0.00000000  1
  La  La4  1  0.25000000  0.75000000  0.50000000  1
  Zr  Zr5  1  0.80740314  0.80014022  0.36521280  1
  Zr  Zr6  1  0.10454148  0.52205096  0.40769280  1
  Li  Li7  1  0.29795403  0.26015589  0.35108276  1
  Li  Li8  1  0.55860478  0.93405456  0.85150958  1
  Li  Li9  1  0.04147392  0.14987469  0.05368399  1
  Li  Li10  1  0.48151066  0.45539876  0.79647602  1
