# generated using pymatgen
data_Li4Ti2P3N5O3
_symmetry_space_group_name_H-M   'P 1'
_cell_length_a   6.64410580
_cell_length_b   5.96129749
_cell_length_c   7.16268097
_cell_angle_alpha   96.28875328
_cell_angle_beta   92.22333835
_cell_angle_gamma   97.29419250
_symmetry_Int_Tables_number   1
_chemical_formula_structural   Li4Ti2P3N5O3
_chemical_formula_sum   'Li4 Ti2 P3 N5 O3'
_cell_volume   279.30673920
_cell_formula_units_Z   1
loop_
 _symmetry_equiv_pos_site_id
 _symmetry_equiv_pos_as_xyz
  1  'x, y, z'
loop_
 _atom_site_type_symbol
 _atom_site_label
 _atom_site_symmetry_multiplicity
 _atom_site_fract_x
 _atom_site_fract_y
 _atom_site_fract_z
 _atom_site_occupancy
  P  P0  1  0.12500000  0.00000000  0.25000000  1
  P  P1  1  0.00000000  0.00000000  0.00000000  1
  P  P2  1  0.37500000  0.00000000  0.25000000  1
  Li  Li3  1  0.25000000  0.25000000  0.25000000  1
  Li  Li4  1  0.00000000  0.25000000  0.12500000  1
  Li  Li5  1  0.45623046  0.61810759  0.17775610  1
  Li  Li6  1  0.44621297  0.99418707  0.30271152  1
  Ti  Ti7  1  0.46074957  0.69963216  0.88870651  1
  Ti  Ti8  1  0.65260159  0.26772318  0.01162773  1
  O  O9  1  0.90085935  0.09094077  0.68698733  1
  O  O10  1  0.20921484  0.79166674  0.66887938  1
  O  O11  1  0.56937398  0.51203605  0.79701950  1
  N  N12  1  0.43943198  0.33220684  0.10752588  1
  N  N13  1  0.85358716  0.03379271  0.35366970  1
  N  N14  1  0.91353257  0.21025304  0.88385152  1
  N  N15  1  0.85049061  0.71840530  0.84368912  1
  N  N16  1  0.98947808  0.94176699  0.93698504  1
