# generated using pymatgen
data_Li3Cu2I4O5
_symmetry_space_group_name_H-M   'P 1'
_cell_length_a   8.29820182
_cell_length_b   8.13951856
_cell_length_c   7.79757017
_cell_angle_alpha   90.78766963
_cell_angle_beta   90.59739636
_cell_angle_gamma   90.91239848
_symmetry_Int_Tables_number   1
_chemical_formula_structural   Li3Cu2I4O5
_chemical_formula_sum   'Li3 Cu2 I4 O5'
_cell_volume   526.52776191
_cell_formula_units_Z   1
loop_
 _symmetry_equiv_pos_site_id
 _symmetry_equiv_pos_as_xyz
  1  'x, y, z'
loop_
 _atom_site_type_symbol
 _atom_site_label
 _atom_site_symmetry_multiplicity
 _atom_site_fract_x
 _atom_site_fract_y
 _atom_site_fract_z
 _atom_site_occupancy
  I  I0  1  0.00000000  0.00000000  0.00000000  1
  I  I1  1  0.33300000  0.66700000  0.25000000  1
  I  I2  1  0.66700000  0.33300000  0.50000000  1
  I  I3  1  0.00000000  0.00000000  0.75000000  1
  Li  Li4  1  0.05543301  0.52454376  0.87084017  1
  Li  Li5  1  0.89704341  0.02690204  0.97279170  1
  Li  Li6  1  0.47469001  0.49516717  0.45093724  1
  Cu  Cu7  1  0.35599105  0.48677948  0.20782902  1
  Cu  Cu8  1  0.42806778  0.40842548  0.43987332  1
  O  O9  1  0.08012941  0.68501490  0.86593819  1
  O  O10  1  0.12103610  0.75266111  0.62574590  1
  O  O11  1  0.09625467  0.61797154  0.27349875  1
  O  O12  1  0.40602846  0.34383671  0.92725114  1
  O  O13  1  0.87220959  0.07072559  0.50500479  1
