# generated using pymatgen
data_LiMn2Sb4Mo2P3
_symmetry_space_group_name_H-M   'P 1'
_cell_length_a   5.56841796
_cell_length_b   5.84750715
_cell_length_c   6.48230276
_cell_angle_alpha   93.57358737
_cell_angle_beta   92.15700612
_cell_angle_gamma   93.85129548
_symmetry_Int_Tables_number   1
_chemical_formula_structural   LiMn2Sb4Mo2P3
_chemical_formula_sum   'Li1 Mn2 Sb4 Mo2 P3'
_cell_volume   210.00099710
_cell_formula_units_Z   1
loop_
 _symmetry_equiv_pos_site_id
 _symmetry_equiv_pos_as_xyz
  1  'x, y, z'
loop_
 _atom_site_type_symbol
 _atom_site_label
 _atom_site_symmetry_multiplicity
 _atom_site_fract_x
 _atom_site_fract_y
 _atom_site_fract_z
 _atom_site_occupancy
  Mn  Mn0  1  0.00000000  0.00000000  0.00000000  1
  Mn  Mn1  1  0.50000000  0.50000000  0.50000000  1
  Sb  Sb2  1  0.25000000  0.25000000  0.25000000  1
  Sb  Sb3  1  0.75000000  0.25000000  0.00000000  1
  Sb  Sb4  1  0.25000000  0.75000000  0.50000000  1
  Sb  Sb5  1  0.98645075  0.78586602  0.28868226  1
  P  P6  1  0.91265634  0.57446866  0.72715358  1
  P  P7  1  0.67516311  0.89486559  0.99220367  1
  P  P8  1  0.82556899  0.53794043  0.83363338  1
  Mo  Mo9  1  0.93982746  0.06470236  0.95427599  1
  Mo  Mo10  1  0.54313041  0.42404653  0.85584993  1
  Li  Li11  1  0.53838862  0.77829897  0.50279406  1
