# generated using pymatgen
data_Li2Cu2Ni2As6F3
_symmetry_space_group_name_H-M   'P 1'
_cell_length_a   7.47481767
_cell_length_b   7.56191280
_cell_length_c   8.50687306
_cell_angle_alpha   90.92156500
_cell_angle_beta   92.18528702
_cell_angle_gamma   91.06004779
_symmetry_Int_Tables_number   1
_chemical_formula_structural   Li2Cu2Ni2As6F3
_chemical_formula_sum   'Li2 Cu2 Ni2 As6 F3'
_cell_volume   480.34204298
_cell_formula_units_Z   1
loop_
 _symmetry_equiv_pos_site_id
 _symmetry_equiv_pos_as_xyz
  1  'x, y, z'
loop_
 _atom_site_type_symbol
 _atom_site_label
 _atom_site_symmetry_multiplicity
 _atom_site_fract_x
 _atom_site_fract_y
 _atom_site_fract_z
 _atom_site_occupancy
  F  F0  1  0.12500000  0.00000000  0.25000000  1
  F  F1  1  0.00000000  0.00000000  0.00000000  1
  F  F2  1  0.37500000  0.00000000  0.25000000  1
  Ni  Ni3  1  0.25000000  0.25000000  0.25000000  1
  Ni  Ni4  1  0.00000000  0.25000000  0.12500000  1
  As  As5  1  0.20826175  0.39231060  0.75505726  1
  As  As6  1  0.55309628  0.95076142  0.67872019  1
  As  As7  1  0.57666480  0.16702516  0.09650003  1
  As  As8  1  0.67616487  0.62185451  0.17896826  1
  As  As9  1  0.15387422  0.08732551  0.34200707  1
  As  As10  1  0.99640396  0.37827821  0.12730101  1
  Li  Li11  1  0.63258757  0.72749880  0.44762778  1
  Li  Li12  1  0.08684292  0.76730234  0.55549506  1
  Cu  Cu13  1  0.06534346  0.39851875  0.61885847  1
  Cu  Cu14  1  0.92510325  0.33054282  0.56864022  1
