# generated using pymatgen
data_LiMnMo2P3
_symmetry_space_group_name_H-M   'P 1'
_cell_length_a   4.68966543
_cell_length_b   4.83996994
_cell_length_c   6.06068374
_cell_angle_alpha   98.81229874
_cell_angle_beta   92.26234166
_cell_angle_gamma   98.62428129
_symmetry_Int_Tables_number   1
_chemical_formula_structural   LiMnMo2P3
_chemical_formula_sum   'Li1 Mn1 Mo2 P3'
_cell_volume   134.12863993
_cell_formula_units_Z   1
loop_
 _symmetry_equiv_pos_site_id
 _symmetry_equiv_pos_as_xyz
  1  'x, y, z'
loop_
 _atom_site_type_symbol
 _atom_site_label
 _atom_site_symmetry_multiplicity
 _atom_site_fract_x
 _atom_site_fract_y
 _atom_site_fract_z
 _atom_site_occupancy
  Mn  Mn0  1  0.00000000  0.00000000  0.00000000  1
  P  P1  1  0.50000000  0.50000000  0.50000000  1
  P  P2  1  0.25000000  0.25000000  0.25000000  1
  P  P3  1  0.75000000  0.25000000  0.00000000  1
  Mo  Mo4  1  0.25000000  0.75000000  0.50000000  1
  Mo  Mo5  1  0.05681587  0.34367537  0.72980406  1
  Li  Li6  1  0.42222659  0.77255293  0.17642182  1
