# generated using pymatgen
data_Li2TiS2O3
_symmetry_space_group_name_H-M   'P 1'
_cell_length_a   7.68048208
_cell_length_b   7.56939279
_cell_length_c   7.04689399
_cell_angle_alpha   92.40994083
_cell_angle_beta   93.60199341
_cell_angle_gamma   92.76352699
_symmetry_Int_Tables_number   1
_chemical_formula_structural   Li2TiS2O3
_chemical_formula_sum   'Li2 Ti1 S2 O3'
_cell_volume   407.97977307
_cell_formula_units_Z   1
loop_
 _symmetry_equiv_pos_site_id
 _symmetry_equiv_pos_as_xyz
  1  'x, y, z'
loop_
 _atom_site_type_symbol
 _atom_site_label
 _atom_site_symmetry_multiplicity
 _atom_site_fract_x
 _atom_site_fract_y
 _atom_site_fract_z
 _atom_site_occupancy
  Li  Li0  1  0.00000000  0.00000000  0.00000000  1
  Li  Li1  1  0.50000000  0.50000000  0.50000000  1
  S  S2  1  0.50000000  0.50000000  0.00000000  1
  S  S3  1  0.50000000  0.00000000  0.50000000  1
  Ti  Ti4  1  0.00000000  0.50000000  0.50000000  1
  O  O5  1  0.04244877  0.60222875  0.14489691  1
  O  O6  1  0.57372684  0.41566594  0.47219940  1
  O  O7  1  0.30524236  0.50180471  0.16526402  1
