# generated using pymatgen
data_Li2MnSb4P2N
_symmetry_space_group_name_H-M   'P 1'
_cell_length_a   5.29344147
_cell_length_b   5.55507060
_cell_length_c   6.67684620
_cell_angle_alpha   98.90547356
_cell_angle_beta   98.04844881
_cell_angle_gamma   96.60434088
_symmetry_Int_Tables_number   1
_chemical_formula_structural   Li2MnSb4P2N
_chemical_formula_sum   'Li2 Mn1 Sb4 P2 N1'
_cell_volume   190.17402708
_cell_formula_units_Z   1
loop_
 _symmetry_equiv_pos_site_id
 _symmetry_equiv_pos_as_xyz
  1  'x, y, z'
loop_
 _atom_site_type_symbol
 _atom_site_label
 _atom_site_symmetry_multiplicity
 _atom_site_fract_x
 _atom_site_fract_y
 _atom_site_fract_z
 _atom_site_occupancy
  N  N0  1  0.12500000  0.00000000  0.25000000  1
  Mn  Mn1  1  0.00000000  0.00000000  0.00000000  1
  Sb  Sb2  1  0.37500000  0.00000000  0.25000000  1
  Sb  Sb3  1  0.25000000  0.25000000  0.25000000  1
  Sb  Sb4  1  0.00000000  0.25000000  0.12500000  1
  Sb  Sb5  1  0.61085724  0.05942915  0.39958583  1
  P  P6  1  0.85031227  0.98383244  0.96083929  1
  P  P7  1  0.56594415  0.97976604  0.76566063  1
  Li  Li8  1  0.55116076  0.06258218  0.75171456  1
  Li  Li9  1  0.15106226  0.00810947  0.40006074  1
