# generated using pymatgen
data_Li2Mn3Sb4P3
_symmetry_space_group_name_H-M   'P 1'
_cell_length_a   6.55148589
_cell_length_b   6.82610127
_cell_length_c   7.06465789
_cell_angle_alpha   95.43449352
_cell_angle_beta   90.27148971
_cell_angle_gamma   95.32640142
_symmetry_Int_Tables_number   1
_chemical_formula_structural   Li2Mn3Sb4P3
_chemical_formula_sum   'Li2 Mn3 Sb4 P3'
_cell_volume   313.13194788
_cell_formula_units_Z   1
loop_
 _symmetry_equiv_pos_site_id
 _symmetry_equiv_pos_as_xyz
  1  'x, y, z'
loop_
 _atom_site_type_symbol
 _atom_site_label
 _atom_site_symmetry_multiplicity
 _atom_site_fract_x
 _atom_site_fract_y
 _atom_site_fract_z
 _atom_site_occupancy
  Mn  Mn0  1  0.00000000  0.00000000  0.00000000  1
  Mn  Mn1  1  0.50000000  0.50000000  0.50000000  1
  Mn  Mn2  1  0.25000000  0.25000000  0.25000000  1
  Sb  Sb3  1  0.75000000  0.25000000  0.00000000  1
  Sb  Sb4  1  0.25000000  0.75000000  0.50000000  1
  Sb  Sb5  1  0.10932963  0.63974578  0.59982832  1
  Sb  Sb6  1  0.03288782  0.33773744  0.85512203  1
  P  P7  1  0.69063846  0.57580788  0.10566902  1
  P  P8  1  0.50059062  0.09906131  0.82817756  1
  P  P9  1  0.62556195  0.01149886  0.18996515  1
  Li  Li10  1  0.40155840  0.42464816  0.00093912  1
  Li  Li11  1  0.24162208  0.35375474  0.83969107  1
