# generated using pymatgen
data_Li2Ti3Nb2P4O3
_symmetry_space_group_name_H-M   'P 1'
_cell_length_a   6.72215936
_cell_length_b   6.49218634
_cell_length_c   8.00836501
_cell_angle_alpha   91.45729484
_cell_angle_beta   93.57472408
_cell_angle_gamma   91.67874551
_symmetry_Int_Tables_number   1
_chemical_formula_structural   Li2Ti3Nb2P4O3
_chemical_formula_sum   'Li2 Ti3 Nb2 P4 O3'
_cell_volume   348.53725643
_cell_formula_units_Z   1
loop_
 _symmetry_equiv_pos_site_id
 _symmetry_equiv_pos_as_xyz
  1  'x, y, z'
loop_
 _atom_site_type_symbol
 _atom_site_label
 _atom_site_symmetry_multiplicity
 _atom_site_fract_x
 _atom_site_fract_y
 _atom_site_fract_z
 _atom_site_occupancy
  P  P0  1  0.12500000  0.00000000  0.25000000  1
  P  P1  1  0.00000000  0.00000000  0.00000000  1
  P  P2  1  0.37500000  0.00000000  0.25000000  1
  P  P3  1  0.25000000  0.25000000  0.25000000  1
  Li  Li4  1  0.00000000  0.25000000  0.12500000  1
  Li  Li5  1  0.55790512  0.33938840  0.84869356  1
  Nb  Nb6  1  0.35419974  0.16033505  0.07980862  1
  Nb  Nb7  1  0.33960396  0.40780405  0.03716699  1
  Ti  Ti8  1  0.48703955  0.64056404  0.45432985  1
  Ti  Ti9  1  0.58935475  0.29513697  0.93543759  1
  Ti  Ti10  1  0.44551105  0.28387295  0.05044551  1
  O  O11  1  0.78074276  0.41424980  0.40790923  1
  O  O12  1  0.69695329  0.27368478  0.71350420  1
  O  O13  1  0.68821300  0.35145144  0.44363057  1
