# generated using pymatgen
data_Li2Mn2Sb4P3
_symmetry_space_group_name_H-M   'P 1'
_cell_length_a   5.89083238
_cell_length_b   6.17562404
_cell_length_c   6.75461400
_cell_angle_alpha   97.97495650
_cell_angle_beta   90.84715763
_cell_angle_gamma   97.87882977
_symmetry_Int_Tables_number   1
_chemical_formula_structural   Li2Mn2Sb4P3
_chemical_formula_sum   'Li2 Mn2 Sb4 P3'
_cell_volume   240.91305303
_cell_formula_units_Z   1
loop_
 _symmetry_equiv_pos_site_id
 _symmetry_equiv_pos_as_xyz
  1  'x, y, z'
loop_
 _atom_site_type_symbol
 _atom_site_label
 _atom_site_symmetry_multiplicity
 _atom_site_fract_x
 _atom_site_fract_y
 _atom_site_fract_z
 _atom_site_occupancy
  Mn  Mn0  1  0.00000000  0.00000000  0.00000000  1
  Mn  Mn1  1  0.33300000  0.66700000  0.25000000  1
  Sb  Sb2  1  0.66700000  0.33300000  0.50000000  1
  Sb  Sb3  1  0.00000000  0.00000000  0.75000000  1
  Sb  Sb4  1  0.31635164  0.27258179  0.09667481  1
  Sb  Sb5  1  0.43171111  0.24243723  0.99523186  1
  P  P6  1  0.48516944  0.92201351  0.16228463  1
  P  P7  1  0.14823843  0.42078536  0.73126903  1
  P  P8  1  0.45106467  0.86688111  0.94106898  1
  Li  Li9  1  0.77505639  0.43885109  0.72420717  1
  Li  Li10  1  0.41947839  0.13970811  0.91524345  1
