# generated using pymatgen
data_LiAs3
_symmetry_space_group_name_H-M   'P 1'
_cell_length_a   8.16434381
_cell_length_b   8.19837122
_cell_length_c   7.90556217
_cell_angle_alpha   90.23763486
_cell_angle_beta   91.13059448
_cell_angle_gamma   90.27168010
_symmetry_Int_Tables_number   1
_chemical_formula_structural   LiAs3
_chemical_formula_sum   'Li2 As6'
_cell_volume   529.03971493
_cell_formula_units_Z   2
loop_
 _symmetry_equiv_pos_site_id
 _symmetry_equiv_pos_as_xyz
  1  'x, y, z'
loop_
 _atom_site_type_symbol
 _atom_site_label
 _atom_site_symmetry_multiplicity
 _atom_site_fract_x
 _atom_site_fract_y
 _atom_site_fract_z
 _atom_site_occupancy
  As  As0  1  0.00000000  0.00000000  0.00000000  1
  As  As1  1  0.33300000  0.66700000  0.25000000  1
  As  As2  1  0.66700000  0.33300000  0.50000000  1
  As  As3  1  0.00000000  0.00000000  0.75000000  1
  As  As4  1  0.88748304  0.17428361  0.57009367  1
  As  As5  1  0.02759907  0.95951760  0.05960254  1
  Li  Li6  1  0.70887875  0.53470602  0.01924470  1
  Li  Li7  1  0.17751381  0.21457719  0.34153140  1
