# generated using pymatgen
data_LiMn2(SbP)3
_symmetry_space_group_name_H-M   'P 1'
_cell_length_a   6.82379440
_cell_length_b   7.14303310
_cell_length_c   7.21362930
_cell_angle_alpha   91.83571952
_cell_angle_beta   91.03599769
_cell_angle_gamma   91.99656189
_symmetry_Int_Tables_number   1
_chemical_formula_structural   LiMn2(SbP)3
_chemical_formula_sum   'Li1 Mn2 Sb3 P3'
_cell_volume   351.15230615
_cell_formula_units_Z   1
loop_
 _symmetry_equiv_pos_site_id
 _symmetry_equiv_pos_as_xyz
  1  'x, y, z'
loop_
 _atom_site_type_symbol
 _atom_site_label
 _atom_site_symmetry_multiplicity
 _atom_site_fract_x
 _atom_site_fract_y
 _atom_site_fract_z
 _atom_site_occupancy
  Mn  Mn0  1  0.00000000  0.00000000  0.00000000  1
  Mn  Mn1  1  0.33300000  0.66700000  0.25000000  1
  Sb  Sb2  1  0.66700000  0.33300000  0.50000000  1
  Sb  Sb3  1  0.00000000  0.00000000  0.75000000  1
  Sb  Sb4  1  0.11784552  0.48145524  0.85538920  1
  P  P5  1  0.29262586  0.06090297  0.53392729  1
  P  P6  1  0.12472156  0.10786502  0.05016232  1
  P  P7  1  0.63457794  0.69837225  0.31581297  1
  Li  Li8  1  0.68639215  0.93759327  0.96279813  1
