# generated using pymatgen
data_Li2TiNi2(As3I2)2
_symmetry_space_group_name_H-M   'P 1'
_cell_length_a   7.99076070
_cell_length_b   8.04915296
_cell_length_c   8.24505656
_cell_angle_alpha   90.27870421
_cell_angle_beta   91.32598999
_cell_angle_gamma   90.31863333
_symmetry_Int_Tables_number   1
_chemical_formula_structural   Li2TiNi2(As3I2)2
_chemical_formula_sum   'Li2 Ti1 Ni2 As6 I4'
_cell_volume   530.15577807
_cell_formula_units_Z   1
loop_
 _symmetry_equiv_pos_site_id
 _symmetry_equiv_pos_as_xyz
  1  'x, y, z'
loop_
 _atom_site_type_symbol
 _atom_site_label
 _atom_site_symmetry_multiplicity
 _atom_site_fract_x
 _atom_site_fract_y
 _atom_site_fract_z
 _atom_site_occupancy
  Ni  Ni0  1  0.00000000  0.00000000  0.00000000  1
  Ni  Ni1  1  0.50000000  0.50000000  0.50000000  1
  Ti  Ti2  1  0.25000000  0.25000000  0.25000000  1
  I  I3  1  0.75000000  0.25000000  0.00000000  1
  I  I4  1  0.25000000  0.75000000  0.50000000  1
  I  I5  1  0.65641105  0.67935223  0.78249290  1
  I  I6  1  0.96236555  0.63128639  0.66532666  1
  As  As7  1  0.64478268  0.75105579  0.66336232  1
  As  As8  1  0.68928673  0.19221885  0.30539661  1
  As  As9  1  0.49248058  0.03811460  0.28813683  1
  As  As10  1  0.89320479  0.13275201  0.37680672  1
  As  As11  1  0.81827986  0.74760770  0.15748365  1
  As  As12  1  0.24202668  0.43875084  0.74043231  1
  Li  Li13  1  0.18137175  0.89765942  0.54533234  1
  Li  Li14  1  0.44592126  0.43364806  0.65905456  1
