# generated using pymatgen
data_Li3Ti(SF)2
_symmetry_space_group_name_H-M   'P 1'
_cell_length_a   7.02142119
_cell_length_b   7.28919494
_cell_length_c   7.90372855
_cell_angle_alpha   93.65571500
_cell_angle_beta   95.08837340
_cell_angle_gamma   93.36067659
_symmetry_Int_Tables_number   1
_chemical_formula_structural   Li3Ti(SF)2
_chemical_formula_sum   'Li3 Ti1 S2 F2'
_cell_volume   401.26128845
_cell_formula_units_Z   1
loop_
 _symmetry_equiv_pos_site_id
 _symmetry_equiv_pos_as_xyz
  1  'x, y, z'
loop_
 _atom_site_type_symbol
 _atom_site_label
 _atom_site_symmetry_multiplicity
 _atom_site_fract_x
 _atom_site_fract_y
 _atom_site_fract_z
 _atom_site_occupancy
  Li  Li0  1  0.12500000  0.00000000  0.25000000  1
  Li  Li1  1  0.00000000  0.00000000  0.00000000  1
  Li  Li2  1  0.37500000  0.00000000  0.25000000  1
  F  F3  1  0.25000000  0.25000000  0.25000000  1
  F  F4  1  0.00000000  0.25000000  0.12500000  1
  S  S5  1  0.91385287  0.16872809  0.83321505  1
  S  S6  1  0.87870956  0.20404273  0.99218708  1
  Ti  Ti7  1  0.31456208  0.69287160  0.09466811  1
