# generated using pymatgen
data_Li2Mn2Sb4P3
_symmetry_space_group_name_H-M   'P 1'
_cell_length_a   4.44603557
_cell_length_b   4.70762706
_cell_length_c   6.44537262
_cell_angle_alpha   101.63680490
_cell_angle_beta   95.05202357
_cell_angle_gamma   102.02795281
_symmetry_Int_Tables_number   1
_chemical_formula_structural   Li2Mn2Sb4P3
_chemical_formula_sum   'Li2 Mn2 Sb4 P3'
_cell_volume   128.03258277
_cell_formula_units_Z   1
loop_
 _symmetry_equiv_pos_site_id
 _symmetry_equiv_pos_as_xyz
  1  'x, y, z'
loop_
 _atom_site_type_symbol
 _atom_site_label
 _atom_site_symmetry_multiplicity
 _atom_site_fract_x
 _atom_site_fract_y
 _atom_site_fract_z
 _atom_site_occupancy
  Mn  Mn0  1  0.00000000  0.00000000  0.00000000  1
  Mn  Mn1  1  0.33300000  0.66700000  0.25000000  1
  Sb  Sb2  1  0.66700000  0.33300000  0.50000000  1
  Sb  Sb3  1  0.00000000  0.00000000  0.75000000  1
  Sb  Sb4  1  0.23103782  0.87483178  0.19684019  1
  Sb  Sb5  1  0.28398234  0.39842668  0.20604332  1
  P  P6  1  0.24022724  0.45058298  0.18138491  1
  P  P7  1  0.66703261  0.60777032  0.11908036  1
  P  P8  1  0.24235939  0.05027717  0.42154302  1
  Li  Li9  1  0.98470090  0.37289434  0.13218969  1
  Li  Li10  1  0.19449676  0.05563970  0.92584071  1
