# generated using pymatgen
data_Li2MnSb4P3N
_symmetry_space_group_name_H-M   'P 1'
_cell_length_a   5.24751463
_cell_length_b   5.50250760
_cell_length_c   6.78734548
_cell_angle_alpha   97.01074316
_cell_angle_beta   95.88993936
_cell_angle_gamma   97.05524897
_symmetry_Int_Tables_number   1
_chemical_formula_structural   Li2MnSb4P3N
_chemical_formula_sum   'Li2 Mn1 Sb4 P3 N1'
_cell_volume   191.66202364
_cell_formula_units_Z   1
loop_
 _symmetry_equiv_pos_site_id
 _symmetry_equiv_pos_as_xyz
  1  'x, y, z'
loop_
 _atom_site_type_symbol
 _atom_site_label
 _atom_site_symmetry_multiplicity
 _atom_site_fract_x
 _atom_site_fract_y
 _atom_site_fract_z
 _atom_site_occupancy
  N  N0  1  0.12500000  0.00000000  0.25000000  1
  Mn  Mn1  1  0.00000000  0.00000000  0.00000000  1
  Sb  Sb2  1  0.37500000  0.00000000  0.25000000  1
  Sb  Sb3  1  0.25000000  0.25000000  0.25000000  1
  Sb  Sb4  1  0.00000000  0.25000000  0.12500000  1
  Sb  Sb5  1  0.84152779  0.15629379  0.03556094  1
  P  P6  1  0.02638933  0.87967735  0.41646846  1
  P  P7  1  0.87610224  0.64777625  0.50349807  1
  P  P8  1  0.08931429  0.62811108  0.84814399  1
  Li  Li9  1  0.49502598  0.24916943  0.71664829  1
  Li  Li10  1  0.29684546  0.27549988  0.02684514  1
