# generated using pymatgen
data_Li2LuTi2P5O
_symmetry_space_group_name_H-M   'P 1'
_cell_length_a   7.62758247
_cell_length_b   7.48642525
_cell_length_c   7.75796306
_cell_angle_alpha   90.82977324
_cell_angle_beta   91.54004714
_cell_angle_gamma   90.95773416
_symmetry_Int_Tables_number   1
_chemical_formula_structural   Li2LuTi2P5O
_chemical_formula_sum   'Li2 Lu1 Ti2 P5 O1'
_cell_volume   442.73419840
_cell_formula_units_Z   1
loop_
 _symmetry_equiv_pos_site_id
 _symmetry_equiv_pos_as_xyz
  1  'x, y, z'
loop_
 _atom_site_type_symbol
 _atom_site_label
 _atom_site_symmetry_multiplicity
 _atom_site_fract_x
 _atom_site_fract_y
 _atom_site_fract_z
 _atom_site_occupancy
  P  P0  1  0.12500000  0.00000000  0.25000000  1
  P  P1  1  0.00000000  0.00000000  0.00000000  1
  P  P2  1  0.37500000  0.00000000  0.25000000  1
  P  P3  1  0.25000000  0.25000000  0.25000000  1
  P  P4  1  0.00000000  0.25000000  0.12500000  1
  Lu  Lu5  1  0.01754298  0.45543626  0.31725103  1
  Li  Li6  1  0.69361095  0.22153958  0.97566451  1
  Li  Li7  1  0.75423382  0.18203534  0.58529965  1
  Ti  Ti8  1  0.80196821  0.64173942  0.39717963  1
  Ti  Ti9  1  0.57553980  0.74620840  0.63461246  1
  O  O10  1  0.99819281  0.53908304  0.12712123  1
