# generated using pymatgen
data_Li3TiP8I4N5
_symmetry_space_group_name_H-M   'P 1'
_cell_length_a   7.61542303
_cell_length_b   7.49955819
_cell_length_c   8.25365539
_cell_angle_alpha   92.88457358
_cell_angle_beta   93.58588715
_cell_angle_gamma   92.89668416
_symmetry_Int_Tables_number   1
_chemical_formula_structural   Li3TiP8I4N5
_chemical_formula_sum   'Li3 Ti1 P8 I4 N5'
_cell_volume   469.18439631
_cell_formula_units_Z   1
loop_
 _symmetry_equiv_pos_site_id
 _symmetry_equiv_pos_as_xyz
  1  'x, y, z'
loop_
 _atom_site_type_symbol
 _atom_site_label
 _atom_site_symmetry_multiplicity
 _atom_site_fract_x
 _atom_site_fract_y
 _atom_site_fract_z
 _atom_site_occupancy
  I  I0  1  0.00000000  0.00000000  0.00000000  1
  I  I1  1  0.50000000  0.50000000  0.50000000  1
  I  I2  1  0.50000000  0.50000000  0.00000000  1
  I  I3  1  0.50000000  0.00000000  0.50000000  1
  P  P4  1  0.00000000  0.50000000  0.50000000  1
  P  P5  1  0.15274415  0.24505574  0.32445802  1
  P  P6  1  0.25889966  0.63848461  0.71913107  1
  P  P7  1  0.57385587  0.27256916  0.30049490  1
  P  P8  1  0.78971750  0.22251858  0.04833114  1
  P  P9  1  0.62509442  0.30627421  0.81350159  1
  P  P10  1  0.16264958  0.93172512  0.81591683  1
  P  P11  1  0.36787245  0.21760251  0.89706658  1
  Li  Li12  1  0.53921783  0.89229848  0.35500414  1
  Li  Li13  1  0.46576312  0.61796615  0.31753322  1
  Li  Li14  1  0.41836735  0.21194524  0.45291321  1
  Ti  Ti15  1  0.25559736  0.28418371  0.29635868  1
  N  N16  1  0.29526666  0.52983201  0.13372100  1
  N  N17  1  0.34326204  0.68498582  0.71730021  1
  N  N18  1  0.64472080  0.00351600  0.88903951  1
  N  N19  1  0.30135293  0.74762101  0.20333957  1
  N  N20  1  0.52411782  0.45108072  0.11265711  1
