# generated using pymatgen
data_Li2Mn2Sb4P3
_symmetry_space_group_name_H-M   'P 1'
_cell_length_a   6.52075561
_cell_length_b   7.08821968
_cell_length_c   7.36485256
_cell_angle_alpha   92.77825945
_cell_angle_beta   93.29110503
_cell_angle_gamma   93.16200229
_symmetry_Int_Tables_number   1
_chemical_formula_structural   Li2Mn2Sb4P3
_chemical_formula_sum   'Li2 Mn2 Sb4 P3'
_cell_volume   338.87312510
_cell_formula_units_Z   1
loop_
 _symmetry_equiv_pos_site_id
 _symmetry_equiv_pos_as_xyz
  1  'x, y, z'
loop_
 _atom_site_type_symbol
 _atom_site_label
 _atom_site_symmetry_multiplicity
 _atom_site_fract_x
 _atom_site_fract_y
 _atom_site_fract_z
 _atom_site_occupancy
  Mn  Mn0  1  0.12500000  0.12500000  0.12500000  1
  Mn  Mn1  1  0.50000000  0.50000000  0.50000000  1
  Sb  Sb2  1  0.25000000  0.25000000  0.25000000  1
  Sb  Sb3  1  0.75000000  0.75000000  0.75000000  1
  Sb  Sb4  1  0.06732370  0.36846171  0.25572689  1
  Sb  Sb5  1  0.72875680  0.35902293  0.69580234  1
  P  P6  1  0.86000848  0.97206442  0.20636412  1
  P  P7  1  0.12413296  0.51527062  0.37422707  1
  P  P8  1  0.90034971  0.32078570  0.28857687  1
  Li  Li9  1  0.89091055  0.29263270  0.33262798  1
  Li  Li10  1  0.73488131  0.09088733  0.75194526  1
