# generated using pymatgen
data_LiMn3Sb4Mo2P3
_symmetry_space_group_name_H-M   'P 1'
_cell_length_a   4.56657548
_cell_length_b   4.75720470
_cell_length_c   5.94498674
_cell_angle_alpha   101.59033059
_cell_angle_beta   91.22320355
_cell_angle_gamma   101.57437969
_symmetry_Int_Tables_number   1
_chemical_formula_structural   LiMn3Sb4Mo2P3
_chemical_formula_sum   'Li1 Mn3 Sb4 Mo2 P3'
_cell_volume   123.68744770
_cell_formula_units_Z   1
loop_
 _symmetry_equiv_pos_site_id
 _symmetry_equiv_pos_as_xyz
  1  'x, y, z'
loop_
 _atom_site_type_symbol
 _atom_site_label
 _atom_site_symmetry_multiplicity
 _atom_site_fract_x
 _atom_site_fract_y
 _atom_site_fract_z
 _atom_site_occupancy
  Mn  Mn0  1  0.00000000  0.00000000  0.00000000  1
  Mn  Mn1  1  0.50000000  0.50000000  0.50000000  1
  Mn  Mn2  1  0.25000000  0.25000000  0.25000000  1
  Sb  Sb3  1  0.75000000  0.25000000  0.00000000  1
  Sb  Sb4  1  0.25000000  0.75000000  0.50000000  1
  Sb  Sb5  1  0.49285017  0.16189406  0.72689838  1
  Sb  Sb6  1  0.77651965  0.53302491  0.01482482  1
  P  P7  1  0.96239114  0.50293752  0.16904547  1
  P  P8  1  0.60291874  0.53122518  0.54422058  1
  P  P9  1  0.04837847  0.20423994  0.90399973  1
  Mo  Mo10  1  0.95235327  0.98167349  0.63817842  1
  Mo  Mo11  1  0.27604835  0.59565176  0.05871824  1
  Li  Li12  1  0.06624106  0.40159752  0.64353648  1
