# generated using pymatgen
data_Li2MnSb4P3N
_symmetry_space_group_name_H-M   'P 1'
_cell_length_a   4.10921647
_cell_length_b   4.30448521
_cell_length_c   5.48770080
_cell_angle_alpha   100.69772362
_cell_angle_beta   96.02320205
_cell_angle_gamma   98.87208561
_symmetry_Int_Tables_number   1
_chemical_formula_structural   Li2MnSb4P3N
_chemical_formula_sum   'Li2 Mn1 Sb4 P3 N1'
_cell_volume   93.34257938
_cell_formula_units_Z   1
loop_
 _symmetry_equiv_pos_site_id
 _symmetry_equiv_pos_as_xyz
  1  'x, y, z'
loop_
 _atom_site_type_symbol
 _atom_site_label
 _atom_site_symmetry_multiplicity
 _atom_site_fract_x
 _atom_site_fract_y
 _atom_site_fract_z
 _atom_site_occupancy
  Mn  Mn0  1  0.00000000  0.00000000  0.00000000  1
  Sb  Sb1  1  0.50000000  0.50000000  0.50000000  1
  Sb  Sb2  1  0.50000000  0.50000000  0.00000000  1
  Sb  Sb3  1  0.50000000  0.00000000  0.50000000  1
  Sb  Sb4  1  0.00000000  0.50000000  0.50000000  1
  P  P5  1  0.41471167  0.26467520  0.70811455  1
  P  P6  1  0.83439176  0.75371519  0.63729946  1
  P  P7  1  0.35153753  0.34739438  0.62682357  1
  Li  Li8  1  0.71694633  0.91625198  0.01740055  1
  Li  Li9  1  0.98790107  0.29358694  0.67968486  1
  N  N10  1  0.95387109  0.09415994  0.33023324  1
