# generated using pymatgen
data_LiMn2Sb4Mo2P3
_symmetry_space_group_name_H-M   'P 1'
_cell_length_a   4.53207649
_cell_length_b   4.71682611
_cell_length_c   6.17225309
_cell_angle_alpha   100.35498029
_cell_angle_beta   93.27843270
_cell_angle_gamma   100.37707102
_symmetry_Int_Tables_number   1
_chemical_formula_structural   LiMn2Sb4Mo2P3
_chemical_formula_sum   'Li1 Mn2 Sb4 Mo2 P3'
_cell_volume   127.12429297
_cell_formula_units_Z   1
loop_
 _symmetry_equiv_pos_site_id
 _symmetry_equiv_pos_as_xyz
  1  'x, y, z'
loop_
 _atom_site_type_symbol
 _atom_site_label
 _atom_site_symmetry_multiplicity
 _atom_site_fract_x
 _atom_site_fract_y
 _atom_site_fract_z
 _atom_site_occupancy
  Mn  Mn0  1  0.00000000  0.00000000  0.00000000  1
  Mn  Mn1  1  0.50000000  0.50000000  0.50000000  1
  Sb  Sb2  1  0.50000000  0.50000000  0.00000000  1
  Sb  Sb3  1  0.50000000  0.00000000  0.50000000  1
  Sb  Sb4  1  0.00000000  0.50000000  0.50000000  1
  Sb  Sb5  1  0.55874520  0.06052355  0.42597323  1
  P  P6  1  0.64870012  0.10316445  0.89090443  1
  P  P7  1  0.76698792  0.92039307  0.08786356  1
  P  P8  1  0.13364002  0.51597744  0.61849591  1
  Mo  Mo9  1  0.32818202  0.37095517  0.02989380  1
  Mo  Mo10  1  0.71488982  0.14829888  0.66354287  1
  Li  Li11  1  0.16057428  0.02240032  0.84642080  1
