# generated using pymatgen
data_LiP2
_symmetry_space_group_name_H-M   'P 1'
_cell_length_a   8.38260871
_cell_length_b   8.12369776
_cell_length_c   8.47486530
_cell_angle_alpha   90.12076304
_cell_angle_beta   90.57455386
_cell_angle_gamma   90.13806440
_symmetry_Int_Tables_number   1
_chemical_formula_structural   LiP2
_chemical_formula_sum   'Li3 P6'
_cell_volume   577.08750528
_cell_formula_units_Z   3
loop_
 _symmetry_equiv_pos_site_id
 _symmetry_equiv_pos_as_xyz
  1  'x, y, z'
loop_
 _atom_site_type_symbol
 _atom_site_label
 _atom_site_symmetry_multiplicity
 _atom_site_fract_x
 _atom_site_fract_y
 _atom_site_fract_z
 _atom_site_occupancy
  P  P0  1  0.12500000  0.00000000  0.25000000  1
  P  P1  1  0.00000000  0.00000000  0.00000000  1
  P  P2  1  0.37500000  0.00000000  0.25000000  1
  P  P3  1  0.25000000  0.25000000  0.25000000  1
  P  P4  1  0.00000000  0.25000000  0.12500000  1
  P  P5  1  0.65004729  0.56391814  0.12916858  1
  Li  Li6  1  0.19841448  0.45401851  0.45437448  1
  Li  Li7  1  0.19469212  0.16572984  0.87825170  1
  Li  Li8  1  0.93536406  0.32942610  0.23397246  1
