# generated using pymatgen
data_Li3Cu2(P2O)3
_symmetry_space_group_name_H-M   'P 1'
_cell_length_a   7.29443054
_cell_length_b   7.20263827
_cell_length_c   8.37888203
_cell_angle_alpha   93.61165640
_cell_angle_beta   94.58774681
_cell_angle_gamma   93.59177594
_symmetry_Int_Tables_number   1
_chemical_formula_structural   Li3Cu2(P2O)3
_chemical_formula_sum   'Li3 Cu2 P6 O3'
_cell_volume   436.92249636
_cell_formula_units_Z   1
loop_
 _symmetry_equiv_pos_site_id
 _symmetry_equiv_pos_as_xyz
  1  'x, y, z'
loop_
 _atom_site_type_symbol
 _atom_site_label
 _atom_site_symmetry_multiplicity
 _atom_site_fract_x
 _atom_site_fract_y
 _atom_site_fract_z
 _atom_site_occupancy
  P  P0  1  0.12500000  0.12500000  0.12500000  1
  P  P1  1  0.50000000  0.50000000  0.50000000  1
  P  P2  1  0.25000000  0.25000000  0.25000000  1
  P  P3  1  0.75000000  0.75000000  0.75000000  1
  P  P4  1  0.86753398  0.40729281  0.22224858  1
  P  P5  1  0.77179937  0.19914836  0.89157517  1
  Li  Li6  1  0.45294909  0.00993677  0.94190563  1
  Li  Li7  1  0.93444203  0.14540775  0.31825950  1
  Li  Li8  1  0.11287481  0.14940117  0.33810588  1
  Cu  Cu9  1  0.88905998  0.60326078  0.43147994  1
  Cu  Cu10  1  0.04889894  0.37553730  0.58102386  1
  O  O11  1  0.15568501  0.26107417  0.59429438  1
  O  O12  1  0.88612277  0.48651723  0.40794259  1
  O  O13  1  0.19053833  0.11976270  0.99746251  1
