# generated using pymatgen
data_Li2MnSb4Mo2P3
_symmetry_space_group_name_H-M   'P 1'
_cell_length_a   5.35437907
_cell_length_b   5.73477410
_cell_length_c   6.74058100
_cell_angle_alpha   98.40888252
_cell_angle_beta   93.38247999
_cell_angle_gamma   98.65418430
_symmetry_Int_Tables_number   1
_chemical_formula_structural   Li2MnSb4Mo2P3
_chemical_formula_sum   'Li2 Mn1 Sb4 Mo2 P3'
_cell_volume   201.72548588
_cell_formula_units_Z   1
loop_
 _symmetry_equiv_pos_site_id
 _symmetry_equiv_pos_as_xyz
  1  'x, y, z'
loop_
 _atom_site_type_symbol
 _atom_site_label
 _atom_site_symmetry_multiplicity
 _atom_site_fract_x
 _atom_site_fract_y
 _atom_site_fract_z
 _atom_site_occupancy
  Mn  Mn0  1  0.00000000  0.00000000  0.00000000  1
  Sb  Sb1  1  0.50000000  0.50000000  0.50000000  1
  Sb  Sb2  1  0.50000000  0.50000000  0.00000000  1
  Sb  Sb3  1  0.50000000  0.00000000  0.50000000  1
  Sb  Sb4  1  0.00000000  0.50000000  0.50000000  1
  P  P5  1  0.67187608  0.65149704  0.96205706  1
  P  P6  1  0.53808699  0.25708597  0.91084090  1
  P  P7  1  0.33068484  0.89174788  0.32786184  1
  Mo  Mo8  1  0.78506404  0.66138885  0.87405716  1
  Mo  Mo9  1  0.17498319  0.41433721  0.61800613  1
  Li  Li10  1  0.44897218  0.67542708  0.38947547  1
  Li  Li11  1  0.34602702  0.27923528  0.97780143  1
