# generated using pymatgen
data_Li4Ni2As6O7
_symmetry_space_group_name_H-M   'P 1'
_cell_length_a   8.31382661
_cell_length_b   8.17082894
_cell_length_c   9.64881384
_cell_angle_alpha   90.00000000
_cell_angle_beta   90.00000000
_cell_angle_gamma   90.00000000
_symmetry_Int_Tables_number   1
_chemical_formula_structural   Li4Ni2As6O7
_chemical_formula_sum   'Li4 Ni2 As6 O7'
_cell_volume   655.45217486
_cell_formula_units_Z   1
loop_
 _symmetry_equiv_pos_site_id
 _symmetry_equiv_pos_as_xyz
  1  'x, y, z'
loop_
 _atom_site_type_symbol
 _atom_site_label
 _atom_site_symmetry_multiplicity
 _atom_site_fract_x
 _atom_site_fract_y
 _atom_site_fract_z
 _atom_site_occupancy
  Li  Li0  1  0.12500000  0.12500000  0.12500000  1
  Li  Li1  1  0.50000000  0.50000000  0.50000000  1
  Li  Li2  1  0.25000000  0.25000000  0.25000000  1
  Li  Li3  1  0.75000000  0.75000000  0.75000000  1
  Ni  Ni4  1  0.72916930  0.78251198  0.06142833  1
  Ni  Ni5  1  0.81985525  0.93182328  0.92389627  1
  As  As6  1  0.72044456  0.07776660  0.88657820  1
  As  As7  1  0.81468767  0.23455702  0.31128863  1
  As  As8  1  0.77740948  0.90334226  0.02726260  1
  As  As9  1  0.56867795  0.81668776  0.19488167  1
  As  As10  1  0.32958873  0.34482576  0.90510026  1
  As  As11  1  0.66111406  0.38252951  0.65813456  1
  O  O12  1  0.94635263  0.61766749  0.44200794  1
  O  O13  1  0.91707129  0.67446963  0.05307413  1
  O  O14  1  0.17351582  0.06417296  0.94257307  1
  O  O15  1  0.42494778  0.14594710  0.97763268  1
  O  O16  1  0.41948221  0.10196597  0.67501925  1
  O  O17  1  0.60666351  0.99311434  0.29996600  1
  O  O18  1  0.97184307  0.92991958  0.63020652  1
