# generated using pymatgen
data_Li3ZrCu2(P3O)2
_symmetry_space_group_name_H-M   'P 1'
_cell_length_a   7.58406456
_cell_length_b   7.51220972
_cell_length_c   8.09623599
_cell_angle_alpha   93.65353205
_cell_angle_beta   94.92276677
_cell_angle_gamma   93.45195101
_symmetry_Int_Tables_number   1
_chemical_formula_structural   Li3ZrCu2(P3O)2
_chemical_formula_sum   'Li3 Zr1 Cu2 P6 O2'
_cell_volume   457.63030667
_cell_formula_units_Z   1
loop_
 _symmetry_equiv_pos_site_id
 _symmetry_equiv_pos_as_xyz
  1  'x, y, z'
loop_
 _atom_site_type_symbol
 _atom_site_label
 _atom_site_symmetry_multiplicity
 _atom_site_fract_x
 _atom_site_fract_y
 _atom_site_fract_z
 _atom_site_occupancy
  P  P0  1  0.00000000  0.00000000  0.00000000  1
  P  P1  1  0.50000000  0.50000000  0.50000000  1
  P  P2  1  0.25000000  0.25000000  0.25000000  1
  P  P3  1  0.75000000  0.25000000  0.00000000  1
  P  P4  1  0.25000000  0.75000000  0.50000000  1
  P  P5  1  0.94430775  0.79755617  0.01431910  1
  Li  Li6  1  0.70662180  0.69271152  0.35503951  1
  Li  Li7  1  0.53154889  0.23088596  0.26222636  1
  Li  Li8  1  0.59127152  0.57752576  0.61417779  1
  Cu  Cu9  1  0.04760165  0.87448917  0.76644557  1
  Cu  Cu10  1  0.44691102  0.47819516  0.28280863  1
  O  O11  1  0.30994695  0.50025718  0.75610902  1
  O  O12  1  0.70338533  0.59819954  0.21776209  1
  Zr  Zr13  1  0.08726969  0.42944321  0.33128177  1
