# generated using pymatgen
data_LiMn3Sb4P3
_symmetry_space_group_name_H-M   'P 1'
_cell_length_a   5.65168405
_cell_length_b   6.00654423
_cell_length_c   6.48660279
_cell_angle_alpha   95.43921259
_cell_angle_beta   91.17249728
_cell_angle_gamma   95.63107617
_symmetry_Int_Tables_number   1
_chemical_formula_structural   LiMn3Sb4P3
_chemical_formula_sum   'Li1 Mn3 Sb4 P3'
_cell_volume   218.05348751
_cell_formula_units_Z   1
loop_
 _symmetry_equiv_pos_site_id
 _symmetry_equiv_pos_as_xyz
  1  'x, y, z'
loop_
 _atom_site_type_symbol
 _atom_site_label
 _atom_site_symmetry_multiplicity
 _atom_site_fract_x
 _atom_site_fract_y
 _atom_site_fract_z
 _atom_site_occupancy
  Mn  Mn0  1  0.00000000  0.00000000  0.00000000  1
  Mn  Mn1  1  0.33300000  0.66700000  0.25000000  1
  Mn  Mn2  1  0.66700000  0.33300000  0.50000000  1
  Sb  Sb3  1  0.00000000  0.00000000  0.75000000  1
  Sb  Sb4  1  0.95090776  0.76950760  0.44354047  1
  Sb  Sb5  1  0.10484821  0.51809221  0.63881862  1
  Sb  Sb6  1  0.45223293  0.79420668  0.12849885  1
  P  P7  1  0.93384471  0.52596737  0.84632027  1
  P  P8  1  0.33033210  0.14865361  0.77597524  1
  P  P9  1  0.62396003  0.94666446  0.32127369  1
  Li  Li10  1  0.84254498  0.63092775  0.25771570  1
