# generated using pymatgen
data_LiMnSb4Mo2P3
_symmetry_space_group_name_H-M   'P 1'
_cell_length_a   5.16715237
_cell_length_b   5.47720743
_cell_length_c   6.35711278
_cell_angle_alpha   97.79735097
_cell_angle_beta   92.51101501
_cell_angle_gamma   97.76585974
_symmetry_Int_Tables_number   1
_chemical_formula_structural   LiMnSb4Mo2P3
_chemical_formula_sum   'Li1 Mn1 Sb4 Mo2 P3'
_cell_volume   176.26366963
_cell_formula_units_Z   1
loop_
 _symmetry_equiv_pos_site_id
 _symmetry_equiv_pos_as_xyz
  1  'x, y, z'
loop_
 _atom_site_type_symbol
 _atom_site_label
 _atom_site_symmetry_multiplicity
 _atom_site_fract_x
 _atom_site_fract_y
 _atom_site_fract_z
 _atom_site_occupancy
  Mn  Mn0  1  0.00000000  0.00000000  0.00000000  1
  Sb  Sb1  1  0.50000000  0.50000000  0.50000000  1
  Sb  Sb2  1  0.25000000  0.25000000  0.25000000  1
  Sb  Sb3  1  0.75000000  0.25000000  0.00000000  1
  Sb  Sb4  1  0.25000000  0.75000000  0.50000000  1
  P  P5  1  0.14341070  0.84554988  0.78045734  1
  P  P6  1  0.48691574  0.71128831  0.98108025  1
  P  P7  1  0.61402259  0.88416683  0.23861104  1
  Mo  Mo8  1  0.50474408  0.38202442  0.82934755  1
  Mo  Mo9  1  0.29799677  0.41273067  0.80024331  1
  Li  Li10  1  0.18048919  0.24951784  0.76127362  1
