# generated using pymatgen
data_LiCuAs3P2
_symmetry_space_group_name_H-M   'P 1'
_cell_length_a   7.46453693
_cell_length_b   7.54331960
_cell_length_c   8.52006345
_cell_angle_alpha   91.08997417
_cell_angle_beta   92.08581104
_cell_angle_gamma   91.25782417
_symmetry_Int_Tables_number   1
_chemical_formula_structural   LiCuAs3P2
_chemical_formula_sum   'Li2 Cu2 As6 P4'
_cell_volume   479.21479630
_cell_formula_units_Z   2
loop_
 _symmetry_equiv_pos_site_id
 _symmetry_equiv_pos_as_xyz
  1  'x, y, z'
loop_
 _atom_site_type_symbol
 _atom_site_label
 _atom_site_symmetry_multiplicity
 _atom_site_fract_x
 _atom_site_fract_y
 _atom_site_fract_z
 _atom_site_occupancy
  P  P0  1  0.00000000  0.00000000  0.00000000  1
  P  P1  1  0.33300000  0.66700000  0.25000000  1
  P  P2  1  0.66700000  0.33300000  0.50000000  1
  P  P3  1  0.00000000  0.00000000  0.75000000  1
  As  As4  1  0.30340951  0.65148113  0.57295754  1
  As  As5  1  0.39183091  0.21471550  0.23282211  1
  As  As6  1  0.36128621  0.35944233  0.20214939  1
  As  As7  1  0.88203320  0.40816747  0.80805108  1
  As  As8  1  0.86284243  0.51897716  0.84016036  1
  As  As9  1  0.81196836  0.28058833  0.27305116  1
  Li  Li10  1  0.66860233  0.10119464  0.93811816  1
  Li  Li11  1  0.65916274  0.35758726  0.10791978  1
  Cu  Cu12  1  0.11046399  0.52214035  0.76062105  1
  Cu  Cu13  1  0.23947279  0.50251519  0.73073028  1
