# generated using pymatgen
data_Li2Sb4P2N
_symmetry_space_group_name_H-M   'P 1'
_cell_length_a   5.42991554
_cell_length_b   5.64880485
_cell_length_c   6.29272205
_cell_angle_alpha   99.20113678
_cell_angle_beta   93.33102755
_cell_angle_gamma   98.27549056
_symmetry_Int_Tables_number   1
_chemical_formula_structural   Li2Sb4P2N
_chemical_formula_sum   'Li2 Sb4 P2 N1'
_cell_volume   187.89510610
_cell_formula_units_Z   1
loop_
 _symmetry_equiv_pos_site_id
 _symmetry_equiv_pos_as_xyz
  1  'x, y, z'
loop_
 _atom_site_type_symbol
 _atom_site_label
 _atom_site_symmetry_multiplicity
 _atom_site_fract_x
 _atom_site_fract_y
 _atom_site_fract_z
 _atom_site_occupancy
  N  N0  1  0.12500000  0.12500000  0.12500000  1
  Sb  Sb1  1  0.50000000  0.50000000  0.50000000  1
  Sb  Sb2  1  0.25000000  0.25000000  0.25000000  1
  Sb  Sb3  1  0.75000000  0.75000000  0.75000000  1
  Sb  Sb4  1  0.09049362  0.53128584  0.01700942  1
  P  P5  1  0.15393152  0.62175736  0.05181327  1
  P  P6  1  0.90575480  0.95579677  0.57216419  1
  Li  Li7  1  0.41005183  0.33294829  0.24332854  1
  Li  Li8  1  0.81169656  0.42368830  0.19530874  1
