# generated using pymatgen
data_Li3Ti3Cu2(P4O)2
_symmetry_space_group_name_H-M   'P 1'
_cell_length_a   7.44356959
_cell_length_b   7.87227747
_cell_length_c   8.16275390
_cell_angle_alpha   92.86294405
_cell_angle_beta   93.80424326
_cell_angle_gamma   93.35693179
_symmetry_Int_Tables_number   1
_chemical_formula_structural   Li3Ti3Cu2(P4O)2
_chemical_formula_sum   'Li3 Ti3 Cu2 P8 O2'
_cell_volume   475.75061820
_cell_formula_units_Z   1
loop_
 _symmetry_equiv_pos_site_id
 _symmetry_equiv_pos_as_xyz
  1  'x, y, z'
loop_
 _atom_site_type_symbol
 _atom_site_label
 _atom_site_symmetry_multiplicity
 _atom_site_fract_x
 _atom_site_fract_y
 _atom_site_fract_z
 _atom_site_occupancy
  P  P0  1  0.12500000  0.00000000  0.25000000  1
  P  P1  1  0.00000000  0.00000000  0.00000000  1
  P  P2  1  0.37500000  0.00000000  0.25000000  1
  P  P3  1  0.25000000  0.25000000  0.25000000  1
  P  P4  1  0.00000000  0.25000000  0.12500000  1
  P  P5  1  0.95430252  0.37659704  0.77084757  1
  P  P6  1  0.38367414  0.87738093  0.19843155  1
  P  P7  1  0.89078312  0.51948428  0.32198558  1
  Li  Li8  1  0.25403272  0.11550650  0.55295981  1
  Li  Li9  1  0.07349030  0.87758792  0.22592023  1
  Li  Li10  1  0.52303313  0.35328412  0.48395494  1
  Cu  Cu11  1  0.59907860  0.88514632  0.24399080  1
  Cu  Cu12  1  0.91439882  0.42718312  0.60817327  1
  Ti  Ti13  1  0.83418345  0.64834155  0.93968021  1
  Ti  Ti14  1  0.86745107  0.14593651  0.58448937  1
  Ti  Ti15  1  0.37239235  0.30823474  0.04374779  1
  O  O16  1  0.98507916  0.24840198  0.05675195  1
  O  O17  1  0.36008825  0.65127856  0.51235764  1
