# generated using pymatgen
data_Li3Zr3Ti2S2I5
_symmetry_space_group_name_H-M   'P 1'
_cell_length_a   6.32725510
_cell_length_b   5.86090782
_cell_length_c   8.62491978
_cell_angle_alpha   100.01166131
_cell_angle_beta   100.97309631
_cell_angle_gamma   99.00655075
_symmetry_Int_Tables_number   1
_chemical_formula_structural   Li3Zr3Ti2S2I5
_chemical_formula_sum   'Li3 Zr3 Ti2 S2 I5'
_cell_volume   303.20541647
_cell_formula_units_Z   1
loop_
 _symmetry_equiv_pos_site_id
 _symmetry_equiv_pos_as_xyz
  1  'x, y, z'
loop_
 _atom_site_type_symbol
 _atom_site_label
 _atom_site_symmetry_multiplicity
 _atom_site_fract_x
 _atom_site_fract_y
 _atom_site_fract_z
 _atom_site_occupancy
  S  S0  1  0.00000000  0.00000000  0.00000000  1
  S  S1  1  0.50000000  0.50000000  0.50000000  1
  Ti  Ti2  1  0.50000000  0.50000000  0.00000000  1
  Ti  Ti3  1  0.50000000  0.00000000  0.50000000  1
  I  I4  1  0.00000000  0.50000000  0.50000000  1
  I  I5  1  0.93129911  0.00226484  0.20343978  1
  I  I6  1  0.31431441  0.19414242  0.58678936  1
  I  I7  1  0.62948444  0.00914516  0.86302791  1
  I  I8  1  0.01853695  0.95386098  0.82708304  1
  Li  Li9  1  0.84807085  0.24063257  0.12184502  1
  Li  Li10  1  0.86378121  0.78878603  0.72095241  1
  Li  Li11  1  0.20252456  0.79826013  0.28450804  1
  Zr  Zr12  1  0.47666072  0.09848291  0.67302084  1
  Zr  Zr13  1  0.35633299  0.80568785  0.96797759  1
  Zr  Zr14  1  0.74837141  0.33880101  0.61728326  1
