# generated using pymatgen
data_Li3TiI4Cl2F3
_symmetry_space_group_name_H-M   'P 1'
_cell_length_a   5.89244672
_cell_length_b   5.68700578
_cell_length_c   6.89161056
_cell_angle_alpha   98.21235546
_cell_angle_beta   101.00187856
_cell_angle_gamma   97.66139262
_symmetry_Int_Tables_number   1
_chemical_formula_structural   Li3TiI4Cl2F3
_chemical_formula_sum   'Li3 Ti1 I4 Cl2 F3'
_cell_volume   221.28549061
_cell_formula_units_Z   1
loop_
 _symmetry_equiv_pos_site_id
 _symmetry_equiv_pos_as_xyz
  1  'x, y, z'
loop_
 _atom_site_type_symbol
 _atom_site_label
 _atom_site_symmetry_multiplicity
 _atom_site_fract_x
 _atom_site_fract_y
 _atom_site_fract_z
 _atom_site_occupancy
  I  I0  1  0.12500000  0.00000000  0.25000000  1
  I  I1  1  0.00000000  0.00000000  0.00000000  1
  I  I2  1  0.37500000  0.00000000  0.25000000  1
  I  I3  1  0.25000000  0.25000000  0.25000000  1
  Li  Li4  1  0.00000000  0.25000000  0.12500000  1
  Li  Li5  1  0.56578085  0.94385827  0.62713018  1
  Li  Li6  1  0.97515830  0.50902685  0.55364575  1
  F  F7  1  0.04921295  0.69770183  0.41920863  1
  F  F8  1  0.51994502  0.40350622  0.12833264  1
  F  F9  1  0.56081083  0.58381401  0.12002461  1
  Cl  Cl10  1  0.18544366  0.10132981  0.74808675  1
  Cl  Cl11  1  0.82003586  0.16896486  0.76348677  1
  Ti  Ti12  1  0.35737509  0.50866376  0.08892418  1
