# generated using pymatgen
data_Li2Mn2Sb4P3
_symmetry_space_group_name_H-M   'P 1'
_cell_length_a   5.70660400
_cell_length_b   6.11259878
_cell_length_c   6.70964949
_cell_angle_alpha   98.03823648
_cell_angle_beta   91.51801175
_cell_angle_gamma   98.03383644
_symmetry_Int_Tables_number   1
_chemical_formula_structural   Li2Mn2Sb4P3
_chemical_formula_sum   'Li2 Mn2 Sb4 P3'
_cell_volume   229.22017318
_cell_formula_units_Z   1
loop_
 _symmetry_equiv_pos_site_id
 _symmetry_equiv_pos_as_xyz
  1  'x, y, z'
loop_
 _atom_site_type_symbol
 _atom_site_label
 _atom_site_symmetry_multiplicity
 _atom_site_fract_x
 _atom_site_fract_y
 _atom_site_fract_z
 _atom_site_occupancy
  Mn  Mn0  1  0.12500000  0.12500000  0.12500000  1
  Mn  Mn1  1  0.50000000  0.50000000  0.50000000  1
  Sb  Sb2  1  0.25000000  0.25000000  0.25000000  1
  Sb  Sb3  1  0.75000000  0.75000000  0.75000000  1
  Sb  Sb4  1  0.85772112  0.03267494  0.74873724  1
  Sb  Sb5  1  0.20416751  0.18079492  0.94628228  1
  P  P6  1  0.84701648  0.19222925  0.89771608  1
  P  P7  1  0.52732956  0.34918617  0.98937306  1
  P  P8  1  0.29184430  0.83444225  0.57064846  1
  Li  Li9  1  0.00492732  0.29670174  0.91045246  1
  Li  Li10  1  0.61095562  0.61809175  0.66541636  1
