# generated using pymatgen
data_Li2Mn2Sb4P3
_symmetry_space_group_name_H-M   'P 1'
_cell_length_a   5.30954938
_cell_length_b   5.74460502
_cell_length_c   7.15596444
_cell_angle_alpha   95.96300459
_cell_angle_beta   97.06372991
_cell_angle_gamma   96.78663547
_symmetry_Int_Tables_number   1
_chemical_formula_structural   Li2Mn2Sb4P3
_chemical_formula_sum   'Li2 Mn2 Sb4 P3'
_cell_volume   213.53296474
_cell_formula_units_Z   1
loop_
 _symmetry_equiv_pos_site_id
 _symmetry_equiv_pos_as_xyz
  1  'x, y, z'
loop_
 _atom_site_type_symbol
 _atom_site_label
 _atom_site_symmetry_multiplicity
 _atom_site_fract_x
 _atom_site_fract_y
 _atom_site_fract_z
 _atom_site_occupancy
  Mn  Mn0  1  0.00000000  0.00000000  0.00000000  1
  Mn  Mn1  1  0.33300000  0.66700000  0.25000000  1
  Sb  Sb2  1  0.66700000  0.33300000  0.50000000  1
  Sb  Sb3  1  0.00000000  0.00000000  0.75000000  1
  Sb  Sb4  1  0.15185629  0.46225032  0.95453290  1
  Sb  Sb5  1  0.16237985  0.09250230  0.97128591  1
  P  P6  1  0.11477227  0.75327735  0.04534121  1
  P  P7  1  0.64779141  0.45252618  0.09725597  1
  P  P8  1  0.26284965  0.47541190  0.33556886  1
  Li  Li9  1  0.84339170  0.53903854  0.98454170  1
  Li  Li10  1  0.53571412  0.98794225  0.62894808  1
