# generated using pymatgen
data_Li2MnSb4P3
_symmetry_space_group_name_H-M   'P 1'
_cell_length_a   5.13981045
_cell_length_b   5.52433919
_cell_length_c   6.89957277
_cell_angle_alpha   97.78547768
_cell_angle_beta   95.69137199
_cell_angle_gamma   98.36906078
_symmetry_Int_Tables_number   1
_chemical_formula_structural   Li2MnSb4P3
_chemical_formula_sum   'Li2 Mn1 Sb4 P3'
_cell_volume   190.61643158
_cell_formula_units_Z   1
loop_
 _symmetry_equiv_pos_site_id
 _symmetry_equiv_pos_as_xyz
  1  'x, y, z'
loop_
 _atom_site_type_symbol
 _atom_site_label
 _atom_site_symmetry_multiplicity
 _atom_site_fract_x
 _atom_site_fract_y
 _atom_site_fract_z
 _atom_site_occupancy
  Mn  Mn0  1  0.00000000  0.00000000  0.00000000  1
  Sb  Sb1  1  0.50000000  0.50000000  0.50000000  1
  Sb  Sb2  1  0.50000000  0.50000000  0.00000000  1
  Sb  Sb3  1  0.50000000  0.00000000  0.50000000  1
  Sb  Sb4  1  0.00000000  0.50000000  0.50000000  1
  P  P5  1  0.12445643  0.34420139  0.10298205  1
  P  P6  1  0.95362263  0.68958465  0.70530845  1
  P  P7  1  0.79592014  0.73811733  0.83109943  1
  Li  Li8  1  0.41911499  0.74689951  0.78170997  1
  Li  Li9  1  0.64403190  0.62502320  0.99959247  1
