# generated using pymatgen
data_LiSbMoF2
_symmetry_space_group_name_H-M   'P 1'
_cell_length_a   6.14471300
_cell_length_b   6.56309120
_cell_length_c   6.70598100
_cell_angle_alpha   92.35131774
_cell_angle_beta   91.79018962
_cell_angle_gamma   92.23573363
_symmetry_Int_Tables_number   1
_chemical_formula_structural   LiSbMoF2
_chemical_formula_sum   'Li2 Sb2 Mo2 F4'
_cell_volume   269.86139843
_cell_formula_units_Z   2
loop_
 _symmetry_equiv_pos_site_id
 _symmetry_equiv_pos_as_xyz
  1  'x, y, z'
loop_
 _atom_site_type_symbol
 _atom_site_label
 _atom_site_symmetry_multiplicity
 _atom_site_fract_x
 _atom_site_fract_y
 _atom_site_fract_z
 _atom_site_occupancy
  F  F0  1  0.00000000  0.00000000  0.00000000  1
  F  F1  1  0.33300000  0.66700000  0.25000000  1
  F  F2  1  0.66700000  0.33300000  0.50000000  1
  F  F3  1  0.00000000  0.00000000  0.75000000  1
  Sb  Sb4  1  0.36217259  0.51686674  0.31061664  1
  Sb  Sb5  1  0.99666009  0.60214625  0.48727342  1
  Mo  Mo6  1  0.80950664  0.23506324  0.07254463  1
  Mo  Mo7  1  0.80241249  0.74505997  0.34214515  1
  Li  Li8  1  0.72697495  0.82894445  0.35703444  1
  Li  Li9  1  0.15212304  0.46936527  0.92331746  1
