# generated using pymatgen
data_LiTiSe7OF4
_symmetry_space_group_name_H-M   'P 1'
_cell_length_a   4.38633363
_cell_length_b   4.43687884
_cell_length_c   5.35417882
_cell_angle_alpha   91.94658706
_cell_angle_beta   93.08357073
_cell_angle_gamma   95.43203978
_symmetry_Int_Tables_number   1
_chemical_formula_structural   LiTiSe7OF4
_chemical_formula_sum   'Li1 Ti1 Se7 O1 F4'
_cell_volume   103.50291820
_cell_formula_units_Z   1
loop_
 _symmetry_equiv_pos_site_id
 _symmetry_equiv_pos_as_xyz
  1  'x, y, z'
loop_
 _atom_site_type_symbol
 _atom_site_label
 _atom_site_symmetry_multiplicity
 _atom_site_fract_x
 _atom_site_fract_y
 _atom_site_fract_z
 _atom_site_occupancy
  Ti  Ti0  1  0.00000000  0.00000000  0.00000000  1
  Se  Se1  1  0.50000000  0.50000000  0.50000000  1
  Se  Se2  1  0.50000000  0.50000000  0.00000000  1
  Se  Se3  1  0.50000000  0.00000000  0.50000000  1
  Se  Se4  1  0.00000000  0.50000000  0.50000000  1
  Se  Se5  1  0.12718160  0.50671272  0.69380128  1
  Se  Se6  1  0.44930512  0.17880495  0.40441234  1
  Se  Se7  1  0.66348617  0.58043632  0.45777422  1
  F  F8  1  0.48035728  0.62339714  0.48356087  1
  F  F9  1  0.05410126  0.18766766  0.37024240  1
  F  F10  1  0.44874799  0.74721701  0.01813415  1
  F  F11  1  0.26477710  0.96124872  0.47075387  1
  O  O12  1  0.53761280  0.07335533  0.60418661  1
  Li  Li13  1  0.47385158  0.83633410  0.66520312  1
