# generated using pymatgen
data_Li2LuAs6P5F2
_symmetry_space_group_name_H-M   'P 1'
_cell_length_a   8.10035557
_cell_length_b   7.81942536
_cell_length_c   7.95051280
_cell_angle_alpha   90.67591401
_cell_angle_beta   91.13185198
_cell_angle_gamma   90.73766113
_symmetry_Int_Tables_number   1
_chemical_formula_structural   Li2LuAs6P5F2
_chemical_formula_sum   'Li2 Lu1 As6 P5 F2'
_cell_volume   503.40991784
_cell_formula_units_Z   1
loop_
 _symmetry_equiv_pos_site_id
 _symmetry_equiv_pos_as_xyz
  1  'x, y, z'
loop_
 _atom_site_type_symbol
 _atom_site_label
 _atom_site_symmetry_multiplicity
 _atom_site_fract_x
 _atom_site_fract_y
 _atom_site_fract_z
 _atom_site_occupancy
  P  P0  1  0.12500000  0.00000000  0.25000000  1
  P  P1  1  0.00000000  0.00000000  0.00000000  1
  P  P2  1  0.37500000  0.00000000  0.25000000  1
  P  P3  1  0.25000000  0.25000000  0.25000000  1
  P  P4  1  0.00000000  0.25000000  0.12500000  1
  Lu  Lu5  1  0.17583260  0.79100689  0.16609162  1
  Li  Li6  1  0.71873969  0.60937839  0.04162715  1
  Li  Li7  1  0.55834987  0.97857488  0.56610174  1
  F  F8  1  0.11266649  0.35719604  0.77788221  1
  F  F9  1  0.96963160  0.13632396  0.58136322  1
  As  As10  1  0.98173262  0.63175636  0.89060063  1
  As  As11  1  0.65200881  0.68537800  0.14980075  1
  As  As12  1  0.15794761  0.59107458  0.08243342  1
  As  As13  1  0.04608675  0.97820806  0.97963683  1
  As  As14  1  0.31829645  0.16277248  0.04490812  1
  As  As15  1  0.66519147  0.01313566  0.62363863  1
