# generated using pymatgen
data_Li3Ca2Zn2(I2O)2
_symmetry_space_group_name_H-M   'P 1'
_cell_length_a   6.62508185
_cell_length_b   6.86227467
_cell_length_c   6.53593573
_cell_angle_alpha   91.55418442
_cell_angle_beta   91.99232520
_cell_angle_gamma   93.31116519
_symmetry_Int_Tables_number   1
_chemical_formula_structural   Li3Ca2Zn2(I2O)2
_chemical_formula_sum   'Li3 Ca2 Zn2 I4 O2'
_cell_volume   296.34233199
_cell_formula_units_Z   1
loop_
 _symmetry_equiv_pos_site_id
 _symmetry_equiv_pos_as_xyz
  1  'x, y, z'
loop_
 _atom_site_type_symbol
 _atom_site_label
 _atom_site_symmetry_multiplicity
 _atom_site_fract_x
 _atom_site_fract_y
 _atom_site_fract_z
 _atom_site_occupancy
  I  I0  1  0.00000000  0.00000000  0.00000000  1
  I  I1  1  0.50000000  0.50000000  0.50000000  1
  I  I2  1  0.25000000  0.25000000  0.25000000  1
  I  I3  1  0.75000000  0.25000000  0.00000000  1
  Ca  Ca4  1  0.25000000  0.75000000  0.50000000  1
  Ca  Ca5  1  0.88320787  0.99768914  0.68631940  1
  Li  Li6  1  0.44766797  0.69494346  0.67344112  1
  Li  Li7  1  0.78882631  0.16449580  0.92929731  1
  Li  Li8  1  0.39199116  0.53432993  0.82132046  1
  Zn  Zn9  1  0.91662488  0.25962281  0.44803362  1
  Zn  Zn10  1  0.64562954  0.24177272  0.62423441  1
  O  O11  1  0.74949153  0.53458604  0.93896194  1
  O  O12  1  0.95190805  0.77364190  0.98212216  1
