# generated using pymatgen
data_LiTi2Nb2(NiP2)2
_symmetry_space_group_name_H-M   'P 1'
_cell_length_a   6.65075817
_cell_length_b   6.44520315
_cell_length_c   7.64700430
_cell_angle_alpha   91.04853254
_cell_angle_beta   93.56803130
_cell_angle_gamma   91.06879545
_symmetry_Int_Tables_number   1
_chemical_formula_structural   LiTi2Nb2(NiP2)2
_chemical_formula_sum   'Li1 Ti2 Nb2 Ni2 P4'
_cell_volume   327.03805318
_cell_formula_units_Z   1
loop_
 _symmetry_equiv_pos_site_id
 _symmetry_equiv_pos_as_xyz
  1  'x, y, z'
loop_
 _atom_site_type_symbol
 _atom_site_label
 _atom_site_symmetry_multiplicity
 _atom_site_fract_x
 _atom_site_fract_y
 _atom_site_fract_z
 _atom_site_occupancy
  P  P0  1  0.00000000  0.00000000  0.00000000  1
  P  P1  1  0.50000000  0.50000000  0.50000000  1
  P  P2  1  0.25000000  0.25000000  0.25000000  1
  P  P3  1  0.75000000  0.25000000  0.00000000  1
  Li  Li4  1  0.25000000  0.75000000  0.50000000  1
  Nb  Nb5  1  0.39329105  0.03329337  0.86957410  1
  Nb  Nb6  1  0.65052254  0.57709130  0.58460592  1
  Ni  Ni7  1  0.53963394  0.53723013  0.77553340  1
  Ni  Ni8  1  0.03223125  0.38951796  0.04893726  1
  Ti  Ti9  1  0.62236795  0.37524440  0.42395548  1
  Ti  Ti10  1  0.04776809  0.02815799  0.84606486  1
