# generated using pymatgen
data_Li3Cu2As6(P2O)3
_symmetry_space_group_name_H-M   'P 1'
_cell_length_a   7.40117356
_cell_length_b   7.27702829
_cell_length_c   8.20171222
_cell_angle_alpha   92.66205702
_cell_angle_beta   93.52745367
_cell_angle_gamma   92.71148895
_symmetry_Int_Tables_number   1
_chemical_formula_structural   Li3Cu2As6(P2O)3
_chemical_formula_sum   'Li3 Cu2 As6 P6 O3'
_cell_volume   439.86182791
_cell_formula_units_Z   1
loop_
 _symmetry_equiv_pos_site_id
 _symmetry_equiv_pos_as_xyz
  1  'x, y, z'
loop_
 _atom_site_type_symbol
 _atom_site_label
 _atom_site_symmetry_multiplicity
 _atom_site_fract_x
 _atom_site_fract_y
 _atom_site_fract_z
 _atom_site_occupancy
  P  P0  1  0.00000000  0.00000000  0.00000000  1
  P  P1  1  0.50000000  0.50000000  0.50000000  1
  P  P2  1  0.50000000  0.50000000  0.00000000  1
  P  P3  1  0.50000000  0.00000000  0.50000000  1
  P  P4  1  0.00000000  0.50000000  0.50000000  1
  P  P5  1  0.92889153  0.29442622  0.42029549  1
  Li  Li6  1  0.13972389  0.20702548  0.43906839  1
  Li  Li7  1  0.22041713  0.23232643  0.00871779  1
  Li  Li8  1  0.00027838  0.05976307  0.26832988  1
  Cu  Cu9  1  0.07514908  0.13268332  0.62111793  1
  Cu  Cu10  1  0.78143199  0.29179987  0.68992979  1
  As  As11  1  0.14282020  0.86330720  0.48955967  1
  As  As12  1  0.40317888  0.76140830  0.94804079  1
  As  As13  1  0.89457207  0.89185676  0.09713258  1
  As  As14  1  0.59524632  0.59476283  0.54056625  1
  As  As15  1  0.24887360  0.96722543  0.34015410  1
  As  As16  1  0.36653733  0.67545999  0.61321732  1
  O  O17  1  0.27056407  0.99611182  0.27518006  1
  O  O18  1  0.19446119  0.55411267  0.26098161  1
  O  O19  1  0.43180746  0.35598951  0.80650927  1
