# generated using pymatgen
data_LiMn2Sb4P2N
_symmetry_space_group_name_H-M   'P 1'
_cell_length_a   5.75537506
_cell_length_b   6.14000919
_cell_length_c   6.76243651
_cell_angle_alpha   94.72716736
_cell_angle_beta   92.91956460
_cell_angle_gamma   94.77017395
_symmetry_Int_Tables_number   1
_chemical_formula_structural   LiMn2Sb4P2N
_chemical_formula_sum   'Li1 Mn2 Sb4 P2 N1'
_cell_volume   236.93146594
_cell_formula_units_Z   1
loop_
 _symmetry_equiv_pos_site_id
 _symmetry_equiv_pos_as_xyz
  1  'x, y, z'
loop_
 _atom_site_type_symbol
 _atom_site_label
 _atom_site_symmetry_multiplicity
 _atom_site_fract_x
 _atom_site_fract_y
 _atom_site_fract_z
 _atom_site_occupancy
  N  N0  1  0.00000000  0.00000000  0.00000000  1
  Mn  Mn1  1  0.50000000  0.50000000  0.50000000  1
  Mn  Mn2  1  0.25000000  0.25000000  0.25000000  1
  Sb  Sb3  1  0.75000000  0.25000000  0.00000000  1
  Sb  Sb4  1  0.25000000  0.75000000  0.50000000  1
  Sb  Sb5  1  0.76536227  0.55250611  0.82390501  1
  Sb  Sb6  1  0.97505667  0.34514091  0.52306624  1
  P  P7  1  0.63670856  0.56755337  0.76872278  1
  P  P8  1  0.69025047  0.66185171  0.89564778  1
  Li  Li9  1  0.31138400  0.79190937  0.56842742  1
