# generated using pymatgen
data_Li2Ti(CuP2)2
_symmetry_space_group_name_H-M   'P 1'
_cell_length_a   7.68345649
_cell_length_b   7.45418784
_cell_length_c   7.77273503
_cell_angle_alpha   91.72361087
_cell_angle_beta   91.48327539
_cell_angle_gamma   91.74675900
_symmetry_Int_Tables_number   1
_chemical_formula_structural   Li2Ti(CuP2)2
_chemical_formula_sum   'Li2 Ti1 Cu2 P4'
_cell_volume   444.60680447
_cell_formula_units_Z   1
loop_
 _symmetry_equiv_pos_site_id
 _symmetry_equiv_pos_as_xyz
  1  'x, y, z'
loop_
 _atom_site_type_symbol
 _atom_site_label
 _atom_site_symmetry_multiplicity
 _atom_site_fract_x
 _atom_site_fract_y
 _atom_site_fract_z
 _atom_site_occupancy
  P  P0  1  0.00000000  0.00000000  0.00000000  1
  P  P1  1  0.33300000  0.66700000  0.25000000  1
  P  P2  1  0.66700000  0.33300000  0.50000000  1
  P  P3  1  0.00000000  0.00000000  0.75000000  1
  Li  Li4  1  0.40760943  0.64174844  0.00464957  1
  Li  Li5  1  0.85108277  0.81873815  0.44037687  1
  Cu  Cu6  1  0.33552455  0.54978384  0.86592328  1
  Cu  Cu7  1  0.99069331  0.73980237  0.69160840  1
  Ti  Ti8  1  0.19952907  0.77716548  0.81402267  1
