# generated using pymatgen
data_LiMn(Sb2P)2
_symmetry_space_group_name_H-M   'P 1'
_cell_length_a   5.96670001
_cell_length_b   6.11846267
_cell_length_c   7.03394765
_cell_angle_alpha   96.29438010
_cell_angle_beta   94.16417735
_cell_angle_gamma   96.75125062
_symmetry_Int_Tables_number   1
_chemical_formula_structural   LiMn(Sb2P)2
_chemical_formula_sum   'Li1 Mn1 Sb4 P2'
_cell_volume   252.51793906
_cell_formula_units_Z   1
loop_
 _symmetry_equiv_pos_site_id
 _symmetry_equiv_pos_as_xyz
  1  'x, y, z'
loop_
 _atom_site_type_symbol
 _atom_site_label
 _atom_site_symmetry_multiplicity
 _atom_site_fract_x
 _atom_site_fract_y
 _atom_site_fract_z
 _atom_site_occupancy
  Mn  Mn0  1  0.00000000  0.00000000  0.00000000  1
  Sb  Sb1  1  0.33300000  0.66700000  0.25000000  1
  Sb  Sb2  1  0.66700000  0.33300000  0.50000000  1
  Sb  Sb3  1  0.00000000  0.00000000  0.75000000  1
  Sb  Sb4  1  0.93604734  0.52577099  0.73573813  1
  P  P5  1  0.65080491  0.61302867  0.45977039  1
  P  P6  1  0.57290072  0.68674511  0.76022724  1
  Li  Li7  1  0.17270849  0.65712172  0.75027038  1
