# generated using pymatgen
data_Li4Ni2As6O7
_symmetry_space_group_name_H-M   'P 1'
_cell_length_a   7.72538743
_cell_length_b   7.42395038
_cell_length_c   9.12756488
_cell_angle_alpha   92.33524261
_cell_angle_beta   90.82560632
_cell_angle_gamma   92.70859872
_symmetry_Int_Tables_number   1
_chemical_formula_structural   Li4Ni2As6O7
_chemical_formula_sum   'Li4 Ni2 As6 O7'
_cell_volume   522.40316008
_cell_formula_units_Z   1
loop_
 _symmetry_equiv_pos_site_id
 _symmetry_equiv_pos_as_xyz
  1  'x, y, z'
loop_
 _atom_site_type_symbol
 _atom_site_label
 _atom_site_symmetry_multiplicity
 _atom_site_fract_x
 _atom_site_fract_y
 _atom_site_fract_z
 _atom_site_occupancy
  Li  Li0  1  0.12500000  0.00000000  0.25000000  1
  Li  Li1  1  0.00000000  0.00000000  0.00000000  1
  Li  Li2  1  0.37500000  0.00000000  0.25000000  1
  Li  Li3  1  0.25000000  0.25000000  0.25000000  1
  Ni  Ni4  1  0.00000000  0.25000000  0.12500000  1
  Ni  Ni5  1  0.12429288  0.86387032  0.15128483  1
  As  As6  1  0.25368129  0.26099933  0.52649867  1
  As  As7  1  0.39860441  0.34471444  0.55335569  1
  As  As8  1  0.56890958  0.76803786  0.58709710  1
  As  As9  1  0.63112393  0.59301926  0.56669677  1
  As  As10  1  0.59508612  0.69014796  0.03975241  1
  As  As11  1  0.07890420  0.99243992  0.07872713  1
  O  O12  1  0.80133472  0.25564756  0.81717723  1
  O  O13  1  0.78595600  0.21150079  0.08447385  1
  O  O14  1  0.08700396  0.44869831  0.67951928  1
  O  O15  1  0.26382700  0.21128494  0.75326240  1
  O  O16  1  0.40847139  0.86611813  0.13225942  1
  O  O17  1  0.15553710  0.16131641  0.18885265  1
  O  O18  1  0.44388051  0.16643586  0.64788293  1
