# generated using pymatgen
data_Li2Sb4P2WN
_symmetry_space_group_name_H-M   'P 1'
_cell_length_a   5.95344903
_cell_length_b   5.96359849
_cell_length_c   6.83903978
_cell_angle_alpha   96.56048217
_cell_angle_beta   91.90285315
_cell_angle_gamma   95.77280490
_symmetry_Int_Tables_number   1
_chemical_formula_structural   Li2Sb4P2WN
_chemical_formula_sum   'Li2 Sb4 P2 W1 N1'
_cell_volume   239.75427687
_cell_formula_units_Z   1
loop_
 _symmetry_equiv_pos_site_id
 _symmetry_equiv_pos_as_xyz
  1  'x, y, z'
loop_
 _atom_site_type_symbol
 _atom_site_label
 _atom_site_symmetry_multiplicity
 _atom_site_fract_x
 _atom_site_fract_y
 _atom_site_fract_z
 _atom_site_occupancy
  N  N0  1  0.12500000  0.00000000  0.25000000  1
  W  W1  1  0.00000000  0.00000000  0.00000000  1
  Sb  Sb2  1  0.37500000  0.00000000  0.25000000  1
  Sb  Sb3  1  0.25000000  0.25000000  0.25000000  1
  Sb  Sb4  1  0.00000000  0.25000000  0.12500000  1
  Sb  Sb5  1  0.80690441  0.99972013  0.72719039  1
  P  P6  1  0.90921957  0.05228409  0.44002848  1
  P  P7  1  0.91562557  0.06018747  0.96667491  1
  Li  Li8  1  0.43717195  0.94987059  0.34766922  1
  Li  Li9  1  0.14610182  0.65045491  0.87595549  1
