# generated using pymatgen
data_LiMn2Ni3Sb4P3
_symmetry_space_group_name_H-M   'P 1'
_cell_length_a   5.04480392
_cell_length_b   5.09555858
_cell_length_c   6.71914893
_cell_angle_alpha   95.77708533
_cell_angle_beta   95.43723839
_cell_angle_gamma   96.04920668
_symmetry_Int_Tables_number   1
_chemical_formula_structural   LiMn2Ni3Sb4P3
_chemical_formula_sum   'Li1 Mn2 Ni3 Sb4 P3'
_cell_volume   169.91715841
_cell_formula_units_Z   1
loop_
 _symmetry_equiv_pos_site_id
 _symmetry_equiv_pos_as_xyz
  1  'x, y, z'
loop_
 _atom_site_type_symbol
 _atom_site_label
 _atom_site_symmetry_multiplicity
 _atom_site_fract_x
 _atom_site_fract_y
 _atom_site_fract_z
 _atom_site_occupancy
  Mn  Mn0  1  0.12500000  0.00000000  0.25000000  1
  Mn  Mn1  1  0.00000000  0.00000000  0.00000000  1
  Sb  Sb2  1  0.37500000  0.00000000  0.25000000  1
  Sb  Sb3  1  0.25000000  0.25000000  0.25000000  1
  Sb  Sb4  1  0.00000000  0.25000000  0.12500000  1
  Sb  Sb5  1  0.86492257  0.18611076  0.34703015  1
  P  P6  1  0.34880192  0.03959331  0.22306778  1
  P  P7  1  0.37212261  0.54769956  0.10657245  1
  P  P8  1  0.67818702  0.39132990  0.82297286  1
  Li  Li9  1  0.39347994  0.94951347  0.47728410  1
  Ni  Ni10  1  0.63758088  0.25023455  0.41372043  1
  Ni  Ni11  1  0.43238771  0.30542668  0.93264716  1
  Ni  Ni12  1  0.04008877  0.02052650  0.05772099  1
