# generated using pymatgen
data_Li2MnMo2P3
_symmetry_space_group_name_H-M   'P 1'
_cell_length_a   4.15818511
_cell_length_b   4.37554720
_cell_length_c   6.34688963
_cell_angle_alpha   102.69820451
_cell_angle_beta   95.56453791
_cell_angle_gamma   103.13223145
_symmetry_Int_Tables_number   1
_chemical_formula_structural   Li2MnMo2P3
_chemical_formula_sum   'Li2 Mn1 Mo2 P3'
_cell_volume   108.38734729
_cell_formula_units_Z   1
loop_
 _symmetry_equiv_pos_site_id
 _symmetry_equiv_pos_as_xyz
  1  'x, y, z'
loop_
 _atom_site_type_symbol
 _atom_site_label
 _atom_site_symmetry_multiplicity
 _atom_site_fract_x
 _atom_site_fract_y
 _atom_site_fract_z
 _atom_site_occupancy
  Mn  Mn0  1  0.12500000  0.12500000  0.12500000  1
  P  P1  1  0.50000000  0.50000000  0.50000000  1
  P  P2  1  0.25000000  0.25000000  0.25000000  1
  P  P3  1  0.75000000  0.75000000  0.75000000  1
  Mo  Mo4  1  0.28999766  0.29196060  0.47788678  1
  Mo  Mo5  1  0.35301246  0.00483383  0.50808778  1
  Li  Li6  1  0.13845399  0.64602942  0.13368769  1
  Li  Li7  1  0.05319041  0.84360973  0.33764049  1
