# generated using pymatgen
data_Li3TiAs6I4O5
_symmetry_space_group_name_H-M   'P 1'
_cell_length_a   8.19924432
_cell_length_b   8.07146049
_cell_length_c   8.55348267
_cell_angle_alpha   90.10676603
_cell_angle_beta   90.50796033
_cell_angle_gamma   90.12206208
_symmetry_Int_Tables_number   1
_chemical_formula_structural   Li3TiAs6I4O5
_chemical_formula_sum   'Li3 Ti1 As6 I4 O5'
_cell_volume   566.04389442
_cell_formula_units_Z   1
loop_
 _symmetry_equiv_pos_site_id
 _symmetry_equiv_pos_as_xyz
  1  'x, y, z'
loop_
 _atom_site_type_symbol
 _atom_site_label
 _atom_site_symmetry_multiplicity
 _atom_site_fract_x
 _atom_site_fract_y
 _atom_site_fract_z
 _atom_site_occupancy
  I  I0  1  0.00000000  0.00000000  0.00000000  1
  I  I1  1  0.50000000  0.50000000  0.50000000  1
  I  I2  1  0.25000000  0.25000000  0.25000000  1
  I  I3  1  0.75000000  0.25000000  0.00000000  1
  Li  Li4  1  0.25000000  0.75000000  0.50000000  1
  Li  Li5  1  0.60958434  0.92453848  0.15071963  1
  Li  Li6  1  0.99723812  0.83983976  0.44024444  1
  Ti  Ti7  1  0.90533647  0.74503620  0.76058092  1
  As  As8  1  0.91297536  0.22667716  0.47090249  1
  As  As9  1  0.35351806  0.09992230  0.76438056  1
  As  As10  1  0.50326706  0.88867203  0.98268445  1
  As  As11  1  0.33124633  0.28224567  0.97175555  1
  As  As12  1  0.59072849  0.00525377  0.55339689  1
  As  As13  1  0.65238774  0.30870039  0.20795440  1
  O  O14  1  0.92775039  0.24374850  0.55251298  1
  O  O15  1  0.17791846  0.05751675  0.88456941  1
  O  O16  1  0.74829840  0.60842517  0.37399592  1
  O  O17  1  0.18479565  0.64601605  0.23985577  1
  O  O18  1  0.37602798  0.71659527  0.09776817  1
