# generated using pymatgen
data_Li3Ni2Te6I4O5
_symmetry_space_group_name_H-M   'P 1'
_cell_length_a   7.29139935
_cell_length_b   7.07677087
_cell_length_c   7.85314096
_cell_angle_alpha   95.64587620
_cell_angle_beta   96.35562706
_cell_angle_gamma   95.51362392
_symmetry_Int_Tables_number   1
_chemical_formula_structural   Li3Ni2Te6I4O5
_chemical_formula_sum   'Li3 Ni2 Te6 I4 O5'
_cell_volume   398.42337856
_cell_formula_units_Z   1
loop_
 _symmetry_equiv_pos_site_id
 _symmetry_equiv_pos_as_xyz
  1  'x, y, z'
loop_
 _atom_site_type_symbol
 _atom_site_label
 _atom_site_symmetry_multiplicity
 _atom_site_fract_x
 _atom_site_fract_y
 _atom_site_fract_z
 _atom_site_occupancy
  I  I0  1  0.12500000  0.00000000  0.25000000  1
  I  I1  1  0.00000000  0.00000000  0.00000000  1
  I  I2  1  0.37500000  0.00000000  0.25000000  1
  I  I3  1  0.25000000  0.25000000  0.25000000  1
  Li  Li4  1  0.00000000  0.25000000  0.12500000  1
  Li  Li5  1  0.48325884  0.04827644  0.00442901  1
  Li  Li6  1  0.67280472  0.93549478  0.79496317  1
  Ni  Ni7  1  0.21020730  0.19757419  0.08634390  1
  Ni  Ni8  1  0.79510317  0.85390762  0.64602378  1
  Te  Te9  1  0.61798285  0.02162744  0.63002489  1
  Te  Te10  1  0.13585447  0.41442515  0.83301334  1
  Te  Te11  1  0.72073021  0.31448340  0.10490539  1
  Te  Te12  1  0.81555807  0.34466257  0.71794268  1
  Te  Te13  1  0.06360531  0.15941384  0.81161744  1
  Te  Te14  1  0.64947719  0.25290350  0.74643053  1
  O  O15  1  0.70320949  0.29409149  0.34843669  1
  O  O16  1  0.08782839  0.52370612  0.58147452  1
  O  O17  1  0.42655841  0.76184096  0.95737699  1
  O  O18  1  0.07380858  0.80343282  0.48956270  1
  O  O19  1  0.24280518  0.26014125  0.60614884  1
