# generated using pymatgen
data_LiTi2O3F2
_symmetry_space_group_name_H-M   'P 1'
_cell_length_a   7.04683023
_cell_length_b   6.77735160
_cell_length_c   7.75604703
_cell_angle_alpha   90.69613247
_cell_angle_beta   93.31198686
_cell_angle_gamma   90.79586529
_symmetry_Int_Tables_number   1
_chemical_formula_structural   LiTi2O3F2
_chemical_formula_sum   'Li1 Ti2 O3 F2'
_cell_volume   369.73436252
_cell_formula_units_Z   1
loop_
 _symmetry_equiv_pos_site_id
 _symmetry_equiv_pos_as_xyz
  1  'x, y, z'
loop_
 _atom_site_type_symbol
 _atom_site_label
 _atom_site_symmetry_multiplicity
 _atom_site_fract_x
 _atom_site_fract_y
 _atom_site_fract_z
 _atom_site_occupancy
  Li  Li0  1  0.00000000  0.00000000  0.00000000  1
  F  F1  1  0.33300000  0.66700000  0.25000000  1
  F  F2  1  0.66700000  0.33300000  0.50000000  1
  Ti  Ti3  1  0.00000000  0.00000000  0.75000000  1
  Ti  Ti4  1  0.84232034  0.70652603  0.42778502  1
  O  O5  1  0.74119326  0.27304435  0.54829146  1
  O  O6  1  0.43715531  0.06146917  0.50328546  1
  O  O7  1  0.83119143  0.20120945  0.41644330  1
