# generated using pymatgen
data_Li3TiI4O3
_symmetry_space_group_name_H-M   'P 1'
_cell_length_a   7.11432206
_cell_length_b   6.91817008
_cell_length_c   7.04944132
_cell_angle_alpha   95.99164848
_cell_angle_beta   97.95101709
_cell_angle_gamma   95.63277375
_symmetry_Int_Tables_number   1
_chemical_formula_structural   Li3TiI4O3
_chemical_formula_sum   'Li3 Ti1 I4 O3'
_cell_volume   339.50737129
_cell_formula_units_Z   1
loop_
 _symmetry_equiv_pos_site_id
 _symmetry_equiv_pos_as_xyz
  1  'x, y, z'
loop_
 _atom_site_type_symbol
 _atom_site_label
 _atom_site_symmetry_multiplicity
 _atom_site_fract_x
 _atom_site_fract_y
 _atom_site_fract_z
 _atom_site_occupancy
  I  I0  1  0.12500000  0.12500000  0.12500000  1
  I  I1  1  0.50000000  0.50000000  0.50000000  1
  I  I2  1  0.25000000  0.25000000  0.25000000  1
  I  I3  1  0.75000000  0.75000000  0.75000000  1
  Li  Li4  1  0.70121210  0.65518741  0.54480930  1
  Li  Li5  1  0.52892686  0.28246381  0.94961581  1
  Li  Li6  1  0.22776112  0.08734635  0.42314658  1
  Ti  Ti7  1  0.05901119  0.90534782  0.40773327  1
  O  O8  1  0.01817402  0.33130138  0.42271492  1
  O  O9  1  0.85491269  0.70815131  0.72043835  1
  O  O10  1  0.99107849  0.21706814  0.47966295  1
