# generated using pymatgen
data_Li2Mn2(SbP)3
_symmetry_space_group_name_H-M   'P 1'
_cell_length_a   5.41302835
_cell_length_b   5.79720504
_cell_length_c   6.76647676
_cell_angle_alpha   97.16022117
_cell_angle_beta   93.78996631
_cell_angle_gamma   97.43569181
_symmetry_Int_Tables_number   1
_chemical_formula_structural   Li2Mn2(SbP)3
_chemical_formula_sum   'Li2 Mn2 Sb3 P3'
_cell_volume   208.17649646
_cell_formula_units_Z   1
loop_
 _symmetry_equiv_pos_site_id
 _symmetry_equiv_pos_as_xyz
  1  'x, y, z'
loop_
 _atom_site_type_symbol
 _atom_site_label
 _atom_site_symmetry_multiplicity
 _atom_site_fract_x
 _atom_site_fract_y
 _atom_site_fract_z
 _atom_site_occupancy
  Mn  Mn0  1  0.00000000  0.00000000  0.00000000  1
  Mn  Mn1  1  0.50000000  0.50000000  0.50000000  1
  Sb  Sb2  1  0.25000000  0.25000000  0.25000000  1
  Sb  Sb3  1  0.75000000  0.25000000  0.00000000  1
  Sb  Sb4  1  0.25000000  0.75000000  0.50000000  1
  P  P5  1  0.03895407  0.91898124  0.06772461  1
  P  P6  1  0.53861181  0.05384648  0.04645453  1
  P  P7  1  0.74356947  0.58235962  0.86944224  1
  Li  Li8  1  0.80257440  0.80706730  0.90430108  1
  Li  Li9  1  0.66879866  0.00164006  0.55013423  1
