# generated using pymatgen
data_Li3Ni2As6P4N5
_symmetry_space_group_name_H-M   'P 1'
_cell_length_a   7.44791845
_cell_length_b   7.28859940
_cell_length_c   8.70057999
_cell_angle_alpha   92.33868158
_cell_angle_beta   91.64534269
_cell_angle_gamma   92.70950016
_symmetry_Int_Tables_number   1
_chemical_formula_structural   Li3Ni2As6P4N5
_chemical_formula_sum   'Li3 Ni2 As6 P4 N5'
_cell_volume   471.16686846
_cell_formula_units_Z   1
loop_
 _symmetry_equiv_pos_site_id
 _symmetry_equiv_pos_as_xyz
  1  'x, y, z'
loop_
 _atom_site_type_symbol
 _atom_site_label
 _atom_site_symmetry_multiplicity
 _atom_site_fract_x
 _atom_site_fract_y
 _atom_site_fract_z
 _atom_site_occupancy
  P  P0  1  0.00000000  0.00000000  0.00000000  1
  P  P1  1  0.50000000  0.50000000  0.50000000  1
  P  P2  1  0.50000000  0.50000000  0.00000000  1
  P  P3  1  0.50000000  0.00000000  0.50000000  1
  Li  Li4  1  0.00000000  0.50000000  0.50000000  1
  Li  Li5  1  0.42819834  0.46848028  0.29828705  1
  Li  Li6  1  0.76285079  0.59296179  0.21467063  1
  Ni  Ni7  1  0.93703227  0.89600454  0.85683696  1
  Ni  Ni8  1  0.13749374  0.28852318  0.42114361  1
  As  As9  1  0.58392922  0.34656352  0.38771583  1
  As  As10  1  0.56850207  0.79714594  0.99291383  1
  As  As11  1  0.46515685  0.49182828  0.87523280  1
  As  As12  1  0.13351633  0.79857068  0.45154202  1
  As  As13  1  0.68293706  0.51295745  0.25919815  1
  As  As14  1  0.52701352  0.61706950  0.80395801  1
  N  N15  1  0.49190033  0.76480131  0.88535249  1
  N  N16  1  0.11553594  0.24970038  0.25769496  1
  N  N17  1  0.58749295  0.09545362  0.10565851  1
  N  N18  1  0.51876927  0.09589619  0.06831383  1
  N  N19  1  0.69868429  0.54389611  0.13531707  1
