# generated using pymatgen
data_Li2Ni2P4N5F3
_symmetry_space_group_name_H-M   'P 1'
_cell_length_a   6.88603684
_cell_length_b   6.57353076
_cell_length_c   8.24644778
_cell_angle_alpha   92.18475902
_cell_angle_beta   92.93722907
_cell_angle_gamma   92.52589053
_symmetry_Int_Tables_number   1
_chemical_formula_structural   Li2Ni2P4N5F3
_chemical_formula_sum   'Li2 Ni2 P4 N5 F3'
_cell_volume   372.12246235
_cell_formula_units_Z   1
loop_
 _symmetry_equiv_pos_site_id
 _symmetry_equiv_pos_as_xyz
  1  'x, y, z'
loop_
 _atom_site_type_symbol
 _atom_site_label
 _atom_site_symmetry_multiplicity
 _atom_site_fract_x
 _atom_site_fract_y
 _atom_site_fract_z
 _atom_site_occupancy
  P  P0  1  0.12500000  0.00000000  0.25000000  1
  P  P1  1  0.00000000  0.00000000  0.00000000  1
  P  P2  1  0.37500000  0.00000000  0.25000000  1
  P  P3  1  0.25000000  0.25000000  0.25000000  1
  Li  Li4  1  0.00000000  0.25000000  0.12500000  1
  Li  Li5  1  0.94350983  0.33827771  0.64372802  1
  F  F6  1  0.62866436  0.85431882  0.74722657  1
  F  F7  1  0.48012538  0.49920865  0.27682425  1
  F  F8  1  0.64502986  0.66177838  0.15123611  1
  Ni  Ni9  1  0.47674866  0.38000490  0.92091263  1
  Ni  Ni10  1  0.43934076  0.92531155  0.78345593  1
  N  N11  1  0.25902955  0.46953951  0.80501881  1
  N  N12  1  0.80424661  0.45373946  0.66568286  1
  N  N13  1  0.01798473  0.33546670  0.71879201  1
  N  N14  1  0.78564766  0.61747038  0.70802544  1
  N  N15  1  0.62316378  0.10940876  0.92286706  1
