# generated using pymatgen
data_Li2MnSb4P3
_symmetry_space_group_name_H-M   'P 1'
_cell_length_a   5.40892492
_cell_length_b   5.59173927
_cell_length_c   6.87467368
_cell_angle_alpha   98.28358397
_cell_angle_beta   93.93595246
_cell_angle_gamma   98.60932825
_symmetry_Int_Tables_number   1
_chemical_formula_structural   Li2MnSb4P3
_chemical_formula_sum   'Li2 Mn1 Sb4 P3'
_cell_volume   202.57229392
_cell_formula_units_Z   1
loop_
 _symmetry_equiv_pos_site_id
 _symmetry_equiv_pos_as_xyz
  1  'x, y, z'
loop_
 _atom_site_type_symbol
 _atom_site_label
 _atom_site_symmetry_multiplicity
 _atom_site_fract_x
 _atom_site_fract_y
 _atom_site_fract_z
 _atom_site_occupancy
  Mn  Mn0  1  0.12500000  0.12500000  0.12500000  1
  Sb  Sb1  1  0.50000000  0.50000000  0.50000000  1
  Sb  Sb2  1  0.25000000  0.25000000  0.25000000  1
  Sb  Sb3  1  0.75000000  0.75000000  0.75000000  1
  Sb  Sb4  1  0.21327600  0.56440651  0.06012040  1
  P  P5  1  0.22876131  0.27236727  0.51358355  1
  P  P6  1  0.41285351  0.12737018  0.46848528  1
  P  P7  1  0.77534273  0.11546237  0.10993976  1
  Li  Li8  1  0.30246045  0.04713414  0.34463956  1
  Li  Li9  1  0.14423552  0.58954099  0.32802899  1
