# generated using pymatgen
data_Li2Mn2Sb4P3
_symmetry_space_group_name_H-M   'P 1'
_cell_length_a   6.27478154
_cell_length_b   6.58516739
_cell_length_c   7.31320608
_cell_angle_alpha   94.28181702
_cell_angle_beta   93.64845798
_cell_angle_gamma   94.67495987
_symmetry_Int_Tables_number   1
_chemical_formula_structural   Li2Mn2Sb4P3
_chemical_formula_sum   'Li2 Mn2 Sb4 P3'
_cell_volume   299.59940250
_cell_formula_units_Z   1
loop_
 _symmetry_equiv_pos_site_id
 _symmetry_equiv_pos_as_xyz
  1  'x, y, z'
loop_
 _atom_site_type_symbol
 _atom_site_label
 _atom_site_symmetry_multiplicity
 _atom_site_fract_x
 _atom_site_fract_y
 _atom_site_fract_z
 _atom_site_occupancy
  Mn  Mn0  1  0.00000000  0.00000000  0.00000000  1
  Mn  Mn1  1  0.33300000  0.66700000  0.25000000  1
  Sb  Sb2  1  0.66700000  0.33300000  0.50000000  1
  Sb  Sb3  1  0.00000000  0.00000000  0.75000000  1
  Sb  Sb4  1  0.60185702  0.17059336  0.97326458  1
  Sb  Sb5  1  0.64371624  0.46549586  0.50409698  1
  P  P6  1  0.09611852  0.17128337  0.39245822  1
  P  P7  1  0.81764451  0.21211685  0.10434423  1
  P  P8  1  0.11784925  0.17512665  0.96552940  1
  Li  Li9  1  0.93144373  0.27214706  0.80978468  1
  Li  Li10  1  0.07618741  0.97984573  0.26010489  1
