# generated using pymatgen
data_Li2Sb4P3N5
_symmetry_space_group_name_H-M   'P 1'
_cell_length_a   6.65193913
_cell_length_b   6.89942034
_cell_length_c   7.25458295
_cell_angle_alpha   96.41401801
_cell_angle_beta   91.88504805
_cell_angle_gamma   96.65570353
_symmetry_Int_Tables_number   1
_chemical_formula_structural   Li2Sb4P3N5
_chemical_formula_sum   'Li2 Sb4 P3 N5'
_cell_volume   328.27714801
_cell_formula_units_Z   1
loop_
 _symmetry_equiv_pos_site_id
 _symmetry_equiv_pos_as_xyz
  1  'x, y, z'
loop_
 _atom_site_type_symbol
 _atom_site_label
 _atom_site_symmetry_multiplicity
 _atom_site_fract_x
 _atom_site_fract_y
 _atom_site_fract_z
 _atom_site_occupancy
  Sb  Sb0  1  0.00000000  0.00000000  0.00000000  1
  Sb  Sb1  1  0.33300000  0.66700000  0.25000000  1
  Sb  Sb2  1  0.66700000  0.33300000  0.50000000  1
  Sb  Sb3  1  0.00000000  0.00000000  0.75000000  1
  P  P4  1  0.46335633  0.03073739  0.20343130  1
  P  P5  1  0.02755600  0.83053362  0.45586968  1
  P  P6  1  0.92300883  0.32054243  0.12746533  1
  Li  Li7  1  0.91996518  0.13868278  0.44476580  1
  Li  Li8  1  0.79414786  0.34929322  0.59229287  1
  N  N9  1  0.76270511  0.68282401  0.78099926  1
  N  N10  1  0.48266467  0.82528426  0.87849563  1
  N  N11  1  0.78910137  0.43014597  0.59007497  1
  N  N12  1  0.28625002  0.37969883  0.33612313  1
  N  N13  1  0.08021943  0.16172992  0.63388669  1
