# generated using pymatgen
data_Li3TiI4(OF)3
_symmetry_space_group_name_H-M   'P 1'
_cell_length_a   5.45662454
_cell_length_b   5.17657979
_cell_length_c   6.85377966
_cell_angle_alpha   102.29040661
_cell_angle_beta   106.10379478
_cell_angle_gamma   101.54207645
_symmetry_Int_Tables_number   1
_chemical_formula_structural   Li3TiI4(OF)3
_chemical_formula_sum   'Li3 Ti1 I4 O3 F3'
_cell_volume   174.67558935
_cell_formula_units_Z   1
loop_
 _symmetry_equiv_pos_site_id
 _symmetry_equiv_pos_as_xyz
  1  'x, y, z'
loop_
 _atom_site_type_symbol
 _atom_site_label
 _atom_site_symmetry_multiplicity
 _atom_site_fract_x
 _atom_site_fract_y
 _atom_site_fract_z
 _atom_site_occupancy
  I  I0  1  0.00000000  0.00000000  0.00000000  1
  I  I1  1  0.50000000  0.50000000  0.50000000  1
  I  I2  1  0.50000000  0.50000000  0.00000000  1
  I  I3  1  0.50000000  0.00000000  0.50000000  1
  Li  Li4  1  0.00000000  0.50000000  0.50000000  1
  Li  Li5  1  0.25002432  0.75477061  0.47538999  1
  Li  Li6  1  0.53199996  0.91282339  0.28153050  1
  F  F7  1  0.26516847  0.32970008  0.68375987  1
  F  F8  1  0.47322036  0.66065909  0.51947601  1
  F  F9  1  0.33789546  0.17751462  0.77312978  1
  Ti  Ti10  1  0.41970495  0.28356339  0.25527343  1
  O  O11  1  0.05300396  0.43638142  0.88295891  1
  O  O12  1  0.91794483  0.58210514  0.03176452  1
  O  O13  1  0.81333497  0.63838116  0.63242305  1
