# generated using pymatgen
data_Li2Ti(Te3O)2
_symmetry_space_group_name_H-M   'P 1'
_cell_length_a   6.99475821
_cell_length_b   7.28548016
_cell_length_c   7.02592103
_cell_angle_alpha   94.24609225
_cell_angle_beta   96.01954271
_cell_angle_gamma   95.22203409
_symmetry_Int_Tables_number   1
_chemical_formula_structural   Li2Ti(Te3O)2
_chemical_formula_sum   'Li2 Ti1 Te6 O2'
_cell_volume   353.32493923
_cell_formula_units_Z   1
loop_
 _symmetry_equiv_pos_site_id
 _symmetry_equiv_pos_as_xyz
  1  'x, y, z'
loop_
 _atom_site_type_symbol
 _atom_site_label
 _atom_site_symmetry_multiplicity
 _atom_site_fract_x
 _atom_site_fract_y
 _atom_site_fract_z
 _atom_site_occupancy
  Li  Li0  1  0.12500000  0.12500000  0.12500000  1
  Li  Li1  1  0.50000000  0.50000000  0.50000000  1
  Te  Te2  1  0.25000000  0.25000000  0.25000000  1
  Te  Te3  1  0.75000000  0.75000000  0.75000000  1
  Te  Te4  1  0.00688800  0.68650707  0.93429106  1
  Te  Te5  1  0.79041109  0.91589826  0.22138649  1
  Te  Te6  1  0.27612171  0.50813556  0.25778029  1
  Te  Te7  1  0.59093858  0.88870479  0.62069885  1
  Ti  Ti8  1  0.70415026  0.23423279  0.35710587  1
  O  O9  1  0.26952686  0.20948047  0.32005602  1
  O  O10  1  0.12012090  0.35389995  0.25566244  1
