# generated using pymatgen
data_Li2Cu2As6(PN)5
_symmetry_space_group_name_H-M   'P 1'
_cell_length_a   7.41609317
_cell_length_b   7.43195645
_cell_length_c   8.40749264
_cell_angle_alpha   91.90826636
_cell_angle_beta   92.68298944
_cell_angle_gamma   92.03929411
_symmetry_Int_Tables_number   1
_chemical_formula_structural   Li2Cu2As6(PN)5
_chemical_formula_sum   'Li2 Cu2 As6 P5 N5'
_cell_volume   462.30309201
_cell_formula_units_Z   1
loop_
 _symmetry_equiv_pos_site_id
 _symmetry_equiv_pos_as_xyz
  1  'x, y, z'
loop_
 _atom_site_type_symbol
 _atom_site_label
 _atom_site_symmetry_multiplicity
 _atom_site_fract_x
 _atom_site_fract_y
 _atom_site_fract_z
 _atom_site_occupancy
  P  P0  1  0.00000000  0.00000000  0.00000000  1
  P  P1  1  0.50000000  0.50000000  0.50000000  1
  P  P2  1  0.25000000  0.25000000  0.25000000  1
  P  P3  1  0.75000000  0.25000000  0.00000000  1
  P  P4  1  0.25000000  0.75000000  0.50000000  1
  Li  Li5  1  0.09627294  0.75099587  0.55018099  1
  Li  Li6  1  0.40566093  0.84014478  0.41014945  1
  Cu  Cu7  1  0.32259962  0.55146870  0.37703706  1
  Cu  Cu8  1  0.96393986  0.82213497  0.06654563  1
  As  As9  1  0.42074218  0.41872520  0.86960560  1
  As  As10  1  0.41176333  0.73060500  0.96480955  1
  As  As11  1  0.76206035  0.71770593  0.84087472  1
  As  As12  1  0.29755468  0.69013177  0.91945038  1
  As  As13  1  0.60307034  0.90776142  0.33789772  1
  As  As14  1  0.25277054  0.15432804  0.89554804  1
  N  N15  1  0.84809005  0.36930327  0.38971664  1
  N  N16  1  0.92180060  0.34681021  0.30477394  1
  N  N17  1  0.16886009  0.64836333  0.44029834  1
  N  N18  1  0.84952891  0.60481921  0.85745589  1
  N  N19  1  0.55813939  0.05997682  0.44752311  1
