# generated using pymatgen
data_Li2Lu(CuAs3)2
_symmetry_space_group_name_H-M   'P 1'
_cell_length_a   7.55958128
_cell_length_b   7.52912777
_cell_length_c   8.44486594
_cell_angle_alpha   91.16630518
_cell_angle_beta   91.73471910
_cell_angle_gamma   91.34778497
_symmetry_Int_Tables_number   1
_chemical_formula_structural   Li2Lu(CuAs3)2
_chemical_formula_sum   'Li2 Lu1 Cu2 As6'
_cell_volume   480.19693571
_cell_formula_units_Z   1
loop_
 _symmetry_equiv_pos_site_id
 _symmetry_equiv_pos_as_xyz
  1  'x, y, z'
loop_
 _atom_site_type_symbol
 _atom_site_label
 _atom_site_symmetry_multiplicity
 _atom_site_fract_x
 _atom_site_fract_y
 _atom_site_fract_z
 _atom_site_occupancy
  Lu  Lu0  1  0.12500000  0.12500000  0.12500000  1
  As  As1  1  0.50000000  0.50000000  0.50000000  1
  As  As2  1  0.25000000  0.25000000  0.25000000  1
  As  As3  1  0.75000000  0.75000000  0.75000000  1
  As  As4  1  0.86994334  0.44664817  0.51567003  1
  As  As5  1  0.15521611  0.77976490  0.83320725  1
  As  As6  1  0.74518725  0.68656991  0.40023115  1
  Li  Li7  1  0.84013283  0.05936209  0.24392022  1
  Li  Li8  1  0.94031914  0.04710624  0.20975766  1
  Cu  Cu9  1  0.35150705  0.30776412  0.74654680  1
  Cu  Cu10  1  0.20025012  0.75101912  0.81363512  1
