# generated using pymatgen
data_LiMn2Sb4Mo2P3
_symmetry_space_group_name_H-M   'P 1'
_cell_length_a   5.81344088
_cell_length_b   6.16665345
_cell_length_c   6.77195862
_cell_angle_alpha   93.16397382
_cell_angle_beta   92.95061698
_cell_angle_gamma   93.24814518
_symmetry_Int_Tables_number   1
_chemical_formula_structural   LiMn2Sb4Mo2P3
_chemical_formula_sum   'Li1 Mn2 Sb4 Mo2 P3'
_cell_volume   241.64837094
_cell_formula_units_Z   1
loop_
 _symmetry_equiv_pos_site_id
 _symmetry_equiv_pos_as_xyz
  1  'x, y, z'
loop_
 _atom_site_type_symbol
 _atom_site_label
 _atom_site_symmetry_multiplicity
 _atom_site_fract_x
 _atom_site_fract_y
 _atom_site_fract_z
 _atom_site_occupancy
  Mn  Mn0  1  0.00000000  0.00000000  0.00000000  1
  Mn  Mn1  1  0.50000000  0.50000000  0.50000000  1
  Sb  Sb2  1  0.50000000  0.50000000  0.00000000  1
  Sb  Sb3  1  0.50000000  0.00000000  0.50000000  1
  Sb  Sb4  1  0.00000000  0.50000000  0.50000000  1
  Sb  Sb5  1  0.76055846  0.85218318  0.49473643  1
  P  P6  1  0.20856462  0.06986188  0.24068338  1
  P  P7  1  0.15449471  0.38472495  0.38455999  1
  P  P8  1  0.33936794  0.22159411  0.52819775  1
  Mo  Mo9  1  0.75228937  0.65374963  0.19090385  1
  Mo  Mo10  1  0.86914179  0.72761961  0.59256296  1
  Li  Li11  1  0.35379658  0.93182567  0.36209590  1
