# generated using pymatgen
data_Li2MnSb4P3
_symmetry_space_group_name_H-M   'P 1'
_cell_length_a   5.38386070
_cell_length_b   5.79101159
_cell_length_c   6.91283997
_cell_angle_alpha   97.31841385
_cell_angle_beta   94.68995900
_cell_angle_gamma   97.77507589
_symmetry_Int_Tables_number   1
_chemical_formula_structural   Li2MnSb4P3
_chemical_formula_sum   'Li2 Mn1 Sb4 P3'
_cell_volume   210.73004738
_cell_formula_units_Z   1
loop_
 _symmetry_equiv_pos_site_id
 _symmetry_equiv_pos_as_xyz
  1  'x, y, z'
loop_
 _atom_site_type_symbol
 _atom_site_label
 _atom_site_symmetry_multiplicity
 _atom_site_fract_x
 _atom_site_fract_y
 _atom_site_fract_z
 _atom_site_occupancy
  Mn  Mn0  1  0.00000000  0.00000000  0.00000000  1
  Sb  Sb1  1  0.50000000  0.50000000  0.50000000  1
  Sb  Sb2  1  0.50000000  0.50000000  0.00000000  1
  Sb  Sb3  1  0.50000000  0.00000000  0.50000000  1
  Sb  Sb4  1  0.00000000  0.50000000  0.50000000  1
  P  P5  1  0.83424988  0.00277846  0.18288316  1
  P  P6  1  0.76014682  0.59318555  0.70202331  1
  P  P7  1  0.04058997  0.56016027  0.84587936  1
  Li  Li8  1  0.83470370  0.43436132  0.67429740  1
  Li  Li9  1  0.60624945  0.13498662  0.83538431  1
