# generated using pymatgen
data_Li2Lu(CuP2)2
_symmetry_space_group_name_H-M   'P 1'
_cell_length_a   7.44769315
_cell_length_b   7.22975029
_cell_length_c   7.98872781
_cell_angle_alpha   91.78001137
_cell_angle_beta   91.68857370
_cell_angle_gamma   91.96990384
_symmetry_Int_Tables_number   1
_chemical_formula_structural   Li2Lu(CuP2)2
_chemical_formula_sum   'Li2 Lu1 Cu2 P4'
_cell_volume   429.49029547
_cell_formula_units_Z   1
loop_
 _symmetry_equiv_pos_site_id
 _symmetry_equiv_pos_as_xyz
  1  'x, y, z'
loop_
 _atom_site_type_symbol
 _atom_site_label
 _atom_site_symmetry_multiplicity
 _atom_site_fract_x
 _atom_site_fract_y
 _atom_site_fract_z
 _atom_site_occupancy
  P  P0  1  0.00000000  0.00000000  0.00000000  1
  P  P1  1  0.50000000  0.50000000  0.50000000  1
  P  P2  1  0.50000000  0.50000000  0.00000000  1
  P  P3  1  0.50000000  0.00000000  0.50000000  1
  Lu  Lu4  1  0.00000000  0.50000000  0.50000000  1
  Li  Li5  1  0.19190189  0.31591288  0.85996162  1
  Li  Li6  1  0.90973834  0.67489490  0.71360526  1
  Cu  Cu7  1  0.36663950  0.75480781  0.87607878  1
  Cu  Cu8  1  0.31910827  0.88451332  0.56172928  1
