# generated using pymatgen
data_Li3TiS3I4O3
_symmetry_space_group_name_H-M   'P 1'
_cell_length_a   8.40290095
_cell_length_b   8.42826843
_cell_length_c   7.53950993
_cell_angle_alpha   90.00000000
_cell_angle_beta   90.00000000
_cell_angle_gamma   90.00000000
_symmetry_Int_Tables_number   1
_chemical_formula_structural   Li3TiS3I4O3
_chemical_formula_sum   'Li3 Ti1 S3 I4 O3'
_cell_volume   533.96245452
_cell_formula_units_Z   1
loop_
 _symmetry_equiv_pos_site_id
 _symmetry_equiv_pos_as_xyz
  1  'x, y, z'
loop_
 _atom_site_type_symbol
 _atom_site_label
 _atom_site_symmetry_multiplicity
 _atom_site_fract_x
 _atom_site_fract_y
 _atom_site_fract_z
 _atom_site_occupancy
  I  I0  1  0.12500000  0.00000000  0.25000000  1
  I  I1  1  0.00000000  0.00000000  0.00000000  1
  I  I2  1  0.37500000  0.00000000  0.25000000  1
  I  I3  1  0.25000000  0.25000000  0.25000000  1
  Li  Li4  1  0.00000000  0.25000000  0.12500000  1
  Li  Li5  1  0.02261825  0.96423053  0.12935058  1
  Li  Li6  1  0.49288651  0.95304306  0.07798600  1
  S  S7  1  0.59218747  0.86709204  0.81902155  1
  S  S8  1  0.14623657  0.60549203  0.99916294  1
  S  S9  1  0.74981823  0.92660549  0.38597537  1
  Ti  Ti10  1  0.58440537  0.26889182  0.27060317  1
  O  O11  1  0.25795552  0.80757382  0.81432932  1
  O  O12  1  0.88012118  0.68961407  0.49948987  1
  O  O13  1  0.61879052  0.16769770  0.79163789  1
