# generated using pymatgen
data_Li3Ti(As3O2)2
_symmetry_space_group_name_H-M   'P 1'
_cell_length_a   8.31577416
_cell_length_b   8.15788749
_cell_length_c   7.76712027
_cell_angle_alpha   90.76203810
_cell_angle_beta   90.58164329
_cell_angle_gamma   90.88269425
_symmetry_Int_Tables_number   1
_chemical_formula_structural   Li3Ti(As3O2)2
_chemical_formula_sum   'Li3 Ti1 As6 O4'
_cell_volume   526.77744830
_cell_formula_units_Z   1
loop_
 _symmetry_equiv_pos_site_id
 _symmetry_equiv_pos_as_xyz
  1  'x, y, z'
loop_
 _atom_site_type_symbol
 _atom_site_label
 _atom_site_symmetry_multiplicity
 _atom_site_fract_x
 _atom_site_fract_y
 _atom_site_fract_z
 _atom_site_occupancy
  Li  Li0  1  0.00000000  0.00000000  0.00000000  1
  Li  Li1  1  0.50000000  0.50000000  0.50000000  1
  Li  Li2  1  0.25000000  0.25000000  0.25000000  1
  Ti  Ti3  1  0.75000000  0.25000000  0.00000000  1
  As  As4  1  0.25000000  0.75000000  0.50000000  1
  As  As5  1  0.99029147  0.14524799  0.31008751  1
  As  As6  1  0.80930757  0.97290081  0.98867276  1
  As  As7  1  0.75521479  0.16407007  0.94765930  1
  As  As8  1  0.02895197  0.18020247  0.74352558  1
  As  As9  1  0.03643822  0.85782412  0.42614943  1
  O  O10  1  0.29712915  0.06971484  0.44521496  1
  O  O11  1  0.88155254  0.85620381  0.97995671  1
  O  O12  1  0.10890341  0.36672909  0.46948982  1
  O  O13  1  0.63681487  0.00899182  0.97639181  1
