# generated using pymatgen
data_Li2Mn3Sb4P3
_symmetry_space_group_name_H-M   'P 1'
_cell_length_a   5.12616908
_cell_length_b   5.42248424
_cell_length_c   6.28115794
_cell_angle_alpha   101.55421263
_cell_angle_beta   90.57721107
_cell_angle_gamma   101.32439930
_symmetry_Int_Tables_number   1
_chemical_formula_structural   Li2Mn3Sb4P3
_chemical_formula_sum   'Li2 Mn3 Sb4 P3'
_cell_volume   167.50437235
_cell_formula_units_Z   1
loop_
 _symmetry_equiv_pos_site_id
 _symmetry_equiv_pos_as_xyz
  1  'x, y, z'
loop_
 _atom_site_type_symbol
 _atom_site_label
 _atom_site_symmetry_multiplicity
 _atom_site_fract_x
 _atom_site_fract_y
 _atom_site_fract_z
 _atom_site_occupancy
  Mn  Mn0  1  0.00000000  0.00000000  0.00000000  1
  Mn  Mn1  1  0.33300000  0.66700000  0.25000000  1
  Mn  Mn2  1  0.66700000  0.33300000  0.50000000  1
  Sb  Sb3  1  0.00000000  0.00000000  0.75000000  1
  Sb  Sb4  1  0.92632970  0.96217975  0.11244859  1
  Sb  Sb5  1  0.12041190  0.31758518  0.17953173  1
  Sb  Sb6  1  0.05618570  0.88517828  0.63022348  1
  P  P7  1  0.09667395  0.60637629  0.78070234  1
  P  P8  1  0.67018646  0.43368005  0.16159971  1
  P  P9  1  0.86206107  0.60694975  0.04653469  1
  Li  Li10  1  0.26711415  0.49979281  0.59888663  1
  Li  Li11  1  0.87227755  0.33580346  0.12707876  1
