# generated using pymatgen
data_LiMn2Sb4P3
_symmetry_space_group_name_H-M   'P 1'
_cell_length_a   6.09036090
_cell_length_b   6.57406463
_cell_length_c   7.14513686
_cell_angle_alpha   93.79724365
_cell_angle_beta   93.73510314
_cell_angle_gamma   94.15990838
_symmetry_Int_Tables_number   1
_chemical_formula_structural   LiMn2Sb4P3
_chemical_formula_sum   'Li1 Mn2 Sb4 P3'
_cell_volume   283.99584828
_cell_formula_units_Z   1
loop_
 _symmetry_equiv_pos_site_id
 _symmetry_equiv_pos_as_xyz
  1  'x, y, z'
loop_
 _atom_site_type_symbol
 _atom_site_label
 _atom_site_symmetry_multiplicity
 _atom_site_fract_x
 _atom_site_fract_y
 _atom_site_fract_z
 _atom_site_occupancy
  Mn  Mn0  1  0.00000000  0.00000000  0.00000000  1
  Mn  Mn1  1  0.50000000  0.50000000  0.50000000  1
  Sb  Sb2  1  0.25000000  0.25000000  0.25000000  1
  Sb  Sb3  1  0.75000000  0.25000000  0.00000000  1
  Sb  Sb4  1  0.25000000  0.75000000  0.50000000  1
  Sb  Sb5  1  0.75518918  0.37065577  0.83720112  1
  P  P6  1  0.75549372  0.39356124  0.48828757  1
  P  P7  1  0.85280796  0.62019771  0.27599078  1
  P  P8  1  0.92118033  0.13275795  0.31927273  1
  Li  Li9  1  0.31695500  0.09171856  0.83780654  1
