# generated using pymatgen
data_Li2MnSb4P3
_symmetry_space_group_name_H-M   'P 1'
_cell_length_a   5.99464172
_cell_length_b   6.39010503
_cell_length_c   7.31750236
_cell_angle_alpha   94.32070606
_cell_angle_beta   95.11827555
_cell_angle_gamma   94.91749696
_symmetry_Int_Tables_number   1
_chemical_formula_structural   Li2MnSb4P3
_chemical_formula_sum   'Li2 Mn1 Sb4 P3'
_cell_volume   277.18741760
_cell_formula_units_Z   1
loop_
 _symmetry_equiv_pos_site_id
 _symmetry_equiv_pos_as_xyz
  1  'x, y, z'
loop_
 _atom_site_type_symbol
 _atom_site_label
 _atom_site_symmetry_multiplicity
 _atom_site_fract_x
 _atom_site_fract_y
 _atom_site_fract_z
 _atom_site_occupancy
  Mn  Mn0  1  0.12500000  0.00000000  0.25000000  1
  Sb  Sb1  1  0.00000000  0.00000000  0.00000000  1
  Sb  Sb2  1  0.37500000  0.00000000  0.25000000  1
  Sb  Sb3  1  0.25000000  0.25000000  0.25000000  1
  Sb  Sb4  1  0.00000000  0.25000000  0.12500000  1
  P  P5  1  0.80414330  0.78292936  0.67137465  1
  P  P6  1  0.36300534  0.37108280  0.73139174  1
  P  P7  1  0.67857600  0.06447209  0.86192474  1
  Li  Li8  1  0.84484321  0.57817292  0.85704635  1
  Li  Li9  1  0.48638462  0.83740078  0.06221624  1
