# generated using pymatgen
data_Li2Mn2Sb4P3
_symmetry_space_group_name_H-M   'P 1'
_cell_length_a   7.05997387
_cell_length_b   7.44724178
_cell_length_c   7.41650077
_cell_angle_alpha   92.42737784
_cell_angle_beta   90.92747430
_cell_angle_gamma   92.49137306
_symmetry_Int_Tables_number   1
_chemical_formula_structural   Li2Mn2Sb4P3
_chemical_formula_sum   'Li2 Mn2 Sb4 P3'
_cell_volume   389.15819822
_cell_formula_units_Z   1
loop_
 _symmetry_equiv_pos_site_id
 _symmetry_equiv_pos_as_xyz
  1  'x, y, z'
loop_
 _atom_site_type_symbol
 _atom_site_label
 _atom_site_symmetry_multiplicity
 _atom_site_fract_x
 _atom_site_fract_y
 _atom_site_fract_z
 _atom_site_occupancy
  Mn  Mn0  1  0.00000000  0.00000000  0.00000000  1
  Mn  Mn1  1  0.33300000  0.66700000  0.25000000  1
  Sb  Sb2  1  0.66700000  0.33300000  0.50000000  1
  Sb  Sb3  1  0.00000000  0.00000000  0.75000000  1
  Sb  Sb4  1  0.02867207  0.02498414  0.39432122  1
  Sb  Sb5  1  0.37113898  0.69795561  0.02892768  1
  P  P6  1  0.83928326  0.85683943  0.89316215  1
  P  P7  1  0.65117945  0.74685527  0.34153872  1
  P  P8  1  0.07131265  0.32365157  0.83531393  1
  Li  Li9  1  0.61557992  0.83341513  0.95618139  1
  Li  Li10  1  0.58453159  0.90298997  0.99754018  1
