# generated using pymatgen
data_Li3(NiAs3)2
_symmetry_space_group_name_H-M   'P 1'
_cell_length_a   7.69265567
_cell_length_b   7.50418570
_cell_length_c   8.77389785
_cell_angle_alpha   91.66094946
_cell_angle_beta   91.15417564
_cell_angle_gamma   91.92436180
_symmetry_Int_Tables_number   1
_chemical_formula_structural   Li3(NiAs3)2
_chemical_formula_sum   'Li3 Ni2 As6'
_cell_volume   505.88045042
_cell_formula_units_Z   1
loop_
 _symmetry_equiv_pos_site_id
 _symmetry_equiv_pos_as_xyz
  1  'x, y, z'
loop_
 _atom_site_type_symbol
 _atom_site_label
 _atom_site_symmetry_multiplicity
 _atom_site_fract_x
 _atom_site_fract_y
 _atom_site_fract_z
 _atom_site_occupancy
  Li  Li0  1  0.00000000  0.00000000  0.00000000  1
  Li  Li1  1  0.50000000  0.50000000  0.50000000  1
  Li  Li2  1  0.25000000  0.25000000  0.25000000  1
  Ni  Ni3  1  0.75000000  0.25000000  0.00000000  1
  Ni  Ni4  1  0.25000000  0.75000000  0.50000000  1
  As  As5  1  0.49106151  0.24991733  0.38579076  1
  As  As6  1  0.52269685  0.04828653  0.99618557  1
  As  As7  1  0.92604033  0.38674097  0.70172604  1
  As  As8  1  0.95196144  0.94858464  0.06571972  1
  As  As9  1  0.27315170  0.06437193  0.16683880  1
  As  As10  1  0.48194682  0.71016283  0.83254362  1
