# generated using pymatgen
data_LiMn3Sb4P3
_symmetry_space_group_name_H-M   'P 1'
_cell_length_a   5.76434947
_cell_length_b   6.14236283
_cell_length_c   6.54142309
_cell_angle_alpha   96.49757468
_cell_angle_beta   90.62382089
_cell_angle_gamma   96.51675981
_symmetry_Int_Tables_number   1
_chemical_formula_structural   LiMn3Sb4P3
_chemical_formula_sum   'Li1 Mn3 Sb4 P3'
_cell_volume   228.56969500
_cell_formula_units_Z   1
loop_
 _symmetry_equiv_pos_site_id
 _symmetry_equiv_pos_as_xyz
  1  'x, y, z'
loop_
 _atom_site_type_symbol
 _atom_site_label
 _atom_site_symmetry_multiplicity
 _atom_site_fract_x
 _atom_site_fract_y
 _atom_site_fract_z
 _atom_site_occupancy
  Mn  Mn0  1  0.00000000  0.00000000  0.00000000  1
  Mn  Mn1  1  0.33300000  0.66700000  0.25000000  1
  Mn  Mn2  1  0.66700000  0.33300000  0.50000000  1
  Sb  Sb3  1  0.00000000  0.00000000  0.75000000  1
  Sb  Sb4  1  0.42486754  0.73474625  0.61595614  1
  Sb  Sb5  1  0.72019959  0.05928657  0.97261391  1
  Sb  Sb6  1  0.82153306  0.14128627  0.52944879  1
  P  P7  1  0.11602412  0.78515936  0.74644042  1
  P  P8  1  0.53249329  0.64433980  0.66185315  1
  P  P9  1  0.51787899  0.65382256  0.81981736  1
  Li  Li10  1  0.09893996  0.17892216  0.36201188  1
