# generated using pymatgen
data_LiTi3Nb2(OF)3
_symmetry_space_group_name_H-M   'P 1'
_cell_length_a   7.55042287
_cell_length_b   7.38090853
_cell_length_c   7.97492195
_cell_angle_alpha   90.49202304
_cell_angle_beta   92.34089618
_cell_angle_gamma   90.56251371
_symmetry_Int_Tables_number   1
_chemical_formula_structural   LiTi3Nb2(OF)3
_chemical_formula_sum   'Li1 Ti3 Nb2 O3 F3'
_cell_volume   444.02401803
_cell_formula_units_Z   1
loop_
 _symmetry_equiv_pos_site_id
 _symmetry_equiv_pos_as_xyz
  1  'x, y, z'
loop_
 _atom_site_type_symbol
 _atom_site_label
 _atom_site_symmetry_multiplicity
 _atom_site_fract_x
 _atom_site_fract_y
 _atom_site_fract_z
 _atom_site_occupancy
  Li  Li0  1  0.12500000  0.00000000  0.25000000  1
  Nb  Nb1  1  0.00000000  0.00000000  0.00000000  1
  Nb  Nb2  1  0.37500000  0.00000000  0.25000000  1
  F  F3  1  0.25000000  0.25000000  0.25000000  1
  F  F4  1  0.00000000  0.25000000  0.12500000  1
  F  F5  1  0.13580614  0.04661919  0.04180881  1
  Ti  Ti6  1  0.20039505  0.06173810  0.87175860  1
  Ti  Ti7  1  0.63581295  0.63961054  0.49065417  1
  Ti  Ti8  1  0.68679853  0.75350232  0.13793738  1
  O  O9  1  0.09757093  0.04587709  0.51182338  1
  O  O10  1  0.02706733  0.42878758  0.98279335  1
  O  O11  1  0.87611232  0.74796074  0.60404153  1
