# generated using pymatgen
data_Li2MnSb4P3
_symmetry_space_group_name_H-M   'P 1'
_cell_length_a   5.50063650
_cell_length_b   5.60676937
_cell_length_c   7.03392304
_cell_angle_alpha   97.54738786
_cell_angle_beta   94.69601306
_cell_angle_gamma   97.99874571
_symmetry_Int_Tables_number   1
_chemical_formula_structural   Li2MnSb4P3
_chemical_formula_sum   'Li2 Mn1 Sb4 P3'
_cell_volume   211.84920316
_cell_formula_units_Z   1
loop_
 _symmetry_equiv_pos_site_id
 _symmetry_equiv_pos_as_xyz
  1  'x, y, z'
loop_
 _atom_site_type_symbol
 _atom_site_label
 _atom_site_symmetry_multiplicity
 _atom_site_fract_x
 _atom_site_fract_y
 _atom_site_fract_z
 _atom_site_occupancy
  Mn  Mn0  1  0.00000000  0.00000000  0.00000000  1
  Sb  Sb1  1  0.50000000  0.50000000  0.50000000  1
  Sb  Sb2  1  0.50000000  0.50000000  0.00000000  1
  Sb  Sb3  1  0.50000000  0.00000000  0.50000000  1
  Sb  Sb4  1  0.00000000  0.50000000  0.50000000  1
  P  P5  1  0.58571500  0.34546336  0.91183446  1
  P  P6  1  0.82784567  0.69216875  0.49376017  1
  P  P7  1  0.29128363  0.74181922  0.21482608  1
  Li  Li8  1  0.68496798  0.56689718  0.25654764  1
  Li  Li9  1  0.65316737  0.86370948  0.54195468  1
