# generated using pymatgen
data_LiCuAs3OF
_symmetry_space_group_name_H-M   'P 1'
_cell_length_a   6.64837819
_cell_length_b   6.81853844
_cell_length_c   7.64662497
_cell_angle_alpha   93.92648595
_cell_angle_beta   96.36859049
_cell_angle_gamma   94.80817543
_symmetry_Int_Tables_number   1
_chemical_formula_structural   LiCuAs3OF
_chemical_formula_sum   'Li2 Cu2 As6 O2 F2'
_cell_volume   342.22678074
_cell_formula_units_Z   2
loop_
 _symmetry_equiv_pos_site_id
 _symmetry_equiv_pos_as_xyz
  1  'x, y, z'
loop_
 _atom_site_type_symbol
 _atom_site_label
 _atom_site_symmetry_multiplicity
 _atom_site_fract_x
 _atom_site_fract_y
 _atom_site_fract_z
 _atom_site_occupancy
  Li  Li0  1  0.00000000  0.00000000  0.00000000  1
  Li  Li1  1  0.50000000  0.50000000  0.50000000  1
  Cu  Cu2  1  0.50000000  0.50000000  0.00000000  1
  Cu  Cu3  1  0.50000000  0.00000000  0.50000000  1
  F  F4  1  0.00000000  0.50000000  0.50000000  1
  F  F5  1  0.74203842  0.87391870  0.47765073  1
  As  As6  1  0.41755884  0.72466482  0.49424909  1
  As  As7  1  0.69862644  0.85468688  0.93586510  1
  As  As8  1  0.12946772  0.10987535  0.69143691  1
  As  As9  1  0.60498208  0.59286453  0.14838006  1
  As  As10  1  0.94143615  0.09709655  0.48673230  1
  As  As11  1  0.53382896  0.93228632  0.99342470  1
  O  O12  1  0.54882912  0.80177773  0.65657676  1
  O  O13  1  0.02524314  0.58496884  0.46297223  1
