# generated using pymatgen
data_Li2TiP4(I2O)2
_symmetry_space_group_name_H-M   'P 1'
_cell_length_a   7.46924571
_cell_length_b   7.14023293
_cell_length_c   7.53010428
_cell_angle_alpha   92.61833859
_cell_angle_beta   93.36653996
_cell_angle_gamma   92.38852932
_symmetry_Int_Tables_number   1
_chemical_formula_structural   Li2TiP4(I2O)2
_chemical_formula_sum   'Li2 Ti1 P4 I4 O2'
_cell_volume   400.08870543
_cell_formula_units_Z   1
loop_
 _symmetry_equiv_pos_site_id
 _symmetry_equiv_pos_as_xyz
  1  'x, y, z'
loop_
 _atom_site_type_symbol
 _atom_site_label
 _atom_site_symmetry_multiplicity
 _atom_site_fract_x
 _atom_site_fract_y
 _atom_site_fract_z
 _atom_site_occupancy
  I  I0  1  0.00000000  0.00000000  0.00000000  1
  I  I1  1  0.50000000  0.50000000  0.50000000  1
  I  I2  1  0.50000000  0.50000000  0.00000000  1
  I  I3  1  0.50000000  0.00000000  0.50000000  1
  P  P4  1  0.00000000  0.50000000  0.50000000  1
  P  P5  1  0.58777316  0.36053020  0.79400738  1
  P  P6  1  0.77465557  0.60803380  0.75218441  1
  P  P7  1  0.28311973  0.93451667  0.06477075  1
  Li  Li8  1  0.72583452  0.88246816  0.60065841  1
  Li  Li9  1  0.32176344  0.95890639  0.40221899  1
  Ti  Ti10  1  0.90601120  0.06745255  0.55277215  1
  O  O11  1  0.17797280  0.67068059  0.78785808  1
  O  O12  1  0.23175439  0.97859479  0.71284475  1
