# generated using pymatgen
data_Li2Mn3Sb4P3
_symmetry_space_group_name_H-M   'P 1'
_cell_length_a   5.81696943
_cell_length_b   6.49157775
_cell_length_c   6.63792148
_cell_angle_alpha   98.29798974
_cell_angle_beta   90.41454071
_cell_angle_gamma   98.13294269
_symmetry_Int_Tables_number   1
_chemical_formula_structural   Li2Mn3Sb4P3
_chemical_formula_sum   'Li2 Mn3 Sb4 P3'
_cell_volume   245.44000528
_cell_formula_units_Z   1
loop_
 _symmetry_equiv_pos_site_id
 _symmetry_equiv_pos_as_xyz
  1  'x, y, z'
loop_
 _atom_site_type_symbol
 _atom_site_label
 _atom_site_symmetry_multiplicity
 _atom_site_fract_x
 _atom_site_fract_y
 _atom_site_fract_z
 _atom_site_occupancy
  Mn  Mn0  1  0.12500000  0.00000000  0.25000000  1
  Mn  Mn1  1  0.00000000  0.00000000  0.00000000  1
  Mn  Mn2  1  0.37500000  0.00000000  0.25000000  1
  Sb  Sb3  1  0.25000000  0.25000000  0.25000000  1
  Sb  Sb4  1  0.00000000  0.25000000  0.12500000  1
  Sb  Sb5  1  0.98405716  0.86884729  0.83718243  1
  Sb  Sb6  1  0.43180593  0.43343016  0.16250425  1
  P  P7  1  0.22905292  0.39975963  0.77850862  1
  P  P8  1  0.83905273  0.47618336  0.30217966  1
  P  P9  1  0.12446134  0.78990122  0.29096085  1
  Li  Li10  1  0.94434733  0.99221472  0.17175498  1
  Li  Li11  1  0.51202067  0.47936739  0.03160416  1
