# generated using pymatgen
data_Li2Mn2Sb4P3
_symmetry_space_group_name_H-M   'P 1'
_cell_length_a   6.32746993
_cell_length_b   6.87380411
_cell_length_c   7.33151796
_cell_angle_alpha   93.28648473
_cell_angle_beta   93.89314482
_cell_angle_gamma   93.74042540
_symmetry_Int_Tables_number   1
_chemical_formula_structural   Li2Mn2Sb4P3
_chemical_formula_sum   'Li2 Mn2 Sb4 P3'
_cell_volume   316.85057472
_cell_formula_units_Z   1
loop_
 _symmetry_equiv_pos_site_id
 _symmetry_equiv_pos_as_xyz
  1  'x, y, z'
loop_
 _atom_site_type_symbol
 _atom_site_label
 _atom_site_symmetry_multiplicity
 _atom_site_fract_x
 _atom_site_fract_y
 _atom_site_fract_z
 _atom_site_occupancy
  Mn  Mn0  1  0.00000000  0.00000000  0.00000000  1
  Mn  Mn1  1  0.50000000  0.50000000  0.50000000  1
  Sb  Sb2  1  0.50000000  0.50000000  0.00000000  1
  Sb  Sb3  1  0.50000000  0.00000000  0.50000000  1
  Sb  Sb4  1  0.00000000  0.50000000  0.50000000  1
  Sb  Sb5  1  0.32408610  0.15496577  0.87973718  1
  P  P6  1  0.54472554  0.47054222  0.63079980  1
  P  P7  1  0.15191818  0.55895370  0.51648244  1
  P  P8  1  0.11158671  0.11495811  0.96651997  1
  Li  Li9  1  0.78365862  0.26283290  0.98746677  1
  Li  Li10  1  0.08486484  0.77217733  0.38912808  1
