# generated using pymatgen
data_Li2TiP4I4F3
_symmetry_space_group_name_H-M   'P 1'
_cell_length_a   6.30020146
_cell_length_b   6.14713152
_cell_length_c   7.01692843
_cell_angle_alpha   96.42297630
_cell_angle_beta   98.87966537
_cell_angle_gamma   95.76991191
_symmetry_Int_Tables_number   1
_chemical_formula_structural   Li2TiP4I4F3
_chemical_formula_sum   'Li2 Ti1 P4 I4 F3'
_cell_volume   264.88295131
_cell_formula_units_Z   1
loop_
 _symmetry_equiv_pos_site_id
 _symmetry_equiv_pos_as_xyz
  1  'x, y, z'
loop_
 _atom_site_type_symbol
 _atom_site_label
 _atom_site_symmetry_multiplicity
 _atom_site_fract_x
 _atom_site_fract_y
 _atom_site_fract_z
 _atom_site_occupancy
  I  I0  1  0.00000000  0.00000000  0.00000000  1
  I  I1  1  0.50000000  0.50000000  0.50000000  1
  I  I2  1  0.50000000  0.50000000  0.00000000  1
  I  I3  1  0.50000000  0.00000000  0.50000000  1
  P  P4  1  0.00000000  0.50000000  0.50000000  1
  P  P5  1  0.75508681  0.00534611  0.59900576  1
  P  P6  1  0.68490368  0.91686305  0.29715030  1
  P  P7  1  0.53899388  0.58592587  0.27793112  1
  Li  Li8  1  0.99099736  0.02373278  0.14480606  1
  Li  Li9  1  0.55590210  0.51927043  0.92711505  1
  F  F10  1  0.31101743  0.21627524  0.34624569  1
  F  F11  1  0.04733847  0.18087034  0.33990209  1
  F  F12  1  0.85741012  0.48523035  0.16282973  1
  Ti  Ti13  1  0.55733410  0.70421450  0.77931757  1
