# generated using pymatgen
data_Li3Ti2Cu2(As3P2)2
_symmetry_space_group_name_H-M   'P 1'
_cell_length_a   7.29415310
_cell_length_b   7.16220661
_cell_length_c   8.32905590
_cell_angle_alpha   93.52440691
_cell_angle_beta   93.17924982
_cell_angle_gamma   94.27247144
_symmetry_Int_Tables_number   1
_chemical_formula_structural   Li3Ti2Cu2(As3P2)2
_chemical_formula_sum   'Li3 Ti2 Cu2 As6 P4'
_cell_volume   432.30993179
_cell_formula_units_Z   1
loop_
 _symmetry_equiv_pos_site_id
 _symmetry_equiv_pos_as_xyz
  1  'x, y, z'
loop_
 _atom_site_type_symbol
 _atom_site_label
 _atom_site_symmetry_multiplicity
 _atom_site_fract_x
 _atom_site_fract_y
 _atom_site_fract_z
 _atom_site_occupancy
  P  P0  1  0.00000000  0.00000000  0.00000000  1
  P  P1  1  0.50000000  0.50000000  0.50000000  1
  P  P2  1  0.50000000  0.50000000  0.00000000  1
  P  P3  1  0.50000000  0.00000000  0.50000000  1
  Li  Li4  1  0.00000000  0.50000000  0.50000000  1
  Li  Li5  1  0.09065566  0.09026084  0.26609286  1
  Li  Li6  1  0.71583617  0.58162960  0.70035161  1
  Cu  Cu7  1  0.00413074  0.47847806  0.67893746  1
  Cu  Cu8  1  0.79102036  0.08416630  0.12064850  1
  Ti  Ti9  1  0.06835522  0.04272627  0.02432366  1
  Ti  Ti10  1  0.10117444  0.41883484  0.57785694  1
  As  As11  1  0.46680309  0.81615976  0.61184211  1
  As  As12  1  0.21954530  0.86014457  0.33063672  1
  As  As13  1  0.01733559  0.98675633  0.11944582  1
  As  As14  1  0.36197356  0.58096041  0.62344637  1
  As  As15  1  0.32663912  0.36493541  0.52459412  1
  As  As16  1  0.76573228  0.64556577  0.51554391  1
