# generated using pymatgen
data_Li3TiP8(I2O)2
_symmetry_space_group_name_H-M   'P 1'
_cell_length_a   8.37184427
_cell_length_b   8.64911084
_cell_length_c   8.10565460
_cell_angle_alpha   90.00000000
_cell_angle_beta   90.00000000
_cell_angle_gamma   90.00000000
_symmetry_Int_Tables_number   1
_chemical_formula_structural   Li3TiP8(I2O)2
_chemical_formula_sum   'Li3 Ti1 P8 I4 O2'
_cell_volume   586.92241718
_cell_formula_units_Z   1
loop_
 _symmetry_equiv_pos_site_id
 _symmetry_equiv_pos_as_xyz
  1  'x, y, z'
loop_
 _atom_site_type_symbol
 _atom_site_label
 _atom_site_symmetry_multiplicity
 _atom_site_fract_x
 _atom_site_fract_y
 _atom_site_fract_z
 _atom_site_occupancy
  I  I0  1  0.12500000  0.00000000  0.25000000  1
  I  I1  1  0.00000000  0.00000000  0.00000000  1
  I  I2  1  0.37500000  0.00000000  0.25000000  1
  I  I3  1  0.25000000  0.25000000  0.25000000  1
  P  P4  1  0.00000000  0.25000000  0.12500000  1
  P  P5  1  0.93106824  0.62404928  0.60676711  1
  P  P6  1  0.10931782  0.93841447  0.01879668  1
  P  P7  1  0.98248848  0.76939073  0.26252778  1
  P  P8  1  0.52747048  0.32599565  0.57343988  1
  P  P9  1  0.64960798  0.65814612  0.76068417  1
  P  P10  1  0.41362675  0.27978434  0.36517703  1
  P  P11  1  0.03975208  0.81872207  0.90419658  1
  Li  Li12  1  0.75564647  0.46533811  0.83397662  1
  Li  Li13  1  0.48723170  0.40432005  0.92167951  1
  Li  Li14  1  0.05869144  0.03879007  0.20988553  1
  Ti  Ti15  1  0.24289089  0.90697940  0.88655574  1
  O  O16  1  0.84055962  0.89181908  0.80611137  1
  O  O17  1  0.59781125  0.11482471  0.45229490  1
