# generated using pymatgen
data_LiSb4Mo2P3
_symmetry_space_group_name_H-M   'P 1'
_cell_length_a   5.08462880
_cell_length_b   5.36054253
_cell_length_c   6.31240773
_cell_angle_alpha   100.12778718
_cell_angle_beta   91.44905903
_cell_angle_gamma   99.98488614
_symmetry_Int_Tables_number   1
_chemical_formula_structural   LiSb4Mo2P3
_chemical_formula_sum   'Li1 Sb4 Mo2 P3'
_cell_volume   166.53070103
_cell_formula_units_Z   1
loop_
 _symmetry_equiv_pos_site_id
 _symmetry_equiv_pos_as_xyz
  1  'x, y, z'
loop_
 _atom_site_type_symbol
 _atom_site_label
 _atom_site_symmetry_multiplicity
 _atom_site_fract_x
 _atom_site_fract_y
 _atom_site_fract_z
 _atom_site_occupancy
  Sb  Sb0  1  0.12500000  0.12500000  0.12500000  1
  Sb  Sb1  1  0.50000000  0.50000000  0.50000000  1
  Sb  Sb2  1  0.25000000  0.25000000  0.25000000  1
  Sb  Sb3  1  0.75000000  0.75000000  0.75000000  1
  P  P4  1  0.24041322  0.50341852  0.82186916  1
  P  P5  1  0.19016253  0.27045633  0.90625863  1
  P  P6  1  0.66271471  0.25886898  0.50479009  1
  Mo  Mo7  1  0.83183816  0.89550143  0.22621412  1
  Mo  Mo8  1  0.13192656  0.06745728  0.06524916  1
  Li  Li9  1  0.41507089  0.37751804  0.61447349  1
