# generated using pymatgen
data_LiMnSb4(MoP)2
_symmetry_space_group_name_H-M   'P 1'
_cell_length_a   5.14696937
_cell_length_b   5.39362869
_cell_length_c   6.57867500
_cell_angle_alpha   99.22686375
_cell_angle_beta   94.20905092
_cell_angle_gamma   99.05418041
_symmetry_Int_Tables_number   1
_chemical_formula_structural   LiMnSb4(MoP)2
_chemical_formula_sum   'Li1 Mn1 Sb4 Mo2 P2'
_cell_volume   177.10679977
_cell_formula_units_Z   1
loop_
 _symmetry_equiv_pos_site_id
 _symmetry_equiv_pos_as_xyz
  1  'x, y, z'
loop_
 _atom_site_type_symbol
 _atom_site_label
 _atom_site_symmetry_multiplicity
 _atom_site_fract_x
 _atom_site_fract_y
 _atom_site_fract_z
 _atom_site_occupancy
  Mn  Mn0  1  0.00000000  0.00000000  0.00000000  1
  Sb  Sb1  1  0.50000000  0.50000000  0.50000000  1
  Sb  Sb2  1  0.50000000  0.50000000  0.00000000  1
  Sb  Sb3  1  0.50000000  0.00000000  0.50000000  1
  Sb  Sb4  1  0.00000000  0.50000000  0.50000000  1
  P  P5  1  0.80567735  0.44033074  0.07601129  1
  P  P6  1  0.71010642  0.75098933  0.89823633  1
  Mo  Mo7  1  0.35716439  0.81804261  0.75245785  1
  Mo  Mo8  1  0.38069911  0.79223991  0.45287280  1
  Li  Li9  1  0.13897561  0.70579462  0.55217375  1
