# generated using pymatgen
data_LiTiNiAs3F
_symmetry_space_group_name_H-M   'P 1'
_cell_length_a   7.98357359
_cell_length_b   7.76102951
_cell_length_c   8.65756531
_cell_angle_alpha   91.11605687
_cell_angle_beta   90.96295179
_cell_angle_gamma   91.29234701
_symmetry_Int_Tables_number   1
_chemical_formula_structural   LiTiNiAs3F
_chemical_formula_sum   'Li2 Ti2 Ni2 As6 F2'
_cell_volume   536.11124499
_cell_formula_units_Z   2
loop_
 _symmetry_equiv_pos_site_id
 _symmetry_equiv_pos_as_xyz
  1  'x, y, z'
loop_
 _atom_site_type_symbol
 _atom_site_label
 _atom_site_symmetry_multiplicity
 _atom_site_fract_x
 _atom_site_fract_y
 _atom_site_fract_z
 _atom_site_occupancy
  Li  Li0  1  0.12500000  0.00000000  0.25000000  1
  Li  Li1  1  0.00000000  0.00000000  0.00000000  1
  F  F2  1  0.37500000  0.00000000  0.25000000  1
  F  F3  1  0.25000000  0.25000000  0.25000000  1
  Ni  Ni4  1  0.00000000  0.25000000  0.12500000  1
  Ni  Ni5  1  0.65233541  0.70609719  0.68756810  1
  Ti  Ti6  1  0.58666463  0.17284906  0.39313997  1
  Ti  Ti7  1  0.75724947  0.14140185  0.05778775  1
  As  As8  1  0.57099536  0.26159683  0.27140815  1
  As  As9  1  0.27162065  0.55156375  0.56406061  1
  As  As10  1  0.41813118  0.22304671  0.31654915  1
  As  As11  1  0.66688079  0.19428241  0.95174644  1
  As  As12  1  0.48471677  0.47083426  0.88329986  1
  As  As13  1  0.94338204  0.29172241  0.74234329  1
