# generated using pymatgen
data_Li2TiCu2As6N5
_symmetry_space_group_name_H-M   'P 1'
_cell_length_a   7.71212746
_cell_length_b   7.73899655
_cell_length_c   8.30167048
_cell_angle_alpha   90.98728687
_cell_angle_beta   91.68689815
_cell_angle_gamma   91.14008704
_symmetry_Int_Tables_number   1
_chemical_formula_structural   Li2TiCu2As6N5
_chemical_formula_sum   'Li2 Ti1 Cu2 As6 N5'
_cell_volume   495.08649322
_cell_formula_units_Z   1
loop_
 _symmetry_equiv_pos_site_id
 _symmetry_equiv_pos_as_xyz
  1  'x, y, z'
loop_
 _atom_site_type_symbol
 _atom_site_label
 _atom_site_symmetry_multiplicity
 _atom_site_fract_x
 _atom_site_fract_y
 _atom_site_fract_z
 _atom_site_occupancy
  Ti  Ti0  1  0.00000000  0.00000000  0.00000000  1
  As  As1  1  0.50000000  0.50000000  0.50000000  1
  As  As2  1  0.50000000  0.50000000  0.00000000  1
  As  As3  1  0.50000000  0.00000000  0.50000000  1
  As  As4  1  0.00000000  0.50000000  0.50000000  1
  As  As5  1  0.90459432  0.74479243  0.40165681  1
  As  As6  1  0.89223321  0.66375604  0.60013356  1
  Li  Li7  1  0.53056968  0.87629586  0.15109488  1
  Li  Li8  1  0.47579735  0.32451311  0.67358142  1
  N  N9  1  0.12647411  0.47676776  0.82880458  1
  N  N10  1  0.16547078  0.08904451  0.49990116  1
  N  N11  1  0.81554618  0.01073581  0.03511830  1
  N  N12  1  0.49007210  0.57077573  0.72117549  1
  N  N13  1  0.87860119  0.08114777  0.35432256  1
  Cu  Cu14  1  0.69971477  0.29105159  0.92597498  1
  Cu  Cu15  1  0.84022762  0.35249676  0.54939936  1
