# generated using pymatgen
data_Li3Cu2(NiAs3)2
_symmetry_space_group_name_H-M   'P 1'
_cell_length_a   7.92510466
_cell_length_b   7.93803842
_cell_length_c   9.08670266
_cell_angle_alpha   90.22336790
_cell_angle_beta   91.06271665
_cell_angle_gamma   90.25536916
_symmetry_Int_Tables_number   1
_chemical_formula_structural   Li3Cu2(NiAs3)2
_chemical_formula_sum   'Li3 Cu2 Ni2 As6'
_cell_volume   571.53397765
_cell_formula_units_Z   1
loop_
 _symmetry_equiv_pos_site_id
 _symmetry_equiv_pos_as_xyz
  1  'x, y, z'
loop_
 _atom_site_type_symbol
 _atom_site_label
 _atom_site_symmetry_multiplicity
 _atom_site_fract_x
 _atom_site_fract_y
 _atom_site_fract_z
 _atom_site_occupancy
  Ni  Ni0  1  0.12500000  0.12500000  0.12500000  1
  Ni  Ni1  1  0.50000000  0.50000000  0.50000000  1
  As  As2  1  0.25000000  0.25000000  0.25000000  1
  As  As3  1  0.75000000  0.75000000  0.75000000  1
  As  As4  1  0.59618058  0.66821123  0.52916798  1
  As  As5  1  0.49481475  0.82406847  0.71709468  1
  As  As6  1  0.63049816  0.45672568  0.18625783  1
  As  As7  1  0.23419417  0.71831223  0.60730499  1
  Li  Li8  1  0.09227303  0.04841458  0.09422817  1
  Li  Li9  1  0.11561949  0.05621722  0.45893620  1
  Li  Li10  1  0.30724830  0.87644055  0.17292124  1
  Cu  Cu11  1  0.89243842  0.88258878  0.47317955  1
  Cu  Cu12  1  0.27005434  0.15696491  0.40444395  1
