# generated using pymatgen
data_Li2TiP3(OF)3
_symmetry_space_group_name_H-M   'P 1'
_cell_length_a   6.85871507
_cell_length_b   5.96851590
_cell_length_c   7.88490239
_cell_angle_alpha   90.63173730
_cell_angle_beta   93.00561422
_cell_angle_gamma   90.72224442
_symmetry_Int_Tables_number   1
_chemical_formula_structural   Li2TiP3(OF)3
_chemical_formula_sum   'Li2 Ti1 P3 O3 F3'
_cell_volume   322.28742493
_cell_formula_units_Z   1
loop_
 _symmetry_equiv_pos_site_id
 _symmetry_equiv_pos_as_xyz
  1  'x, y, z'
loop_
 _atom_site_type_symbol
 _atom_site_label
 _atom_site_symmetry_multiplicity
 _atom_site_fract_x
 _atom_site_fract_y
 _atom_site_fract_z
 _atom_site_occupancy
  P  P0  1  0.12500000  0.00000000  0.25000000  1
  P  P1  1  0.00000000  0.00000000  0.00000000  1
  P  P2  1  0.37500000  0.00000000  0.25000000  1
  Li  Li3  1  0.25000000  0.25000000  0.25000000  1
  Li  Li4  1  0.00000000  0.25000000  0.12500000  1
  F  F5  1  0.64465579  0.04402969  0.40104598  1
  F  F6  1  0.97896828  0.96490245  0.93770443  1
  F  F7  1  0.34030228  0.75991299  0.00112048  1
  Ti  Ti8  1  0.87673196  0.42563096  0.28337665  1
  O  O9  1  0.10796679  0.32563038  0.06133282  1
  O  O10  1  0.48213291  0.44530157  0.05129077  1
  O  O11  1  0.48617811  0.35662007  0.19878958  1
