# generated using pymatgen
data_Li(SbP)3
_symmetry_space_group_name_H-M   'P 1'
_cell_length_a   6.15986477
_cell_length_b   6.21061195
_cell_length_c   6.68183690
_cell_angle_alpha   93.00302078
_cell_angle_beta   90.61407646
_cell_angle_gamma   93.17814014
_symmetry_Int_Tables_number   1
_chemical_formula_structural   Li(SbP)3
_chemical_formula_sum   'Li1 Sb3 P3'
_cell_volume   254.85646368
_cell_formula_units_Z   1
loop_
 _symmetry_equiv_pos_site_id
 _symmetry_equiv_pos_as_xyz
  1  'x, y, z'
loop_
 _atom_site_type_symbol
 _atom_site_label
 _atom_site_symmetry_multiplicity
 _atom_site_fract_x
 _atom_site_fract_y
 _atom_site_fract_z
 _atom_site_occupancy
  Sb  Sb0  1  0.00000000  0.00000000  0.00000000  1
  Sb  Sb1  1  0.33300000  0.66700000  0.25000000  1
  Sb  Sb2  1  0.66700000  0.33300000  0.50000000  1
  P  P3  1  0.00000000  0.00000000  0.75000000  1
  P  P4  1  0.18524449  0.52835691  0.44345549  1
  P  P5  1  0.73281880  0.99827342  0.82865324  1
  Li  Li6  1  0.91014691  0.43734249  0.84086360  1
