# generated using pymatgen
data_Li2LuTi(PI)4
_symmetry_space_group_name_H-M   'P 1'
_cell_length_a   7.98754903
_cell_length_b   7.81199853
_cell_length_c   7.66178603
_cell_angle_alpha   91.08141869
_cell_angle_beta   91.08204540
_cell_angle_gamma   91.16793794
_symmetry_Int_Tables_number   1
_chemical_formula_structural   Li2LuTi(PI)4
_chemical_formula_sum   'Li2 Lu1 Ti1 P4 I4'
_cell_volume   477.81239469
_cell_formula_units_Z   1
loop_
 _symmetry_equiv_pos_site_id
 _symmetry_equiv_pos_as_xyz
  1  'x, y, z'
loop_
 _atom_site_type_symbol
 _atom_site_label
 _atom_site_symmetry_multiplicity
 _atom_site_fract_x
 _atom_site_fract_y
 _atom_site_fract_z
 _atom_site_occupancy
  I  I0  1  0.12500000  0.00000000  0.25000000  1
  I  I1  1  0.00000000  0.00000000  0.00000000  1
  I  I2  1  0.37500000  0.00000000  0.25000000  1
  I  I3  1  0.25000000  0.25000000  0.25000000  1
  P  P4  1  0.00000000  0.25000000  0.12500000  1
  P  P5  1  0.01309348  0.45113715  0.82096760  1
  P  P6  1  0.61245922  0.80905052  0.16174983  1
  P  P7  1  0.81361631  0.57123728  0.62230636  1
  Lu  Lu8  1  0.78636284  0.39592263  0.77402458  1
  Li  Li9  1  0.46350057  0.87717059  0.91856130  1
  Li  Li10  1  0.89353074  0.14533797  0.76735085  1
  Ti  Ti11  1  0.74901829  0.53246305  0.22329985  1
