# generated using pymatgen
data_LiNi3Sb4P4W
_symmetry_space_group_name_H-M   'P 1'
_cell_length_a   5.36418097
_cell_length_b   5.28384961
_cell_length_c   6.16827036
_cell_angle_alpha   91.69188957
_cell_angle_beta   91.36119777
_cell_angle_gamma   92.00586487
_symmetry_Int_Tables_number   1
_chemical_formula_structural   LiNi3Sb4P4W
_chemical_formula_sum   'Li1 Ni3 Sb4 P4 W1'
_cell_volume   174.59345076
_cell_formula_units_Z   1
loop_
 _symmetry_equiv_pos_site_id
 _symmetry_equiv_pos_as_xyz
  1  'x, y, z'
loop_
 _atom_site_type_symbol
 _atom_site_label
 _atom_site_symmetry_multiplicity
 _atom_site_fract_x
 _atom_site_fract_y
 _atom_site_fract_z
 _atom_site_occupancy
  Ni  Ni0  1  0.00000000  0.00000000  0.00000000  1
  Ni  Ni1  1  0.50000000  0.50000000  0.50000000  1
  Ni  Ni2  1  0.25000000  0.25000000  0.25000000  1
  W  W3  1  0.75000000  0.25000000  0.00000000  1
  Sb  Sb4  1  0.25000000  0.75000000  0.50000000  1
  Sb  Sb5  1  0.81775003  0.38305629  0.12568019  1
  Sb  Sb6  1  0.69621270  0.70594065  0.41533583  1
  Sb  Sb7  1  0.16922625  0.70851665  0.08419870  1
  P  P8  1  0.20612138  0.22722186  0.33608431  1
  P  P9  1  0.97503016  0.62313289  0.74411700  1
  P  P10  1  0.64014784  0.80035098  0.07673763  1
  P  P11  1  0.63396782  0.60359759  0.92520535  1
  Li  Li12  1  0.72579906  0.02524025  0.46946619  1
