# generated using pymatgen
data_Li2MnP2N
_symmetry_space_group_name_H-M   'P 1'
_cell_length_a   4.11532555
_cell_length_b   4.30295561
_cell_length_c   6.23818663
_cell_angle_alpha   103.37751381
_cell_angle_beta   95.58427245
_cell_angle_gamma   103.39648842
_symmetry_Int_Tables_number   1
_chemical_formula_structural   Li2MnP2N
_chemical_formula_sum   'Li2 Mn1 P2 N1'
_cell_volume   103.20692142
_cell_formula_units_Z   1
loop_
 _symmetry_equiv_pos_site_id
 _symmetry_equiv_pos_as_xyz
  1  'x, y, z'
loop_
 _atom_site_type_symbol
 _atom_site_label
 _atom_site_symmetry_multiplicity
 _atom_site_fract_x
 _atom_site_fract_y
 _atom_site_fract_z
 _atom_site_occupancy
  N  N0  1  0.12500000  0.12500000  0.12500000  1
  Mn  Mn1  1  0.50000000  0.50000000  0.50000000  1
  P  P2  1  0.25000000  0.25000000  0.25000000  1
  P  P3  1  0.75000000  0.75000000  0.75000000  1
  Li  Li4  1  0.14565086  0.32622177  0.53978357  1
  Li  Li5  1  0.31533915  0.31101832  0.99397873  1
