# generated using pymatgen
data_Li3TiSeO4
_symmetry_space_group_name_H-M   'P 1'
_cell_length_a   7.21046846
_cell_length_b   7.00594399
_cell_length_c   7.12918565
_cell_angle_alpha   96.29326595
_cell_angle_beta   98.12708987
_cell_angle_gamma   95.90304986
_symmetry_Int_Tables_number   1
_chemical_formula_structural   Li3TiSeO4
_chemical_formula_sum   'Li3 Ti1 Se1 O4'
_cell_volume   351.80136221
_cell_formula_units_Z   1
loop_
 _symmetry_equiv_pos_site_id
 _symmetry_equiv_pos_as_xyz
  1  'x, y, z'
loop_
 _atom_site_type_symbol
 _atom_site_label
 _atom_site_symmetry_multiplicity
 _atom_site_fract_x
 _atom_site_fract_y
 _atom_site_fract_z
 _atom_site_occupancy
  Li  Li0  1  0.00000000  0.00000000  0.00000000  1
  Li  Li1  1  0.33300000  0.66700000  0.25000000  1
  Li  Li2  1  0.66700000  0.33300000  0.50000000  1
  Se  Se3  1  0.00000000  0.00000000  0.75000000  1
  Ti  Ti4  1  0.56561432  0.00941403  0.98380779  1
  O  O5  1  0.62310553  0.36293827  0.28581880  1
  O  O6  1  0.79356537  0.65175378  0.67496568  1
  O  O7  1  0.52822366  0.17912944  0.22567046  1
  O  O8  1  0.19895254  0.29900043  0.72055567  1
