# generated using pymatgen
data_Li2TiCu2Ni2P5
_symmetry_space_group_name_H-M   'P 1'
_cell_length_a   7.92846051
_cell_length_b   7.69406766
_cell_length_c   7.81263073
_cell_angle_alpha   90.60139482
_cell_angle_beta   91.16057532
_cell_angle_gamma   90.53197241
_symmetry_Int_Tables_number   1
_chemical_formula_structural   Li2TiCu2Ni2P5
_chemical_formula_sum   'Li2 Ti1 Cu2 Ni2 P5'
_cell_volume   476.44145647
_cell_formula_units_Z   1
loop_
 _symmetry_equiv_pos_site_id
 _symmetry_equiv_pos_as_xyz
  1  'x, y, z'
loop_
 _atom_site_type_symbol
 _atom_site_label
 _atom_site_symmetry_multiplicity
 _atom_site_fract_x
 _atom_site_fract_y
 _atom_site_fract_z
 _atom_site_occupancy
  P  P0  1  0.00000000  0.00000000  0.00000000  1
  P  P1  1  0.50000000  0.50000000  0.50000000  1
  P  P2  1  0.25000000  0.25000000  0.25000000  1
  P  P3  1  0.75000000  0.25000000  0.00000000  1
  P  P4  1  0.25000000  0.75000000  0.50000000  1
  Li  Li5  1  0.51261566  0.29308602  0.89851369  1
  Li  Li6  1  0.33221864  0.40162198  0.81041160  1
  Cu  Cu7  1  0.36433260  0.42611520  0.55124523  1
  Cu  Cu8  1  0.06684909  0.67606291  0.37857545  1
  Ni  Ni9  1  0.00177571  0.03266747  0.55533300  1
  Ni  Ni10  1  0.44139154  0.33942038  0.53720489  1
  Ti  Ti11  1  0.35767575  0.18605791  0.99383090  1
