# generated using pymatgen
data_Li2As6O7F2
_symmetry_space_group_name_H-M   'P 1'
_cell_length_a   7.97578593
_cell_length_b   7.75484818
_cell_length_c   8.67047299
_cell_angle_alpha   91.13309087
_cell_angle_beta   90.96528617
_cell_angle_gamma   91.31211830
_symmetry_Int_Tables_number   1
_chemical_formula_structural   Li2As6O7F2
_chemical_formula_sum   'Li2 As6 O7 F2'
_cell_volume   535.95175878
_cell_formula_units_Z   1
loop_
 _symmetry_equiv_pos_site_id
 _symmetry_equiv_pos_as_xyz
  1  'x, y, z'
loop_
 _atom_site_type_symbol
 _atom_site_label
 _atom_site_symmetry_multiplicity
 _atom_site_fract_x
 _atom_site_fract_y
 _atom_site_fract_z
 _atom_site_occupancy
  Li  Li0  1  0.12500000  0.00000000  0.25000000  1
  Li  Li1  1  0.00000000  0.00000000  0.00000000  1
  F  F2  1  0.37500000  0.00000000  0.25000000  1
  F  F3  1  0.25000000  0.25000000  0.25000000  1
  As  As4  1  0.00000000  0.25000000  0.12500000  1
  As  As5  1  0.28563932  0.41768863  0.57493439  1
  As  As6  1  0.89387354  0.70925373  0.35044349  1
  As  As7  1  0.84152779  0.16817248  0.11533085  1
  As  As8  1  0.89502575  0.64233413  0.96549425  1
  As  As9  1  0.19772868  0.95546855  0.23824849  1
  O  O10  1  0.51787271  0.36065480  0.23835898  1
  O  O11  1  0.17534367  0.70398279  0.96723425  1
  O  O12  1  0.23488258  0.64744243  0.62246983  1
  O  O13  1  0.80656377  0.72705019  0.73481651  1
  O  O14  1  0.23279525  0.55698638  0.30826317  1
  O  O15  1  0.89472377  0.03670208  0.60702264  1
  O  O16  1  0.03321216  0.55312511  0.12286333  1
