# generated using pymatgen
data_Li4Ti2Ni2As6O7
_symmetry_space_group_name_H-M   'P 1'
_cell_length_a   4.94772816
_cell_length_b   4.55701674
_cell_length_c   7.63406060
_cell_angle_alpha   99.93501793
_cell_angle_beta   100.60242601
_cell_angle_gamma   99.09843038
_symmetry_Int_Tables_number   1
_chemical_formula_structural   Li4Ti2Ni2As6O7
_chemical_formula_sum   'Li4 Ti2 Ni2 As6 O7'
_cell_volume   163.41242516
_cell_formula_units_Z   1
loop_
 _symmetry_equiv_pos_site_id
 _symmetry_equiv_pos_as_xyz
  1  'x, y, z'
loop_
 _atom_site_type_symbol
 _atom_site_label
 _atom_site_symmetry_multiplicity
 _atom_site_fract_x
 _atom_site_fract_y
 _atom_site_fract_z
 _atom_site_occupancy
  Ni  Ni0  1  0.00000000  0.00000000  0.00000000  1
  Ni  Ni1  1  0.50000000  0.50000000  0.50000000  1
  O  O2  1  0.25000000  0.25000000  0.25000000  1
  O  O3  1  0.75000000  0.25000000  0.00000000  1
  O  O4  1  0.25000000  0.75000000  0.50000000  1
  O  O5  1  0.52343755  0.41161467  0.60422637  1
  O  O6  1  0.55361413  0.62438719  0.92151246  1
  O  O7  1  0.27752657  0.88117263  0.21632987  1
  O  O8  1  0.93278570  0.31454152  0.23868859  1
  Ti  Ti9  1  0.71891774  0.75256041  0.06626108  1
  Ti  Ti10  1  0.91608933  0.63382049  0.09107022  1
  As  As11  1  0.21215326  0.31918500  0.30465316  1
  As  As12  1  0.76035902  0.87357738  0.79608450  1
  As  As13  1  0.45973863  0.68293265  0.20593111  1
  As  As14  1  0.45967025  0.84175811  0.79263091  1
  As  As15  1  0.06274602  0.29894185  0.70294768  1
  As  As16  1  0.86268941  0.24101331  0.11307447  1
  Li  Li17  1  0.72753525  0.63518296  0.31301942  1
  Li  Li18  1  0.21952623  0.15482032  0.88090068  1
  Li  Li19  1  0.77239705  0.07212790  0.72328049  1
  Li  Li20  1  0.17031713  0.09168465  0.65396033  1
