# generated using pymatgen
data_Li2Mn2Sb4P3
_symmetry_space_group_name_H-M   'P 1'
_cell_length_a   5.52270060
_cell_length_b   5.98105782
_cell_length_c   7.19272512
_cell_angle_alpha   95.40254485
_cell_angle_beta   96.39981356
_cell_angle_gamma   96.14876309
_symmetry_Int_Tables_number   1
_chemical_formula_structural   Li2Mn2Sb4P3
_chemical_formula_sum   'Li2 Mn2 Sb4 P3'
_cell_volume   233.39112913
_cell_formula_units_Z   1
loop_
 _symmetry_equiv_pos_site_id
 _symmetry_equiv_pos_as_xyz
  1  'x, y, z'
loop_
 _atom_site_type_symbol
 _atom_site_label
 _atom_site_symmetry_multiplicity
 _atom_site_fract_x
 _atom_site_fract_y
 _atom_site_fract_z
 _atom_site_occupancy
  Mn  Mn0  1  0.00000000  0.00000000  0.00000000  1
  Mn  Mn1  1  0.33300000  0.66700000  0.25000000  1
  Sb  Sb2  1  0.66700000  0.33300000  0.50000000  1
  Sb  Sb3  1  0.00000000  0.00000000  0.75000000  1
  Sb  Sb4  1  0.18385137  0.83814390  0.25164764  1
  Sb  Sb5  1  0.64724666  0.70344377  0.02157366  1
  P  P6  1  0.04839124  0.03271963  0.45976112  1
  P  P7  1  0.42606826  0.13037755  0.38857714  1
  P  P8  1  0.99277354  0.87690638  0.59742720  1
  Li  Li9  1  0.16924868  0.24341298  0.63579407  1
  Li  Li10  1  0.49042921  0.41104473  0.86382802  1
