# generated using pymatgen
data_Li2Ti(I2O)2
_symmetry_space_group_name_H-M   'P 1'
_cell_length_a   6.94255697
_cell_length_b   6.75887739
_cell_length_c   7.11610135
_cell_angle_alpha   95.43077787
_cell_angle_beta   97.56174915
_cell_angle_gamma   95.12652083
_symmetry_Int_Tables_number   1
_chemical_formula_structural   Li2Ti(I2O)2
_chemical_formula_sum   'Li2 Ti1 I4 O2'
_cell_volume   327.76718965
_cell_formula_units_Z   1
loop_
 _symmetry_equiv_pos_site_id
 _symmetry_equiv_pos_as_xyz
  1  'x, y, z'
loop_
 _atom_site_type_symbol
 _atom_site_label
 _atom_site_symmetry_multiplicity
 _atom_site_fract_x
 _atom_site_fract_y
 _atom_site_fract_z
 _atom_site_occupancy
  I  I0  1  0.12500000  0.00000000  0.25000000  1
  I  I1  1  0.00000000  0.00000000  0.00000000  1
  I  I2  1  0.37500000  0.00000000  0.25000000  1
  I  I3  1  0.25000000  0.25000000  0.25000000  1
  Li  Li4  1  0.00000000  0.25000000  0.12500000  1
  Li  Li5  1  0.83155502  0.64809567  0.03361475  1
  Ti  Ti6  1  0.88014069  0.62384086  0.35751170  1
  O  O7  1  0.20460451  0.48832408  0.30002727  1
  O  O8  1  0.88237201  0.07261770  0.60363648  1
