# generated using pymatgen
data_Li3Ti(IO)4
_symmetry_space_group_name_H-M   'P 1'
_cell_length_a   7.45798322
_cell_length_b   7.27378708
_cell_length_c   8.13166749
_cell_angle_alpha   93.62854255
_cell_angle_beta   94.20314783
_cell_angle_gamma   93.60435141
_symmetry_Int_Tables_number   1
_chemical_formula_structural   Li3Ti(IO)4
_chemical_formula_sum   'Li3 Ti1 I4 O4'
_cell_volume   438.04558281
_cell_formula_units_Z   1
loop_
 _symmetry_equiv_pos_site_id
 _symmetry_equiv_pos_as_xyz
  1  'x, y, z'
loop_
 _atom_site_type_symbol
 _atom_site_label
 _atom_site_symmetry_multiplicity
 _atom_site_fract_x
 _atom_site_fract_y
 _atom_site_fract_z
 _atom_site_occupancy
  I  I0  1  0.00000000  0.00000000  0.00000000  1
  I  I1  1  0.50000000  0.50000000  0.50000000  1
  I  I2  1  0.25000000  0.25000000  0.25000000  1
  I  I3  1  0.75000000  0.25000000  0.00000000  1
  Li  Li4  1  0.25000000  0.75000000  0.50000000  1
  Li  Li5  1  0.99470912  0.49144163  0.55887766  1
  Li  Li6  1  0.84918455  0.53849894  0.91967764  1
  Ti  Ti7  1  0.46493249  0.31524383  0.84705601  1
  O  O8  1  0.44975016  0.24833381  0.65895562  1
  O  O9  1  0.47562576  0.81011219  0.69140831  1
  O  O10  1  0.12041132  0.18005082  0.23521720  1
  O  O11  1  0.80139001  0.29947565  0.39939499  1
