# generated using pymatgen
data_Li2TiNi2(I2O)2
_symmetry_space_group_name_H-M   'P 1'
_cell_length_a   8.34344070
_cell_length_b   8.22574242
_cell_length_c   7.60992332
_cell_angle_alpha   90.12810179
_cell_angle_beta   90.60946940
_cell_angle_gamma   90.14645455
_symmetry_Int_Tables_number   1
_chemical_formula_structural   Li2TiNi2(I2O)2
_chemical_formula_sum   'Li2 Ti1 Ni2 I4 O2'
_cell_volume   522.24401074
_cell_formula_units_Z   1
loop_
 _symmetry_equiv_pos_site_id
 _symmetry_equiv_pos_as_xyz
  1  'x, y, z'
loop_
 _atom_site_type_symbol
 _atom_site_label
 _atom_site_symmetry_multiplicity
 _atom_site_fract_x
 _atom_site_fract_y
 _atom_site_fract_z
 _atom_site_occupancy
  I  I0  1  0.00000000  0.00000000  0.00000000  1
  I  I1  1  0.50000000  0.50000000  0.50000000  1
  I  I2  1  0.50000000  0.50000000  0.00000000  1
  I  I3  1  0.50000000  0.00000000  0.50000000  1
  Li  Li4  1  0.00000000  0.50000000  0.50000000  1
  Li  Li5  1  0.02414371  0.62429698  0.72069841  1
  Ni  Ni6  1  0.74522769  0.87563849  0.84924066  1
  Ni  Ni7  1  0.86771734  0.70295982  0.90714783  1
  Ti  Ti8  1  0.63017398  0.27082397  0.05939115  1
  O  O9  1  0.66794895  0.97191083  0.00102662  1
  O  O10  1  0.27885060  0.41527799  0.13939050  1
