# generated using pymatgen
data_Li3Ti(IO)4
_symmetry_space_group_name_H-M   'P 1'
_cell_length_a   8.87687184
_cell_length_b   8.75761409
_cell_length_c   7.11537173
_cell_angle_alpha   90.00000000
_cell_angle_beta   90.00000000
_cell_angle_gamma   90.00000000
_symmetry_Int_Tables_number   1
_chemical_formula_structural   Li3Ti(IO)4
_chemical_formula_sum   'Li3 Ti1 I4 O4'
_cell_volume   553.15054810
_cell_formula_units_Z   1
loop_
 _symmetry_equiv_pos_site_id
 _symmetry_equiv_pos_as_xyz
  1  'x, y, z'
loop_
 _atom_site_type_symbol
 _atom_site_label
 _atom_site_symmetry_multiplicity
 _atom_site_fract_x
 _atom_site_fract_y
 _atom_site_fract_z
 _atom_site_occupancy
  I  I0  1  0.00000000  0.00000000  0.00000000  1
  I  I1  1  0.50000000  0.50000000  0.50000000  1
  I  I2  1  0.50000000  0.50000000  0.00000000  1
  I  I3  1  0.50000000  0.00000000  0.50000000  1
  Li  Li4  1  0.00000000  0.50000000  0.50000000  1
  Li  Li5  1  0.10003191  0.88542728  0.54417678  1
  Li  Li6  1  0.15731839  0.27778466  0.70750522  1
  Ti  Ti7  1  0.99339239  0.56219003  0.47843140  1
  O  O8  1  0.42980611  0.68500403  0.68727917  1
  O  O9  1  0.79751733  0.05623320  0.15481570  1
  O  O10  1  0.90726224  0.70428976  0.32392268  1
  O  O11  1  0.37069855  0.83973289  0.82214322  1
