# generated using pymatgen
data_LiMn2Sb4P3
_symmetry_space_group_name_H-M   'P 1'
_cell_length_a   5.19209751
_cell_length_b   5.50721245
_cell_length_c   6.47339606
_cell_angle_alpha   96.56847133
_cell_angle_beta   93.05582479
_cell_angle_gamma   96.97841198
_symmetry_Int_Tables_number   1
_chemical_formula_structural   LiMn2Sb4P3
_chemical_formula_sum   'Li1 Mn2 Sb4 P3'
_cell_volume   182.09851673
_cell_formula_units_Z   1
loop_
 _symmetry_equiv_pos_site_id
 _symmetry_equiv_pos_as_xyz
  1  'x, y, z'
loop_
 _atom_site_type_symbol
 _atom_site_label
 _atom_site_symmetry_multiplicity
 _atom_site_fract_x
 _atom_site_fract_y
 _atom_site_fract_z
 _atom_site_occupancy
  Mn  Mn0  1  0.00000000  0.00000000  0.00000000  1
  Mn  Mn1  1  0.50000000  0.50000000  0.50000000  1
  Sb  Sb2  1  0.50000000  0.50000000  0.00000000  1
  Sb  Sb3  1  0.50000000  0.00000000  0.50000000  1
  Sb  Sb4  1  0.00000000  0.50000000  0.50000000  1
  Sb  Sb5  1  0.13398148  0.78435832  0.08220966  1
  P  P6  1  0.09006111  0.35034439  0.59266618  1
  P  P7  1  0.00057499  0.67235756  0.61236966  1
  P  P8  1  0.90318047  0.76374100  0.70862246  1
  Li  Li9  1  0.61253076  0.82736666  0.68686888  1
