# generated using pymatgen
data_Li2LuTi2Ni2F2
_symmetry_space_group_name_H-M   'P 1'
_cell_length_a   7.88911163
_cell_length_b   7.64852979
_cell_length_c   8.28477462
_cell_angle_alpha   91.19037583
_cell_angle_beta   91.14177596
_cell_angle_gamma   91.37797261
_symmetry_Int_Tables_number   1
_chemical_formula_structural   Li2LuTi2Ni2F2
_chemical_formula_sum   'Li2 Lu1 Ti2 Ni2 F2'
_cell_volume   499.54740140
_cell_formula_units_Z   1
loop_
 _symmetry_equiv_pos_site_id
 _symmetry_equiv_pos_as_xyz
  1  'x, y, z'
loop_
 _atom_site_type_symbol
 _atom_site_label
 _atom_site_symmetry_multiplicity
 _atom_site_fract_x
 _atom_site_fract_y
 _atom_site_fract_z
 _atom_site_occupancy
  Lu  Lu0  1  0.12500000  0.00000000  0.25000000  1
  Li  Li1  1  0.00000000  0.00000000  0.00000000  1
  Li  Li2  1  0.37500000  0.00000000  0.25000000  1
  F  F3  1  0.25000000  0.25000000  0.25000000  1
  F  F4  1  0.00000000  0.25000000  0.12500000  1
  Ni  Ni5  1  0.13157055  0.54791770  0.99333655  1
  Ni  Ni6  1  0.37130169  0.53543528  0.38545147  1
  Ti  Ti7  1  0.47540351  0.75574541  0.73328221  1
  Ti  Ti8  1  0.00456688  0.56723611  0.20439136  1
