# generated using pymatgen
data_Li2NiAs3(P2O)2
_symmetry_space_group_name_H-M   'P 1'
_cell_length_a   7.76913933
_cell_length_b   7.69238306
_cell_length_c   8.99796402
_cell_angle_alpha   91.86748794
_cell_angle_beta   92.93023360
_cell_angle_gamma   91.76880152
_symmetry_Int_Tables_number   1
_chemical_formula_structural   Li2NiAs3(P2O)2
_chemical_formula_sum   'Li4 Ni2 As6 P8 O4'
_cell_volume   536.47358702
_cell_formula_units_Z   2
loop_
 _symmetry_equiv_pos_site_id
 _symmetry_equiv_pos_as_xyz
  1  'x, y, z'
loop_
 _atom_site_type_symbol
 _atom_site_label
 _atom_site_symmetry_multiplicity
 _atom_site_fract_x
 _atom_site_fract_y
 _atom_site_fract_z
 _atom_site_occupancy
  P  P0  1  0.00000000  0.00000000  0.00000000  1
  P  P1  1  0.50000000  0.50000000  0.50000000  1
  P  P2  1  0.25000000  0.25000000  0.25000000  1
  P  P3  1  0.75000000  0.25000000  0.00000000  1
  P  P4  1  0.25000000  0.75000000  0.50000000  1
  P  P5  1  0.88920107  0.51436936  0.80190098  1
  P  P6  1  0.14665973  0.32571009  0.18119966  1
  P  P7  1  0.90894040  0.49205584  0.23213236  1
  Li  Li8  1  0.85646358  0.20564717  0.29973598  1
  Li  Li9  1  0.56822117  0.59951489  0.01693874  1
  Li  Li10  1  0.52041925  0.81250150  0.04242134  1
  Li  Li11  1  0.05931570  0.80416043  0.84358201  1
  Ni  Ni12  1  0.49355255  0.34198255  0.42792448  1
  Ni  Ni13  1  0.88159549  0.06817613  0.32719065  1
  As  As14  1  0.95857441  0.62992664  0.78251013  1
  As  As15  1  0.34356402  0.94963383  0.43055299  1
  As  As16  1  0.09508622  0.84464133  0.93812010  1
  As  As17  1  0.13032096  0.85115899  0.81608769  1
  As  As18  1  0.67787706  0.44045299  0.64299959  1
  As  As19  1  0.45984630  0.91679489  0.39683292  1
  O  O20  1  0.96458069  0.94058961  0.21232859  1
  O  O21  1  0.24080679  0.11873365  0.95788750  1
  O  O22  1  0.57734516  0.08419756  0.49135640  1
  O  O23  1  0.91068924  0.57008112  0.81283525  1
