# generated using pymatgen
data_Li3Zn2Te6(IO)4
_symmetry_space_group_name_H-M   'P 1'
_cell_length_a   8.73090028
_cell_length_b   8.87140365
_cell_length_c   7.32921484
_cell_angle_alpha   90.00000000
_cell_angle_beta   90.00000000
_cell_angle_gamma   90.00000000
_symmetry_Int_Tables_number   1
_chemical_formula_structural   Li3Zn2Te6(IO)4
_chemical_formula_sum   'Li3 Zn2 Te6 I4 O4'
_cell_volume   567.68683216
_cell_formula_units_Z   1
loop_
 _symmetry_equiv_pos_site_id
 _symmetry_equiv_pos_as_xyz
  1  'x, y, z'
loop_
 _atom_site_type_symbol
 _atom_site_label
 _atom_site_symmetry_multiplicity
 _atom_site_fract_x
 _atom_site_fract_y
 _atom_site_fract_z
 _atom_site_occupancy
  I  I0  1  0.12500000  0.00000000  0.25000000  1
  I  I1  1  0.00000000  0.00000000  0.00000000  1
  I  I2  1  0.37500000  0.00000000  0.25000000  1
  I  I3  1  0.25000000  0.25000000  0.25000000  1
  Li  Li4  1  0.00000000  0.25000000  0.12500000  1
  Li  Li5  1  0.90306386  0.52179293  0.08828098  1
  Li  Li6  1  0.42930446  0.32596257  0.18118472  1
  Zn  Zn7  1  0.93592375  0.60195849  0.01609227  1
  Zn  Zn8  1  0.07338907  0.72272559  0.45225186  1
  Te  Te9  1  0.43998300  0.98579900  0.44872326  1
  Te  Te10  1  0.02020435  0.44223663  0.77635609  1
  Te  Te11  1  0.96849520  0.79263230  0.84379755  1
  Te  Te12  1  0.56336788  0.15809165  0.30194287  1
  Te  Te13  1  0.92534475  0.18552262  0.42728396  1
  Te  Te14  1  0.65324899  0.05530354  0.29842852  1
  O  O15  1  0.67566710  0.18121409  0.22227565  1
  O  O16  1  0.63385186  0.31455873  0.87453869  1
  O  O17  1  0.00918562  0.85951463  0.28992399  1
  O  O18  1  0.06808461  0.46558633  0.52504602  1
