# generated using pymatgen
data_Li2LuCu2P5
_symmetry_space_group_name_H-M   'P 1'
_cell_length_a   7.40908153
_cell_length_b   7.40278911
_cell_length_c   8.40440593
_cell_angle_alpha   92.08504246
_cell_angle_beta   92.73053166
_cell_angle_gamma   92.22373424
_symmetry_Int_Tables_number   1
_chemical_formula_structural   Li2LuCu2P5
_chemical_formula_sum   'Li2 Lu1 Cu2 P5'
_cell_volume   459.75599847
_cell_formula_units_Z   1
loop_
 _symmetry_equiv_pos_site_id
 _symmetry_equiv_pos_as_xyz
  1  'x, y, z'
loop_
 _atom_site_type_symbol
 _atom_site_label
 _atom_site_symmetry_multiplicity
 _atom_site_fract_x
 _atom_site_fract_y
 _atom_site_fract_z
 _atom_site_occupancy
  P  P0  1  0.00000000  0.00000000  0.00000000  1
  P  P1  1  0.33300000  0.66700000  0.25000000  1
  P  P2  1  0.66700000  0.33300000  0.50000000  1
  P  P3  1  0.00000000  0.00000000  0.75000000  1
  P  P4  1  0.71392444  0.66318610  0.17556694  1
  Lu  Lu5  1  0.74647475  0.70890119  0.29015185  1
  Li  Li6  1  0.12826935  0.15444931  0.16719044  1
  Li  Li7  1  0.61459591  0.04582337  0.72113141  1
  Cu  Cu8  1  0.50521122  0.64174547  0.65016100  1
  Cu  Cu9  1  0.92203132  0.30985820  0.64162533  1
