# generated using pymatgen
data_LiZnTe3As3I2
_symmetry_space_group_name_H-M   'P 1'
_cell_length_a   8.23400075
_cell_length_b   8.62907269
_cell_length_c   7.62278420
_cell_angle_alpha   90.15523113
_cell_angle_beta   90.73854256
_cell_angle_gamma   90.17747063
_symmetry_Int_Tables_number   1
_chemical_formula_structural   LiZnTe3As3I2
_chemical_formula_sum   'Li2 Zn2 Te6 As6 I4'
_cell_volume   541.56283101
_cell_formula_units_Z   2
loop_
 _symmetry_equiv_pos_site_id
 _symmetry_equiv_pos_as_xyz
  1  'x, y, z'
loop_
 _atom_site_type_symbol
 _atom_site_label
 _atom_site_symmetry_multiplicity
 _atom_site_fract_x
 _atom_site_fract_y
 _atom_site_fract_z
 _atom_site_occupancy
  Te  Te0  1  0.12500000  0.00000000  0.25000000  1
  Te  Te1  1  0.00000000  0.00000000  0.00000000  1
  Te  Te2  1  0.37500000  0.00000000  0.25000000  1
  Te  Te3  1  0.25000000  0.25000000  0.25000000  1
  Te  Te4  1  0.00000000  0.25000000  0.12500000  1
  Te  Te5  1  0.86577228  0.68812601  0.53099213  1
  I  I6  1  0.76875176  0.22290958  0.02125192  1
  I  I7  1  0.47635995  0.49660296  0.81687227  1
  I  I8  1  0.26878985  0.94408256  0.71651834  1
  I  I9  1  0.09569625  0.47618587  0.69306531  1
  As  As10  1  0.26305296  0.21936649  0.36948510  1
  As  As11  1  0.54262649  0.67937498  0.67616017  1
  As  As12  1  0.13897328  0.15639986  0.49789863  1
  As  As13  1  0.09852533  0.46511622  0.71142031  1
  As  As14  1  0.76942922  0.87219514  0.42806604  1
  As  As15  1  0.87831506  0.86961159  0.43864768  1
  Li  Li16  1  0.63934616  0.97184892  0.43516053  1
  Li  Li17  1  0.41901007  0.48542348  0.29492326  1
  Zn  Zn18  1  0.60181094  0.92353011  0.28973716  1
  Zn  Zn19  1  0.46540792  0.36768285  0.66925421  1
