# generated using pymatgen
data_Li3TiP3(I2O)2
_symmetry_space_group_name_H-M   'P 1'
_cell_length_a   8.05785358
_cell_length_b   7.86700865
_cell_length_c   7.13590086
_cell_angle_alpha   91.80505175
_cell_angle_beta   92.07113190
_cell_angle_gamma   91.63000657
_symmetry_Int_Tables_number   1
_chemical_formula_structural   Li3TiP3(I2O)2
_chemical_formula_sum   'Li3 Ti1 P3 I4 O2'
_cell_volume   451.63530263
_cell_formula_units_Z   1
loop_
 _symmetry_equiv_pos_site_id
 _symmetry_equiv_pos_as_xyz
  1  'x, y, z'
loop_
 _atom_site_type_symbol
 _atom_site_label
 _atom_site_symmetry_multiplicity
 _atom_site_fract_x
 _atom_site_fract_y
 _atom_site_fract_z
 _atom_site_occupancy
  I  I0  1  0.00000000  0.00000000  0.00000000  1
  I  I1  1  0.50000000  0.50000000  0.50000000  1
  I  I2  1  0.25000000  0.25000000  0.25000000  1
  I  I3  1  0.75000000  0.25000000  0.00000000  1
  P  P4  1  0.25000000  0.75000000  0.50000000  1
  P  P5  1  0.60223944  0.41013262  0.15352211  1
  P  P6  1  0.68523094  0.74606195  0.61548076  1
  Li  Li7  1  0.09471072  0.89920033  0.66678312  1
  Li  Li8  1  0.90910511  0.12542302  0.14011592  1
  Li  Li9  1  0.92081322  0.17914171  0.38509384  1
  Ti  Ti10  1  0.68895155  0.75602137  0.70106531  1
  O  O11  1  0.95764775  0.22118539  0.87178516  1
  O  O12  1  0.27672424  0.68380478  0.25739004  1
