# generated using pymatgen
data_Li2Cu2P5N5O7
_symmetry_space_group_name_H-M   'P 1'
_cell_length_a   7.63765884
_cell_length_b   7.50959223
_cell_length_c   8.73021783
_cell_angle_alpha   91.89408907
_cell_angle_beta   92.22074582
_cell_angle_gamma   92.00755506
_symmetry_Int_Tables_number   1
_chemical_formula_structural   Li2Cu2P5N5O7
_chemical_formula_sum   'Li2 Cu2 P5 N5 O7'
_cell_volume   499.74767864
_cell_formula_units_Z   1
loop_
 _symmetry_equiv_pos_site_id
 _symmetry_equiv_pos_as_xyz
  1  'x, y, z'
loop_
 _atom_site_type_symbol
 _atom_site_label
 _atom_site_symmetry_multiplicity
 _atom_site_fract_x
 _atom_site_fract_y
 _atom_site_fract_z
 _atom_site_occupancy
  P  P0  1  0.12500000  0.00000000  0.25000000  1
  P  P1  1  0.00000000  0.00000000  0.00000000  1
  P  P2  1  0.37500000  0.00000000  0.25000000  1
  P  P3  1  0.25000000  0.25000000  0.25000000  1
  P  P4  1  0.00000000  0.25000000  0.12500000  1
  Li  Li5  1  0.12917895  0.65735276  0.17784650  1
  Li  Li6  1  0.25996246  0.41409369  0.76754898  1
  Cu  Cu7  1  0.81434347  0.30000783  0.41057733  1
  Cu  Cu8  1  0.29188601  0.87028233  0.78144380  1
  O  O9  1  0.28993266  0.32136519  0.69727333  1
  O  O10  1  0.04441947  0.97916616  0.52689247  1
  O  O11  1  0.05801414  0.36928593  0.64445115  1
  O  O12  1  0.43666115  0.89464145  0.86137963  1
  O  O13  1  0.66476559  0.84863866  0.82443416  1
  O  O14  1  0.51146177  0.45270797  0.92568444  1
  O  O15  1  0.06386389  0.11593676  0.01219911  1
  N  N16  1  0.01580454  0.14394588  0.00201521  1
  N  N17  1  0.51697452  0.30798486  0.35571080  1
  N  N18  1  0.81268200  0.47660800  0.14514465  1
  N  N19  1  0.99728998  0.12937201  0.52408948  1
  N  N20  1  0.89265395  0.74763023  0.52304021  1
