# generated using pymatgen
data_LiSb4Mo2P3
_symmetry_space_group_name_H-M   'P 1'
_cell_length_a   4.96767304
_cell_length_b   4.84255876
_cell_length_c   5.67237683
_cell_angle_alpha   98.22527132
_cell_angle_beta   89.96200631
_cell_angle_gamma   97.63535894
_symmetry_Int_Tables_number   1
_chemical_formula_structural   LiSb4Mo2P3
_chemical_formula_sum   'Li1 Sb4 Mo2 P3'
_cell_volume   133.83159159
_cell_formula_units_Z   1
loop_
 _symmetry_equiv_pos_site_id
 _symmetry_equiv_pos_as_xyz
  1  'x, y, z'
loop_
 _atom_site_type_symbol
 _atom_site_label
 _atom_site_symmetry_multiplicity
 _atom_site_fract_x
 _atom_site_fract_y
 _atom_site_fract_z
 _atom_site_occupancy
  Sb  Sb0  1  0.00000000  0.00000000  0.00000000  1
  Sb  Sb1  1  0.50000000  0.50000000  0.50000000  1
  Sb  Sb2  1  0.50000000  0.50000000  0.00000000  1
  Sb  Sb3  1  0.50000000  0.00000000  0.50000000  1
  P  P4  1  0.00000000  0.50000000  0.50000000  1
  P  P5  1  0.12618212  0.58596995  0.75508730  1
  P  P6  1  0.00765762  0.19556949  0.46003238  1
  Mo  Mo7  1  0.72655625  0.54394264  0.35194536  1
  Mo  Mo8  1  0.53922419  0.17929368  0.33224670  1
  Li  Li9  1  0.60655969  0.66879253  0.72948872  1
