# generated using pymatgen
data_LiTiAs3(SeO)2
_symmetry_space_group_name_H-M   'P 1'
_cell_length_a   8.12308749
_cell_length_b   7.41051096
_cell_length_c   7.81919838
_cell_angle_alpha   90.00000000
_cell_angle_beta   90.00000000
_cell_angle_gamma   90.00000000
_symmetry_Int_Tables_number   1
_chemical_formula_structural   LiTiAs3(SeO)2
_chemical_formula_sum   'Li1 Ti1 As3 Se2 O2'
_cell_volume   470.68625578
_cell_formula_units_Z   1
loop_
 _symmetry_equiv_pos_site_id
 _symmetry_equiv_pos_as_xyz
  1  'x, y, z'
loop_
 _atom_site_type_symbol
 _atom_site_label
 _atom_site_symmetry_multiplicity
 _atom_site_fract_x
 _atom_site_fract_y
 _atom_site_fract_z
 _atom_site_occupancy
  Li  Li0  1  0.00000000  0.00000000  0.00000000  1
  Se  Se1  1  0.50000000  0.50000000  0.50000000  1
  Se  Se2  1  0.50000000  0.50000000  0.00000000  1
  Ti  Ti3  1  0.50000000  0.00000000  0.50000000  1
  As  As4  1  0.00000000  0.50000000  0.50000000  1
  As  As5  1  0.02656052  0.25995088  0.41215642  1
  As  As6  1  0.15650398  0.86939594  0.42294694  1
  O  O7  1  0.12175823  0.90134435  0.86181132  1
  O  O8  1  0.61475296  0.78303775  0.30443807  1
