# generated using pymatgen
data_LiNi3Mo2P3
_symmetry_space_group_name_H-M   'P 1'
_cell_length_a   5.06008172
_cell_length_b   5.14708170
_cell_length_c   6.40887687
_cell_angle_alpha   96.02673961
_cell_angle_beta   93.35472507
_cell_angle_gamma   95.95437558
_symmetry_Int_Tables_number   1
_chemical_formula_structural   LiNi3Mo2P3
_chemical_formula_sum   'Li1 Ni3 Mo2 P3'
_cell_volume   164.69185931
_cell_formula_units_Z   1
loop_
 _symmetry_equiv_pos_site_id
 _symmetry_equiv_pos_as_xyz
  1  'x, y, z'
loop_
 _atom_site_type_symbol
 _atom_site_label
 _atom_site_symmetry_multiplicity
 _atom_site_fract_x
 _atom_site_fract_y
 _atom_site_fract_z
 _atom_site_occupancy
  P  P0  1  0.00000000  0.00000000  0.00000000  1
  P  P1  1  0.33300000  0.66700000  0.25000000  1
  P  P2  1  0.66700000  0.33300000  0.50000000  1
  Mo  Mo3  1  0.00000000  0.00000000  0.75000000  1
  Mo  Mo4  1  0.57270743  0.10125968  0.24295399  1
  Li  Li5  1  0.09276387  0.17071461  0.17937313  1
  Ni  Ni6  1  0.50319437  0.43219768  0.55920308  1
  Ni  Ni7  1  0.48153067  0.95864201  0.88193384  1
  Ni  Ni8  1  0.44825476  0.26036942  0.26686051  1
