# generated using pymatgen
data_Li2TiCu2Ni2O5
_symmetry_space_group_name_H-M   'P 1'
_cell_length_a   7.10067138
_cell_length_b   7.03500205
_cell_length_c   8.31027994
_cell_angle_alpha   93.55825103
_cell_angle_beta   94.19948081
_cell_angle_gamma   94.29952038
_symmetry_Int_Tables_number   1
_chemical_formula_structural   Li2TiCu2Ni2O5
_chemical_formula_sum   'Li2 Ti1 Cu2 Ni2 O5'
_cell_volume   411.89217707
_cell_formula_units_Z   1
loop_
 _symmetry_equiv_pos_site_id
 _symmetry_equiv_pos_as_xyz
  1  'x, y, z'
loop_
 _atom_site_type_symbol
 _atom_site_label
 _atom_site_symmetry_multiplicity
 _atom_site_fract_x
 _atom_site_fract_y
 _atom_site_fract_z
 _atom_site_occupancy
  Li  Li0  1  0.00000000  0.00000000  0.00000000  1
  Li  Li1  1  0.50000000  0.50000000  0.50000000  1
  Cu  Cu2  1  0.25000000  0.25000000  0.25000000  1
  Cu  Cu3  1  0.75000000  0.25000000  0.00000000  1
  Ni  Ni4  1  0.25000000  0.75000000  0.50000000  1
  Ni  Ni5  1  0.15238053  0.54910433  0.73912000  1
  Ti  Ti6  1  0.01161348  0.92062001  0.68913627  1
  O  O7  1  0.89676313  0.43516653  0.24152088  1
  O  O8  1  0.65836016  0.69235610  0.12562966  1
  O  O9  1  0.08773478  0.16216041  0.12523650  1
  O  O10  1  0.47259056  0.31571477  0.21227868  1
  O  O11  1  0.14789259  0.69799187  0.90363914  1
