# generated using pymatgen
data_LiMn2Sb4P3
_symmetry_space_group_name_H-M   'P 1'
_cell_length_a   6.20817210
_cell_length_b   6.36129057
_cell_length_c   6.92355328
_cell_angle_alpha   93.58262004
_cell_angle_beta   91.69973461
_cell_angle_gamma   93.53792418
_symmetry_Int_Tables_number   1
_chemical_formula_structural   LiMn2Sb4P3
_chemical_formula_sum   'Li1 Mn2 Sb4 P3'
_cell_volume   272.21621899
_cell_formula_units_Z   1
loop_
 _symmetry_equiv_pos_site_id
 _symmetry_equiv_pos_as_xyz
  1  'x, y, z'
loop_
 _atom_site_type_symbol
 _atom_site_label
 _atom_site_symmetry_multiplicity
 _atom_site_fract_x
 _atom_site_fract_y
 _atom_site_fract_z
 _atom_site_occupancy
  Mn  Mn0  1  0.00000000  0.00000000  0.00000000  1
  Mn  Mn1  1  0.33300000  0.66700000  0.25000000  1
  Sb  Sb2  1  0.66700000  0.33300000  0.50000000  1
  Sb  Sb3  1  0.00000000  0.00000000  0.75000000  1
  Sb  Sb4  1  0.17347940  0.81037643  0.35836442  1
  Sb  Sb5  1  0.21540518  0.10240276  0.46296769  1
  P  P6  1  0.52439051  0.49597722  0.90811810  1
  P  P7  1  0.50126370  0.11954138  0.48574029  1
  P  P8  1  0.89246781  0.30376023  0.18519508  1
  Li  Li9  1  0.60207371  0.46971638  0.55886960  1
