# generated using pymatgen
data_Li3Ni2As6O7
_symmetry_space_group_name_H-M   'P 1'
_cell_length_a   7.86841206
_cell_length_b   7.67677296
_cell_length_c   8.71872138
_cell_angle_alpha   91.00601712
_cell_angle_beta   90.85377273
_cell_angle_gamma   91.16497929
_symmetry_Int_Tables_number   1
_chemical_formula_structural   Li3Ni2As6O7
_chemical_formula_sum   'Li3 Ni2 As6 O7'
_cell_volume   526.39441289
_cell_formula_units_Z   1
loop_
 _symmetry_equiv_pos_site_id
 _symmetry_equiv_pos_as_xyz
  1  'x, y, z'
loop_
 _atom_site_type_symbol
 _atom_site_label
 _atom_site_symmetry_multiplicity
 _atom_site_fract_x
 _atom_site_fract_y
 _atom_site_fract_z
 _atom_site_occupancy
  Li  Li0  1  0.12500000  0.00000000  0.25000000  1
  Li  Li1  1  0.00000000  0.00000000  0.00000000  1
  Li  Li2  1  0.37500000  0.00000000  0.25000000  1
  Ni  Ni3  1  0.25000000  0.25000000  0.25000000  1
  Ni  Ni4  1  0.00000000  0.25000000  0.12500000  1
  As  As5  1  0.91855567  0.71866178  0.24485345  1
  As  As6  1  0.13128589  0.72023270  0.91226265  1
  As  As7  1  0.13063730  0.86278183  0.29582675  1
  As  As8  1  0.19274369  0.07311192  0.59212462  1
  As  As9  1  0.18921303  0.39119735  0.51489189  1
  As  As10  1  0.15368814  0.40002233  0.39902411  1
  O  O11  1  0.38850386  0.44347457  0.52141841  1
  O  O12  1  0.90603379  0.14275535  0.51741423  1
  O  O13  1  0.82017531  0.05705762  0.76531148  1
  O  O14  1  0.45932673  0.18525257  0.57150188  1
  O  O15  1  0.69262892  0.03781989  0.70520227  1
  O  O16  1  0.97916381  0.52911663  0.32623327  1
  O  O17  1  0.93700702  0.88725009  0.05685467  1
