# generated using pymatgen
data_Li2Mo2P3
_symmetry_space_group_name_H-M   'P 1'
_cell_length_a   3.46692232
_cell_length_b   3.57845723
_cell_length_c   6.05969701
_cell_angle_alpha   105.54326992
_cell_angle_beta   96.33943027
_cell_angle_gamma   106.00882925
_symmetry_Int_Tables_number   1
_chemical_formula_structural   Li2Mo2P3
_chemical_formula_sum   'Li2 Mo2 P3'
_cell_volume   68.22686618
_cell_formula_units_Z   1
loop_
 _symmetry_equiv_pos_site_id
 _symmetry_equiv_pos_as_xyz
  1  'x, y, z'
loop_
 _atom_site_type_symbol
 _atom_site_label
 _atom_site_symmetry_multiplicity
 _atom_site_fract_x
 _atom_site_fract_y
 _atom_site_fract_z
 _atom_site_occupancy
  P  P0  1  0.00000000  0.00000000  0.00000000  1
  P  P1  1  0.33300000  0.66700000  0.25000000  1
  P  P2  1  0.66700000  0.33300000  0.50000000  1
  Mo  Mo3  1  0.00000000  0.00000000  0.75000000  1
  Mo  Mo4  1  0.83508873  0.74039611  0.45343397  1
  Li  Li5  1  0.12611763  0.47152971  0.26410982  1
  Li  Li6  1  0.41299362  0.51545953  0.06807362  1
