# generated using pymatgen
data_Li2Ti2P5F2
_symmetry_space_group_name_H-M   'P 1'
_cell_length_a   6.92582968
_cell_length_b   6.52092127
_cell_length_c   7.26393401
_cell_angle_alpha   92.55971129
_cell_angle_beta   94.57267122
_cell_angle_gamma   92.42032431
_symmetry_Int_Tables_number   1
_chemical_formula_structural   Li2Ti2P5F2
_chemical_formula_sum   'Li2 Ti2 P5 F2'
_cell_volume   326.34347093
_cell_formula_units_Z   1
loop_
 _symmetry_equiv_pos_site_id
 _symmetry_equiv_pos_as_xyz
  1  'x, y, z'
loop_
 _atom_site_type_symbol
 _atom_site_label
 _atom_site_symmetry_multiplicity
 _atom_site_fract_x
 _atom_site_fract_y
 _atom_site_fract_z
 _atom_site_occupancy
  P  P0  1  0.00000000  0.00000000  0.00000000  1
  P  P1  1  0.50000000  0.50000000  0.50000000  1
  P  P2  1  0.25000000  0.25000000  0.25000000  1
  P  P3  1  0.75000000  0.25000000  0.00000000  1
  P  P4  1  0.25000000  0.75000000  0.50000000  1
  Li  Li5  1  0.65593278  0.94518956  0.69065481  1
  Li  Li6  1  0.03463418  0.93179352  0.02077722  1
  F  F7  1  0.49606605  0.77896428  0.97838684  1
  F  F8  1  0.87698573  0.30377784  0.35808749  1
  Ti  Ti9  1  0.93989092  0.64121402  0.71968448  1
  Ti  Ti10  1  0.36849547  0.67092130  0.84362577  1
