# generated using pymatgen
data_Li3TiO4
_symmetry_space_group_name_H-M   'P 1'
_cell_length_a   6.57499412
_cell_length_b   6.35347386
_cell_length_c   7.63804709
_cell_angle_alpha   97.10144632
_cell_angle_beta   99.05311739
_cell_angle_gamma   96.79306688
_symmetry_Int_Tables_number   1
_chemical_formula_structural   Li3TiO4
_chemical_formula_sum   'Li3 Ti1 O4'
_cell_volume   309.57641029
_cell_formula_units_Z   1
loop_
 _symmetry_equiv_pos_site_id
 _symmetry_equiv_pos_as_xyz
  1  'x, y, z'
loop_
 _atom_site_type_symbol
 _atom_site_label
 _atom_site_symmetry_multiplicity
 _atom_site_fract_x
 _atom_site_fract_y
 _atom_site_fract_z
 _atom_site_occupancy
  Li  Li0  1  0.00000000  0.00000000  0.00000000  1
  Li  Li1  1  0.33300000  0.66700000  0.25000000  1
  Li  Li2  1  0.66700000  0.33300000  0.50000000  1
  Ti  Ti3  1  0.00000000  0.00000000  0.75000000  1
  O  O4  1  0.66801635  0.22967220  0.22372151  1
  O  O5  1  0.58741192  0.23500095  0.44515663  1
  O  O6  1  0.17020597  0.78489287  0.87102925  1
  O  O7  1  0.01465759  0.44355938  0.50686645  1
