# generated using pymatgen
data_LiMn2Mo2P3
_symmetry_space_group_name_H-M   'P 1'
_cell_length_a   4.84948913
_cell_length_b   5.04750183
_cell_length_c   6.26019444
_cell_angle_alpha   97.71969285
_cell_angle_beta   93.08440940
_cell_angle_gamma   97.69613907
_symmetry_Int_Tables_number   1
_chemical_formula_structural   LiMn2Mo2P3
_chemical_formula_sum   'Li1 Mn2 Mo2 P3'
_cell_volume   150.07654009
_cell_formula_units_Z   1
loop_
 _symmetry_equiv_pos_site_id
 _symmetry_equiv_pos_as_xyz
  1  'x, y, z'
loop_
 _atom_site_type_symbol
 _atom_site_label
 _atom_site_symmetry_multiplicity
 _atom_site_fract_x
 _atom_site_fract_y
 _atom_site_fract_z
 _atom_site_occupancy
  Mn  Mn0  1  0.12500000  0.12500000  0.12500000  1
  Mn  Mn1  1  0.50000000  0.50000000  0.50000000  1
  P  P2  1  0.25000000  0.25000000  0.25000000  1
  P  P3  1  0.75000000  0.75000000  0.75000000  1
  P  P4  1  0.69600765  0.02336813  0.42361101  1
  Mo  Mo5  1  0.30484512  0.31135177  0.42646264  1
  Mo  Mo6  1  0.84871631  0.99853517  0.59932501  1
  Li  Li7  1  0.79133100  0.43207825  0.46571021  1
