# generated using pymatgen
data_Li3LuTiP3N5
_symmetry_space_group_name_H-M   'P 1'
_cell_length_a   8.09606506
_cell_length_b   7.83354693
_cell_length_c   7.94866141
_cell_angle_alpha   91.66468535
_cell_angle_beta   90.76017122
_cell_angle_gamma   91.93018610
_symmetry_Int_Tables_number   1
_chemical_formula_structural   Li3LuTiP3N5
_chemical_formula_sum   'Li3 Lu1 Ti1 P3 N5'
_cell_volume   503.56143572
_cell_formula_units_Z   1
loop_
 _symmetry_equiv_pos_site_id
 _symmetry_equiv_pos_as_xyz
  1  'x, y, z'
loop_
 _atom_site_type_symbol
 _atom_site_label
 _atom_site_symmetry_multiplicity
 _atom_site_fract_x
 _atom_site_fract_y
 _atom_site_fract_z
 _atom_site_occupancy
  P  P0  1  0.00000000  0.00000000  0.00000000  1
  P  P1  1  0.50000000  0.50000000  0.50000000  1
  P  P2  1  0.50000000  0.50000000  0.00000000  1
  Lu  Lu3  1  0.50000000  0.00000000  0.50000000  1
  Li  Li4  1  0.00000000  0.50000000  0.50000000  1
  Li  Li5  1  0.17631822  0.93319924  0.28104035  1
  Li  Li6  1  0.92301721  0.03512937  0.93591812  1
  Ti  Ti7  1  0.60816106  0.59451187  0.42153833  1
  N  N8  1  0.70391255  0.70011725  0.26972546  1
  N  N9  1  0.62152549  0.54143326  0.42854989  1
  N  N10  1  0.00415688  0.42455712  0.66709791  1
  N  N11  1  0.31594221  0.21890283  0.62920470  1
  N  N12  1  0.42929384  0.68212709  0.25090576  1
