# generated using pymatgen
data_LiMn3Sb4Mo2P3
_symmetry_space_group_name_H-M   'P 1'
_cell_length_a   4.81536573
_cell_length_b   5.05665348
_cell_length_c   6.27755125
_cell_angle_alpha   94.54116544
_cell_angle_beta   94.33356874
_cell_angle_gamma   95.34827954
_symmetry_Int_Tables_number   1
_chemical_formula_structural   LiMn3Sb4Mo2P3
_chemical_formula_sum   'Li1 Mn3 Sb4 Mo2 P3'
_cell_volume   151.18218028
_cell_formula_units_Z   1
loop_
 _symmetry_equiv_pos_site_id
 _symmetry_equiv_pos_as_xyz
  1  'x, y, z'
loop_
 _atom_site_type_symbol
 _atom_site_label
 _atom_site_symmetry_multiplicity
 _atom_site_fract_x
 _atom_site_fract_y
 _atom_site_fract_z
 _atom_site_occupancy
  Mn  Mn0  1  0.00000000  0.00000000  0.00000000  1
  Mn  Mn1  1  0.50000000  0.50000000  0.50000000  1
  Mn  Mn2  1  0.25000000  0.25000000  0.25000000  1
  Sb  Sb3  1  0.75000000  0.25000000  0.00000000  1
  Sb  Sb4  1  0.25000000  0.75000000  0.50000000  1
  Sb  Sb5  1  0.32857990  0.23801858  0.57878382  1
  Sb  Sb6  1  0.96856716  0.13383342  0.77165906  1
  P  P7  1  0.01156241  0.02304160  0.23443089  1
  P  P8  1  0.80876851  0.81251592  0.17446278  1
  P  P9  1  0.90502132  0.91586070  0.08098695  1
  Mo  Mo10  1  0.56852201  0.22689938  0.57211087  1
  Mo  Mo11  1  0.56695972  0.45774920  0.56826407  1
  Li  Li12  1  0.00097478  0.94106383  0.99613138  1
