# generated using pymatgen
data_Li2TiS3(I2F)2
_symmetry_space_group_name_H-M   'P 1'
_cell_length_a   6.84575989
_cell_length_b   6.79887969
_cell_length_c   7.54380302
_cell_angle_alpha   91.03961509
_cell_angle_beta   94.94617287
_cell_angle_gamma   91.18855765
_symmetry_Int_Tables_number   1
_chemical_formula_structural   Li2TiS3(I2F)2
_chemical_formula_sum   'Li2 Ti1 S3 I4 F2'
_cell_volume   349.66218344
_cell_formula_units_Z   1
loop_
 _symmetry_equiv_pos_site_id
 _symmetry_equiv_pos_as_xyz
  1  'x, y, z'
loop_
 _atom_site_type_symbol
 _atom_site_label
 _atom_site_symmetry_multiplicity
 _atom_site_fract_x
 _atom_site_fract_y
 _atom_site_fract_z
 _atom_site_occupancy
  I  I0  1  0.00000000  0.00000000  0.00000000  1
  I  I1  1  0.50000000  0.50000000  0.50000000  1
  I  I2  1  0.50000000  0.50000000  0.00000000  1
  I  I3  1  0.50000000  0.00000000  0.50000000  1
  Li  Li4  1  0.00000000  0.50000000  0.50000000  1
  Li  Li5  1  0.12419839  0.80529148  0.96214865  1
  F  F6  1  0.91085871  0.58837706  0.19718819  1
  F  F7  1  0.11672966  0.36395427  0.19312171  1
  Ti  Ti8  1  0.60686628  0.74506992  0.75095307  1
  S  S9  1  0.88385748  0.01429007  0.96111296  1
  S  S10  1  0.24641523  0.78716714  0.54277401  1
  S  S11  1  0.48058260  0.08938390  0.83881040  1
