# generated using pymatgen
data_LiMn2Sb4P3
_symmetry_space_group_name_H-M   'P 1'
_cell_length_a   5.48901335
_cell_length_b   5.79984431
_cell_length_c   6.61683335
_cell_angle_alpha   95.04953654
_cell_angle_beta   92.99158160
_cell_angle_gamma   95.11290652
_symmetry_Int_Tables_number   1
_chemical_formula_structural   LiMn2Sb4P3
_chemical_formula_sum   'Li1 Mn2 Sb4 P3'
_cell_volume   208.61429057
_cell_formula_units_Z   1
loop_
 _symmetry_equiv_pos_site_id
 _symmetry_equiv_pos_as_xyz
  1  'x, y, z'
loop_
 _atom_site_type_symbol
 _atom_site_label
 _atom_site_symmetry_multiplicity
 _atom_site_fract_x
 _atom_site_fract_y
 _atom_site_fract_z
 _atom_site_occupancy
  Mn  Mn0  1  0.12500000  0.12500000  0.12500000  1
  Mn  Mn1  1  0.50000000  0.50000000  0.50000000  1
  Sb  Sb2  1  0.25000000  0.25000000  0.25000000  1
  Sb  Sb3  1  0.75000000  0.75000000  0.75000000  1
  Sb  Sb4  1  0.95200563  0.00049723  0.78591104  1
  Sb  Sb5  1  0.23806700  0.08103039  0.19064918  1
  P  P6  1  0.60023400  0.85050141  0.25088027  1
  P  P7  1  0.55375989  0.47970017  0.15823365  1
  P  P8  1  0.32961560  0.45722041  0.97783800  1
  Li  Li9  1  0.94281038  0.40536480  0.79242972  1
