# generated using pymatgen
data_Li3Ti2Cu2(OF)2
_symmetry_space_group_name_H-M   'P 1'
_cell_length_a   5.89152850
_cell_length_b   6.08992843
_cell_length_c   7.10592758
_cell_angle_alpha   98.18561421
_cell_angle_beta   101.23479827
_cell_angle_gamma   99.82871121
_symmetry_Int_Tables_number   1
_chemical_formula_structural   Li3Ti2Cu2(OF)2
_chemical_formula_sum   'Li3 Ti2 Cu2 O2 F2'
_cell_volume   242.29419816
_cell_formula_units_Z   1
loop_
 _symmetry_equiv_pos_site_id
 _symmetry_equiv_pos_as_xyz
  1  'x, y, z'
loop_
 _atom_site_type_symbol
 _atom_site_label
 _atom_site_symmetry_multiplicity
 _atom_site_fract_x
 _atom_site_fract_y
 _atom_site_fract_z
 _atom_site_occupancy
  Li  Li0  1  0.12500000  0.00000000  0.25000000  1
  Li  Li1  1  0.00000000  0.00000000  0.00000000  1
  Li  Li2  1  0.37500000  0.00000000  0.25000000  1
  Cu  Cu3  1  0.25000000  0.25000000  0.25000000  1
  Cu  Cu4  1  0.00000000  0.25000000  0.12500000  1
  F  F5  1  0.71204158  0.64771035  0.96659724  1
  F  F6  1  0.13360694  0.04387562  0.35428874  1
  Ti  Ti7  1  0.92403447  0.31385771  0.53787038  1
  Ti  Ti8  1  0.52712783  0.93947675  0.95283386  1
  O  O9  1  0.45945083  0.24816514  0.77637719  1
  O  O10  1  0.98363507  0.44833709  0.21645740  1
