# generated using pymatgen
data_Li2Mn2Sb4P2N
_symmetry_space_group_name_H-M   'P 1'
_cell_length_a   5.42164007
_cell_length_b   5.69299464
_cell_length_c   6.42058720
_cell_angle_alpha   98.46926869
_cell_angle_beta   95.54320782
_cell_angle_gamma   97.03142570
_symmetry_Int_Tables_number   1
_chemical_formula_structural   Li2Mn2Sb4P2N
_chemical_formula_sum   'Li2 Mn2 Sb4 P2 N1'
_cell_volume   193.20774129
_cell_formula_units_Z   1
loop_
 _symmetry_equiv_pos_site_id
 _symmetry_equiv_pos_as_xyz
  1  'x, y, z'
loop_
 _atom_site_type_symbol
 _atom_site_label
 _atom_site_symmetry_multiplicity
 _atom_site_fract_x
 _atom_site_fract_y
 _atom_site_fract_z
 _atom_site_occupancy
  N  N0  1  0.12500000  0.00000000  0.25000000  1
  Mn  Mn1  1  0.00000000  0.00000000  0.00000000  1
  Mn  Mn2  1  0.37500000  0.00000000  0.25000000  1
  Sb  Sb3  1  0.25000000  0.25000000  0.25000000  1
  Sb  Sb4  1  0.00000000  0.25000000  0.12500000  1
  Sb  Sb5  1  0.27785742  0.37788124  0.91826828  1
  Sb  Sb6  1  0.75866730  0.96507791  0.20095211  1
  P  P7  1  0.41423302  0.56707427  0.64202076  1
  P  P8  1  0.84024414  0.18908551  0.71439312  1
  Li  Li9  1  0.34931274  0.43701482  0.61403201  1
  Li  Li10  1  0.84496817  0.08821472  0.37370716  1
