# generated using pymatgen
data_LiMn(SbP)3
_symmetry_space_group_name_H-M   'P 1'
_cell_length_a   5.13220437
_cell_length_b   5.31242023
_cell_length_c   6.24494039
_cell_angle_alpha   95.07834843
_cell_angle_beta   92.45556454
_cell_angle_gamma   95.48988331
_symmetry_Int_Tables_number   1
_chemical_formula_structural   LiMn(SbP)3
_chemical_formula_sum   'Li1 Mn1 Sb3 P3'
_cell_volume   168.59220935
_cell_formula_units_Z   1
loop_
 _symmetry_equiv_pos_site_id
 _symmetry_equiv_pos_as_xyz
  1  'x, y, z'
loop_
 _atom_site_type_symbol
 _atom_site_label
 _atom_site_symmetry_multiplicity
 _atom_site_fract_x
 _atom_site_fract_y
 _atom_site_fract_z
 _atom_site_occupancy
  Mn  Mn0  1  0.00000000  0.00000000  0.00000000  1
  Sb  Sb1  1  0.33300000  0.66700000  0.25000000  1
  Sb  Sb2  1  0.66700000  0.33300000  0.50000000  1
  Sb  Sb3  1  0.00000000  0.00000000  0.75000000  1
  P  P4  1  0.15228069  0.90341169  0.58314812  1
  P  P5  1  0.23149846  0.89629069  0.90008098  1
  P  P6  1  0.80744388  0.26242418  0.73110319  1
  Li  Li7  1  0.48298242  0.80469595  0.05383200  1
