# generated using pymatgen
data_Li2MnMo2P3N
_symmetry_space_group_name_H-M   'P 1'
_cell_length_a   4.11297878
_cell_length_b   4.34100649
_cell_length_c   6.04190199
_cell_angle_alpha   100.74747935
_cell_angle_beta   97.14839141
_cell_angle_gamma   100.19263686
_symmetry_Int_Tables_number   1
_chemical_formula_structural   Li2MnMo2P3N
_chemical_formula_sum   'Li2 Mn1 Mo2 P3 N1'
_cell_volume   102.91815928
_cell_formula_units_Z   1
loop_
 _symmetry_equiv_pos_site_id
 _symmetry_equiv_pos_as_xyz
  1  'x, y, z'
loop_
 _atom_site_type_symbol
 _atom_site_label
 _atom_site_symmetry_multiplicity
 _atom_site_fract_x
 _atom_site_fract_y
 _atom_site_fract_z
 _atom_site_occupancy
  N  N0  1  0.00000000  0.00000000  0.00000000  1
  Mn  Mn1  1  0.50000000  0.50000000  0.50000000  1
  P  P2  1  0.25000000  0.25000000  0.25000000  1
  P  P3  1  0.75000000  0.25000000  0.00000000  1
  P  P4  1  0.25000000  0.75000000  0.50000000  1
  Mo  Mo5  1  0.08697843  0.00369946  0.84836988  1
  Mo  Mo6  1  0.74498605  0.70366180  0.42114020  1
  Li  Li7  1  0.98758650  0.64569624  0.70567345  1
  Li  Li8  1  0.20992500  0.25720784  0.12512155  1
