# generated using pymatgen
data_Li2Mn3(Sb2P)2
_symmetry_space_group_name_H-M   'P 1'
_cell_length_a   5.08718444
_cell_length_b   5.45894456
_cell_length_c   6.22308169
_cell_angle_alpha   101.24669264
_cell_angle_beta   96.40153014
_cell_angle_gamma   98.06763431
_symmetry_Int_Tables_number   1
_chemical_formula_structural   Li2Mn3(Sb2P)2
_chemical_formula_sum   'Li2 Mn3 Sb4 P2'
_cell_volume   166.09802531
_cell_formula_units_Z   1
loop_
 _symmetry_equiv_pos_site_id
 _symmetry_equiv_pos_as_xyz
  1  'x, y, z'
loop_
 _atom_site_type_symbol
 _atom_site_label
 _atom_site_symmetry_multiplicity
 _atom_site_fract_x
 _atom_site_fract_y
 _atom_site_fract_z
 _atom_site_occupancy
  Mn  Mn0  1  0.00000000  0.00000000  0.00000000  1
  Mn  Mn1  1  0.50000000  0.50000000  0.50000000  1
  Mn  Mn2  1  0.50000000  0.50000000  0.00000000  1
  Sb  Sb3  1  0.50000000  0.00000000  0.50000000  1
  Sb  Sb4  1  0.00000000  0.50000000  0.50000000  1
  Sb  Sb5  1  0.36971474  0.94529093  0.16384685  1
  Sb  Sb6  1  0.27315504  0.79014735  0.90461741  1
  P  P7  1  0.82455935  0.29394285  0.51037585  1
  P  P8  1  0.49648353  0.99238511  0.00607592  1
  Li  Li9  1  0.81757411  0.28518912  0.27024557  1
  Li  Li10  1  0.32799307  0.14789876  0.71619094  1
