# generated using pymatgen
data_Li2LuCu2(NiAs3)2
_symmetry_space_group_name_H-M   'P 1'
_cell_length_a   7.51929536
_cell_length_b   7.59301765
_cell_length_c   8.43907896
_cell_angle_alpha   90.84996898
_cell_angle_beta   91.99646024
_cell_angle_gamma   90.97946417
_symmetry_Int_Tables_number   1
_chemical_formula_structural   Li2LuCu2(NiAs3)2
_chemical_formula_sum   'Li2 Lu1 Cu2 Ni2 As6'
_cell_volume   481.40174052
_cell_formula_units_Z   1
loop_
 _symmetry_equiv_pos_site_id
 _symmetry_equiv_pos_as_xyz
  1  'x, y, z'
loop_
 _atom_site_type_symbol
 _atom_site_label
 _atom_site_symmetry_multiplicity
 _atom_site_fract_x
 _atom_site_fract_y
 _atom_site_fract_z
 _atom_site_occupancy
  Ni  Ni0  1  0.00000000  0.00000000  0.00000000  1
  Ni  Ni1  1  0.50000000  0.50000000  0.50000000  1
  Lu  Lu2  1  0.25000000  0.25000000  0.25000000  1
  As  As3  1  0.75000000  0.25000000  0.00000000  1
  As  As4  1  0.25000000  0.75000000  0.50000000  1
  As  As5  1  0.92997196  0.92272822  0.25491956  1
  As  As6  1  0.20747338  0.66926327  0.33353840  1
  As  As7  1  0.37175252  0.69870583  0.00845986  1
  As  As8  1  0.62610826  0.40190480  0.07253941  1
  Li  Li9  1  0.84081451  0.70558991  0.47981642  1
  Li  Li10  1  0.14352160  0.76170310  0.11414523  1
  Cu  Cu11  1  0.11321632  0.62622846  0.47715110  1
  Cu  Cu12  1  0.92373799  0.65233566  0.17010440  1
