# generated using pymatgen
data_Li2Mn3Sb4P3N
_symmetry_space_group_name_H-M   'P 1'
_cell_length_a   5.91951496
_cell_length_b   6.20106421
_cell_length_c   6.52274127
_cell_angle_alpha   97.08821240
_cell_angle_beta   92.38478598
_cell_angle_gamma   96.49959588
_symmetry_Int_Tables_number   1
_chemical_formula_structural   Li2Mn3Sb4P3N
_chemical_formula_sum   'Li2 Mn3 Sb4 P3 N1'
_cell_volume   235.69976576
_cell_formula_units_Z   1
loop_
 _symmetry_equiv_pos_site_id
 _symmetry_equiv_pos_as_xyz
  1  'x, y, z'
loop_
 _atom_site_type_symbol
 _atom_site_label
 _atom_site_symmetry_multiplicity
 _atom_site_fract_x
 _atom_site_fract_y
 _atom_site_fract_z
 _atom_site_occupancy
  N  N0  1  0.00000000  0.00000000  0.00000000  1
  Mn  Mn1  1  0.50000000  0.50000000  0.50000000  1
  Mn  Mn2  1  0.25000000  0.25000000  0.25000000  1
  Mn  Mn3  1  0.75000000  0.25000000  0.00000000  1
  Sb  Sb4  1  0.25000000  0.75000000  0.50000000  1
  Sb  Sb5  1  0.99181518  0.73017005  0.44212466  1
  Sb  Sb6  1  0.79403257  0.76010998  0.84495374  1
  Sb  Sb7  1  0.82874114  0.63994492  0.37541685  1
  P  P8  1  0.76026782  0.61191272  0.01610581  1
  P  P9  1  0.20155762  0.52789878  0.78258215  1
  P  P10  1  0.26333112  0.08601121  0.88087016  1
  Li  Li11  1  0.35993566  0.14393703  0.98957571  1
  Li  Li12  1  0.96998483  0.91023636  0.51301115  1
