# generated using pymatgen
data_LiMnMo2P3
_symmetry_space_group_name_H-M   'P 1'
_cell_length_a   3.83570002
_cell_length_b   3.96921750
_cell_length_c   6.06549841
_cell_angle_alpha   103.51522204
_cell_angle_beta   95.10364041
_cell_angle_gamma   103.78544149
_symmetry_Int_Tables_number   1
_chemical_formula_structural   LiMnMo2P3
_chemical_formula_sum   'Li1 Mn1 Mo2 P3'
_cell_volume   86.17284627
_cell_formula_units_Z   1
loop_
 _symmetry_equiv_pos_site_id
 _symmetry_equiv_pos_as_xyz
  1  'x, y, z'
loop_
 _atom_site_type_symbol
 _atom_site_label
 _atom_site_symmetry_multiplicity
 _atom_site_fract_x
 _atom_site_fract_y
 _atom_site_fract_z
 _atom_site_occupancy
  Mn  Mn0  1  0.00000000  0.00000000  0.00000000  1
  P  P1  1  0.33300000  0.66700000  0.25000000  1
  P  P2  1  0.66700000  0.33300000  0.50000000  1
  P  P3  1  0.00000000  0.00000000  0.75000000  1
  Mo  Mo4  1  0.21763158  0.55916024  0.70409600  1
  Mo  Mo5  1  0.75065320  0.56845200  0.84580120  1
  Li  Li6  1  0.97667152  0.70568745  0.19657874  1
