# generated using pymatgen
data_LiMn3Mo2P3
_symmetry_space_group_name_H-M   'P 1'
_cell_length_a   5.43608661
_cell_length_b   5.71467332
_cell_length_c   6.53258476
_cell_angle_alpha   94.67081957
_cell_angle_beta   92.84201297
_cell_angle_gamma   94.66915743
_symmetry_Int_Tables_number   1
_chemical_formula_structural   LiMn3Mo2P3
_chemical_formula_sum   'Li1 Mn3 Mo2 P3'
_cell_volume   201.26953933
_cell_formula_units_Z   1
loop_
 _symmetry_equiv_pos_site_id
 _symmetry_equiv_pos_as_xyz
  1  'x, y, z'
loop_
 _atom_site_type_symbol
 _atom_site_label
 _atom_site_symmetry_multiplicity
 _atom_site_fract_x
 _atom_site_fract_y
 _atom_site_fract_z
 _atom_site_occupancy
  Mn  Mn0  1  0.00000000  0.00000000  0.00000000  1
  Mn  Mn1  1  0.50000000  0.50000000  0.50000000  1
  Mn  Mn2  1  0.50000000  0.50000000  0.00000000  1
  P  P3  1  0.50000000  0.00000000  0.50000000  1
  P  P4  1  0.00000000  0.50000000  0.50000000  1
  P  P5  1  0.05046743  0.83267632  0.39458445  1
  Mo  Mo6  1  0.35668487  0.97654843  0.89578986  1
  Mo  Mo7  1  0.87555164  0.61337183  0.97454432  1
  Li  Li8  1  0.77386100  0.74866738  0.24388765  1
