# generated using pymatgen
data_Li2TiCu2(PO)4
_symmetry_space_group_name_H-M   'P 1'
_cell_length_a   8.11355897
_cell_length_b   8.04011104
_cell_length_c   7.17922640
_cell_angle_alpha   90.24341620
_cell_angle_beta   90.68160363
_cell_angle_gamma   89.95873628
_symmetry_Int_Tables_number   1
_chemical_formula_structural   Li2TiCu2(PO)4
_chemical_formula_sum   'Li2 Ti1 Cu2 P4 O4'
_cell_volume   468.29157508
_cell_formula_units_Z   1
loop_
 _symmetry_equiv_pos_site_id
 _symmetry_equiv_pos_as_xyz
  1  'x, y, z'
loop_
 _atom_site_type_symbol
 _atom_site_label
 _atom_site_symmetry_multiplicity
 _atom_site_fract_x
 _atom_site_fract_y
 _atom_site_fract_z
 _atom_site_occupancy
  P  P0  1  0.00000000  0.00000000  0.00000000  1
  P  P1  1  0.50000000  0.50000000  0.50000000  1
  P  P2  1  0.25000000  0.25000000  0.25000000  1
  P  P3  1  0.75000000  0.25000000  0.00000000  1
  Li  Li4  1  0.25000000  0.75000000  0.50000000  1
  Li  Li5  1  0.34006685  0.30702741  0.70532841  1
  Cu  Cu6  1  0.04948972  0.29553641  0.25544982  1
  Cu  Cu7  1  0.80733914  0.61299286  0.56807458  1
  Ti  Ti8  1  0.41959766  0.78452929  0.79178650  1
  O  O9  1  0.01971175  0.56242187  0.56206973  1
  O  O10  1  0.94140427  0.15290550  0.96429593  1
  O  O11  1  0.78876364  0.49506762  0.50037021  1
  O  O12  1  0.74288015  0.40181780  0.04764755  1
