# generated using pymatgen
data_Li2Sb4P4N5
_symmetry_space_group_name_H-M   'P 1'
_cell_length_a   7.89605063
_cell_length_b   8.69909164
_cell_length_c   8.39931784
_cell_angle_alpha   90.00000000
_cell_angle_beta   90.00000000
_cell_angle_gamma   90.00000000
_symmetry_Int_Tables_number   1
_chemical_formula_structural   Li2Sb4P4N5
_chemical_formula_sum   'Li2 Sb4 P4 N5'
_cell_volume   576.93627463
_cell_formula_units_Z   1
loop_
 _symmetry_equiv_pos_site_id
 _symmetry_equiv_pos_as_xyz
  1  'x, y, z'
loop_
 _atom_site_type_symbol
 _atom_site_label
 _atom_site_symmetry_multiplicity
 _atom_site_fract_x
 _atom_site_fract_y
 _atom_site_fract_z
 _atom_site_occupancy
  N  N0  1  0.12500000  0.00000000  0.25000000  1
  N  N1  1  0.00000000  0.00000000  0.00000000  1
  N  N2  1  0.37500000  0.00000000  0.25000000  1
  N  N3  1  0.25000000  0.25000000  0.25000000  1
  N  N4  1  0.00000000  0.25000000  0.12500000  1
  Sb  Sb5  1  0.57836365  0.61792125  0.12217576  1
  Sb  Sb6  1  0.91888055  0.90322902  0.79697076  1
  Sb  Sb7  1  0.02532448  0.44278714  0.46095460  1
  Sb  Sb8  1  0.81311456  0.51643617  0.33622143  1
  P  P9  1  0.17271269  0.37732415  0.12931328  1
  P  P10  1  0.71567598  0.29480700  0.08801188  1
  P  P11  1  0.26001441  0.51071447  0.40851316  1
  P  P12  1  0.18389609  0.71161416  0.48494121  1
  Li  Li13  1  0.80360803  0.72202098  0.60074311  1
  Li  Li14  1  0.03285794  0.81242149  0.29660654  1
