# generated using pymatgen
data_Li3Ni2(As3P2)2
_symmetry_space_group_name_H-M   'P 1'
_cell_length_a   7.67979295
_cell_length_b   7.48801757
_cell_length_c   8.71115460
_cell_angle_alpha   91.66807502
_cell_angle_beta   91.18193230
_cell_angle_gamma   91.93253140
_symmetry_Int_Tables_number   1
_chemical_formula_structural   Li3Ni2(As3P2)2
_chemical_formula_sum   'Li3 Ni2 As6 P4'
_cell_volume   500.33318159
_cell_formula_units_Z   1
loop_
 _symmetry_equiv_pos_site_id
 _symmetry_equiv_pos_as_xyz
  1  'x, y, z'
loop_
 _atom_site_type_symbol
 _atom_site_label
 _atom_site_symmetry_multiplicity
 _atom_site_fract_x
 _atom_site_fract_y
 _atom_site_fract_z
 _atom_site_occupancy
  P  P0  1  0.00000000  0.00000000  0.00000000  1
  P  P1  1  0.33300000  0.66700000  0.25000000  1
  P  P2  1  0.66700000  0.33300000  0.50000000  1
  P  P3  1  0.00000000  0.00000000  0.75000000  1
  Li  Li4  1  0.15600618  0.62735310  0.37764056  1
  Li  Li5  1  0.29118350  0.61903323  0.17634277  1
  Li  Li6  1  0.84816472  0.85892102  0.67016856  1
  Ni  Ni7  1  0.23380449  0.88890814  0.69854291  1
  Ni  Ni8  1  0.25230572  0.53386697  0.00561266  1
  As  As9  1  0.53803504  0.01484696  0.78212030  1
  As  As10  1  0.71977119  0.64104912  0.60196616  1
  As  As11  1  0.34993132  0.37121755  0.37198934  1
  As  As12  1  0.76687519  0.69060416  0.82942080  1
  As  As13  1  0.66882574  0.71388133  0.43854391  1
  As  As14  1  0.60723353  0.86810452  0.43362000  1
