# generated using pymatgen
data_Li4ZnSbMo2F2
_symmetry_space_group_name_H-M   'P 1'
_cell_length_a   5.29453153
_cell_length_b   5.52755347
_cell_length_c   5.17663642
_cell_angle_alpha   92.99610952
_cell_angle_beta   92.11633640
_cell_angle_gamma   90.10315472
_symmetry_Int_Tables_number   1
_chemical_formula_structural   Li4ZnSbMo2F2
_chemical_formula_sum   'Li4 Zn1 Sb1 Mo2 F2'
_cell_volume   151.18710146
_cell_formula_units_Z   1
loop_
 _symmetry_equiv_pos_site_id
 _symmetry_equiv_pos_as_xyz
  1  'x, y, z'
loop_
 _atom_site_type_symbol
 _atom_site_label
 _atom_site_symmetry_multiplicity
 _atom_site_fract_x
 _atom_site_fract_y
 _atom_site_fract_z
 _atom_site_occupancy
  Zn  Zn0  1  0.00000000  0.00000000  0.00000000  1
  F  F1  1  0.50000000  0.50000000  0.50000000  1
  F  F2  1  0.25000000  0.25000000  0.25000000  1
  Sb  Sb3  1  0.75000000  0.25000000  0.00000000  1
  Mo  Mo4  1  0.25000000  0.75000000  0.50000000  1
  Mo  Mo5  1  0.00946550  0.58769423  0.96091987  1
  Li  Li6  1  0.20453151  0.76200127  0.82686098  1
  Li  Li7  1  0.65809141  0.32436615  0.51591999  1
  Li  Li8  1  0.28352799  0.00751786  0.21569217  1
  Li  Li9  1  0.63202128  0.65487617  0.75137935  1
