# generated using pymatgen
data_Li2Ti2P3NF3
_symmetry_space_group_name_H-M   'P 1'
_cell_length_a   4.76890972
_cell_length_b   4.76124923
_cell_length_c   5.86507497
_cell_angle_alpha   92.16869304
_cell_angle_beta   105.75366826
_cell_angle_gamma   92.29482247
_symmetry_Int_Tables_number   1
_chemical_formula_structural   Li2Ti2P3NF3
_chemical_formula_sum   'Li2 Ti2 P3 N1 F3'
_cell_volume   127.90276844
_cell_formula_units_Z   1
loop_
 _symmetry_equiv_pos_site_id
 _symmetry_equiv_pos_as_xyz
  1  'x, y, z'
loop_
 _atom_site_type_symbol
 _atom_site_label
 _atom_site_symmetry_multiplicity
 _atom_site_fract_x
 _atom_site_fract_y
 _atom_site_fract_z
 _atom_site_occupancy
  F  F0  1  0.12500000  0.00000000  0.25000000  1
  F  F1  1  0.00000000  0.00000000  0.00000000  1
  F  F2  1  0.37500000  0.00000000  0.25000000  1
  Ti  Ti3  1  0.25000000  0.25000000  0.25000000  1
  Ti  Ti4  1  0.00000000  0.25000000  0.12500000  1
  P  P5  1  0.70723280  0.25086580  0.03021016  1
  P  P6  1  0.02065777  0.24683944  0.79923469  1
  P  P7  1  0.05425309  0.55177215  0.64400187  1
  Li  Li8  1  0.25946465  0.68279255  0.04339583  1
  Li  Li9  1  0.46643871  0.44108695  0.68912142  1
  N  N10  1  0.16901769  0.41784503  0.09327069  1
