# generated using pymatgen
data_LiMnSb2MoP
_symmetry_space_group_name_H-M   'P 1'
_cell_length_a   5.33225197
_cell_length_b   5.72821348
_cell_length_c   6.77103887
_cell_angle_alpha   98.15021319
_cell_angle_beta   94.66668538
_cell_angle_gamma   98.01079289
_symmetry_Int_Tables_number   1
_chemical_formula_structural   LiMnSb2MoP
_chemical_formula_sum   'Li2 Mn2 Sb4 Mo2 P2'
_cell_volume   201.64834984
_cell_formula_units_Z   2
loop_
 _symmetry_equiv_pos_site_id
 _symmetry_equiv_pos_as_xyz
  1  'x, y, z'
loop_
 _atom_site_type_symbol
 _atom_site_label
 _atom_site_symmetry_multiplicity
 _atom_site_fract_x
 _atom_site_fract_y
 _atom_site_fract_z
 _atom_site_occupancy
  Mn  Mn0  1  0.12500000  0.00000000  0.25000000  1
  Mn  Mn1  1  0.00000000  0.00000000  0.00000000  1
  Sb  Sb2  1  0.37500000  0.00000000  0.25000000  1
  Sb  Sb3  1  0.25000000  0.25000000  0.25000000  1
  Sb  Sb4  1  0.00000000  0.25000000  0.12500000  1
  Sb  Sb5  1  0.90851039  0.68817483  0.81942525  1
  P  P6  1  0.91261283  0.25288868  0.27038115  1
  P  P7  1  0.14639033  0.49220111  0.12080559  1
  Mo  Mo8  1  0.38181160  0.00402294  0.29606010  1
  Mo  Mo9  1  0.58918112  0.04953821  0.39709469  1
  Li  Li10  1  0.13249801  0.88345590  0.44049026  1
  Li  Li11  1  0.66806406  0.79332551  0.88016622  1
