# generated using pymatgen
data_Li3Cu2P4Se
_symmetry_space_group_name_H-M   'P 1'
_cell_length_a   7.22688475
_cell_length_b   6.95557834
_cell_length_c   7.34084789
_cell_angle_alpha   95.37253680
_cell_angle_beta   97.25563435
_cell_angle_gamma   95.07708157
_symmetry_Int_Tables_number   1
_chemical_formula_structural   Li3Cu2P4Se
_chemical_formula_sum   'Li3 Cu2 P4 Se1'
_cell_volume   362.55573518
_cell_formula_units_Z   1
loop_
 _symmetry_equiv_pos_site_id
 _symmetry_equiv_pos_as_xyz
  1  'x, y, z'
loop_
 _atom_site_type_symbol
 _atom_site_label
 _atom_site_symmetry_multiplicity
 _atom_site_fract_x
 _atom_site_fract_y
 _atom_site_fract_z
 _atom_site_occupancy
  P  P0  1  0.12500000  0.00000000  0.25000000  1
  P  P1  1  0.00000000  0.00000000  0.00000000  1
  P  P2  1  0.37500000  0.00000000  0.25000000  1
  P  P3  1  0.25000000  0.25000000  0.25000000  1
  Li  Li4  1  0.00000000  0.25000000  0.12500000  1
  Li  Li5  1  0.31623949  0.64823745  0.85150343  1
  Li  Li6  1  0.87074593  0.84949927  0.35672614  1
  Cu  Cu7  1  0.17626520  0.68078065  0.25568437  1
  Cu  Cu8  1  0.77208468  0.24610357  0.67471218  1
  Se  Se9  1  0.28231167  0.09038846  0.21626263  1
