# generated using pymatgen
data_Li4TiI4O4F3
_symmetry_space_group_name_H-M   'P 1'
_cell_length_a   6.08180072
_cell_length_b   5.81909785
_cell_length_c   6.86884664
_cell_angle_alpha   100.73466210
_cell_angle_beta   103.86268503
_cell_angle_gamma   100.06905574
_symmetry_Int_Tables_number   1
_chemical_formula_structural   Li4TiI4O4F3
_chemical_formula_sum   'Li4 Ti1 I4 O4 F3'
_cell_volume   225.66120859
_cell_formula_units_Z   1
loop_
 _symmetry_equiv_pos_site_id
 _symmetry_equiv_pos_as_xyz
  1  'x, y, z'
loop_
 _atom_site_type_symbol
 _atom_site_label
 _atom_site_symmetry_multiplicity
 _atom_site_fract_x
 _atom_site_fract_y
 _atom_site_fract_z
 _atom_site_occupancy
  I  I0  1  0.00000000  0.00000000  0.00000000  1
  I  I1  1  0.50000000  0.50000000  0.50000000  1
  I  I2  1  0.50000000  0.50000000  0.00000000  1
  I  I3  1  0.50000000  0.00000000  0.50000000  1
  Li  Li4  1  0.00000000  0.50000000  0.50000000  1
  Li  Li5  1  0.55032467  0.58561661  0.06915823  1
  Li  Li6  1  0.14470754  0.92567379  0.86857683  1
  Li  Li7  1  0.11642458  0.74395062  0.40410733  1
  F  F8  1  0.46905620  0.66320602  0.74598225  1
  F  F9  1  0.77121709  0.52860959  0.01514881  1
  F  F10  1  0.78809245  0.79250806  0.69816217  1
  Ti  Ti11  1  0.61543417  0.45015013  0.78182848  1
  O  O12  1  0.74573256  0.74711681  0.89044508  1
  O  O13  1  0.62886644  0.02301330  0.75962149  1
  O  O14  1  0.13960317  0.69484778  0.25862545  1
  O  O15  1  0.79902124  0.74825517  0.76481522  1
