# generated using pymatgen
data_Li2TiCu2As6N5
_symmetry_space_group_name_H-M   'P 1'
_cell_length_a   7.83483348
_cell_length_b   7.77585164
_cell_length_c   8.23471112
_cell_angle_alpha   91.24544018
_cell_angle_beta   91.37291572
_cell_angle_gamma   91.44104219
_symmetry_Int_Tables_number   1
_chemical_formula_structural   Li2TiCu2As6N5
_chemical_formula_sum   'Li2 Ti1 Cu2 As6 N5'
_cell_volume   501.25131840
_cell_formula_units_Z   1
loop_
 _symmetry_equiv_pos_site_id
 _symmetry_equiv_pos_as_xyz
  1  'x, y, z'
loop_
 _atom_site_type_symbol
 _atom_site_label
 _atom_site_symmetry_multiplicity
 _atom_site_fract_x
 _atom_site_fract_y
 _atom_site_fract_z
 _atom_site_occupancy
  Ti  Ti0  1  0.00000000  0.00000000  0.00000000  1
  As  As1  1  0.50000000  0.50000000  0.50000000  1
  As  As2  1  0.25000000  0.25000000  0.25000000  1
  As  As3  1  0.75000000  0.25000000  0.00000000  1
  As  As4  1  0.25000000  0.75000000  0.50000000  1
  As  As5  1  0.80962411  0.45694017  0.53860208  1
  As  As6  1  0.08017057  0.05798534  0.66783967  1
  Li  Li7  1  0.29202270  0.02231740  0.79985100  1
  Li  Li8  1  0.58546671  0.86398751  0.91184894  1
  N  N9  1  0.23473841  0.82118250  0.40006442  1
  N  N10  1  0.02661055  0.09310481  0.83130817  1
  N  N11  1  0.64842011  0.32136098  0.14086747  1
  N  N12  1  0.74453457  0.68239268  0.85450090  1
  N  N13  1  0.56129305  0.24673042  0.15171904  1
  Cu  Cu14  1  0.28924196  0.87093310  0.00858385  1
  Cu  Cu15  1  0.90292927  0.14200497  0.53637924  1
