# generated using pymatgen
data_Li3SeF3
_symmetry_space_group_name_H-M   'P 1'
_cell_length_a   6.32353126
_cell_length_b   6.31626718
_cell_length_c   7.77710839
_cell_angle_alpha   96.71316248
_cell_angle_beta   99.72491920
_cell_angle_gamma   96.35942123
_symmetry_Int_Tables_number   1
_chemical_formula_structural   Li3SeF3
_chemical_formula_sum   'Li3 Se1 F3'
_cell_volume   301.34888414
_cell_formula_units_Z   1
loop_
 _symmetry_equiv_pos_site_id
 _symmetry_equiv_pos_as_xyz
  1  'x, y, z'
loop_
 _atom_site_type_symbol
 _atom_site_label
 _atom_site_symmetry_multiplicity
 _atom_site_fract_x
 _atom_site_fract_y
 _atom_site_fract_z
 _atom_site_occupancy
  Se  Se0  1  0.12500000  0.12500000  0.12500000  1
  F  F1  1  0.50000000  0.50000000  0.50000000  1
  F  F2  1  0.25000000  0.25000000  0.25000000  1
  F  F3  1  0.75000000  0.75000000  0.75000000  1
  Li  Li4  1  0.90669017  0.65932908  0.40960786  1
  Li  Li5  1  0.47096713  0.85763977  0.40544738  1
  Li  Li6  1  0.19741656  0.37712350  0.66508708  1
