# generated using pymatgen
data_LiMnSb2P
_symmetry_space_group_name_H-M   'P 1'
_cell_length_a   6.21420612
_cell_length_b   6.74815835
_cell_length_c   7.31198415
_cell_angle_alpha   93.58430056
_cell_angle_beta   94.24593519
_cell_angle_gamma   94.07937658
_symmetry_Int_Tables_number   1
_chemical_formula_structural   LiMnSb2P
_chemical_formula_sum   'Li2 Mn2 Sb4 P2'
_cell_volume   304.29877479
_cell_formula_units_Z   2
loop_
 _symmetry_equiv_pos_site_id
 _symmetry_equiv_pos_as_xyz
  1  'x, y, z'
loop_
 _atom_site_type_symbol
 _atom_site_label
 _atom_site_symmetry_multiplicity
 _atom_site_fract_x
 _atom_site_fract_y
 _atom_site_fract_z
 _atom_site_occupancy
  Mn  Mn0  1  0.12500000  0.12500000  0.12500000  1
  Mn  Mn1  1  0.50000000  0.50000000  0.50000000  1
  Sb  Sb2  1  0.25000000  0.25000000  0.25000000  1
  Sb  Sb3  1  0.75000000  0.75000000  0.75000000  1
  Sb  Sb4  1  0.10151621  0.41626881  0.80039217  1
  Sb  Sb5  1  0.01837737  0.53943002  0.74821201  1
  P  P6  1  0.93309141  0.46958424  0.68586979  1
  P  P7  1  0.79943293  0.89804741  0.17230196  1
  Li  Li8  1  0.42481075  0.07448150  0.03386393  1
  Li  Li9  1  0.32213581  0.06036957  0.93189504  1
