# generated using pymatgen
data_Li3Ti2S2N
_symmetry_space_group_name_H-M   'P 1'
_cell_length_a   3.56652251
_cell_length_b   3.44173863
_cell_length_c   6.03378100
_cell_angle_alpha   97.45313136
_cell_angle_beta   108.93798466
_cell_angle_gamma   96.98275099
_symmetry_Int_Tables_number   1
_chemical_formula_structural   Li3Ti2S2N
_chemical_formula_sum   'Li3 Ti2 S2 N1'
_cell_volume   68.39801967
_cell_formula_units_Z   1
loop_
 _symmetry_equiv_pos_site_id
 _symmetry_equiv_pos_as_xyz
  1  'x, y, z'
loop_
 _atom_site_type_symbol
 _atom_site_label
 _atom_site_symmetry_multiplicity
 _atom_site_fract_x
 _atom_site_fract_y
 _atom_site_fract_z
 _atom_site_occupancy
  S  S0  1  0.00000000  0.00000000  0.00000000  1
  S  S1  1  0.50000000  0.50000000  0.50000000  1
  Ti  Ti2  1  0.50000000  0.50000000  0.00000000  1
  Ti  Ti3  1  0.50000000  0.00000000  0.50000000  1
  Li  Li4  1  0.00000000  0.50000000  0.50000000  1
  Li  Li5  1  0.62261459  0.59263733  0.57746532  1
  Li  Li6  1  0.47366536  0.92773184  0.28435468  1
  N  N7  1  0.99611582  0.55981809  0.99464401  1
