# generated using pymatgen
data_LiMn2Sb4P3
_symmetry_space_group_name_H-M   'P 1'
_cell_length_a   6.61389749
_cell_length_b   6.65607073
_cell_length_c   7.10696402
_cell_angle_alpha   93.02941463
_cell_angle_beta   90.90558836
_cell_angle_gamma   93.19810475
_symmetry_Int_Tables_number   1
_chemical_formula_structural   LiMn2Sb4P3
_chemical_formula_sum   'Li1 Mn2 Sb4 P3'
_cell_volume   311.88783950
_cell_formula_units_Z   1
loop_
 _symmetry_equiv_pos_site_id
 _symmetry_equiv_pos_as_xyz
  1  'x, y, z'
loop_
 _atom_site_type_symbol
 _atom_site_label
 _atom_site_symmetry_multiplicity
 _atom_site_fract_x
 _atom_site_fract_y
 _atom_site_fract_z
 _atom_site_occupancy
  Mn  Mn0  1  0.00000000  0.00000000  0.00000000  1
  Mn  Mn1  1  0.50000000  0.50000000  0.50000000  1
  Sb  Sb2  1  0.25000000  0.25000000  0.25000000  1
  Sb  Sb3  1  0.75000000  0.25000000  0.00000000  1
  Sb  Sb4  1  0.25000000  0.75000000  0.50000000  1
  Sb  Sb5  1  0.39590835  0.20535679  0.91676006  1
  P  P6  1  0.47667136  0.74246162  0.42179397  1
  P  P7  1  0.08555846  0.35869053  0.92323116  1
  P  P8  1  0.31638528  0.94370547  0.95541382  1
  Li  Li9  1  0.02918945  0.26947284  0.56815431  1
