# generated using pymatgen
data_Li3Ni2As6O7
_symmetry_space_group_name_H-M   'P 1'
_cell_length_a   7.70866236
_cell_length_b   7.52430572
_cell_length_c   8.85197706
_cell_angle_alpha   91.65208223
_cell_angle_beta   91.11963459
_cell_angle_gamma   91.91419535
_symmetry_Int_Tables_number   1
_chemical_formula_structural   Li3Ni2As6O7
_chemical_formula_sum   'Li3 Ni2 As6 O7'
_cell_volume   512.82746274
_cell_formula_units_Z   1
loop_
 _symmetry_equiv_pos_site_id
 _symmetry_equiv_pos_as_xyz
  1  'x, y, z'
loop_
 _atom_site_type_symbol
 _atom_site_label
 _atom_site_symmetry_multiplicity
 _atom_site_fract_x
 _atom_site_fract_y
 _atom_site_fract_z
 _atom_site_occupancy
  Li  Li0  1  0.00000000  0.00000000  0.00000000  1
  Li  Li1  1  0.33300000  0.66700000  0.25000000  1
  Li  Li2  1  0.66700000  0.33300000  0.50000000  1
  Ni  Ni3  1  0.00000000  0.00000000  0.75000000  1
  Ni  Ni4  1  0.95634508  0.80489543  0.08531885  1
  As  As5  1  0.00009703  0.83996312  0.99054403  1
  As  As6  1  0.03425922  0.45572363  0.05957697  1
  As  As7  1  0.01455561  0.53722621  0.88763079  1
  As  As8  1  0.34108560  0.70813945  0.44467207  1
  As  As9  1  0.05156298  0.08365582  0.22585200  1
  As  As10  1  0.71233116  0.48628582  0.69074296  1
  O  O11  1  0.36831228  0.74870027  0.94449367  1
  O  O12  1  0.82213276  0.10321671  0.33345993  1
  O  O13  1  0.23026423  0.74749768  0.74496797  1
  O  O14  1  0.96990423  0.14287763  0.31563457  1
  O  O15  1  0.36990288  0.05283979  0.62988541  1
  O  O16  1  0.40789834  0.59238948  0.31321133  1
  O  O17  1  0.95321193  0.08901498  0.81259775  1
