# generated using pymatgen
data_Li2Cu2As6(PN)5
_symmetry_space_group_name_H-M   'P 1'
_cell_length_a   7.64341267
_cell_length_b   7.34309433
_cell_length_c   8.62428497
_cell_angle_alpha   92.45558639
_cell_angle_beta   91.27299247
_cell_angle_gamma   92.84665594
_symmetry_Int_Tables_number   1
_chemical_formula_structural   Li2Cu2As6(PN)5
_chemical_formula_sum   'Li2 Cu2 As6 P5 N5'
_cell_volume   482.86420661
_cell_formula_units_Z   1
loop_
 _symmetry_equiv_pos_site_id
 _symmetry_equiv_pos_as_xyz
  1  'x, y, z'
loop_
 _atom_site_type_symbol
 _atom_site_label
 _atom_site_symmetry_multiplicity
 _atom_site_fract_x
 _atom_site_fract_y
 _atom_site_fract_z
 _atom_site_occupancy
  P  P0  1  0.00000000  0.00000000  0.00000000  1
  P  P1  1  0.50000000  0.50000000  0.50000000  1
  P  P2  1  0.50000000  0.50000000  0.00000000  1
  P  P3  1  0.50000000  0.00000000  0.50000000  1
  P  P4  1  0.00000000  0.50000000  0.50000000  1
  Li  Li5  1  0.42256636  0.88728506  0.74192611  1
  Li  Li6  1  0.05919591  0.06509394  0.84413132  1
  Cu  Cu7  1  0.14786842  0.76199885  0.12679162  1
  Cu  Cu8  1  0.35873393  0.04299812  0.42249368  1
  As  As9  1  0.55425494  0.02172478  0.46403588  1
  As  As10  1  0.00713816  0.31598304  0.45239295  1
  As  As11  1  0.04751064  0.39335459  0.46967201  1
  As  As12  1  0.95027750  0.11539563  0.20057378  1
  As  As13  1  0.87514468  0.84287004  0.74474919  1
  As  As14  1  0.72146934  0.30176465  0.23733843  1
  N  N15  1  0.14752297  0.00261312  0.09581501  1
  N  N16  1  0.05866432  0.26941229  0.13946040  1
  N  N17  1  0.14793743  0.32966910  0.50248564  1
  N  N18  1  0.44953937  0.09341578  0.91315045  1
  N  N19  1  0.63822323  0.16985232  0.74367530  1
