# generated using pymatgen
data_LiMn2Sb4P2N
_symmetry_space_group_name_H-M   'P 1'
_cell_length_a   5.63082042
_cell_length_b   6.04843505
_cell_length_c   6.75511802
_cell_angle_alpha   96.29123192
_cell_angle_beta   93.90501471
_cell_angle_gamma   95.98868747
_symmetry_Int_Tables_number   1
_chemical_formula_structural   LiMn2Sb4P2N
_chemical_formula_sum   'Li1 Mn2 Sb4 P2 N1'
_cell_volume   226.69264556
_cell_formula_units_Z   1
loop_
 _symmetry_equiv_pos_site_id
 _symmetry_equiv_pos_as_xyz
  1  'x, y, z'
loop_
 _atom_site_type_symbol
 _atom_site_label
 _atom_site_symmetry_multiplicity
 _atom_site_fract_x
 _atom_site_fract_y
 _atom_site_fract_z
 _atom_site_occupancy
  N  N0  1  0.00000000  0.00000000  0.00000000  1
  Mn  Mn1  1  0.50000000  0.50000000  0.50000000  1
  Mn  Mn2  1  0.25000000  0.25000000  0.25000000  1
  Sb  Sb3  1  0.75000000  0.25000000  0.00000000  1
  Sb  Sb4  1  0.25000000  0.75000000  0.50000000  1
  Sb  Sb5  1  0.55849998  0.30122707  0.29371289  1
  Sb  Sb6  1  0.04000127  0.19047928  0.94044775  1
  P  P7  1  0.43235440  0.26368867  0.30451590  1
  P  P8  1  0.10029234  0.06490536  0.72038861  1
  Li  Li9  1  0.27644120  0.90126209  0.62830886  1
