# generated using pymatgen
data_Li2Mo2(PO)3
_symmetry_space_group_name_H-M   'P 1'
_cell_length_a   5.98269581
_cell_length_b   5.54376224
_cell_length_c   6.95574313
_cell_angle_alpha   97.66357386
_cell_angle_beta   90.38284735
_cell_angle_gamma   97.51114534
_symmetry_Int_Tables_number   1
_chemical_formula_structural   Li2Mo2(PO)3
_chemical_formula_sum   'Li2 Mo2 P3 O3'
_cell_volume   226.60797701
_cell_formula_units_Z   1
loop_
 _symmetry_equiv_pos_site_id
 _symmetry_equiv_pos_as_xyz
  1  'x, y, z'
loop_
 _atom_site_type_symbol
 _atom_site_label
 _atom_site_symmetry_multiplicity
 _atom_site_fract_x
 _atom_site_fract_y
 _atom_site_fract_z
 _atom_site_occupancy
  P  P0  1  0.00000000  0.00000000  0.00000000  1
  P  P1  1  0.50000000  0.50000000  0.50000000  1
  P  P2  1  0.50000000  0.50000000  0.00000000  1
  Mo  Mo3  1  0.50000000  0.00000000  0.50000000  1
  Mo  Mo4  1  0.00000000  0.50000000  0.50000000  1
  O  O5  1  0.84884807  0.25818167  0.86689538  1
  O  O6  1  0.52366580  0.00319037  0.97613642  1
  O  O7  1  0.48252397  0.36148877  0.51491525  1
  Li  Li8  1  0.62029001  0.06428144  0.13036474  1
  Li  Li9  1  0.55681888  0.25254783  0.54305632  1
