# generated using pymatgen
data_LiMn2Sb4Mo2P3
_symmetry_space_group_name_H-M   'P 1'
_cell_length_a   5.91855136
_cell_length_b   6.28568984
_cell_length_c   6.81982031
_cell_angle_alpha   95.06296455
_cell_angle_beta   92.09900885
_cell_angle_gamma   95.10173716
_symmetry_Int_Tables_number   1
_chemical_formula_structural   LiMn2Sb4Mo2P3
_chemical_formula_sum   'Li1 Mn2 Sb4 Mo2 P3'
_cell_volume   251.46804802
_cell_formula_units_Z   1
loop_
 _symmetry_equiv_pos_site_id
 _symmetry_equiv_pos_as_xyz
  1  'x, y, z'
loop_
 _atom_site_type_symbol
 _atom_site_label
 _atom_site_symmetry_multiplicity
 _atom_site_fract_x
 _atom_site_fract_y
 _atom_site_fract_z
 _atom_site_occupancy
  Mn  Mn0  1  0.00000000  0.00000000  0.00000000  1
  Mn  Mn1  1  0.50000000  0.50000000  0.50000000  1
  Sb  Sb2  1  0.25000000  0.25000000  0.25000000  1
  Sb  Sb3  1  0.75000000  0.25000000  0.00000000  1
  Sb  Sb4  1  0.25000000  0.75000000  0.50000000  1
  Sb  Sb5  1  0.45145089  0.55611935  0.44545039  1
  P  P6  1  0.68595986  0.90254884  0.68483425  1
  P  P7  1  0.79027506  0.16143725  0.69508958  1
  P  P8  1  0.40168800  0.85260235  0.15123096  1
  Mo  Mo9  1  0.39062329  0.14587010  0.99119806  1
  Mo  Mo10  1  0.58580543  0.42124898  0.54817077  1
  Li  Li11  1  0.71060250  0.83956969  0.19401604  1
