# generated using pymatgen
data_Li2Cu2As6O7F2
_symmetry_space_group_name_H-M   'P 1'
_cell_length_a   8.09917968
_cell_length_b   7.94662227
_cell_length_c   8.67316045
_cell_angle_alpha   90.20809641
_cell_angle_beta   91.14356124
_cell_angle_gamma   90.23269750
_symmetry_Int_Tables_number   1
_chemical_formula_structural   Li2Cu2As6O7F2
_chemical_formula_sum   'Li2 Cu2 As6 O7 F2'
_cell_volume   558.09470225
_cell_formula_units_Z   1
loop_
 _symmetry_equiv_pos_site_id
 _symmetry_equiv_pos_as_xyz
  1  'x, y, z'
loop_
 _atom_site_type_symbol
 _atom_site_label
 _atom_site_symmetry_multiplicity
 _atom_site_fract_x
 _atom_site_fract_y
 _atom_site_fract_z
 _atom_site_occupancy
  Li  Li0  1  0.00000000  0.00000000  0.00000000  1
  Li  Li1  1  0.50000000  0.50000000  0.50000000  1
  Cu  Cu2  1  0.50000000  0.50000000  0.00000000  1
  Cu  Cu3  1  0.50000000  0.00000000  0.50000000  1
  F  F4  1  0.00000000  0.50000000  0.50000000  1
  F  F5  1  0.96722581  0.93393166  0.02080773  1
  As  As6  1  0.15163415  0.36635676  0.05970680  1
  As  As7  1  0.93313775  0.36866833  0.13511714  1
  As  As8  1  0.46025872  0.23605026  0.13557035  1
  As  As9  1  0.88360374  0.73821434  0.50609832  1
  As  As10  1  0.55211971  0.64981117  0.91474538  1
  As  As11  1  0.51921529  0.30505504  0.28062239  1
  O  O12  1  0.34907123  0.54005991  0.34799097  1
  O  O13  1  0.93363796  0.05213741  0.90545665  1
  O  O14  1  0.47746440  0.80877824  0.16333042  1
  O  O15  1  0.06144301  0.60867740  0.47625055  1
  O  O16  1  0.25208449  0.39418075  0.10822250  1
  O  O17  1  0.75385932  0.99538652  0.91472194  1
  O  O18  1  0.39370208  0.71910790  0.61184539  1
