# generated using pymatgen
data_Li2TiCu2O3F2
_symmetry_space_group_name_H-M   'P 1'
_cell_length_a   7.35320316
_cell_length_b   7.36688121
_cell_length_c   7.03857534
_cell_angle_alpha   93.66913394
_cell_angle_beta   95.20160824
_cell_angle_gamma   94.51246496
_symmetry_Int_Tables_number   1
_chemical_formula_structural   Li2TiCu2O3F2
_chemical_formula_sum   'Li2 Ti1 Cu2 O3 F2'
_cell_volume   377.56094787
_cell_formula_units_Z   1
loop_
 _symmetry_equiv_pos_site_id
 _symmetry_equiv_pos_as_xyz
  1  'x, y, z'
loop_
 _atom_site_type_symbol
 _atom_site_label
 _atom_site_symmetry_multiplicity
 _atom_site_fract_x
 _atom_site_fract_y
 _atom_site_fract_z
 _atom_site_occupancy
  Li  Li0  1  0.00000000  0.00000000  0.00000000  1
  Li  Li1  1  0.50000000  0.50000000  0.50000000  1
  Cu  Cu2  1  0.50000000  0.50000000  0.00000000  1
  Cu  Cu3  1  0.50000000  0.00000000  0.50000000  1
  F  F4  1  0.00000000  0.50000000  0.50000000  1
  F  F5  1  0.08472325  0.63730094  0.82744706  1
  Ti  Ti6  1  0.92181232  0.21200977  0.10831783  1
  O  O7  1  0.58543602  0.13798246  0.97888640  1
  O  O8  1  0.71659751  0.86121968  0.36459398  1
  O  O9  1  0.69689446  0.62394501  0.83284388  1
