# generated using pymatgen
data_Li2LuCu2As6P5
_symmetry_space_group_name_H-M   'P 1'
_cell_length_a   7.39317071
_cell_length_b   7.33660260
_cell_length_c   8.39740159
_cell_angle_alpha   92.48618261
_cell_angle_beta   92.83841442
_cell_angle_gamma   92.64226562
_symmetry_Int_Tables_number   1
_chemical_formula_structural   Li2LuCu2As6P5
_chemical_formula_sum   'Li2 Lu1 Cu2 As6 P5'
_cell_volume   453.96277820
_cell_formula_units_Z   1
loop_
 _symmetry_equiv_pos_site_id
 _symmetry_equiv_pos_as_xyz
  1  'x, y, z'
loop_
 _atom_site_type_symbol
 _atom_site_label
 _atom_site_symmetry_multiplicity
 _atom_site_fract_x
 _atom_site_fract_y
 _atom_site_fract_z
 _atom_site_occupancy
  P  P0  1  0.00000000  0.00000000  0.00000000  1
  P  P1  1  0.50000000  0.50000000  0.50000000  1
  P  P2  1  0.25000000  0.25000000  0.25000000  1
  P  P3  1  0.75000000  0.25000000  0.00000000  1
  P  P4  1  0.25000000  0.75000000  0.50000000  1
  Lu  Lu5  1  0.56085673  0.31690910  0.97316700  1
  As  As6  1  0.14918379  0.38794518  0.23237002  1
  As  As7  1  0.54128012  0.69499456  0.77421489  1
  As  As8  1  0.25718160  0.49591900  0.95814848  1
  As  As9  1  0.12640127  0.08689499  0.74045640  1
  As  As10  1  0.10834708  0.42176309  0.02111040  1
  As  As11  1  0.20501248  0.87102009  0.97276356  1
  Li  Li12  1  0.94317182  0.05152737  0.89031586  1
  Li  Li13  1  0.38772036  0.04641646  0.39145347  1
  Cu  Cu14  1  0.60599153  0.63482435  0.94899604  1
  Cu  Cu15  1  0.75282983  0.52437577  0.23043512  1
