# generated using pymatgen
data_Li2TiP5O2
_symmetry_space_group_name_H-M   'P 1'
_cell_length_a   8.34805879
_cell_length_b   8.23310513
_cell_length_c   7.38734483
_cell_angle_alpha   90.14168338
_cell_angle_beta   90.67408650
_cell_angle_gamma   90.16198194
_symmetry_Int_Tables_number   1
_chemical_formula_structural   Li2TiP5O2
_chemical_formula_sum   'Li2 Ti1 P5 O2'
_cell_volume   507.69673987
_cell_formula_units_Z   1
loop_
 _symmetry_equiv_pos_site_id
 _symmetry_equiv_pos_as_xyz
  1  'x, y, z'
loop_
 _atom_site_type_symbol
 _atom_site_label
 _atom_site_symmetry_multiplicity
 _atom_site_fract_x
 _atom_site_fract_y
 _atom_site_fract_z
 _atom_site_occupancy
  P  P0  1  0.00000000  0.00000000  0.00000000  1
  P  P1  1  0.33300000  0.66700000  0.25000000  1
  P  P2  1  0.66700000  0.33300000  0.50000000  1
  P  P3  1  0.00000000  0.00000000  0.75000000  1
  P  P4  1  0.75631650  0.80436875  0.31974346  1
  Li  Li5  1  0.20107977  0.27975546  0.36657416  1
  Li  Li6  1  0.17350100  0.71377928  0.48025907  1
  Ti  Ti7  1  0.54923353  0.41343233  0.63368608  1
  O  O8  1  0.43307849  0.30396171  0.44646683  1
  O  O9  1  0.55788043  0.62344528  0.75762236  1
