# generated using pymatgen
data_Li2MnSb4P3
_symmetry_space_group_name_H-M   'P 1'
_cell_length_a   5.95581378
_cell_length_b   5.99600374
_cell_length_c   7.44382938
_cell_angle_alpha   94.91056779
_cell_angle_beta   95.81702127
_cell_angle_gamma   95.58883245
_symmetry_Int_Tables_number   1
_chemical_formula_structural   Li2MnSb4P3
_chemical_formula_sum   'Li2 Mn1 Sb4 P3'
_cell_volume   261.97481182
_cell_formula_units_Z   1
loop_
 _symmetry_equiv_pos_site_id
 _symmetry_equiv_pos_as_xyz
  1  'x, y, z'
loop_
 _atom_site_type_symbol
 _atom_site_label
 _atom_site_symmetry_multiplicity
 _atom_site_fract_x
 _atom_site_fract_y
 _atom_site_fract_z
 _atom_site_occupancy
  Mn  Mn0  1  0.12500000  0.12500000  0.12500000  1
  Sb  Sb1  1  0.50000000  0.50000000  0.50000000  1
  Sb  Sb2  1  0.25000000  0.25000000  0.25000000  1
  Sb  Sb3  1  0.75000000  0.75000000  0.75000000  1
  Sb  Sb4  1  0.33971969  0.02000459  0.17258270  1
  P  P5  1  0.80901909  0.56830495  0.63661887  1
  P  P6  1  0.49798054  0.35244874  0.00699372  1
  P  P7  1  0.94354843  0.25906080  0.15748746  1
  Li  Li8  1  0.47763229  0.77991453  0.96801513  1
  Li  Li9  1  0.79417031  0.34282413  0.00748078  1
