# generated using pymatgen
data_Li3LuCu2P4N5
_symmetry_space_group_name_H-M   'P 1'
_cell_length_a   7.22280162
_cell_length_b   7.10488814
_cell_length_c   8.30565814
_cell_angle_alpha   93.63515992
_cell_angle_beta   93.85023684
_cell_angle_gamma   94.05645657
_symmetry_Int_Tables_number   1
_chemical_formula_structural   Li3LuCu2P4N5
_chemical_formula_sum   'Li3 Lu1 Cu2 P4 N5'
_cell_volume   423.19998563
_cell_formula_units_Z   1
loop_
 _symmetry_equiv_pos_site_id
 _symmetry_equiv_pos_as_xyz
  1  'x, y, z'
loop_
 _atom_site_type_symbol
 _atom_site_label
 _atom_site_symmetry_multiplicity
 _atom_site_fract_x
 _atom_site_fract_y
 _atom_site_fract_z
 _atom_site_occupancy
  P  P0  1  0.12500000  0.00000000  0.25000000  1
  P  P1  1  0.00000000  0.00000000  0.00000000  1
  P  P2  1  0.37500000  0.00000000  0.25000000  1
  P  P3  1  0.25000000  0.25000000  0.25000000  1
  Lu  Lu4  1  0.00000000  0.25000000  0.12500000  1
  Li  Li5  1  0.09996468  0.06696805  0.48893237  1
  Li  Li6  1  0.49178855  0.73383438  0.02164161  1
  Li  Li7  1  0.33630289  0.24559662  0.57288319  1
  Cu  Cu8  1  0.40016140  0.96880057  0.58669428  1
  Cu  Cu9  1  0.27227705  0.73788677  0.12908524  1
  N  N10  1  0.34461490  0.72693167  0.33671804  1
  N  N11  1  0.32479938  0.95832461  0.31498377  1
  N  N12  1  0.65206314  0.23230059  0.69023875  1
  N  N13  1  0.13870704  0.92547512  0.67269592  1
  N  N14  1  0.65624889  0.92745320  0.43486382  1
