# generated using pymatgen
data_Li2Cu2As6P8O3
_symmetry_space_group_name_H-M   'P 1'
_cell_length_a   7.39245935
_cell_length_b   7.51148803
_cell_length_c   8.41311901
_cell_angle_alpha   91.62771589
_cell_angle_beta   93.53708136
_cell_angle_gamma   91.60216235
_symmetry_Int_Tables_number   1
_chemical_formula_structural   Li2Cu2As6P8O3
_chemical_formula_sum   'Li2 Cu2 As6 P8 O3'
_cell_volume   465.88199367
_cell_formula_units_Z   1
loop_
 _symmetry_equiv_pos_site_id
 _symmetry_equiv_pos_as_xyz
  1  'x, y, z'
loop_
 _atom_site_type_symbol
 _atom_site_label
 _atom_site_symmetry_multiplicity
 _atom_site_fract_x
 _atom_site_fract_y
 _atom_site_fract_z
 _atom_site_occupancy
  O  O0  1  0.00000000  0.00000000  0.00000000  1
  O  O1  1  0.50000000  0.50000000  0.50000000  1
  O  O2  1  0.25000000  0.25000000  0.25000000  1
  P  P3  1  0.75000000  0.25000000  0.00000000  1
  P  P4  1  0.25000000  0.75000000  0.50000000  1
  P  P5  1  0.38081197  0.17646771  0.52992065  1
  P  P6  1  0.27369298  0.77825630  0.93718433  1
  P  P7  1  0.63169156  0.56560631  0.12473849  1
  P  P8  1  0.96570960  0.98849072  0.10024178  1
  P  P9  1  0.32808408  0.70722176  0.75120929  1
  P  P10  1  0.37677893  0.62840425  0.74338887  1
  As  As11  1  0.57617835  0.97829002  0.61728495  1
  As  As12  1  0.53260930  0.79198977  0.21548462  1
  As  As13  1  0.65852742  0.35332874  0.69092720  1
  As  As14  1  0.55479224  0.85628158  0.25608274  1
  As  As15  1  0.70084257  0.66869776  0.05325170  1
  As  As16  1  0.83886791  0.89923635  0.89626000  1
  Li  Li17  1  0.88432644  0.77229072  0.69265961  1
  Li  Li18  1  0.73247008  0.10310423  0.20331250  1
  Cu  Cu19  1  0.72215898  0.08139192  0.39808387  1
  Cu  Cu20  1  0.64285085  0.68248565  0.17860011  1
