# generated using pymatgen
data_Li2Ti(OF)2
_symmetry_space_group_name_H-M   'P 1'
_cell_length_a   6.81740320
_cell_length_b   6.86980327
_cell_length_c   7.25516315
_cell_angle_alpha   94.81005884
_cell_angle_beta   96.81905924
_cell_angle_gamma   95.91562541
_symmetry_Int_Tables_number   1
_chemical_formula_structural   Li2Ti(OF)2
_chemical_formula_sum   'Li2 Ti1 O2 F2'
_cell_volume   333.99748082
_cell_formula_units_Z   1
loop_
 _symmetry_equiv_pos_site_id
 _symmetry_equiv_pos_as_xyz
  1  'x, y, z'
loop_
 _atom_site_type_symbol
 _atom_site_label
 _atom_site_symmetry_multiplicity
 _atom_site_fract_x
 _atom_site_fract_y
 _atom_site_fract_z
 _atom_site_occupancy
  Li  Li0  1  0.00000000  0.00000000  0.00000000  1
  Li  Li1  1  0.50000000  0.50000000  0.50000000  1
  F  F2  1  0.50000000  0.50000000  0.00000000  1
  F  F3  1  0.50000000  0.00000000  0.50000000  1
  Ti  Ti4  1  0.00000000  0.50000000  0.50000000  1
  O  O5  1  0.03811660  0.52943986  0.50336999  1
  O  O6  1  0.71011670  0.35402015  0.96968243  1
