# generated using pymatgen
data_Li2Mn2Sb4P3W
_symmetry_space_group_name_H-M   'P 1'
_cell_length_a   6.53126784
_cell_length_b   6.47314048
_cell_length_c   7.21860525
_cell_angle_alpha   93.37620251
_cell_angle_beta   91.42092194
_cell_angle_gamma   93.01921316
_symmetry_Int_Tables_number   1
_chemical_formula_structural   Li2Mn2Sb4P3W
_chemical_formula_sum   'Li2 Mn2 Sb4 P3 W1'
_cell_volume   304.11510772
_cell_formula_units_Z   1
loop_
 _symmetry_equiv_pos_site_id
 _symmetry_equiv_pos_as_xyz
  1  'x, y, z'
loop_
 _atom_site_type_symbol
 _atom_site_label
 _atom_site_symmetry_multiplicity
 _atom_site_fract_x
 _atom_site_fract_y
 _atom_site_fract_z
 _atom_site_occupancy
  Mn  Mn0  1  0.00000000  0.00000000  0.00000000  1
  Mn  Mn1  1  0.50000000  0.50000000  0.50000000  1
  W  W2  1  0.50000000  0.50000000  0.00000000  1
  Sb  Sb3  1  0.50000000  0.00000000  0.50000000  1
  Sb  Sb4  1  0.00000000  0.50000000  0.50000000  1
  Sb  Sb5  1  0.37296854  0.98000399  0.62938202  1
  Sb  Sb6  1  0.78371786  0.98809863  0.15656382  1
  P  P7  1  0.43745666  0.71160067  0.90123948  1
  P  P8  1  0.41367551  0.60380066  0.61456013  1
  P  P9  1  0.98531243  0.53779922  0.68333764  1
  Li  Li10  1  0.53391387  0.61635099  0.45641362  1
  Li  Li11  1  0.20438462  0.49508888  0.84777443  1
