# generated using pymatgen
data_Li2MnSb4P3
_symmetry_space_group_name_H-M   'P 1'
_cell_length_a   4.93157958
_cell_length_b   5.15570205
_cell_length_c   7.15505431
_cell_angle_alpha   97.19252284
_cell_angle_beta   98.52020788
_cell_angle_gamma   98.18597904
_symmetry_Int_Tables_number   1
_chemical_formula_structural   Li2MnSb4P3
_chemical_formula_sum   'Li2 Mn1 Sb4 P3'
_cell_volume   176.08164672
_cell_formula_units_Z   1
loop_
 _symmetry_equiv_pos_site_id
 _symmetry_equiv_pos_as_xyz
  1  'x, y, z'
loop_
 _atom_site_type_symbol
 _atom_site_label
 _atom_site_symmetry_multiplicity
 _atom_site_fract_x
 _atom_site_fract_y
 _atom_site_fract_z
 _atom_site_occupancy
  Mn  Mn0  1  0.00000000  0.00000000  0.00000000  1
  Sb  Sb1  1  0.50000000  0.50000000  0.50000000  1
  Sb  Sb2  1  0.50000000  0.50000000  0.00000000  1
  Sb  Sb3  1  0.50000000  0.00000000  0.50000000  1
  Sb  Sb4  1  0.00000000  0.50000000  0.50000000  1
  P  P5  1  0.66541251  0.52280654  0.55823960  1
  P  P6  1  0.88966275  0.17526820  0.35780246  1
  P  P7  1  0.82910144  0.76031315  0.30342198  1
  Li  Li8  1  0.55803930  0.04758952  0.13444987  1
  Li  Li9  1  0.57804739  0.67130641  0.10429247  1
