# generated using pymatgen
data_Li2Sb2Mo2P3
_symmetry_space_group_name_H-M   'P 1'
_cell_length_a   5.61078936
_cell_length_b   5.96125010
_cell_length_c   6.43272233
_cell_angle_alpha   98.13791916
_cell_angle_beta   90.43023204
_cell_angle_gamma   97.87525043
_symmetry_Int_Tables_number   1
_chemical_formula_structural   Li2Sb2Mo2P3
_chemical_formula_sum   'Li2 Sb2 Mo2 P3'
_cell_volume   210.90252271
_cell_formula_units_Z   1
loop_
 _symmetry_equiv_pos_site_id
 _symmetry_equiv_pos_as_xyz
  1  'x, y, z'
loop_
 _atom_site_type_symbol
 _atom_site_label
 _atom_site_symmetry_multiplicity
 _atom_site_fract_x
 _atom_site_fract_y
 _atom_site_fract_z
 _atom_site_occupancy
  Sb  Sb0  1  0.00000000  0.00000000  0.00000000  1
  Sb  Sb1  1  0.33300000  0.66700000  0.25000000  1
  P  P2  1  0.66700000  0.33300000  0.50000000  1
  P  P3  1  0.00000000  0.00000000  0.75000000  1
  P  P4  1  0.17885771  0.56966250  0.69822118  1
  Mo  Mo5  1  0.88678563  0.42062954  0.01844543  1
  Mo  Mo6  1  0.44519878  0.10143101  0.56841373  1
  Li  Li7  1  0.21692901  0.85324324  0.66473678  1
  Li  Li8  1  0.58239171  0.19322271  0.93932059  1
