# generated using pymatgen
data_Li3TiNi2I4O3
_symmetry_space_group_name_H-M   'P 1'
_cell_length_a   7.41571115
_cell_length_b   7.23284641
_cell_length_c   7.49572553
_cell_angle_alpha   94.64503250
_cell_angle_beta   96.16403531
_cell_angle_gamma   94.36681445
_symmetry_Int_Tables_number   1
_chemical_formula_structural   Li3TiNi2I4O3
_chemical_formula_sum   'Li3 Ti1 Ni2 I4 O3'
_cell_volume   396.94598284
_cell_formula_units_Z   1
loop_
 _symmetry_equiv_pos_site_id
 _symmetry_equiv_pos_as_xyz
  1  'x, y, z'
loop_
 _atom_site_type_symbol
 _atom_site_label
 _atom_site_symmetry_multiplicity
 _atom_site_fract_x
 _atom_site_fract_y
 _atom_site_fract_z
 _atom_site_occupancy
  I  I0  1  0.00000000  0.00000000  0.00000000  1
  I  I1  1  0.50000000  0.50000000  0.50000000  1
  I  I2  1  0.50000000  0.50000000  0.00000000  1
  I  I3  1  0.50000000  0.00000000  0.50000000  1
  Li  Li4  1  0.00000000  0.50000000  0.50000000  1
  Li  Li5  1  0.53218140  0.78496695  0.19160909  1
  Li  Li6  1  0.01368491  0.54765978  0.65655898  1
  Ni  Ni7  1  0.02016586  0.08073926  0.46178671  1
  Ni  Ni8  1  0.84510475  0.53918513  0.71820934  1
  Ti  Ti9  1  0.83571652  0.82385866  0.80501556  1
  O  O10  1  0.50319557  0.64804396  0.10644176  1
  O  O11  1  0.69867294  0.82447923  0.64332454  1
  O  O12  1  0.06443303  0.79902667  0.06374337  1
