# generated using pymatgen
data_Li2MnSb4P2N
_symmetry_space_group_name_H-M   'P 1'
_cell_length_a   5.70864320
_cell_length_b   6.03643284
_cell_length_c   7.03313912
_cell_angle_alpha   96.32058044
_cell_angle_beta   96.74380291
_cell_angle_gamma   95.39178146
_symmetry_Int_Tables_number   1
_chemical_formula_structural   Li2MnSb4P2N
_chemical_formula_sum   'Li2 Mn1 Sb4 P2 N1'
_cell_volume   237.81405274
_cell_formula_units_Z   1
loop_
 _symmetry_equiv_pos_site_id
 _symmetry_equiv_pos_as_xyz
  1  'x, y, z'
loop_
 _atom_site_type_symbol
 _atom_site_label
 _atom_site_symmetry_multiplicity
 _atom_site_fract_x
 _atom_site_fract_y
 _atom_site_fract_z
 _atom_site_occupancy
  N  N0  1  0.00000000  0.00000000  0.00000000  1
  Mn  Mn1  1  0.50000000  0.50000000  0.50000000  1
  Sb  Sb2  1  0.25000000  0.25000000  0.25000000  1
  Sb  Sb3  1  0.75000000  0.25000000  0.00000000  1
  Sb  Sb4  1  0.25000000  0.75000000  0.50000000  1
  Sb  Sb5  1  0.14848030  0.33667945  0.27755291  1
  P  P6  1  0.52421763  0.72478731  0.82942410  1
  P  P7  1  0.30644254  0.92863535  0.31724002  1
  Li  Li8  1  0.22527120  0.77294513  0.52209294  1
  Li  Li9  1  0.00995327  0.22249135  0.57375197  1
