# generated using pymatgen
data_Li2MnP3N5
_symmetry_space_group_name_H-M   'P 1'
_cell_length_a   4.48610342
_cell_length_b   4.78236959
_cell_length_c   7.20053483
_cell_angle_alpha   98.38973766
_cell_angle_beta   99.93841945
_cell_angle_gamma   99.54855732
_symmetry_Int_Tables_number   1
_chemical_formula_structural   Li2MnP3N5
_chemical_formula_sum   'Li2 Mn1 P3 N5'
_cell_volume   147.61315034
_cell_formula_units_Z   1
loop_
 _symmetry_equiv_pos_site_id
 _symmetry_equiv_pos_as_xyz
  1  'x, y, z'
loop_
 _atom_site_type_symbol
 _atom_site_label
 _atom_site_symmetry_multiplicity
 _atom_site_fract_x
 _atom_site_fract_y
 _atom_site_fract_z
 _atom_site_occupancy
  Mn  Mn0  1  0.00000000  0.00000000  0.00000000  1
  P  P1  1  0.50000000  0.50000000  0.50000000  1
  P  P2  1  0.25000000  0.25000000  0.25000000  1
  P  P3  1  0.75000000  0.25000000  0.00000000  1
  Li  Li4  1  0.25000000  0.75000000  0.50000000  1
  Li  Li5  1  0.31759472  0.57964401  0.48244012  1
  N  N6  1  0.84583456  0.22671207  0.31354502  1
  N  N7  1  0.91987309  0.51383280  0.96449840  1
  N  N8  1  0.62950620  0.42031077  0.00343211  1
  N  N9  1  0.80014591  0.39150348  0.08481690  1
  N  N10  1  0.04347874  0.89702191  0.58183067  1
