# generated using pymatgen
data_Li2Mn2Mo2P3
_symmetry_space_group_name_H-M   'P 1'
_cell_length_a   4.87618541
_cell_length_b   5.20960213
_cell_length_c   6.69574350
_cell_angle_alpha   99.43821652
_cell_angle_beta   95.18694406
_cell_angle_gamma   99.90717981
_symmetry_Int_Tables_number   1
_chemical_formula_structural   Li2Mn2Mo2P3
_chemical_formula_sum   'Li2 Mn2 Mo2 P3'
_cell_volume   164.05117903
_cell_formula_units_Z   1
loop_
 _symmetry_equiv_pos_site_id
 _symmetry_equiv_pos_as_xyz
  1  'x, y, z'
loop_
 _atom_site_type_symbol
 _atom_site_label
 _atom_site_symmetry_multiplicity
 _atom_site_fract_x
 _atom_site_fract_y
 _atom_site_fract_z
 _atom_site_occupancy
  Mn  Mn0  1  0.12500000  0.12500000  0.12500000  1
  Mn  Mn1  1  0.50000000  0.50000000  0.50000000  1
  P  P2  1  0.25000000  0.25000000  0.25000000  1
  P  P3  1  0.75000000  0.75000000  0.75000000  1
  P  P4  1  0.25436506  0.89877474  0.60314625  1
  Mo  Mo5  1  0.93675742  0.56984091  0.02337591  1
  Mo  Mo6  1  0.90066574  0.67525739  0.47915526  1
  Li  Li7  1  0.42506779  0.44167544  0.33512833  1
  Li  Li8  1  0.04309691  0.77317127  0.69166369  1
