# generated using pymatgen
data_LiLa2Mn(AlP)3
_symmetry_space_group_name_H-M   'P 1'
_cell_length_a   7.06218225
_cell_length_b   7.51973735
_cell_length_c   7.08781918
_cell_angle_alpha   92.04336524
_cell_angle_beta   92.42055493
_cell_angle_gamma   92.32560194
_symmetry_Int_Tables_number   1
_chemical_formula_structural   LiLa2Mn(AlP)3
_chemical_formula_sum   'Li1 La2 Mn1 Al3 P3'
_cell_volume   375.49503425
_cell_formula_units_Z   1
loop_
 _symmetry_equiv_pos_site_id
 _symmetry_equiv_pos_as_xyz
  1  'x, y, z'
loop_
 _atom_site_type_symbol
 _atom_site_label
 _atom_site_symmetry_multiplicity
 _atom_site_fract_x
 _atom_site_fract_y
 _atom_site_fract_z
 _atom_site_occupancy
  Al  Al0  1  0.00000000  0.00000000  0.00000000  1
  Al  Al1  1  0.50000000  0.50000000  0.50000000  1
  Al  Al2  1  0.50000000  0.50000000  0.00000000  1
  Mn  Mn3  1  0.50000000  0.00000000  0.50000000  1
  La  La4  1  0.00000000  0.50000000  0.50000000  1
  La  La5  1  0.62261459  0.59263733  0.57746532  1
  P  P6  1  0.47366536  0.92773184  0.28435468  1
  P  P7  1  0.99611582  0.55981809  0.99464401  1
  P  P8  1  0.39080786  0.90122942  0.08852366  1
  Li  Li9  1  0.25936918  0.76517837  0.88925302  1
