# generated using pymatgen
data_LiTi3Cu2As6F3
_symmetry_space_group_name_H-M   'P 1'
_cell_length_a   6.72337935
_cell_length_b   6.61568746
_cell_length_c   7.90808979
_cell_angle_alpha   90.80329613
_cell_angle_beta   93.82183901
_cell_angle_gamma   90.91838197
_symmetry_Int_Tables_number   1
_chemical_formula_structural   LiTi3Cu2As6F3
_chemical_formula_sum   'Li1 Ti3 Cu2 As6 F3'
_cell_volume   350.88260165
_cell_formula_units_Z   1
loop_
 _symmetry_equiv_pos_site_id
 _symmetry_equiv_pos_as_xyz
  1  'x, y, z'
loop_
 _atom_site_type_symbol
 _atom_site_label
 _atom_site_symmetry_multiplicity
 _atom_site_fract_x
 _atom_site_fract_y
 _atom_site_fract_z
 _atom_site_occupancy
  Li  Li0  1  0.00000000  0.00000000  0.00000000  1
  Cu  Cu1  1  0.50000000  0.50000000  0.50000000  1
  Cu  Cu2  1  0.50000000  0.50000000  0.00000000  1
  F  F3  1  0.50000000  0.00000000  0.50000000  1
  F  F4  1  0.00000000  0.50000000  0.50000000  1
  F  F5  1  0.31731918  0.39060352  0.06196771  1
  Ti  Ti6  1  0.05205130  0.22318696  0.97431278  1
  Ti  Ti7  1  0.73903271  0.34828149  0.50419365  1
  Ti  Ti8  1  0.19483179  0.70628698  0.27383095  1
  As  As9  1  0.69413321  0.81572325  0.60937865  1
  As  As10  1  0.04575839  0.70770902  0.34161943  1
  As  As11  1  0.62551934  0.49664159  0.17518830  1
  As  As12  1  0.06572862  0.55444606  0.76739819  1
  As  As13  1  0.85000088  0.98056144  0.14958018  1
  As  As14  1  0.16096761  0.23420329  0.56353822  1
