# generated using pymatgen
data_Li3TiP4(IO)4
_symmetry_space_group_name_H-M   'P 1'
_cell_length_a   7.41798798
_cell_length_b   7.20120266
_cell_length_c   7.45746734
_cell_angle_alpha   93.59084226
_cell_angle_beta   93.67692443
_cell_angle_gamma   93.37551069
_symmetry_Int_Tables_number   1
_chemical_formula_structural   Li3TiP4(IO)4
_chemical_formula_sum   'Li3 Ti1 P4 I4 O4'
_cell_volume   395.97379958
_cell_formula_units_Z   1
loop_
 _symmetry_equiv_pos_site_id
 _symmetry_equiv_pos_as_xyz
  1  'x, y, z'
loop_
 _atom_site_type_symbol
 _atom_site_label
 _atom_site_symmetry_multiplicity
 _atom_site_fract_x
 _atom_site_fract_y
 _atom_site_fract_z
 _atom_site_occupancy
  I  I0  1  0.00000000  0.00000000  0.00000000  1
  I  I1  1  0.50000000  0.50000000  0.50000000  1
  I  I2  1  0.25000000  0.25000000  0.25000000  1
  I  I3  1  0.75000000  0.25000000  0.00000000  1
  P  P4  1  0.25000000  0.75000000  0.50000000  1
  P  P5  1  0.49914574  0.12633400  0.64528474  1
  P  P6  1  0.09351214  0.29424739  0.50269769  1
  P  P7  1  0.68779078  0.32465561  0.52593717  1
  Li  Li8  1  0.46779340  0.60078397  0.26297116  1
  Li  Li9  1  0.75315428  0.01898233  0.75881918  1
  Li  Li10  1  0.62615929  0.99179786  0.66380039  1
  Ti  Ti11  1  0.83048349  0.09346223  0.42059663  1
  O  O12  1  0.81954708  0.29469587  0.23058153  1
  O  O13  1  0.86170017  0.38478720  0.10040352  1
  O  O14  1  0.61090463  0.42318883  0.45118357  1
  O  O15  1  0.85432551  0.81118750  0.30945244  1
