# generated using pymatgen
data_Li2Sb4Mo2P3N
_symmetry_space_group_name_H-M   'P 1'
_cell_length_a   4.91415615
_cell_length_b   5.14947382
_cell_length_c   6.52248715
_cell_angle_alpha   99.27271714
_cell_angle_beta   95.81525786
_cell_angle_gamma   99.35015755
_symmetry_Int_Tables_number   1
_chemical_formula_structural   Li2Sb4Mo2P3N
_chemical_formula_sum   'Li2 Sb4 Mo2 P3 N1'
_cell_volume   159.34891322
_cell_formula_units_Z   1
loop_
 _symmetry_equiv_pos_site_id
 _symmetry_equiv_pos_as_xyz
  1  'x, y, z'
loop_
 _atom_site_type_symbol
 _atom_site_label
 _atom_site_symmetry_multiplicity
 _atom_site_fract_x
 _atom_site_fract_y
 _atom_site_fract_z
 _atom_site_occupancy
  N  N0  1  0.00000000  0.00000000  0.00000000  1
  Sb  Sb1  1  0.50000000  0.50000000  0.50000000  1
  Sb  Sb2  1  0.50000000  0.50000000  0.00000000  1
  Sb  Sb3  1  0.50000000  0.00000000  0.50000000  1
  Sb  Sb4  1  0.00000000  0.50000000  0.50000000  1
  P  P5  1  0.97708352  0.29867356  0.51364600  1
  P  P6  1  0.48607106  0.76262168  0.86787763  1
  P  P7  1  0.42167331  0.68470171  0.75378018  1
  Mo  Mo8  1  0.54853355  0.48152854  0.79724016  1
  Mo  Mo9  1  0.65399799  0.57590008  0.36208934  1
  Li  Li10  1  0.20613530  0.36373779  0.61484391  1
  Li  Li11  1  0.61653138  0.97956240  0.08913654  1
