# generated using pymatgen
data_LiTiP6(O2F)2
_symmetry_space_group_name_H-M   'P 1'
_cell_length_a   7.36858236
_cell_length_b   7.26328767
_cell_length_c   7.39614534
_cell_angle_alpha   90.78351971
_cell_angle_beta   93.72774882
_cell_angle_gamma   90.89577224
_symmetry_Int_Tables_number   1
_chemical_formula_structural   LiTiP6(O2F)2
_chemical_formula_sum   'Li1 Ti1 P6 O4 F2'
_cell_volume   394.91409141
_cell_formula_units_Z   1
loop_
 _symmetry_equiv_pos_site_id
 _symmetry_equiv_pos_as_xyz
  1  'x, y, z'
loop_
 _atom_site_type_symbol
 _atom_site_label
 _atom_site_symmetry_multiplicity
 _atom_site_fract_x
 _atom_site_fract_y
 _atom_site_fract_z
 _atom_site_occupancy
  P  P0  1  0.12500000  0.00000000  0.25000000  1
  P  P1  1  0.00000000  0.00000000  0.00000000  1
  P  P2  1  0.37500000  0.00000000  0.25000000  1
  P  P3  1  0.25000000  0.25000000  0.25000000  1
  P  P4  1  0.00000000  0.25000000  0.12500000  1
  P  P5  1  0.91074919  0.31024108  0.12077810  1
  Li  Li6  1  0.93535554  0.82231182  0.56074384  1
  F  F7  1  0.54388740  0.39952115  0.10085324  1
  F  F8  1  0.01679193  0.85018555  0.88316502  1
  Ti  Ti9  1  0.01755218  0.52485028  0.16004028  1
  O  O10  1  0.62993649  0.21601024  0.34302218  1
  O  O11  1  0.82283597  0.24546279  0.40667245  1
  O  O12  1  0.44712936  0.35572334  0.65193046  1
  O  O13  1  0.76431283  0.25386968  0.38065000  1
