# generated using pymatgen
data_Li2MnSb4P3
_symmetry_space_group_name_H-M   'P 1'
_cell_length_a   5.66759531
_cell_length_b   5.95907171
_cell_length_c   6.89363428
_cell_angle_alpha   97.46495531
_cell_angle_beta   93.03723133
_cell_angle_gamma   97.68751828
_symmetry_Int_Tables_number   1
_chemical_formula_structural   Li2MnSb4P3
_chemical_formula_sum   'Li2 Mn1 Sb4 P3'
_cell_volume   228.18749385
_cell_formula_units_Z   1
loop_
 _symmetry_equiv_pos_site_id
 _symmetry_equiv_pos_as_xyz
  1  'x, y, z'
loop_
 _atom_site_type_symbol
 _atom_site_label
 _atom_site_symmetry_multiplicity
 _atom_site_fract_x
 _atom_site_fract_y
 _atom_site_fract_z
 _atom_site_occupancy
  Mn  Mn0  1  0.00000000  0.00000000  0.00000000  1
  Sb  Sb1  1  0.50000000  0.50000000  0.50000000  1
  Sb  Sb2  1  0.50000000  0.50000000  0.00000000  1
  Sb  Sb3  1  0.50000000  0.00000000  0.50000000  1
  Sb  Sb4  1  0.00000000  0.50000000  0.50000000  1
  P  P5  1  0.50655193  0.03887862  0.95690166  1
  P  P6  1  0.75428163  0.31063260  0.67581145  1
  P  P7  1  0.75005365  0.02723038  0.08098783  1
  Li  Li8  1  0.35585960  0.98484300  0.43377678  1
  Li  Li9  1  0.54111827  0.12006255  0.14433153  1
