# generated using pymatgen
data_LiTiN5
_symmetry_space_group_name_H-M   'P 1'
_cell_length_a   6.72434254
_cell_length_b   6.61984326
_cell_length_c   7.60809210
_cell_angle_alpha   91.72312446
_cell_angle_beta   94.90600759
_cell_angle_gamma   91.98240874
_symmetry_Int_Tables_number   1
_chemical_formula_structural   LiTiN5
_chemical_formula_sum   'Li1 Ti1 N5'
_cell_volume   337.03904971
_cell_formula_units_Z   1
loop_
 _symmetry_equiv_pos_site_id
 _symmetry_equiv_pos_as_xyz
  1  'x, y, z'
loop_
 _atom_site_type_symbol
 _atom_site_label
 _atom_site_symmetry_multiplicity
 _atom_site_fract_x
 _atom_site_fract_y
 _atom_site_fract_z
 _atom_site_occupancy
  Li  Li0  1  0.12500000  0.12500000  0.12500000  1
  Ti  Ti1  1  0.50000000  0.50000000  0.50000000  1
  N  N2  1  0.25000000  0.25000000  0.25000000  1
  N  N3  1  0.75000000  0.75000000  0.75000000  1
  N  N4  1  0.18452969  0.96601538  0.03768414  1
  N  N5  1  0.54258346  0.61871859  0.84323558  1
  N  N6  1  0.55193483  0.77144832  0.01097439  1
