# generated using pymatgen
data_LiMnSb4Mo2P3
_symmetry_space_group_name_H-M   'P 1'
_cell_length_a   6.59168638
_cell_length_b   6.63434990
_cell_length_c   7.32844537
_cell_angle_alpha   92.53442205
_cell_angle_beta   92.62025074
_cell_angle_gamma   92.71544878
_symmetry_Int_Tables_number   1
_chemical_formula_structural   LiMnSb4Mo2P3
_chemical_formula_sum   'Li1 Mn1 Sb4 Mo2 P3'
_cell_volume   319.44403161
_cell_formula_units_Z   1
loop_
 _symmetry_equiv_pos_site_id
 _symmetry_equiv_pos_as_xyz
  1  'x, y, z'
loop_
 _atom_site_type_symbol
 _atom_site_label
 _atom_site_symmetry_multiplicity
 _atom_site_fract_x
 _atom_site_fract_y
 _atom_site_fract_z
 _atom_site_occupancy
  Mn  Mn0  1  0.00000000  0.00000000  0.00000000  1
  Sb  Sb1  1  0.50000000  0.50000000  0.50000000  1
  Sb  Sb2  1  0.25000000  0.25000000  0.25000000  1
  Sb  Sb3  1  0.75000000  0.25000000  0.00000000  1
  Sb  Sb4  1  0.25000000  0.75000000  0.50000000  1
  P  P5  1  0.71892415  0.99178123  0.30518516  1
  P  P6  1  0.84815221  0.98854010  0.83443110  1
  P  P7  1  0.30040629  0.24926412  0.30195033  1
  Mo  Mo8  1  0.34313967  0.54037332  0.70893737  1
  Mo  Mo9  1  0.94967573  0.70104985  0.53760179  1
  Li  Li10  1  0.38591421  0.55485539  0.09794795  1
