# generated using pymatgen
data_LiTiNiAs3P2
_symmetry_space_group_name_H-M   'P 1'
_cell_length_a   7.54529435
_cell_length_b   7.40098463
_cell_length_c   7.98606897
_cell_angle_alpha   91.32691672
_cell_angle_beta   91.63509277
_cell_angle_gamma   91.53466486
_symmetry_Int_Tables_number   1
_chemical_formula_structural   LiTiNiAs3P2
_chemical_formula_sum   'Li2 Ti2 Ni2 As6 P4'
_cell_volume   445.49371937
_cell_formula_units_Z   2
loop_
 _symmetry_equiv_pos_site_id
 _symmetry_equiv_pos_as_xyz
  1  'x, y, z'
loop_
 _atom_site_type_symbol
 _atom_site_label
 _atom_site_symmetry_multiplicity
 _atom_site_fract_x
 _atom_site_fract_y
 _atom_site_fract_z
 _atom_site_occupancy
  P  P0  1  0.00000000  0.00000000  0.00000000  1
  P  P1  1  0.50000000  0.50000000  0.50000000  1
  P  P2  1  0.25000000  0.25000000  0.25000000  1
  P  P3  1  0.75000000  0.25000000  0.00000000  1
  Li  Li4  1  0.25000000  0.75000000  0.50000000  1
  Li  Li5  1  0.45852553  0.51572292  0.18612391  1
  Ni  Ni6  1  0.75358709  0.85397215  0.74528202  1
  Ni  Ni7  1  0.87662592  0.55649385  0.59492775  1
  Ti  Ti8  1  0.90052760  0.09095051  0.23317703  1
  Ti  Ti9  1  0.56474348  0.78771104  0.42188258  1
  As  As10  1  0.33001172  0.35500118  0.79352430  1
  As  As11  1  0.14328528  0.13486813  0.54140910  1
  As  As12  1  0.48834361  0.80341857  0.05590364  1
  As  As13  1  0.60843776  0.07625781  0.17508626  1
  As  As14  1  0.25943739  0.03333085  0.90303211  1
  As  As15  1  0.97792836  0.48442885  0.45806293  1
