# generated using pymatgen
data_Li2Cu2As6(PN)5
_symmetry_space_group_name_H-M   'P 1'
_cell_length_a   7.38874827
_cell_length_b   7.31820596
_cell_length_c   8.39545472
_cell_angle_alpha   92.59768011
_cell_angle_beta   92.86840059
_cell_angle_gamma   92.75859703
_symmetry_Int_Tables_number   1
_chemical_formula_structural   Li2Cu2As6(PN)5
_chemical_formula_sum   'Li2 Cu2 As6 P5 N5'
_cell_volume   452.34939812
_cell_formula_units_Z   1
loop_
 _symmetry_equiv_pos_site_id
 _symmetry_equiv_pos_as_xyz
  1  'x, y, z'
loop_
 _atom_site_type_symbol
 _atom_site_label
 _atom_site_symmetry_multiplicity
 _atom_site_fract_x
 _atom_site_fract_y
 _atom_site_fract_z
 _atom_site_occupancy
  P  P0  1  0.00000000  0.00000000  0.00000000  1
  P  P1  1  0.50000000  0.50000000  0.50000000  1
  P  P2  1  0.50000000  0.50000000  0.00000000  1
  P  P3  1  0.50000000  0.00000000  0.50000000  1
  P  P4  1  0.00000000  0.50000000  0.50000000  1
  Li  Li5  1  0.33684119  0.47816482  0.82522822  1
  Li  Li6  1  0.67456957  0.24924294  0.14658070  1
  Cu  Cu7  1  0.85617221  0.83488346  0.77883365  1
  Cu  Cu8  1  0.02636568  0.08047107  0.40401462  1
  As  As9  1  0.50121326  0.43564059  0.54496799  1
  As  As10  1  0.46389393  0.30397837  0.28582491  1
  As  As11  1  0.22496669  0.30379911  0.60619611  1
  As  As12  1  0.84386448  0.41211881  0.28941014  1
  As  As13  1  0.05362375  0.72175620  0.48046336  1
  As  As14  1  0.17340575  0.71328095  0.01483469  1
  N  N15  1  0.01494087  0.00115181  0.36025660  1
  N  N16  1  0.09466551  0.35862076  0.48518682  1
  N  N17  1  0.09519687  0.69099160  0.17249163  1
  N  N18  1  0.91159611  0.54920872  0.38951393  1
  N  N19  1  0.96584032  0.34437320  0.34551188  1
