# generated using pymatgen
data_Li3TiI4N5O4
_symmetry_space_group_name_H-M   'P 1'
_cell_length_a   8.39227825
_cell_length_b   8.18544009
_cell_length_c   7.76426885
_cell_angle_alpha   91.17345631
_cell_angle_beta   90.41486608
_cell_angle_gamma   91.36106727
_symmetry_Int_Tables_number   1
_chemical_formula_structural   Li3TiI4N5O4
_chemical_formula_sum   'Li3 Ti1 I4 N5 O4'
_cell_volume   533.08425574
_cell_formula_units_Z   1
loop_
 _symmetry_equiv_pos_site_id
 _symmetry_equiv_pos_as_xyz
  1  'x, y, z'
loop_
 _atom_site_type_symbol
 _atom_site_label
 _atom_site_symmetry_multiplicity
 _atom_site_fract_x
 _atom_site_fract_y
 _atom_site_fract_z
 _atom_site_occupancy
  I  I0  1  0.00000000  0.00000000  0.00000000  1
  I  I1  1  0.50000000  0.50000000  0.50000000  1
  I  I2  1  0.50000000  0.50000000  0.00000000  1
  I  I3  1  0.50000000  0.00000000  0.50000000  1
  Li  Li4  1  0.00000000  0.50000000  0.50000000  1
  Li  Li5  1  0.56427778  0.64208522  0.03675333  1
  Li  Li6  1  0.67130901  0.24890538  0.92281402  1
  Ti  Ti7  1  0.52599328  0.12900410  0.62927790  1
  O  O8  1  0.71755895  0.13110694  0.71912885  1
  O  O9  1  0.87932472  0.89983728  0.51305171  1
  O  O10  1  0.25704014  0.46600487  0.70654234  1
  O  O11  1  0.14600511  0.82719830  0.06040707  1
  N  N12  1  0.14854921  0.57475942  0.80530041  1
  N  N13  1  0.44119587  0.33596429  0.73172653  1
  N  N14  1  0.65951339  0.71114827  0.73709502  1
  N  N15  1  0.15093560  0.69733692  0.60836927  1
  N  N16  1  0.46442637  0.91967676  0.06724603  1
