# generated using pymatgen
data_Li2TiCu2O3F2
_symmetry_space_group_name_H-M   'P 1'
_cell_length_a   6.83746417
_cell_length_b   6.89613899
_cell_length_c   6.98158725
_cell_angle_alpha   94.91108075
_cell_angle_beta   96.96227461
_cell_angle_gamma   96.03986667
_symmetry_Int_Tables_number   1
_chemical_formula_structural   Li2TiCu2O3F2
_chemical_formula_sum   'Li2 Ti1 Cu2 O3 F2'
_cell_volume   323.33778878
_cell_formula_units_Z   1
loop_
 _symmetry_equiv_pos_site_id
 _symmetry_equiv_pos_as_xyz
  1  'x, y, z'
loop_
 _atom_site_type_symbol
 _atom_site_label
 _atom_site_symmetry_multiplicity
 _atom_site_fract_x
 _atom_site_fract_y
 _atom_site_fract_z
 _atom_site_occupancy
  Li  Li0  1  0.00000000  0.00000000  0.00000000  1
  Li  Li1  1  0.50000000  0.50000000  0.50000000  1
  Cu  Cu2  1  0.25000000  0.25000000  0.25000000  1
  Cu  Cu3  1  0.75000000  0.25000000  0.00000000  1
  F  F4  1  0.25000000  0.75000000  0.50000000  1
  F  F5  1  0.22116208  0.01711533  0.58986763  1
  Ti  Ti6  1  0.33051842  0.31983814  0.96236108  1
  O  O7  1  0.19080038  0.67443017  0.24915349  1
  O  O8  1  0.77282512  0.37117108  0.25261424  1
  O  O9  1  0.11541173  0.67735407  0.32814473  1
