# generated using pymatgen
data_Li3Cu2As6(P3O)2
_symmetry_space_group_name_H-M   'P 1'
_cell_length_a   7.48781516
_cell_length_b   7.41620786
_cell_length_c   7.74793524
_cell_angle_alpha   91.57560644
_cell_angle_beta   93.17734489
_cell_angle_gamma   91.53571028
_symmetry_Int_Tables_number   1
_chemical_formula_structural   Li3Cu2As6(P3O)2
_chemical_formula_sum   'Li3 Cu2 As6 P6 O2'
_cell_volume   429.25531702
_cell_formula_units_Z   1
loop_
 _symmetry_equiv_pos_site_id
 _symmetry_equiv_pos_as_xyz
  1  'x, y, z'
loop_
 _atom_site_type_symbol
 _atom_site_label
 _atom_site_symmetry_multiplicity
 _atom_site_fract_x
 _atom_site_fract_y
 _atom_site_fract_z
 _atom_site_occupancy
  P  P0  1  0.00000000  0.00000000  0.00000000  1
  P  P1  1  0.50000000  0.50000000  0.50000000  1
  P  P2  1  0.50000000  0.50000000  0.00000000  1
  P  P3  1  0.50000000  0.00000000  0.50000000  1
  P  P4  1  0.00000000  0.50000000  0.50000000  1
  P  P5  1  0.14516296  0.73255640  0.94243148  1
  Li  Li6  1  0.50849109  0.56609113  0.07720551  1
  Li  Li7  1  0.32335856  0.13742621  0.36668493  1
  Li  Li8  1  0.92878112  0.62185147  0.38121556  1
  Cu  Cu9  1  0.76657772  0.32723266  0.56630483  1
  Cu  Cu10  1  0.83771155  0.59072803  0.42799808  1
  As  As11  1  0.21206668  0.54838532  0.41242981  1
  As  As12  1  0.16843151  0.55536856  0.91434890  1
  As  As13  1  0.49109348  0.23527961  0.46564753  1
  As  As14  1  0.83300331  0.85535170  0.07798424  1
  As  As15  1  0.11885968  0.53071395  0.35909948  1
  As  As16  1  0.43053150  0.23195579  0.52414715  1
  O  O17  1  0.07442464  0.97963075  0.93669978  1
  O  O18  1  0.54402020  0.68458377  0.09613587  1
