# generated using pymatgen
data_Li3Mn3Al2(SbP2)2
_symmetry_space_group_name_H-M   'P 1'
_cell_length_a   7.99551146
_cell_length_b   8.30402786
_cell_length_c   7.60924899
_cell_angle_alpha   90.00000000
_cell_angle_beta   90.00000000
_cell_angle_gamma   90.00000000
_symmetry_Int_Tables_number   1
_chemical_formula_structural   Li3Mn3Al2(SbP2)2
_chemical_formula_sum   'Li3 Mn3 Al2 Sb2 P4'
_cell_volume   505.21570543
_cell_formula_units_Z   1
loop_
 _symmetry_equiv_pos_site_id
 _symmetry_equiv_pos_as_xyz
  1  'x, y, z'
loop_
 _atom_site_type_symbol
 _atom_site_label
 _atom_site_symmetry_multiplicity
 _atom_site_fract_x
 _atom_site_fract_y
 _atom_site_fract_z
 _atom_site_occupancy
  Al  Al0  1  0.00000000  0.00000000  0.00000000  1
  Al  Al1  1  0.50000000  0.50000000  0.50000000  1
  Mn  Mn2  1  0.25000000  0.25000000  0.25000000  1
  Mn  Mn3  1  0.75000000  0.25000000  0.00000000  1
  Mn  Mn4  1  0.25000000  0.75000000  0.50000000  1
  Sb  Sb5  1  0.29630527  0.76920422  0.06119912  1
  Sb  Sb6  1  0.20699313  0.82030431  0.02463143  1
  P  P7  1  0.13726592  0.04075506  0.33955908  1
  P  P8  1  0.41744818  0.34811515  0.15885541  1
  P  P9  1  0.66410833  0.53188269  0.93206525  1
  P  P10  1  0.83560484  0.52065513  0.75743782  1
  Li  Li11  1  0.33826676  0.98467812  0.67068829  1
  Li  Li12  1  0.78114935  0.97507352  0.33435521  1
  Li  Li13  1  0.81608691  0.12362214  0.58316976  1
