# generated using pymatgen
data_Li2Sb4P2N
_symmetry_space_group_name_H-M   'P 1'
_cell_length_a   5.18205387
_cell_length_b   5.58197341
_cell_length_c   6.26594131
_cell_angle_alpha   100.72006255
_cell_angle_beta   97.31954778
_cell_angle_gamma   97.07357171
_symmetry_Int_Tables_number   1
_chemical_formula_structural   Li2Sb4P2N
_chemical_formula_sum   'Li2 Sb4 P2 N1'
_cell_volume   174.61807386
_cell_formula_units_Z   1
loop_
 _symmetry_equiv_pos_site_id
 _symmetry_equiv_pos_as_xyz
  1  'x, y, z'
loop_
 _atom_site_type_symbol
 _atom_site_label
 _atom_site_symmetry_multiplicity
 _atom_site_fract_x
 _atom_site_fract_y
 _atom_site_fract_z
 _atom_site_occupancy
  N  N0  1  0.00000000  0.00000000  0.00000000  1
  Sb  Sb1  1  0.50000000  0.50000000  0.50000000  1
  Sb  Sb2  1  0.50000000  0.50000000  0.00000000  1
  Sb  Sb3  1  0.50000000  0.00000000  0.50000000  1
  Sb  Sb4  1  0.00000000  0.50000000  0.50000000  1
  P  P5  1  0.00467093  0.66636935  0.85054672  1
  P  P6  1  0.99425964  0.94413976  0.85791441  1
  Li  Li7  1  0.60982436  0.88586604  0.78865270  1
  Li  Li8  1  0.54810694  0.51429518  0.15209031  1
