# generated using pymatgen
data_LiTiNiP2O
_symmetry_space_group_name_H-M   'P 1'
_cell_length_a   7.22662000
_cell_length_b   7.19461598
_cell_length_c   7.89706148
_cell_angle_alpha   92.54524535
_cell_angle_beta   93.86912705
_cell_angle_gamma   93.07411752
_symmetry_Int_Tables_number   1
_chemical_formula_structural   LiTiNiP2O
_chemical_formula_sum   'Li2 Ti2 Ni2 P4 O2'
_cell_volume   408.58909824
_cell_formula_units_Z   2
loop_
 _symmetry_equiv_pos_site_id
 _symmetry_equiv_pos_as_xyz
  1  'x, y, z'
loop_
 _atom_site_type_symbol
 _atom_site_label
 _atom_site_symmetry_multiplicity
 _atom_site_fract_x
 _atom_site_fract_y
 _atom_site_fract_z
 _atom_site_occupancy
  P  P0  1  0.00000000  0.00000000  0.00000000  1
  P  P1  1  0.50000000  0.50000000  0.50000000  1
  P  P2  1  0.50000000  0.50000000  0.00000000  1
  P  P3  1  0.50000000  0.00000000  0.50000000  1
  Li  Li4  1  0.00000000  0.50000000  0.50000000  1
  Li  Li5  1  0.47246680  0.47991671  0.31647144  1
  Ni  Ni6  1  0.68834410  0.27912971  0.09772534  1
  Ni  Ni7  1  0.22823389  0.29025532  0.32569352  1
  Ti  Ti8  1  0.10736494  0.61950866  0.36925994  1
  Ti  Ti9  1  0.87499944  0.99313299  0.95559826  1
  O  O10  1  0.56307853  0.65554413  0.25901442  1
  O  O11  1  0.02215815  0.84932871  0.33596541  1
