# generated using pymatgen
data_Li2Mn2(SbP)3
_symmetry_space_group_name_H-M   'P 1'
_cell_length_a   6.47524602
_cell_length_b   7.02530832
_cell_length_c   7.28864055
_cell_angle_alpha   92.73499391
_cell_angle_beta   93.12532341
_cell_angle_gamma   93.06208183
_symmetry_Int_Tables_number   1
_chemical_formula_structural   Li2Mn2(SbP)3
_chemical_formula_sum   'Li2 Mn2 Sb3 P3'
_cell_volume   330.17233055
_cell_formula_units_Z   1
loop_
 _symmetry_equiv_pos_site_id
 _symmetry_equiv_pos_as_xyz
  1  'x, y, z'
loop_
 _atom_site_type_symbol
 _atom_site_label
 _atom_site_symmetry_multiplicity
 _atom_site_fract_x
 _atom_site_fract_y
 _atom_site_fract_z
 _atom_site_occupancy
  Mn  Mn0  1  0.12500000  0.12500000  0.12500000  1
  Mn  Mn1  1  0.50000000  0.50000000  0.50000000  1
  Sb  Sb2  1  0.25000000  0.25000000  0.25000000  1
  Sb  Sb3  1  0.75000000  0.75000000  0.75000000  1
  Sb  Sb4  1  0.54176187  0.44896424  0.44025945  1
  P  P5  1  0.62071945  0.79946821  0.60486953  1
  P  P6  1  0.18117125  0.70688381  0.74326292  1
  P  P7  1  0.96659234  0.73656211  0.77575046  1
  Li  Li8  1  0.80062160  0.03758564  0.34109291  1
  Li  Li9  1  0.22128946  0.89209380  0.84177870  1
