# generated using pymatgen
data_Li3TiSe(OF)3
_symmetry_space_group_name_H-M   'P 1'
_cell_length_a   5.41504299
_cell_length_b   5.13230161
_cell_length_c   6.84643898
_cell_angle_alpha   102.48236286
_cell_angle_beta   106.34283089
_cell_angle_gamma   101.72160598
_symmetry_Int_Tables_number   1
_chemical_formula_structural   Li3TiSe(OF)3
_chemical_formula_sum   'Li3 Ti1 Se1 O3 F3'
_cell_volume   171.04783539
_cell_formula_units_Z   1
loop_
 _symmetry_equiv_pos_site_id
 _symmetry_equiv_pos_as_xyz
  1  'x, y, z'
loop_
 _atom_site_type_symbol
 _atom_site_label
 _atom_site_symmetry_multiplicity
 _atom_site_fract_x
 _atom_site_fract_y
 _atom_site_fract_z
 _atom_site_occupancy
  Li  Li0  1  0.00000000  0.00000000  0.00000000  1
  Li  Li1  1  0.50000000  0.50000000  0.50000000  1
  Li  Li2  1  0.50000000  0.50000000  0.00000000  1
  F  F3  1  0.50000000  0.00000000  0.50000000  1
  F  F4  1  0.00000000  0.50000000  0.50000000  1
  F  F5  1  0.89662414  0.53479070  0.17039694  1
  Se  Se6  1  0.31965348  0.16083367  0.27716672  1
  Ti  Ti7  1  0.44687799  0.53124169  0.47985830  1
  O  O8  1  0.60117331  0.97446482  0.96002687  1
  O  O9  1  0.85696285  0.11911151  0.72590125  1
  O  O10  1  0.59630120  0.71026603  0.29501433  1
