# generated using pymatgen
data_LiMn2Sb4P3
_symmetry_space_group_name_H-M   'P 1'
_cell_length_a   5.55454480
_cell_length_b   5.91430844
_cell_length_c   6.49939231
_cell_angle_alpha   98.56104641
_cell_angle_beta   90.76356719
_cell_angle_gamma   98.48044801
_symmetry_Int_Tables_number   1
_chemical_formula_structural   LiMn2Sb4P3
_chemical_formula_sum   'Li1 Mn2 Sb4 P3'
_cell_volume   208.69003101
_cell_formula_units_Z   1
loop_
 _symmetry_equiv_pos_site_id
 _symmetry_equiv_pos_as_xyz
  1  'x, y, z'
loop_
 _atom_site_type_symbol
 _atom_site_label
 _atom_site_symmetry_multiplicity
 _atom_site_fract_x
 _atom_site_fract_y
 _atom_site_fract_z
 _atom_site_occupancy
  Mn  Mn0  1  0.12500000  0.12500000  0.12500000  1
  Mn  Mn1  1  0.50000000  0.50000000  0.50000000  1
  Sb  Sb2  1  0.25000000  0.25000000  0.25000000  1
  Sb  Sb3  1  0.75000000  0.75000000  0.75000000  1
  Sb  Sb4  1  0.86090083  0.25482229  0.98407540  1
  Sb  Sb5  1  0.64865215  0.97160974  0.21972926  1
  P  P6  1  0.19020802  0.15727764  0.83099885  1
  P  P7  1  0.46497307  0.73657885  0.96968622  1
  P  P8  1  0.34035908  0.23675267  0.97263742  1
  Li  Li9  1  0.21037472  0.92634102  0.13776029  1
