# generated using pymatgen
data_Li3P7F2
_symmetry_space_group_name_H-M   'P 1'
_cell_length_a   7.94977371
_cell_length_b   7.75723850
_cell_length_c   8.11811403
_cell_angle_alpha   91.55921322
_cell_angle_beta   92.78240947
_cell_angle_gamma   91.49747541
_symmetry_Int_Tables_number   1
_chemical_formula_structural   Li3P7F2
_chemical_formula_sum   'Li3 P7 F2'
_cell_volume   499.66587824
_cell_formula_units_Z   1
loop_
 _symmetry_equiv_pos_site_id
 _symmetry_equiv_pos_as_xyz
  1  'x, y, z'
loop_
 _atom_site_type_symbol
 _atom_site_label
 _atom_site_symmetry_multiplicity
 _atom_site_fract_x
 _atom_site_fract_y
 _atom_site_fract_z
 _atom_site_occupancy
  P  P0  1  0.00000000  0.00000000  0.00000000  1
  P  P1  1  0.33300000  0.66700000  0.25000000  1
  P  P2  1  0.66700000  0.33300000  0.50000000  1
  P  P3  1  0.00000000  0.00000000  0.75000000  1
  P  P4  1  0.15753130  0.49183913  0.21518263  1
  P  P5  1  0.03033448  0.74357252  0.74211418  1
  P  P6  1  0.91585514  0.97529598  0.98221519  1
  Li  Li7  1  0.64410407  0.86849210  0.07934185  1
  Li  Li8  1  0.01728403  0.90214543  0.50858111  1
  Li  Li9  1  0.43165352  0.62337251  0.54169122  1
  F  F10  1  0.01155345  0.81587395  0.42793843  1
  F  F11  1  0.42262750  0.32815319  0.69630844  1
