# generated using pymatgen
data_Li3Ti2Cu2Te6N5
_symmetry_space_group_name_H-M   'P 1'
_cell_length_a   7.75958309
_cell_length_b   7.98484402
_cell_length_c   7.40385828
_cell_angle_alpha   92.88765038
_cell_angle_beta   93.29251515
_cell_angle_gamma   93.63762600
_symmetry_Int_Tables_number   1
_chemical_formula_structural   Li3Ti2Cu2Te6N5
_chemical_formula_sum   'Li3 Ti2 Cu2 Te6 N5'
_cell_volume   456.38385438
_cell_formula_units_Z   1
loop_
 _symmetry_equiv_pos_site_id
 _symmetry_equiv_pos_as_xyz
  1  'x, y, z'
loop_
 _atom_site_type_symbol
 _atom_site_label
 _atom_site_symmetry_multiplicity
 _atom_site_fract_x
 _atom_site_fract_y
 _atom_site_fract_z
 _atom_site_occupancy
  Li  Li0  1  0.00000000  0.00000000  0.00000000  1
  Li  Li1  1  0.50000000  0.50000000  0.50000000  1
  Li  Li2  1  0.25000000  0.25000000  0.25000000  1
  Cu  Cu3  1  0.75000000  0.25000000  0.00000000  1
  Cu  Cu4  1  0.25000000  0.75000000  0.50000000  1
  Te  Te5  1  0.66191973  0.84676238  0.33910958  1
  Te  Te6  1  0.13960674  0.17248681  0.05479754  1
  Te  Te7  1  0.89151870  0.27460881  0.21053229  1
  Te  Te8  1  0.64337302  0.38260232  0.85451030  1
  Te  Te9  1  0.30114951  0.92692859  0.92527975  1
  Te  Te10  1  0.19199619  0.49529496  0.98614642  1
  Ti  Ti11  1  0.63841062  0.67998996  0.07856626  1
  Ti  Ti12  1  0.46339709  0.31441968  0.67224486  1
  N  N13  1  0.04827583  0.70536729  0.15850632  1
  N  N14  1  0.66615326  0.58558814  0.78637539  1
  N  N15  1  0.24297131  0.08385401  0.79947476  1
  N  N16  1  0.51329447  0.01417261  0.75723170  1
  N  N17  1  0.85000644  0.21456019  0.12304977  1
