# generated using pymatgen
data_LiMn2Sb4Mo4P3
_symmetry_space_group_name_H-M   'P 1'
_cell_length_a   5.27130665
_cell_length_b   5.48393060
_cell_length_c   6.45809159
_cell_angle_alpha   96.95770689
_cell_angle_beta   92.44073540
_cell_angle_gamma   96.91431582
_symmetry_Int_Tables_number   1
_chemical_formula_structural   LiMn2Sb4Mo4P3
_chemical_formula_sum   'Li1 Mn2 Sb4 Mo4 P3'
_cell_volume   183.65478566
_cell_formula_units_Z   1
loop_
 _symmetry_equiv_pos_site_id
 _symmetry_equiv_pos_as_xyz
  1  'x, y, z'
loop_
 _atom_site_type_symbol
 _atom_site_label
 _atom_site_symmetry_multiplicity
 _atom_site_fract_x
 _atom_site_fract_y
 _atom_site_fract_z
 _atom_site_occupancy
  Mn  Mn0  1  0.12500000  0.00000000  0.25000000  1
  Mn  Mn1  1  0.00000000  0.00000000  0.00000000  1
  Sb  Sb2  1  0.37500000  0.00000000  0.25000000  1
  Sb  Sb3  1  0.25000000  0.25000000  0.25000000  1
  Sb  Sb4  1  0.00000000  0.25000000  0.12500000  1
  Sb  Sb5  1  0.47227572  0.57364077  0.84729455  1
  P  P6  1  0.38948779  0.32337327  0.74774983  1
  P  P7  1  0.63353493  0.75152413  0.73699884  1
  P  P8  1  0.73166322  0.87537900  0.67409717  1
  Mo  Mo9  1  0.00801061  0.19167086  0.47777976  1
  Mo  Mo10  1  0.13775643  0.17022459  0.96163612  1
  Mo  Mo11  1  0.67957246  0.17026256  0.71334903  1
  Mo  Mo12  1  0.08720844  0.63840510  0.73751033  1
  Li  Li13  1  0.71108117  0.84873084  0.65350511  1
