# generated using pymatgen
data_Li3Ni2P8I4O3
_symmetry_space_group_name_H-M   'P 1'
_cell_length_a   6.91122533
_cell_length_b   6.82944184
_cell_length_c   8.05517727
_cell_angle_alpha   96.14869446
_cell_angle_beta   98.45862394
_cell_angle_gamma   95.79757239
_symmetry_Int_Tables_number   1
_chemical_formula_structural   Li3Ni2P8I4O3
_chemical_formula_sum   'Li3 Ni2 P8 I4 O3'
_cell_volume   371.25864812
_cell_formula_units_Z   1
loop_
 _symmetry_equiv_pos_site_id
 _symmetry_equiv_pos_as_xyz
  1  'x, y, z'
loop_
 _atom_site_type_symbol
 _atom_site_label
 _atom_site_symmetry_multiplicity
 _atom_site_fract_x
 _atom_site_fract_y
 _atom_site_fract_z
 _atom_site_occupancy
  I  I0  1  0.12500000  0.00000000  0.25000000  1
  I  I1  1  0.00000000  0.00000000  0.00000000  1
  I  I2  1  0.37500000  0.00000000  0.25000000  1
  I  I3  1  0.25000000  0.25000000  0.25000000  1
  P  P4  1  0.00000000  0.25000000  0.12500000  1
  P  P5  1  0.12334837  0.54649054  0.00112702  1
  P  P6  1  0.29357977  0.34153681  0.24605795  1
  P  P7  1  0.09589550  0.52653871  0.71951015  1
  P  P8  1  0.14027270  0.00325914  0.55080306  1
  P  P9  1  0.96972306  0.82553399  0.64391613  1
  P  P10  1  0.02131493  0.44852273  0.20431819  1
  P  P11  1  0.75320395  0.41942771  0.31116209  1
  Li  Li12  1  0.98882324  0.38005673  0.35393480  1
  Li  Li13  1  0.64348432  0.48360989  0.00591618  1
  Li  Li14  1  0.46902251  0.06012935  0.04473312  1
  Ni  Ni15  1  0.13377078  0.29436198  0.32819912  1
  Ni  Ni16  1  0.10334038  0.33048818  0.82418935  1
  O  O17  1  0.36821950  0.25801590  0.21640869  1
  O  O18  1  0.34740638  0.28609844  0.95339780  1
  O  O19  1  0.85360733  0.08292535  0.89238968  1
