# generated using pymatgen
data_Li2LuCu2(NiP2)2
_symmetry_space_group_name_H-M   'P 1'
_cell_length_a   7.31940093
_cell_length_b   7.02802490
_cell_length_c   7.75743891
_cell_angle_alpha   92.03861345
_cell_angle_beta   92.59556481
_cell_angle_gamma   92.16464703
_symmetry_Int_Tables_number   1
_chemical_formula_structural   Li2LuCu2(NiP2)2
_chemical_formula_sum   'Li2 Lu1 Cu2 Ni2 P4'
_cell_volume   398.07809667
_cell_formula_units_Z   1
loop_
 _symmetry_equiv_pos_site_id
 _symmetry_equiv_pos_as_xyz
  1  'x, y, z'
loop_
 _atom_site_type_symbol
 _atom_site_label
 _atom_site_symmetry_multiplicity
 _atom_site_fract_x
 _atom_site_fract_y
 _atom_site_fract_z
 _atom_site_occupancy
  P  P0  1  0.00000000  0.00000000  0.00000000  1
  P  P1  1  0.50000000  0.50000000  0.50000000  1
  P  P2  1  0.50000000  0.50000000  0.00000000  1
  P  P3  1  0.50000000  0.00000000  0.50000000  1
  Lu  Lu4  1  0.00000000  0.50000000  0.50000000  1
  Li  Li5  1  0.24906535  0.64421950  0.57628712  1
  Li  Li6  1  0.89501190  0.36193483  0.49436455  1
  Cu  Cu7  1  0.02458238  0.11851047  0.84951207  1
  Cu  Cu8  1  0.72715835  0.21064662  0.02881770  1
  Ni  Ni9  1  0.41624952  0.64107951  0.62049840  1
  Ni  Ni10  1  0.83922955  0.18629370  0.28589274  1
