# generated using pymatgen
data_LiMn(Sb2P)2
_symmetry_space_group_name_H-M   'P 1'
_cell_length_a   4.91155427
_cell_length_b   5.16737310
_cell_length_c   6.28823677
_cell_angle_alpha   98.77188892
_cell_angle_beta   94.77303123
_cell_angle_gamma   97.68576651
_symmetry_Int_Tables_number   1
_chemical_formula_structural   LiMn(Sb2P)2
_chemical_formula_sum   'Li1 Mn1 Sb4 P2'
_cell_volume   155.43373937
_cell_formula_units_Z   1
loop_
 _symmetry_equiv_pos_site_id
 _symmetry_equiv_pos_as_xyz
  1  'x, y, z'
loop_
 _atom_site_type_symbol
 _atom_site_label
 _atom_site_symmetry_multiplicity
 _atom_site_fract_x
 _atom_site_fract_y
 _atom_site_fract_z
 _atom_site_occupancy
  Mn  Mn0  1  0.12500000  0.00000000  0.25000000  1
  Sb  Sb1  1  0.00000000  0.00000000  0.00000000  1
  Sb  Sb2  1  0.37500000  0.00000000  0.25000000  1
  Sb  Sb3  1  0.25000000  0.25000000  0.25000000  1
  Sb  Sb4  1  0.00000000  0.25000000  0.12500000  1
  P  P5  1  0.75591726  0.84733877  0.02818917  1
  P  P6  1  0.33178720  0.01480941  0.45931821  1
  Li  Li7  1  0.71157281  0.62464815  0.97357230  1
