# generated using pymatgen
data_LiMnAl2P3
_symmetry_space_group_name_H-M   'P 1'
_cell_length_a   4.24485993
_cell_length_b   4.75636051
_cell_length_c   6.78017359
_cell_angle_alpha   99.23692172
_cell_angle_beta   100.94198725
_cell_angle_gamma   100.51275739
_symmetry_Int_Tables_number   1
_chemical_formula_structural   LiMnAl2P3
_chemical_formula_sum   'Li1 Mn1 Al2 P3'
_cell_volume   129.41907443
_cell_formula_units_Z   1
loop_
 _symmetry_equiv_pos_site_id
 _symmetry_equiv_pos_as_xyz
  1  'x, y, z'
loop_
 _atom_site_type_symbol
 _atom_site_label
 _atom_site_symmetry_multiplicity
 _atom_site_fract_x
 _atom_site_fract_y
 _atom_site_fract_z
 _atom_site_occupancy
  Al  Al0  1  0.00000000  0.00000000  0.00000000  1
  Al  Al1  1  0.50000000  0.50000000  0.50000000  1
  Mn  Mn2  1  0.50000000  0.50000000  0.00000000  1
  P  P3  1  0.50000000  0.00000000  0.50000000  1
  P  P4  1  0.00000000  0.50000000  0.50000000  1
  P  P5  1  0.70433468  0.97167635  0.57824688  1
  Li  Li6  1  0.67319127  0.68749100  0.70878148  1
