# generated using pymatgen
data_Li2TiP4(I2F)2
_symmetry_space_group_name_H-M   'P 1'
_cell_length_a   6.58600446
_cell_length_b   6.34678962
_cell_length_c   7.44259998
_cell_angle_alpha   94.13459373
_cell_angle_beta   94.89493657
_cell_angle_gamma   93.71284270
_symmetry_Int_Tables_number   1
_chemical_formula_structural   Li2TiP4(I2F)2
_chemical_formula_sum   'Li2 Ti1 P4 I4 F2'
_cell_volume   308.37120777
_cell_formula_units_Z   1
loop_
 _symmetry_equiv_pos_site_id
 _symmetry_equiv_pos_as_xyz
  1  'x, y, z'
loop_
 _atom_site_type_symbol
 _atom_site_label
 _atom_site_symmetry_multiplicity
 _atom_site_fract_x
 _atom_site_fract_y
 _atom_site_fract_z
 _atom_site_occupancy
  I  I0  1  0.00000000  0.00000000  0.00000000  1
  I  I1  1  0.50000000  0.50000000  0.50000000  1
  I  I2  1  0.50000000  0.50000000  0.00000000  1
  I  I3  1  0.50000000  0.00000000  0.50000000  1
  P  P4  1  0.00000000  0.50000000  0.50000000  1
  P  P5  1  0.06343772  0.58605500  0.79449016  1
  P  P6  1  0.69915182  0.17951346  0.94865399  1
  P  P7  1  0.31048636  0.03029616  0.80576791  1
  Li  Li8  1  0.31084230  0.46979559  0.86249399  1
  Li  Li9  1  0.19210172  0.36321266  0.88988425  1
  F  F10  1  0.41526769  0.88507642  0.96739610  1
  F  F11  1  0.93920807  0.98858253  0.15403383  1
  Ti  Ti12  1  0.95704229  0.13389029  0.86135442  1
