# generated using pymatgen
data_Li3TiI4N5O4
_symmetry_space_group_name_H-M   'P 1'
_cell_length_a   8.40420107
_cell_length_b   8.20194061
_cell_length_c   7.80627894
_cell_angle_alpha   91.10224359
_cell_angle_beta   90.38968939
_cell_angle_gamma   91.27846913
_symmetry_Int_Tables_number   1
_chemical_formula_structural   Li3TiI4N5O4
_chemical_formula_sum   'Li3 Ti1 I4 N5 O4'
_cell_volume   537.84515835
_cell_formula_units_Z   1
loop_
 _symmetry_equiv_pos_site_id
 _symmetry_equiv_pos_as_xyz
  1  'x, y, z'
loop_
 _atom_site_type_symbol
 _atom_site_label
 _atom_site_symmetry_multiplicity
 _atom_site_fract_x
 _atom_site_fract_y
 _atom_site_fract_z
 _atom_site_occupancy
  I  I0  1  0.12500000  0.00000000  0.25000000  1
  I  I1  1  0.00000000  0.00000000  0.00000000  1
  I  I2  1  0.37500000  0.00000000  0.25000000  1
  I  I3  1  0.25000000  0.25000000  0.25000000  1
  Li  Li4  1  0.00000000  0.25000000  0.12500000  1
  Li  Li5  1  0.99613850  0.69193379  0.99642241  1
  Li  Li6  1  0.68526540  0.40758283  0.34301557  1
  Ti  Ti7  1  0.54916600  0.40847230  0.05282597  1
  O  O8  1  0.21755125  0.37007999  0.96263874  1
  O  O9  1  0.34408293  0.42013294  0.58153145  1
  O  O10  1  0.22113875  0.12236348  0.79566264  1
  O  O11  1  0.94648414  0.70105190  0.73801996  1
  N  N12  1  0.75126718  0.87312285  0.84156569  1
  N  N13  1  0.28708996  0.34265532  0.53633415  1
  N  N14  1  0.92694645  0.75749503  0.73207797  1
  N  N15  1  0.47973327  0.12795201  0.43697727  1
  N  N16  1  0.58761702  0.49361451  0.92358943  1
