# generated using pymatgen
data_Li5TiI4
_symmetry_space_group_name_H-M   'P 1'
_cell_length_a   7.92349538
_cell_length_b   7.74118262
_cell_length_c   7.48521330
_cell_angle_alpha   92.27891022
_cell_angle_beta   92.33354184
_cell_angle_gamma   92.14225111
_symmetry_Int_Tables_number   1
_chemical_formula_structural   Li5TiI4
_chemical_formula_sum   'Li5 Ti1 I4'
_cell_volume   458.02879879
_cell_formula_units_Z   1
loop_
 _symmetry_equiv_pos_site_id
 _symmetry_equiv_pos_as_xyz
  1  'x, y, z'
loop_
 _atom_site_type_symbol
 _atom_site_label
 _atom_site_symmetry_multiplicity
 _atom_site_fract_x
 _atom_site_fract_y
 _atom_site_fract_z
 _atom_site_occupancy
  I  I0  1  0.00000000  0.00000000  0.00000000  1
  I  I1  1  0.50000000  0.50000000  0.50000000  1
  I  I2  1  0.50000000  0.50000000  0.00000000  1
  I  I3  1  0.50000000  0.00000000  0.50000000  1
  Li  Li4  1  0.00000000  0.50000000  0.50000000  1
  Li  Li5  1  0.76082178  0.41185562  0.15307521  1
  Li  Li6  1  0.06028890  0.95930205  0.87382353  1
  Li  Li7  1  0.80349150  0.66030278  0.37890153  1
  Li  Li8  1  0.76789310  0.11203960  0.71937747  1
  Ti  Ti9  1  0.15186293  0.72533403  0.43960360  1
