# generated using pymatgen
data_Li2TiP5(I2F)2
_symmetry_space_group_name_H-M   'P 1'
_cell_length_a   7.03551596
_cell_length_b   6.74080774
_cell_length_c   7.73714140
_cell_angle_alpha   94.21857680
_cell_angle_beta   94.53250039
_cell_angle_gamma   93.97718470
_symmetry_Int_Tables_number   1
_chemical_formula_structural   Li2TiP5(I2F)2
_chemical_formula_sum   'Li2 Ti1 P5 I4 F2'
_cell_volume   363.75151332
_cell_formula_units_Z   1
loop_
 _symmetry_equiv_pos_site_id
 _symmetry_equiv_pos_as_xyz
  1  'x, y, z'
loop_
 _atom_site_type_symbol
 _atom_site_label
 _atom_site_symmetry_multiplicity
 _atom_site_fract_x
 _atom_site_fract_y
 _atom_site_fract_z
 _atom_site_occupancy
  P  P0  1  0.00000000  0.00000000  0.00000000  1
  P  P1  1  0.50000000  0.50000000  0.50000000  1
  P  P2  1  0.25000000  0.25000000  0.25000000  1
  P  P3  1  0.75000000  0.25000000  0.00000000  1
  P  P4  1  0.25000000  0.75000000  0.50000000  1
  I  I5  1  0.99983130  0.62249058  0.78335363  1
  I  I6  1  0.10547073  0.94302440  0.25743485  1
  I  I7  1  0.55444061  0.45958510  0.60011776  1
  I  I8  1  0.00932056  0.90077688  0.61766596  1
  Li  Li9  1  0.72250245  0.18572702  0.29223547  1
  Li  Li10  1  0.64632793  0.06121645  0.78936296  1
  F  F11  1  0.31965693  0.44320224  0.47444043  1
  F  F12  1  0.39077142  0.96473421  0.93851508  1
  Ti  Ti13  1  0.78050865  0.56862119  0.39735910  1
