# generated using pymatgen
data_Li3Ni2(IO)4
_symmetry_space_group_name_H-M   'P 1'
_cell_length_a   8.67537817
_cell_length_b   8.93149760
_cell_length_c   7.34342970
_cell_angle_alpha   90.00000000
_cell_angle_beta   90.00000000
_cell_angle_gamma   90.00000000
_symmetry_Int_Tables_number   1
_chemical_formula_structural   Li3Ni2(IO)4
_chemical_formula_sum   'Li3 Ni2 I4 O4'
_cell_volume   568.99918258
_cell_formula_units_Z   1
loop_
 _symmetry_equiv_pos_site_id
 _symmetry_equiv_pos_as_xyz
  1  'x, y, z'
loop_
 _atom_site_type_symbol
 _atom_site_label
 _atom_site_symmetry_multiplicity
 _atom_site_fract_x
 _atom_site_fract_y
 _atom_site_fract_z
 _atom_site_occupancy
  I  I0  1  0.12500000  0.12500000  0.12500000  1
  I  I1  1  0.50000000  0.50000000  0.50000000  1
  I  I2  1  0.25000000  0.25000000  0.25000000  1
  I  I3  1  0.75000000  0.75000000  0.75000000  1
  Li  Li4  1  0.51915592  0.55690766  0.13163285  1
  Li  Li5  1  0.42457453  0.55401284  0.37442903  1
  Li  Li6  1  0.82541871  0.85818643  0.28319567  1
  Ni  Ni7  1  0.81196868  0.46004448  0.49141288  1
  Ni  Ni8  1  0.86966434  0.87971023  0.93155335  1
  O  O9  1  0.26555284  0.31882065  0.29823072  1
  O  O10  1  0.07737053  0.72028307  0.68774081  1
  O  O11  1  0.98831069  0.65396126  0.82420391  1
  O  O12  1  0.37020483  0.33765644  0.67141208  1
