# generated using pymatgen
data_Li2TiI4(OF)2
_symmetry_space_group_name_H-M   'P 1'
_cell_length_a   5.93342931
_cell_length_b   5.84859856
_cell_length_c   6.91761572
_cell_angle_alpha   98.77253978
_cell_angle_beta   101.91291712
_cell_angle_gamma   99.11524080
_symmetry_Int_Tables_number   1
_chemical_formula_structural   Li2TiI4(OF)2
_chemical_formula_sum   'Li2 Ti1 I4 O2 F2'
_cell_volume   227.61851684
_cell_formula_units_Z   1
loop_
 _symmetry_equiv_pos_site_id
 _symmetry_equiv_pos_as_xyz
  1  'x, y, z'
loop_
 _atom_site_type_symbol
 _atom_site_label
 _atom_site_symmetry_multiplicity
 _atom_site_fract_x
 _atom_site_fract_y
 _atom_site_fract_z
 _atom_site_occupancy
  I  I0  1  0.00000000  0.00000000  0.00000000  1
  I  I1  1  0.50000000  0.50000000  0.50000000  1
  I  I2  1  0.50000000  0.50000000  0.00000000  1
  I  I3  1  0.50000000  0.00000000  0.50000000  1
  Li  Li4  1  0.00000000  0.50000000  0.50000000  1
  Li  Li5  1  0.34420225  0.91432857  0.53103994  1
  F  F6  1  0.46711126  0.13301754  0.64635767  1
  F  F7  1  0.69435463  0.83189952  0.67559137  1
  Ti  Ti8  1  0.52920095  0.62321153  0.82694124  1
  O  O9  1  0.43598445  0.97577481  0.09596354  1
  O  O10  1  0.18953411  0.94950050  0.04873413  1
