# generated using pymatgen
data_Li2Mn2Sb4P3
_symmetry_space_group_name_H-M   'P 1'
_cell_length_a   4.52675243
_cell_length_b   4.63478524
_cell_length_c   6.46235790
_cell_angle_alpha   101.33302961
_cell_angle_beta   94.66553619
_cell_angle_gamma   101.55376363
_symmetry_Int_Tables_number   1
_chemical_formula_structural   Li2Mn2Sb4P3
_chemical_formula_sum   'Li2 Mn2 Sb4 P3'
_cell_volume   129.21410545
_cell_formula_units_Z   1
loop_
 _symmetry_equiv_pos_site_id
 _symmetry_equiv_pos_as_xyz
  1  'x, y, z'
loop_
 _atom_site_type_symbol
 _atom_site_label
 _atom_site_symmetry_multiplicity
 _atom_site_fract_x
 _atom_site_fract_y
 _atom_site_fract_z
 _atom_site_occupancy
  Mn  Mn0  1  0.12500000  0.00000000  0.25000000  1
  Mn  Mn1  1  0.00000000  0.00000000  0.00000000  1
  Sb  Sb2  1  0.37500000  0.00000000  0.25000000  1
  Sb  Sb3  1  0.25000000  0.25000000  0.25000000  1
  Sb  Sb4  1  0.00000000  0.25000000  0.12500000  1
  Sb  Sb5  1  0.57429353  0.88692703  0.16913809  1
  P  P6  1  0.15642425  0.43505605  0.28838071  1
  P  P7  1  0.27218146  0.87567282  0.32351752  1
  P  P8  1  0.93600023  0.11163642  0.05374312  1
  Li  Li9  1  0.49916816  0.37340079  0.69503229  1
  Li  Li10  1  0.01125863  0.05051421  0.05027315  1
