# generated using pymatgen
data_LiCuAs3(PO)2
_symmetry_space_group_name_H-M   'P 1'
_cell_length_a   7.19711966
_cell_length_b   7.28131649
_cell_length_c   8.28440974
_cell_angle_alpha   92.41421031
_cell_angle_beta   93.93923898
_cell_angle_gamma   92.91048799
_symmetry_Int_Tables_number   1
_chemical_formula_structural   LiCuAs3(PO)2
_chemical_formula_sum   'Li2 Cu2 As6 P4 O4'
_cell_volume   432.10255509
_cell_formula_units_Z   2
loop_
 _symmetry_equiv_pos_site_id
 _symmetry_equiv_pos_as_xyz
  1  'x, y, z'
loop_
 _atom_site_type_symbol
 _atom_site_label
 _atom_site_symmetry_multiplicity
 _atom_site_fract_x
 _atom_site_fract_y
 _atom_site_fract_z
 _atom_site_occupancy
  O  O0  1  0.12500000  0.00000000  0.25000000  1
  O  O1  1  0.00000000  0.00000000  0.00000000  1
  O  O2  1  0.37500000  0.00000000  0.25000000  1
  O  O3  1  0.25000000  0.25000000  0.25000000  1
  P  P4  1  0.00000000  0.25000000  0.12500000  1
  P  P5  1  0.75616022  0.97517943  0.89734977  1
  P  P6  1  0.80646760  0.64712570  0.85895287  1
  P  P7  1  0.57091407  0.73561752  0.75732348  1
  As  As8  1  0.12522461  0.51243741  0.03949484  1
  As  As9  1  0.63203291  0.76383017  0.78107083  1
  As  As10  1  0.97118576  0.53570766  0.31762736  1
  As  As11  1  0.64912028  0.98652454  0.80398700  1
  As  As12  1  0.93902991  0.01993046  0.03450437  1
  As  As13  1  0.45876389  0.89012484  0.17864943  1
  Li  Li14  1  0.84921868  0.65102383  0.24943921  1
  Li  Li15  1  0.81135064  0.76981203  0.94576049  1
  Cu  Cu16  1  0.55234887  0.79580520  0.38037122  1
  Cu  Cu17  1  0.09719057  0.41766930  0.66326437  1
