# generated using pymatgen
data_Li2Mn2Sb4P3
_symmetry_space_group_name_H-M   'P 1'
_cell_length_a   4.08545051
_cell_length_b   4.23373225
_cell_length_c   6.05252221
_cell_angle_alpha   104.62841953
_cell_angle_beta   93.52227428
_cell_angle_gamma   104.72621264
_symmetry_Int_Tables_number   1
_chemical_formula_structural   Li2Mn2Sb4P3
_chemical_formula_sum   'Li2 Mn2 Sb4 P3'
_cell_volume   97.08080733
_cell_formula_units_Z   1
loop_
 _symmetry_equiv_pos_site_id
 _symmetry_equiv_pos_as_xyz
  1  'x, y, z'
loop_
 _atom_site_type_symbol
 _atom_site_label
 _atom_site_symmetry_multiplicity
 _atom_site_fract_x
 _atom_site_fract_y
 _atom_site_fract_z
 _atom_site_occupancy
  Mn  Mn0  1  0.12500000  0.12500000  0.12500000  1
  Mn  Mn1  1  0.50000000  0.50000000  0.50000000  1
  Sb  Sb2  1  0.25000000  0.25000000  0.25000000  1
  Sb  Sb3  1  0.75000000  0.75000000  0.75000000  1
  Sb  Sb4  1  0.46663569  0.34809113  0.64468550  1
  Sb  Sb5  1  0.46721632  0.48617418  0.18387656  1
  P  P6  1  0.42403970  0.28176328  0.41673769  1
  P  P7  1  0.53452506  0.74329919  0.09702164  1
  P  P8  1  0.66470225  0.25045959  0.69010119  1
  Li  Li9  1  0.99058313  0.32157668  0.71947003  1
  Li  Li10  1  0.08621734  0.24273445  0.34578259  1
