# generated using pymatgen
data_LiTi2Ni2(As2S)3
_symmetry_space_group_name_H-M   'P 1'
_cell_length_a   6.61802506
_cell_length_b   6.52411195
_cell_length_c   7.81854299
_cell_angle_alpha   91.66798316
_cell_angle_beta   94.84199372
_cell_angle_gamma   91.91861943
_symmetry_Int_Tables_number   1
_chemical_formula_structural   LiTi2Ni2(As2S)3
_chemical_formula_sum   'Li1 Ti2 Ni2 As6 S3'
_cell_volume   336.01297990
_cell_formula_units_Z   1
loop_
 _symmetry_equiv_pos_site_id
 _symmetry_equiv_pos_as_xyz
  1  'x, y, z'
loop_
 _atom_site_type_symbol
 _atom_site_label
 _atom_site_symmetry_multiplicity
 _atom_site_fract_x
 _atom_site_fract_y
 _atom_site_fract_z
 _atom_site_occupancy
  Li  Li0  1  0.00000000  0.00000000  0.00000000  1
  Ni  Ni1  1  0.50000000  0.50000000  0.50000000  1
  Ni  Ni2  1  0.25000000  0.25000000  0.25000000  1
  S  S3  1  0.75000000  0.25000000  0.00000000  1
  S  S4  1  0.25000000  0.75000000  0.50000000  1
  S  S5  1  0.33836180  0.88051018  0.08272589  1
  Ti  Ti6  1  0.97949927  0.03022523  0.19179132  1
  Ti  Ti7  1  0.79661179  0.33385285  0.22947907  1
  As  As8  1  0.56929518  0.14451229  0.65410942  1
  As  As9  1  0.79581686  0.65842422  0.45516342  1
  As  As10  1  0.95120045  0.89891543  0.86949253  1
  As  As11  1  0.68901630  0.81467589  0.61309938  1
  As  As12  1  0.93394431  0.02161294  0.20272127  1
  As  As13  1  0.07389702  0.97482050  0.70833420  1
