# generated using pymatgen
data_LiMn3Mo2P3
_symmetry_space_group_name_H-M   'P 1'
_cell_length_a   5.56946628
_cell_length_b   5.85630190
_cell_length_c   6.34182539
_cell_angle_alpha   97.07085631
_cell_angle_beta   90.16707513
_cell_angle_gamma   96.71356586
_symmetry_Int_Tables_number   1
_chemical_formula_structural   LiMn3Mo2P3
_chemical_formula_sum   'Li1 Mn3 Mo2 P3'
_cell_volume   203.83584686
_cell_formula_units_Z   1
loop_
 _symmetry_equiv_pos_site_id
 _symmetry_equiv_pos_as_xyz
  1  'x, y, z'
loop_
 _atom_site_type_symbol
 _atom_site_label
 _atom_site_symmetry_multiplicity
 _atom_site_fract_x
 _atom_site_fract_y
 _atom_site_fract_z
 _atom_site_occupancy
  Mn  Mn0  1  0.00000000  0.00000000  0.00000000  1
  Mn  Mn1  1  0.50000000  0.50000000  0.50000000  1
  Mn  Mn2  1  0.50000000  0.50000000  0.00000000  1
  P  P3  1  0.50000000  0.00000000  0.50000000  1
  P  P4  1  0.00000000  0.50000000  0.50000000  1
  P  P5  1  0.94783074  0.83382633  0.75890330  1
  Mo  Mo6  1  0.79953065  0.86810386  0.16933742  1
  Mo  Mo7  1  0.09038316  0.30023865  0.88420577  1
  Li  Li8  1  0.40813734  0.85245034  0.24825539  1
