# generated using pymatgen
data_Li2Mn2Sb4P3
_symmetry_space_group_name_H-M   'P 1'
_cell_length_a   6.73237496
_cell_length_b   6.77138118
_cell_length_c   7.53340815
_cell_angle_alpha   93.41674350
_cell_angle_beta   92.91134465
_cell_angle_gamma   93.73045803
_symmetry_Int_Tables_number   1
_chemical_formula_structural   Li2Mn2Sb4P3
_chemical_formula_sum   'Li2 Mn2 Sb4 P3'
_cell_volume   341.57665340
_cell_formula_units_Z   1
loop_
 _symmetry_equiv_pos_site_id
 _symmetry_equiv_pos_as_xyz
  1  'x, y, z'
loop_
 _atom_site_type_symbol
 _atom_site_label
 _atom_site_symmetry_multiplicity
 _atom_site_fract_x
 _atom_site_fract_y
 _atom_site_fract_z
 _atom_site_occupancy
  Mn  Mn0  1  0.00000000  0.00000000  0.00000000  1
  Mn  Mn1  1  0.50000000  0.50000000  0.50000000  1
  Sb  Sb2  1  0.50000000  0.50000000  0.00000000  1
  Sb  Sb3  1  0.50000000  0.00000000  0.50000000  1
  Sb  Sb4  1  0.00000000  0.50000000  0.50000000  1
  Sb  Sb5  1  0.56222444  0.58313715  0.53644600  1
  P  P6  1  0.70251880  0.36132124  0.32655980  1
  P  P7  1  0.71799476  0.46010009  0.47639214  1
  P  P8  1  0.75656568  0.10642402  0.93875182  1
  Li  Li9  1  0.16345019  0.23363439  0.37424567  1
  Li  Li10  1  0.57010467  0.67884884  0.54370478  1
