# generated using pymatgen
data_LiMnSb4Mo2P3
_symmetry_space_group_name_H-M   'P 1'
_cell_length_a   4.20625827
_cell_length_b   4.38785946
_cell_length_c   6.20187130
_cell_angle_alpha   102.19490876
_cell_angle_beta   94.61016399
_cell_angle_gamma   102.56692391
_symmetry_Int_Tables_number   1
_chemical_formula_structural   LiMnSb4Mo2P3
_chemical_formula_sum   'Li1 Mn1 Sb4 Mo2 P3'
_cell_volume   108.23956765
_cell_formula_units_Z   1
loop_
 _symmetry_equiv_pos_site_id
 _symmetry_equiv_pos_as_xyz
  1  'x, y, z'
loop_
 _atom_site_type_symbol
 _atom_site_label
 _atom_site_symmetry_multiplicity
 _atom_site_fract_x
 _atom_site_fract_y
 _atom_site_fract_z
 _atom_site_occupancy
  Mn  Mn0  1  0.00000000  0.00000000  0.00000000  1
  Sb  Sb1  1  0.50000000  0.50000000  0.50000000  1
  Sb  Sb2  1  0.50000000  0.50000000  0.00000000  1
  Sb  Sb3  1  0.50000000  0.00000000  0.50000000  1
  Sb  Sb4  1  0.00000000  0.50000000  0.50000000  1
  P  P5  1  0.43687280  0.22698647  0.73387310  1
  P  P6  1  0.09691178  0.47988068  0.43861228  1
  P  P7  1  0.46484321  0.39479460  0.46314626  1
  Mo  Mo8  1  0.99631755  0.74187930  0.80636548  1
  Mo  Mo9  1  0.03740835  0.87126745  0.49348656  1
  Li  Li10  1  0.50777832  0.09133742  0.64289872  1
