# generated using pymatgen
data_Li3LuTi2P4N3
_symmetry_space_group_name_H-M   'P 1'
_cell_length_a   4.82663558
_cell_length_b   4.62083464
_cell_length_c   6.31475755
_cell_angle_alpha   96.26073363
_cell_angle_beta   103.57705121
_cell_angle_gamma   97.06695046
_symmetry_Int_Tables_number   1
_chemical_formula_structural   Li3LuTi2P4N3
_chemical_formula_sum   'Li3 Lu1 Ti2 P4 N3'
_cell_volume   134.46678037
_cell_formula_units_Z   1
loop_
 _symmetry_equiv_pos_site_id
 _symmetry_equiv_pos_as_xyz
  1  'x, y, z'
loop_
 _atom_site_type_symbol
 _atom_site_label
 _atom_site_symmetry_multiplicity
 _atom_site_fract_x
 _atom_site_fract_y
 _atom_site_fract_z
 _atom_site_occupancy
  P  P0  1  0.00000000  0.00000000  0.00000000  1
  P  P1  1  0.50000000  0.50000000  0.50000000  1
  P  P2  1  0.25000000  0.25000000  0.25000000  1
  P  P3  1  0.75000000  0.25000000  0.00000000  1
  Lu  Lu4  1  0.25000000  0.75000000  0.50000000  1
  Li  Li5  1  0.59315694  0.47128471  0.50127254  1
  Li  Li6  1  0.25530066  0.10425622  0.53915442  1
  Li  Li7  1  0.81131496  0.46375686  0.24564065  1
  Ti  Ti8  1  0.73623310  0.19524150  0.49624519  1
  Ti  Ti9  1  0.35750834  0.58576471  0.72294376  1
  N  N10  1  0.01951546  0.42641382  0.13310912  1
  N  N11  1  0.41742582  0.66710660  0.78424775  1
  N  N12  1  0.74512522  0.39070197  0.63751569  1
