# generated using pymatgen
data_Li2Mn3Sb4P3
_symmetry_space_group_name_H-M   'P 1'
_cell_length_a   7.85162918
_cell_length_b   8.04560601
_cell_length_c   7.79104701
_cell_angle_alpha   90.00000000
_cell_angle_beta   90.00000000
_cell_angle_gamma   90.00000000
_symmetry_Int_Tables_number   1
_chemical_formula_structural   Li2Mn3Sb4P3
_chemical_formula_sum   'Li2 Mn3 Sb4 P3'
_cell_volume   492.16912621
_cell_formula_units_Z   1
loop_
 _symmetry_equiv_pos_site_id
 _symmetry_equiv_pos_as_xyz
  1  'x, y, z'
loop_
 _atom_site_type_symbol
 _atom_site_label
 _atom_site_symmetry_multiplicity
 _atom_site_fract_x
 _atom_site_fract_y
 _atom_site_fract_z
 _atom_site_occupancy
  Mn  Mn0  1  0.12500000  0.00000000  0.25000000  1
  Mn  Mn1  1  0.00000000  0.00000000  0.00000000  1
  Mn  Mn2  1  0.37500000  0.00000000  0.25000000  1
  Sb  Sb3  1  0.25000000  0.25000000  0.25000000  1
  Sb  Sb4  1  0.00000000  0.25000000  0.12500000  1
  Sb  Sb5  1  0.13962216  0.63346923  0.20516705  1
  Sb  Sb6  1  0.41905604  0.17449079  0.32601634  1
  P  P7  1  0.18540830  0.49748782  0.75382151  1
  P  P8  1  0.95536879  0.91469896  0.44343007  1
  P  P9  1  0.97392918  0.68273601  0.23421420  1
  Li  Li10  1  0.97054825  0.51573432  0.31561812  1
  Li  Li11  1  0.04979065  0.97306531  0.64244295  1
