# generated using pymatgen
data_Li2Al3SeO3
_symmetry_space_group_name_H-M   'P 1'
_cell_length_a   7.80099088
_cell_length_b   7.92251243
_cell_length_c   8.09405390
_cell_angle_alpha   90.00000000
_cell_angle_beta   90.00000000
_cell_angle_gamma   90.00000000
_symmetry_Int_Tables_number   1
_chemical_formula_structural   Li2Al3SeO3
_chemical_formula_sum   'Li2 Al3 Se1 O3'
_cell_volume   500.24043260
_cell_formula_units_Z   1
loop_
 _symmetry_equiv_pos_site_id
 _symmetry_equiv_pos_as_xyz
  1  'x, y, z'
loop_
 _atom_site_type_symbol
 _atom_site_label
 _atom_site_symmetry_multiplicity
 _atom_site_fract_x
 _atom_site_fract_y
 _atom_site_fract_z
 _atom_site_occupancy
  Li  Li0  1  0.00000000  0.00000000  0.00000000  1
  Li  Li1  1  0.50000000  0.50000000  0.50000000  1
  Se  Se2  1  0.25000000  0.25000000  0.25000000  1
  Al  Al3  1  0.75000000  0.25000000  0.00000000  1
  Al  Al4  1  0.25000000  0.75000000  0.50000000  1
  Al  Al5  1  0.87014415  0.30277096  0.78069731  1
  O  O6  1  0.23442336  0.65103697  0.66935971  1
  O  O7  1  0.14614542  0.65383520  0.31224426  1
  O  O8  1  0.43566624  0.08473561  0.22345393  1
