# generated using pymatgen
data_Li3TiNi2(As3I2)2
_symmetry_space_group_name_H-M   'P 1'
_cell_length_a   8.12796263
_cell_length_b   7.95714602
_cell_length_c   7.95462554
_cell_angle_alpha   91.01710874
_cell_angle_beta   90.77633189
_cell_angle_gamma   91.17815111
_symmetry_Int_Tables_number   1
_chemical_formula_structural   Li3TiNi2(As3I2)2
_chemical_formula_sum   'Li3 Ti1 Ni2 As6 I4'
_cell_volume   514.22884808
_cell_formula_units_Z   1
loop_
 _symmetry_equiv_pos_site_id
 _symmetry_equiv_pos_as_xyz
  1  'x, y, z'
loop_
 _atom_site_type_symbol
 _atom_site_label
 _atom_site_symmetry_multiplicity
 _atom_site_fract_x
 _atom_site_fract_y
 _atom_site_fract_z
 _atom_site_occupancy
  I  I0  1  0.12500000  0.00000000  0.25000000  1
  I  I1  1  0.00000000  0.00000000  0.00000000  1
  I  I2  1  0.37500000  0.00000000  0.25000000  1
  I  I3  1  0.25000000  0.25000000  0.25000000  1
  Li  Li4  1  0.00000000  0.25000000  0.12500000  1
  Li  Li5  1  0.56961648  0.60385493  0.20279543  1
  Li  Li6  1  0.15984593  0.02675577  0.57195924  1
  Ni  Ni7  1  0.83621951  0.64175219  0.79368049  1
  Ni  Ni8  1  0.00529273  0.61433683  0.89625930  1
  Ti  Ti9  1  0.16818670  0.62944822  0.71318822  1
  As  As10  1  0.09297979  0.94700065  0.39305586  1
  As  As11  1  0.82627570  0.27571000  0.45726480  1
  As  As12  1  0.62730560  0.39875764  0.72201686  1
  As  As13  1  0.39733024  0.00758104  0.92372223  1
  As  As14  1  0.45339978  0.26228295  0.48650308  1
  As  As15  1  0.09902011  0.51427071  0.15184514  1
