# generated using pymatgen
data_Li2LuCu2(As3P2)2
_symmetry_space_group_name_H-M   'P 1'
_cell_length_a   7.44106720
_cell_length_b   6.72145687
_cell_length_c   8.23541871
_cell_angle_alpha   91.03603536
_cell_angle_beta   92.08978857
_cell_angle_gamma   91.13665651
_symmetry_Int_Tables_number   1
_chemical_formula_structural   Li2LuCu2(As3P2)2
_chemical_formula_sum   'Li2 Lu1 Cu2 As6 P4'
_cell_volume   411.46508346
_cell_formula_units_Z   1
loop_
 _symmetry_equiv_pos_site_id
 _symmetry_equiv_pos_as_xyz
  1  'x, y, z'
loop_
 _atom_site_type_symbol
 _atom_site_label
 _atom_site_symmetry_multiplicity
 _atom_site_fract_x
 _atom_site_fract_y
 _atom_site_fract_z
 _atom_site_occupancy
  P  P0  1  0.00000000  0.00000000  0.00000000  1
  P  P1  1  0.50000000  0.50000000  0.50000000  1
  P  P2  1  0.50000000  0.50000000  0.00000000  1
  P  P3  1  0.50000000  0.00000000  0.50000000  1
  Lu  Lu4  1  0.00000000  0.50000000  0.50000000  1
  As  As5  1  0.39636070  0.52654969  0.91399827  1
  As  As6  1  0.05002221  0.54764110  0.27982715  1
  As  As7  1  0.08291871  0.17747983  0.42584622  1
  As  As8  1  0.66746977  0.37477179  0.45674974  1
  As  As9  1  0.11814387  0.52472700  0.79497001  1
  As  As10  1  0.76403703  0.51653820  0.59731197  1
  Li  Li11  1  0.15013288  0.12969445  0.84646373  1
  Li  Li12  1  0.61829214  0.10056761  0.25722660  1
  Cu  Cu13  1  0.43476376  0.87992181  0.65835818  1
  Cu  Cu14  1  0.27950077  0.41411864  0.51896955  1
