# generated using pymatgen
data_Li3Ti(IO)4
_symmetry_space_group_name_H-M   'P 1'
_cell_length_a   8.77757035
_cell_length_b   8.65412570
_cell_length_c   7.63759916
_cell_angle_alpha   90.00000000
_cell_angle_beta   90.00000000
_cell_angle_gamma   90.00000000
_symmetry_Int_Tables_number   1
_chemical_formula_structural   Li3Ti(IO)4
_chemical_formula_sum   'Li3 Ti1 I4 O4'
_cell_volume   580.16881354
_cell_formula_units_Z   1
loop_
 _symmetry_equiv_pos_site_id
 _symmetry_equiv_pos_as_xyz
  1  'x, y, z'
loop_
 _atom_site_type_symbol
 _atom_site_label
 _atom_site_symmetry_multiplicity
 _atom_site_fract_x
 _atom_site_fract_y
 _atom_site_fract_z
 _atom_site_occupancy
  I  I0  1  0.12500000  0.00000000  0.25000000  1
  I  I1  1  0.00000000  0.00000000  0.00000000  1
  I  I2  1  0.37500000  0.00000000  0.25000000  1
  I  I3  1  0.25000000  0.25000000  0.25000000  1
  Li  Li4  1  0.00000000  0.25000000  0.12500000  1
  Li  Li5  1  0.59348538  0.80031172  0.36144713  1
  Li  Li6  1  0.81681949  0.17120617  0.36045209  1
  Ti  Ti7  1  0.92373285  0.42696781  0.89379435  1
  O  O8  1  0.55260146  0.59350460  0.22252922  1
  O  O9  1  0.37159300  0.85355753  0.34200254  1
  O  O10  1  0.80530628  0.13204046  0.06235422  1
  O  O11  1  0.54145193  0.94458712  0.19190924  1
