# generated using pymatgen
data_Li3TiI4N5O4
_symmetry_space_group_name_H-M   'P 1'
_cell_length_a   8.37257040
_cell_length_b   8.16217045
_cell_length_c   7.78693485
_cell_angle_alpha   91.22117940
_cell_angle_beta   90.43173819
_cell_angle_gamma   91.41642027
_symmetry_Int_Tables_number   1
_chemical_formula_structural   Li3TiI4N5O4
_chemical_formula_sum   'Li3 Ti1 I4 N5 O4'
_cell_volume   531.84552475
_cell_formula_units_Z   1
loop_
 _symmetry_equiv_pos_site_id
 _symmetry_equiv_pos_as_xyz
  1  'x, y, z'
loop_
 _atom_site_type_symbol
 _atom_site_label
 _atom_site_symmetry_multiplicity
 _atom_site_fract_x
 _atom_site_fract_y
 _atom_site_fract_z
 _atom_site_occupancy
  I  I0  1  0.00000000  0.00000000  0.00000000  1
  I  I1  1  0.50000000  0.50000000  0.50000000  1
  I  I2  1  0.50000000  0.50000000  0.00000000  1
  I  I3  1  0.50000000  0.00000000  0.50000000  1
  Li  Li4  1  0.00000000  0.50000000  0.50000000  1
  Li  Li5  1  0.91783298  0.89637556  0.33737576  1
  Li  Li6  1  0.96598606  0.44535860  0.17944412  1
  Ti  Ti7  1  0.56238785  0.10429749  0.64444716  1
  O  O8  1  0.75464282  0.20768242  0.86037661  1
  O  O9  1  0.71920485  0.88000598  0.17591006  1
  O  O10  1  0.76000412  0.40810204  0.64355339  1
  O  O11  1  0.51196689  0.60462484  0.70337190  1
  N  N12  1  0.55720310  0.23094631  0.49908887  1
  N  N13  1  0.00442514  0.45652917  0.39281595  1
  N  N14  1  0.02358674  0.95787595  0.78805977  1
  N  N15  1  0.49175828  0.99077737  0.47091026  1
  N  N16  1  0.09071105  0.19778329  0.07449834  1
