# generated using pymatgen
data_LiMnSb4Mo2P3
_symmetry_space_group_name_H-M   'P 1'
_cell_length_a   6.57237478
_cell_length_b   7.09917534
_cell_length_c   7.04748187
_cell_angle_alpha   91.83129206
_cell_angle_beta   91.68038854
_cell_angle_gamma   91.86787957
_symmetry_Int_Tables_number   1
_chemical_formula_structural   LiMnSb4Mo2P3
_chemical_formula_sum   'Li1 Mn1 Sb4 Mo2 P3'
_cell_volume   328.33014469
_cell_formula_units_Z   1
loop_
 _symmetry_equiv_pos_site_id
 _symmetry_equiv_pos_as_xyz
  1  'x, y, z'
loop_
 _atom_site_type_symbol
 _atom_site_label
 _atom_site_symmetry_multiplicity
 _atom_site_fract_x
 _atom_site_fract_y
 _atom_site_fract_z
 _atom_site_occupancy
  Mn  Mn0  1  0.12500000  0.00000000  0.25000000  1
  Sb  Sb1  1  0.00000000  0.00000000  0.00000000  1
  Sb  Sb2  1  0.37500000  0.00000000  0.25000000  1
  Sb  Sb3  1  0.25000000  0.25000000  0.25000000  1
  Sb  Sb4  1  0.00000000  0.25000000  0.12500000  1
  P  P5  1  0.71532875  0.07316824  0.66756561  1
  P  P6  1  0.29840985  0.93123132  0.33298321  1
  P  P7  1  0.56445383  0.54726340  0.02266793  1
  Mo  Mo8  1  0.19024132  0.07558358  0.45471549  1
  Mo  Mo9  1  0.15531439  0.87959032  0.23560687  1
  Li  Li10  1  0.63503813  0.00477490  0.99130895  1
