# generated using pymatgen
data_Li3LuNi2(As3P2)2
_symmetry_space_group_name_H-M   'P 1'
_cell_length_a   7.50067020
_cell_length_b   7.30832733
_cell_length_c   8.64088053
_cell_angle_alpha   92.24559436
_cell_angle_beta   91.50434163
_cell_angle_gamma   92.60193796
_symmetry_Int_Tables_number   1
_chemical_formula_structural   Li3LuNi2(As3P2)2
_chemical_formula_sum   'Li3 Lu1 Ni2 As6 P4'
_cell_volume   472.63201342
_cell_formula_units_Z   1
loop_
 _symmetry_equiv_pos_site_id
 _symmetry_equiv_pos_as_xyz
  1  'x, y, z'
loop_
 _atom_site_type_symbol
 _atom_site_label
 _atom_site_symmetry_multiplicity
 _atom_site_fract_x
 _atom_site_fract_y
 _atom_site_fract_z
 _atom_site_occupancy
  P  P0  1  0.00000000  0.00000000  0.00000000  1
  P  P1  1  0.50000000  0.50000000  0.50000000  1
  P  P2  1  0.25000000  0.25000000  0.25000000  1
  P  P3  1  0.75000000  0.25000000  0.00000000  1
  Lu  Lu4  1  0.25000000  0.75000000  0.50000000  1
  Li  Li5  1  0.84613715  0.54403767  0.43668048  1
  Li  Li6  1  0.04079790  0.76105253  0.75042677  1
  Li  Li7  1  0.45750381  0.89799418  0.08981384  1
  Ni  Ni8  1  0.08457443  0.00079660  0.78362951  1
  Ni  Ni9  1  0.64790386  0.97567349  0.59852884  1
  As  As10  1  0.13974922  0.86329439  0.80006037  1
  As  As11  1  0.51038027  0.01733714  0.86139310  1
  As  As12  1  0.36538861  0.84204327  0.55021913  1
  As  As13  1  0.59119481  0.43850336  0.47895156  1
  As  As14  1  0.99398227  0.57280847  0.35666842  1
  As  As15  1  0.68365265  0.38407181  0.60134655  1
