# generated using pymatgen
data_Li3TiAl2Sb
_symmetry_space_group_name_H-M   'P 1'
_cell_length_a   6.91463024
_cell_length_b   6.83288716
_cell_length_c   6.80255117
_cell_angle_alpha   90.23483463
_cell_angle_beta   90.83135558
_cell_angle_gamma   90.63671718
_symmetry_Int_Tables_number   1
_chemical_formula_structural   Li3TiAl2Sb
_chemical_formula_sum   'Li3 Ti1 Al2 Sb1'
_cell_volume   321.34278226
_cell_formula_units_Z   1
loop_
 _symmetry_equiv_pos_site_id
 _symmetry_equiv_pos_as_xyz
  1  'x, y, z'
loop_
 _atom_site_type_symbol
 _atom_site_label
 _atom_site_symmetry_multiplicity
 _atom_site_fract_x
 _atom_site_fract_y
 _atom_site_fract_z
 _atom_site_occupancy
  Al  Al0  1  0.12500000  0.00000000  0.25000000  1
  Al  Al1  1  0.00000000  0.00000000  0.00000000  1
  Ti  Ti2  1  0.37500000  0.00000000  0.25000000  1
  Sb  Sb3  1  0.25000000  0.25000000  0.25000000  1
  Li  Li4  1  0.00000000  0.25000000  0.12500000  1
  Li  Li5  1  0.41854028  0.95042517  0.58817279  1
  Li  Li6  1  0.30103775  0.36878815  0.86752453  1
