# generated using pymatgen
data_Li3Zn2(Te2O)3
_symmetry_space_group_name_H-M   'P 1'
_cell_length_a   8.21365796
_cell_length_b   8.70463724
_cell_length_c   7.08382216
_cell_angle_alpha   90.00000000
_cell_angle_beta   90.00000000
_cell_angle_gamma   90.00000000
_symmetry_Int_Tables_number   1
_chemical_formula_structural   Li3Zn2(Te2O)3
_chemical_formula_sum   'Li3 Zn2 Te6 O3'
_cell_volume   506.47141571
_cell_formula_units_Z   1
loop_
 _symmetry_equiv_pos_site_id
 _symmetry_equiv_pos_as_xyz
  1  'x, y, z'
loop_
 _atom_site_type_symbol
 _atom_site_label
 _atom_site_symmetry_multiplicity
 _atom_site_fract_x
 _atom_site_fract_y
 _atom_site_fract_z
 _atom_site_occupancy
  Li  Li0  1  0.00000000  0.00000000  0.00000000  1
  Li  Li1  1  0.33300000  0.66700000  0.25000000  1
  Li  Li2  1  0.66700000  0.33300000  0.50000000  1
  Zn  Zn3  1  0.00000000  0.00000000  0.75000000  1
  Zn  Zn4  1  0.67916052  0.73686983  0.63083925  1
  Te  Te5  1  0.76484061  0.97865428  0.29664908  1
  Te  Te6  1  0.15871740  0.51913235  0.49270887  1
  Te  Te7  1  0.46680937  0.93487642  0.54270399  1
  Te  Te8  1  0.74802894  0.65045461  0.31448067  1
  Te  Te9  1  0.63151110  0.74123039  0.32870180  1
  Te  Te10  1  0.52502827  0.88028396  0.57074544  1
  O  O11  1  0.39672768  0.83912462  0.42194632  1
  O  O12  1  0.78552994  0.94022675  0.19504482  1
  O  O13  1  0.06132169  0.93248558  0.31728031  1
