# generated using pymatgen
data_Li3(As3I2)2
_symmetry_space_group_name_H-M   'P 1'
_cell_length_a   7.70505358
_cell_length_b   7.49136603
_cell_length_c   8.47407944
_cell_angle_alpha   92.23436758
_cell_angle_beta   91.23017433
_cell_angle_gamma   92.58993541
_symmetry_Int_Tables_number   1
_chemical_formula_structural   Li3(As3I2)2
_chemical_formula_sum   'Li3 As6 I4'
_cell_volume   488.13214795
_cell_formula_units_Z   1
loop_
 _symmetry_equiv_pos_site_id
 _symmetry_equiv_pos_as_xyz
  1  'x, y, z'
loop_
 _atom_site_type_symbol
 _atom_site_label
 _atom_site_symmetry_multiplicity
 _atom_site_fract_x
 _atom_site_fract_y
 _atom_site_fract_z
 _atom_site_occupancy
  I  I0  1  0.12500000  0.12500000  0.12500000  1
  I  I1  1  0.50000000  0.50000000  0.50000000  1
  I  I2  1  0.25000000  0.25000000  0.25000000  1
  I  I3  1  0.75000000  0.75000000  0.75000000  1
  Li  Li4  1  0.57471453  0.33363545  0.43109748  1
  Li  Li5  1  0.29833609  0.28450258  0.58778362  1
  Li  Li6  1  0.92366084  0.92048557  0.61679042  1
  As  As7  1  0.47581948  0.96020253  0.90588847  1
  As  As8  1  0.00974842  0.58635593  0.65661262  1
  As  As9  1  0.82404675  0.56866590  0.25288155  1
  As  As10  1  0.74661436  0.20730766  0.66496108  1
  As  As11  1  0.03099872  0.74638867  0.08581251  1
  As  As12  1  0.80806666  0.51349210  0.28026532  1
