# generated using pymatgen
data_Li2TiP5F2
_symmetry_space_group_name_H-M   'P 1'
_cell_length_a   7.30786791
_cell_length_b   6.95053312
_cell_length_c   7.52581756
_cell_angle_alpha   92.32877191
_cell_angle_beta   93.31491245
_cell_angle_gamma   92.32839039
_symmetry_Int_Tables_number   1
_chemical_formula_structural   Li2TiP5F2
_chemical_formula_sum   'Li2 Ti1 P5 F2'
_cell_volume   380.95435742
_cell_formula_units_Z   1
loop_
 _symmetry_equiv_pos_site_id
 _symmetry_equiv_pos_as_xyz
  1  'x, y, z'
loop_
 _atom_site_type_symbol
 _atom_site_label
 _atom_site_symmetry_multiplicity
 _atom_site_fract_x
 _atom_site_fract_y
 _atom_site_fract_z
 _atom_site_occupancy
  P  P0  1  0.12500000  0.12500000  0.12500000  1
  P  P1  1  0.50000000  0.50000000  0.50000000  1
  P  P2  1  0.25000000  0.25000000  0.25000000  1
  P  P3  1  0.75000000  0.75000000  0.75000000  1
  P  P4  1  0.78047246  0.01378018  0.17278980  1
  Li  Li5  1  0.94634749  0.67111480  0.19565290  1
  Li  Li6  1  0.07128549  0.99664262  0.73148947  1
  F  F7  1  0.12165903  0.34664512  0.61168308  1
  F  F8  1  0.54786749  0.70997444  0.22243738  1
  Ti  Ti9  1  0.03659132  0.93068579  0.03566581  1
