# generated using pymatgen
data_Li2MnMo2P3
_symmetry_space_group_name_H-M   'P 1'
_cell_length_a   5.28093956
_cell_length_b   5.63558876
_cell_length_c   6.73517189
_cell_angle_alpha   98.58537866
_cell_angle_beta   93.75068984
_cell_angle_gamma   98.87722025
_symmetry_Int_Tables_number   1
_chemical_formula_structural   Li2MnMo2P3
_chemical_formula_sum   'Li2 Mn1 Mo2 P3'
_cell_volume   195.02225160
_cell_formula_units_Z   1
loop_
 _symmetry_equiv_pos_site_id
 _symmetry_equiv_pos_as_xyz
  1  'x, y, z'
loop_
 _atom_site_type_symbol
 _atom_site_label
 _atom_site_symmetry_multiplicity
 _atom_site_fract_x
 _atom_site_fract_y
 _atom_site_fract_z
 _atom_site_occupancy
  Mn  Mn0  1  0.12500000  0.12500000  0.12500000  1
  P  P1  1  0.50000000  0.50000000  0.50000000  1
  P  P2  1  0.25000000  0.25000000  0.25000000  1
  P  P3  1  0.75000000  0.75000000  0.75000000  1
  Mo  Mo4  1  0.58316751  0.42086394  0.98185534  1
  Mo  Mo5  1  0.00658889  0.43968739  0.15704054  1
  Li  Li6  1  0.00925121  0.00751474  0.10433991  1
  Li  Li7  1  0.31816579  0.05480275  0.89437244  1
