# generated using pymatgen
data_Li2Mn2Sb4P2N
_symmetry_space_group_name_H-M   'P 1'
_cell_length_a   5.58546247
_cell_length_b   6.05658121
_cell_length_c   6.82846619
_cell_angle_alpha   97.02327891
_cell_angle_beta   97.20567681
_cell_angle_gamma   95.29357850
_symmetry_Int_Tables_number   1
_chemical_formula_structural   Li2Mn2Sb4P2N
_chemical_formula_sum   'Li2 Mn2 Sb4 P2 N1'
_cell_volume   226.09286975
_cell_formula_units_Z   1
loop_
 _symmetry_equiv_pos_site_id
 _symmetry_equiv_pos_as_xyz
  1  'x, y, z'
loop_
 _atom_site_type_symbol
 _atom_site_label
 _atom_site_symmetry_multiplicity
 _atom_site_fract_x
 _atom_site_fract_y
 _atom_site_fract_z
 _atom_site_occupancy
  N  N0  1  0.00000000  0.00000000  0.00000000  1
  Mn  Mn1  1  0.50000000  0.50000000  0.50000000  1
  Mn  Mn2  1  0.50000000  0.50000000  0.00000000  1
  Sb  Sb3  1  0.50000000  0.00000000  0.50000000  1
  Sb  Sb4  1  0.00000000  0.50000000  0.50000000  1
  Sb  Sb5  1  0.42836289  0.20849278  0.69500928  1
  Sb  Sb6  1  0.34295278  0.29782605  0.20735479  1
  P  P7  1  0.79198851  0.78008757  0.22297006  1
  P  P8  1  0.65312815  0.23656960  0.33050351  1
  Li  Li9  1  0.31563860  0.60183268  0.95692232  1
  Li  Li10  1  0.07611910  0.77234461  0.89342061  1
