# generated using pymatgen
data_LiCuNiAs3
_symmetry_space_group_name_H-M   'P 1'
_cell_length_a   7.54659600
_cell_length_b   7.55595989
_cell_length_c   8.45338983
_cell_angle_alpha   91.04589394
_cell_angle_beta   91.82860776
_cell_angle_gamma   91.20760779
_symmetry_Int_Tables_number   1
_chemical_formula_structural   LiCuNiAs3
_chemical_formula_sum   'Li2 Cu2 Ni2 As6'
_cell_volume   481.58843096
_cell_formula_units_Z   2
loop_
 _symmetry_equiv_pos_site_id
 _symmetry_equiv_pos_as_xyz
  1  'x, y, z'
loop_
 _atom_site_type_symbol
 _atom_site_label
 _atom_site_symmetry_multiplicity
 _atom_site_fract_x
 _atom_site_fract_y
 _atom_site_fract_z
 _atom_site_occupancy
  Li  Li0  1  0.12500000  0.12500000  0.12500000  1
  Li  Li1  1  0.50000000  0.50000000  0.50000000  1
  Cu  Cu2  1  0.25000000  0.25000000  0.25000000  1
  Cu  Cu3  1  0.75000000  0.75000000  0.75000000  1
  Ni  Ni4  1  0.23106683  0.22826252  0.52181714  1
  Ni  Ni5  1  0.56317758  0.94782413  0.65744569  1
  As  As6  1  0.62380038  0.24282849  0.31203384  1
  As  As7  1  0.07959875  0.25793637  0.88431178  1
  As  As8  1  0.97684030  0.15984365  0.48423826  1
  As  As9  1  0.78163405  0.31840601  0.30240819  1
  As  As10  1  0.14290960  0.78676266  0.89341473  1
  As  As11  1  0.90890962  0.98929517  0.18863163  1
