# generated using pymatgen
data_Li3Ti(IO)4
_symmetry_space_group_name_H-M   'P 1'
_cell_length_a   8.72919421
_cell_length_b   8.87405839
_cell_length_c   7.32809921
_cell_angle_alpha   90.00000000
_cell_angle_beta   90.00000000
_cell_angle_gamma   90.00000000
_symmetry_Int_Tables_number   1
_chemical_formula_structural   Li3Ti(IO)4
_chemical_formula_sum   'Li3 Ti1 I4 O4'
_cell_volume   567.65932778
_cell_formula_units_Z   1
loop_
 _symmetry_equiv_pos_site_id
 _symmetry_equiv_pos_as_xyz
  1  'x, y, z'
loop_
 _atom_site_type_symbol
 _atom_site_label
 _atom_site_symmetry_multiplicity
 _atom_site_fract_x
 _atom_site_fract_y
 _atom_site_fract_z
 _atom_site_occupancy
  I  I0  1  0.00000000  0.00000000  0.00000000  1
  I  I1  1  0.50000000  0.50000000  0.50000000  1
  I  I2  1  0.50000000  0.50000000  0.00000000  1
  I  I3  1  0.50000000  0.00000000  0.50000000  1
  Li  Li4  1  0.00000000  0.50000000  0.50000000  1
  Li  Li5  1  0.68887614  0.15840634  0.77338258  1
  Li  Li6  1  0.44584788  0.05931919  0.93562339  1
  Ti  Ti7  1  0.57158762  0.47139870  0.24789897  1
  O  O8  1  0.15067362  0.05206764  0.97731022  1
  O  O9  1  0.56813597  0.14637361  0.96694054  1
  O  O10  1  0.16871728  0.16171439  0.91856451  1
  O  O11  1  0.94520198  0.13156460  0.13443144  1
