# generated using pymatgen
data_Li3Zn2Te6(IO)4
_symmetry_space_group_name_H-M   'P 1'
_cell_length_a   8.59417627
_cell_length_b   9.08415372
_cell_length_c   7.23980888
_cell_angle_alpha   90.00000000
_cell_angle_beta   90.00000000
_cell_angle_gamma   90.00000000
_symmetry_Int_Tables_number   1
_chemical_formula_structural   Li3Zn2Te6(IO)4
_chemical_formula_sum   'Li3 Zn2 Te6 I4 O4'
_cell_volume   565.21780327
_cell_formula_units_Z   1
loop_
 _symmetry_equiv_pos_site_id
 _symmetry_equiv_pos_as_xyz
  1  'x, y, z'
loop_
 _atom_site_type_symbol
 _atom_site_label
 _atom_site_symmetry_multiplicity
 _atom_site_fract_x
 _atom_site_fract_y
 _atom_site_fract_z
 _atom_site_occupancy
  I  I0  1  0.00000000  0.00000000  0.00000000  1
  I  I1  1  0.50000000  0.50000000  0.50000000  1
  I  I2  1  0.25000000  0.25000000  0.25000000  1
  I  I3  1  0.75000000  0.25000000  0.00000000  1
  Li  Li4  1  0.25000000  0.75000000  0.50000000  1
  Li  Li5  1  0.34605944  0.59595877  0.15302802  1
  Li  Li6  1  0.13348312  0.32183625  0.53931939  1
  Zn  Zn7  1  0.39831594  0.25611252  0.90174644  1
  Zn  Zn8  1  0.95155167  0.43155564  0.68342032  1
  Te  Te9  1  0.19954440  0.87526799  0.93611182  1
  Te  Te10  1  0.76574784  0.36558192  0.59092048  1
  Te  Te11  1  0.03125356  0.89087404  0.65078533  1
  Te  Te12  1  0.89474603  0.52604748  0.64595309  1
  Te  Te13  1  0.57852619  0.85963524  0.21514490  1
  Te  Te14  1  0.41788651  0.15191985  0.40367837  1
  O  O15  1  0.49183666  0.14946923  0.44066442  1
  O  O16  1  0.14941020  0.23994754  0.05917866  1
  O  O17  1  0.90609911  0.83716886  0.07245402  1
  O  O18  1  0.85165255  0.22885767  0.05372344  1
