# generated using pymatgen
data_Li2Mn2Sb4P3
_symmetry_space_group_name_H-M   'P 1'
_cell_length_a   4.97597485
_cell_length_b   5.16809148
_cell_length_c   6.79490123
_cell_angle_alpha   99.35477563
_cell_angle_beta   95.90763560
_cell_angle_gamma   99.96529250
_symmetry_Int_Tables_number   1
_chemical_formula_structural   Li2Mn2Sb4P3
_chemical_formula_sum   'Li2 Mn2 Sb4 P3'
_cell_volume   168.26329106
_cell_formula_units_Z   1
loop_
 _symmetry_equiv_pos_site_id
 _symmetry_equiv_pos_as_xyz
  1  'x, y, z'
loop_
 _atom_site_type_symbol
 _atom_site_label
 _atom_site_symmetry_multiplicity
 _atom_site_fract_x
 _atom_site_fract_y
 _atom_site_fract_z
 _atom_site_occupancy
  Mn  Mn0  1  0.12500000  0.00000000  0.25000000  1
  Mn  Mn1  1  0.00000000  0.00000000  0.00000000  1
  Sb  Sb2  1  0.37500000  0.00000000  0.25000000  1
  Sb  Sb3  1  0.25000000  0.25000000  0.25000000  1
  Sb  Sb4  1  0.00000000  0.25000000  0.12500000  1
  Sb  Sb5  1  0.33240880  0.89364515  0.15959601  1
  P  P6  1  0.73110331  0.44551466  0.37288673  1
  P  P7  1  0.99754974  0.33575274  0.70543667  1
  P  P8  1  0.91504794  0.81064385  0.61807256  1
  Li  Li9  1  0.02180951  0.29400125  0.74801166  1
  Li  Li10  1  0.99511264  0.65170423  0.61777970  1
