# generated using pymatgen
data_LiSe3(BrO)3
_symmetry_space_group_name_H-M   'P 1'
_cell_length_a   7.75889028
_cell_length_b   7.32629532
_cell_length_c   7.23401422
_cell_angle_alpha   90.00000000
_cell_angle_beta   90.00000000
_cell_angle_gamma   90.00000000
_symmetry_Int_Tables_number   1
_chemical_formula_structural   LiSe3(BrO)3
_chemical_formula_sum   'Li1 Se3 Br3 O3'
_cell_volume   411.20973691
_cell_formula_units_Z   1
loop_
 _symmetry_equiv_pos_site_id
 _symmetry_equiv_pos_as_xyz
  1  'x, y, z'
loop_
 _atom_site_type_symbol
 _atom_site_label
 _atom_site_symmetry_multiplicity
 _atom_site_fract_x
 _atom_site_fract_y
 _atom_site_fract_z
 _atom_site_occupancy
  Li  Li0  1  0.12500000  0.12500000  0.12500000  1
  Br  Br1  1  0.50000000  0.50000000  0.50000000  1
  Br  Br2  1  0.25000000  0.25000000  0.25000000  1
  Br  Br3  1  0.75000000  0.75000000  0.75000000  1
  Se  Se4  1  0.86330954  0.32887983  0.06346259  1
  Se  Se5  1  0.89503557  0.36339665  0.13168634  1
  Se  Se6  1  0.80755976  0.92463970  0.62896003  1
  O  O7  1  0.12794559  0.71652213  0.04848623  1
  O  O8  1  0.39943373  0.53535910  0.49061224  1
  O  O9  1  0.69054737  0.22841464  0.70455115  1
