# generated using pymatgen
data_LiTi2P6S3F2
_symmetry_space_group_name_H-M   'P 1'
_cell_length_a   6.57831519
_cell_length_b   6.48292959
_cell_length_c   7.48630178
_cell_angle_alpha   91.19490723
_cell_angle_beta   95.68500570
_cell_angle_gamma   91.36609803
_symmetry_Int_Tables_number   1
_chemical_formula_structural   LiTi2P6S3F2
_chemical_formula_sum   'Li1 Ti2 P6 S3 F2'
_cell_volume   317.51937466
_cell_formula_units_Z   1
loop_
 _symmetry_equiv_pos_site_id
 _symmetry_equiv_pos_as_xyz
  1  'x, y, z'
loop_
 _atom_site_type_symbol
 _atom_site_label
 _atom_site_symmetry_multiplicity
 _atom_site_fract_x
 _atom_site_fract_y
 _atom_site_fract_z
 _atom_site_occupancy
  P  P0  1  0.12500000  0.00000000  0.25000000  1
  P  P1  1  0.00000000  0.00000000  0.00000000  1
  P  P2  1  0.37500000  0.00000000  0.25000000  1
  P  P3  1  0.25000000  0.25000000  0.25000000  1
  P  P4  1  0.00000000  0.25000000  0.12500000  1
  P  P5  1  0.94171888  0.51815706  0.19504127  1
  Li  Li6  1  0.77697976  0.97763304  0.01447886  1
  F  F7  1  0.50508738  0.84858099  0.41916706  1
  F  F8  1  0.41428213  0.57376531  0.54740769  1
  S  S9  1  0.73592510  0.94522166  0.85417711  1
  S  S10  1  0.83328742  0.10888028  0.20572264  1
  S  S11  1  0.08643510  0.75157907  0.46685280  1
  Ti  Ti12  1  0.45293293  0.67130858  0.63207295  1
  Ti  Ti13  1  0.72636336  0.94499707  0.15860598  1
