# generated using pymatgen
data_LiTiNiAs3F
_symmetry_space_group_name_H-M   'P 1'
_cell_length_a   8.10524539
_cell_length_b   7.85760458
_cell_length_c   8.43150548
_cell_angle_alpha   90.84992326
_cell_angle_beta   90.92648012
_cell_angle_gamma   90.98344691
_symmetry_Int_Tables_number   1
_chemical_formula_structural   LiTiNiAs3F
_chemical_formula_sum   'Li2 Ti2 Ni2 As6 F2'
_cell_volume   536.77352684
_cell_formula_units_Z   2
loop_
 _symmetry_equiv_pos_site_id
 _symmetry_equiv_pos_as_xyz
  1  'x, y, z'
loop_
 _atom_site_type_symbol
 _atom_site_label
 _atom_site_symmetry_multiplicity
 _atom_site_fract_x
 _atom_site_fract_y
 _atom_site_fract_z
 _atom_site_occupancy
  Li  Li0  1  0.00000000  0.00000000  0.00000000  1
  Li  Li1  1  0.50000000  0.50000000  0.50000000  1
  F  F2  1  0.50000000  0.50000000  0.00000000  1
  F  F3  1  0.50000000  0.00000000  0.50000000  1
  Ni  Ni4  1  0.00000000  0.50000000  0.50000000  1
  Ni  Ni5  1  0.63473304  0.42441252  0.62939761  1
  Ti  Ti6  1  0.70307181  0.44355463  0.42177628  1
  Ti  Ti7  1  0.33305537  0.03974023  0.64673473  1
  As  As8  1  0.85750465  0.15457652  0.34190091  1
  As  As9  1  0.38776409  0.61214868  0.24651282  1
  As  As10  1  0.40767074  0.32624084  0.20578751  1
  As  As11  1  0.13902406  0.44237264  0.59870654  1
  As  As12  1  0.34170577  0.20641144  0.69976601  1
  As  As13  1  0.43558575  0.10667855  0.88361311  1
