# generated using pymatgen
data_LiNi3Sb4P3
_symmetry_space_group_name_H-M   'P 1'
_cell_length_a   4.88814612
_cell_length_b   4.89639023
_cell_length_c   6.76499917
_cell_angle_alpha   96.53183028
_cell_angle_beta   96.21255587
_cell_angle_gamma   96.89000139
_symmetry_Int_Tables_number   1
_chemical_formula_structural   LiNi3Sb4P3
_chemical_formula_sum   'Li1 Ni3 Sb4 P3'
_cell_volume   158.47895685
_cell_formula_units_Z   1
loop_
 _symmetry_equiv_pos_site_id
 _symmetry_equiv_pos_as_xyz
  1  'x, y, z'
loop_
 _atom_site_type_symbol
 _atom_site_label
 _atom_site_symmetry_multiplicity
 _atom_site_fract_x
 _atom_site_fract_y
 _atom_site_fract_z
 _atom_site_occupancy
  Sb  Sb0  1  0.12500000  0.12500000  0.12500000  1
  Sb  Sb1  1  0.50000000  0.50000000  0.50000000  1
  Sb  Sb2  1  0.25000000  0.25000000  0.25000000  1
  Sb  Sb3  1  0.75000000  0.75000000  0.75000000  1
  P  P4  1  0.61239916  0.71699353  0.82809677  1
  P  P5  1  0.60333356  0.11032428  0.88297619  1
  P  P6  1  0.69320719  0.86637479  0.78597969  1
  Li  Li7  1  0.10234566  0.82541085  0.88895376  1
  Ni  Ni8  1  0.50549898  0.45563723  0.14669136  1
  Ni  Ni9  1  0.03173579  0.30717178  0.89116303  1
  Ni  Ni10  1  0.82898815  0.41099853  0.92028700  1
