# generated using pymatgen
data_Li2TiCu2P4O
_symmetry_space_group_name_H-M   'P 1'
_cell_length_a   7.16703226
_cell_length_b   6.98121484
_cell_length_c   7.24502944
_cell_angle_alpha   92.14513280
_cell_angle_beta   93.32057992
_cell_angle_gamma   91.99428502
_symmetry_Int_Tables_number   1
_chemical_formula_structural   Li2TiCu2P4O
_chemical_formula_sum   'Li2 Ti1 Cu2 P4 O1'
_cell_volume   361.39149227
_cell_formula_units_Z   1
loop_
 _symmetry_equiv_pos_site_id
 _symmetry_equiv_pos_as_xyz
  1  'x, y, z'
loop_
 _atom_site_type_symbol
 _atom_site_label
 _atom_site_symmetry_multiplicity
 _atom_site_fract_x
 _atom_site_fract_y
 _atom_site_fract_z
 _atom_site_occupancy
  P  P0  1  0.00000000  0.00000000  0.00000000  1
  P  P1  1  0.50000000  0.50000000  0.50000000  1
  P  P2  1  0.50000000  0.50000000  0.00000000  1
  P  P3  1  0.50000000  0.00000000  0.50000000  1
  Li  Li4  1  0.00000000  0.50000000  0.50000000  1
  Li  Li5  1  0.27460554  0.66081778  0.15614194  1
  Cu  Cu6  1  0.48568221  0.70817945  0.97269860  1
  Cu  Cu7  1  0.57244198  0.45411606  0.90116957  1
  Ti  Ti8  1  0.58521955  0.32372605  0.21760780  1
  O  O9  1  0.04896330  0.58911682  0.49110388  1
