# generated using pymatgen
data_LiSb2MoP
_symmetry_space_group_name_H-M   'P 1'
_cell_length_a   4.51945596
_cell_length_b   4.81770235
_cell_length_c   6.49129046
_cell_angle_alpha   100.98433697
_cell_angle_beta   97.43897211
_cell_angle_gamma   100.31152040
_symmetry_Int_Tables_number   1
_chemical_formula_structural   LiSb2MoP
_chemical_formula_sum   'Li2 Sb4 Mo2 P2'
_cell_volume   134.53504745
_cell_formula_units_Z   2
loop_
 _symmetry_equiv_pos_site_id
 _symmetry_equiv_pos_as_xyz
  1  'x, y, z'
loop_
 _atom_site_type_symbol
 _atom_site_label
 _atom_site_symmetry_multiplicity
 _atom_site_fract_x
 _atom_site_fract_y
 _atom_site_fract_z
 _atom_site_occupancy
  Sb  Sb0  1  0.12500000  0.12500000  0.12500000  1
  Sb  Sb1  1  0.50000000  0.50000000  0.50000000  1
  Sb  Sb2  1  0.25000000  0.25000000  0.25000000  1
  Sb  Sb3  1  0.75000000  0.75000000  0.75000000  1
  P  P4  1  0.25700486  0.50034722  0.35412897  1
  P  P5  1  0.27597923  0.41303946  0.81365503  1
  Mo  Mo6  1  0.94193701  0.95705103  0.12745001  1
  Mo  Mo7  1  0.80091944  0.09442232  0.49865246  1
  Li  Li8  1  0.14373416  0.12079390  0.08189231  1
  Li  Li9  1  0.85485574  0.85065747  0.88235103  1
