# generated using pymatgen
data_LiMn2Sb4P3
_symmetry_space_group_name_H-M   'P 1'
_cell_length_a   5.25365007
_cell_length_b   5.57907032
_cell_length_c   6.57655405
_cell_angle_alpha   93.31322264
_cell_angle_beta   94.43606298
_cell_angle_gamma   94.11230067
_symmetry_Int_Tables_number   1
_chemical_formula_structural   LiMn2Sb4P3
_chemical_formula_sum   'Li1 Mn2 Sb4 P3'
_cell_volume   191.30046949
_cell_formula_units_Z   1
loop_
 _symmetry_equiv_pos_site_id
 _symmetry_equiv_pos_as_xyz
  1  'x, y, z'
loop_
 _atom_site_type_symbol
 _atom_site_label
 _atom_site_symmetry_multiplicity
 _atom_site_fract_x
 _atom_site_fract_y
 _atom_site_fract_z
 _atom_site_occupancy
  Mn  Mn0  1  0.00000000  0.00000000  0.00000000  1
  Mn  Mn1  1  0.50000000  0.50000000  0.50000000  1
  Sb  Sb2  1  0.50000000  0.50000000  0.00000000  1
  Sb  Sb3  1  0.50000000  0.00000000  0.50000000  1
  Sb  Sb4  1  0.00000000  0.50000000  0.50000000  1
  Sb  Sb5  1  0.79863952  0.64760169  0.09483334  1
  P  P6  1  0.99425736  0.84710107  0.74979719  1
  P  P7  1  0.33816965  0.08728416  0.06684402  1
  P  P8  1  0.86100814  0.79028313  0.38116174  1
  Li  Li9  1  0.85871527  0.36972039  0.31335298  1
