# generated using pymatgen
data_Li3Zn2Te6(IO)4
_symmetry_space_group_name_H-M   'P 1'
_cell_length_a   8.71614776
_cell_length_b   8.89435938
_cell_length_c   7.31956794
_cell_angle_alpha   90.00000000
_cell_angle_beta   90.00000000
_cell_angle_gamma   90.00000000
_symmetry_Int_Tables_number   1
_chemical_formula_structural   Li3Zn2Te6(IO)4
_chemical_formula_sum   'Li3 Zn2 Te6 I4 O4'
_cell_volume   567.44621515
_cell_formula_units_Z   1
loop_
 _symmetry_equiv_pos_site_id
 _symmetry_equiv_pos_as_xyz
  1  'x, y, z'
loop_
 _atom_site_type_symbol
 _atom_site_label
 _atom_site_symmetry_multiplicity
 _atom_site_fract_x
 _atom_site_fract_y
 _atom_site_fract_z
 _atom_site_occupancy
  I  I0  1  0.00000000  0.00000000  0.00000000  1
  I  I1  1  0.50000000  0.50000000  0.50000000  1
  I  I2  1  0.50000000  0.50000000  0.00000000  1
  I  I3  1  0.50000000  0.00000000  0.50000000  1
  Li  Li4  1  0.00000000  0.50000000  0.50000000  1
  Li  Li5  1  0.94439349  0.09941016  0.76896548  1
  Li  Li6  1  0.16597912  0.87568723  0.30473878  1
  Zn  Zn7  1  0.80943872  0.64292626  0.36494538  1
  Zn  Zn8  1  0.04913222  0.12818639  0.57463517  1
  Te  Te9  1  0.35740146  0.70483097  0.98433447  1
  Te  Te10  1  0.12204456  0.49550722  0.84796882  1
  Te  Te11  1  0.38273398  0.28645949  0.45025526  1
  Te  Te12  1  0.95365071  0.55647181  0.34151322  1
  Te  Te13  1  0.10904177  0.86556953  0.94016668  1
  Te  Te14  1  0.33644147  0.13628458  0.61760154  1
  O  O15  1  0.44035771  0.85948980  0.76639485  1
  O  O16  1  0.12902030  0.15241725  0.53431901  1
  O  O17  1  0.33961417  0.78877726  0.05415857  1
  O  O18  1  0.22896814  0.92266728  0.33962968  1
