# generated using pymatgen
data_LiTi2O
_symmetry_space_group_name_H-M   'P 1'
_cell_length_a   7.24391753
_cell_length_b   6.99324279
_cell_length_c   6.25370722
_cell_angle_alpha   90.32409088
_cell_angle_beta   89.26043055
_cell_angle_gamma   89.14581554
_symmetry_Int_Tables_number   1
_chemical_formula_structural   LiTi2O
_chemical_formula_sum   'Li1 Ti2 O1'
_cell_volume   316.73625064
_cell_formula_units_Z   1
loop_
 _symmetry_equiv_pos_site_id
 _symmetry_equiv_pos_as_xyz
  1  'x, y, z'
loop_
 _atom_site_type_symbol
 _atom_site_label
 _atom_site_symmetry_multiplicity
 _atom_site_fract_x
 _atom_site_fract_y
 _atom_site_fract_z
 _atom_site_occupancy
  Li  Li0  1  0.00000000  0.00000000  0.00000000  1
  O  O1  1  0.50000000  0.50000000  0.50000000  1
  Ti  Ti2  1  0.25000000  0.25000000  0.25000000  1
  Ti  Ti3  1  0.75000000  0.25000000  0.00000000  1
