# generated using pymatgen
data_LiMn2Mo2P3
_symmetry_space_group_name_H-M   'P 1'
_cell_length_a   5.19168860
_cell_length_b   5.45722929
_cell_length_c   6.31248070
_cell_angle_alpha   99.40364869
_cell_angle_beta   91.18832140
_cell_angle_gamma   99.21208619
_symmetry_Int_Tables_number   1
_chemical_formula_structural   LiMn2Mo2P3
_chemical_formula_sum   'Li1 Mn2 Mo2 P3'
_cell_volume   173.96556919
_cell_formula_units_Z   1
loop_
 _symmetry_equiv_pos_site_id
 _symmetry_equiv_pos_as_xyz
  1  'x, y, z'
loop_
 _atom_site_type_symbol
 _atom_site_label
 _atom_site_symmetry_multiplicity
 _atom_site_fract_x
 _atom_site_fract_y
 _atom_site_fract_z
 _atom_site_occupancy
  Mn  Mn0  1  0.00000000  0.00000000  0.00000000  1
  Mn  Mn1  1  0.50000000  0.50000000  0.50000000  1
  P  P2  1  0.25000000  0.25000000  0.25000000  1
  P  P3  1  0.75000000  0.25000000  0.00000000  1
  P  P4  1  0.25000000  0.75000000  0.50000000  1
  Mo  Mo5  1  0.58773394  0.36274180  0.87528384  1
  Mo  Mo6  1  0.06012015  0.59557079  0.01576603  1
  Li  Li7  1  0.95473135  0.88433111  0.47206098  1
