# generated using pymatgen
data_Li2Cu2As6N5
_symmetry_space_group_name_H-M   'P 1'
_cell_length_a   7.85907928
_cell_length_b   7.78313394
_cell_length_c   8.22148045
_cell_angle_alpha   91.29644935
_cell_angle_beta   91.31087513
_cell_angle_gamma   91.50050868
_symmetry_Int_Tables_number   1
_chemical_formula_structural   Li2Cu2As6N5
_chemical_formula_sum   'Li2 Cu2 As6 N5'
_cell_volume   502.45396831
_cell_formula_units_Z   1
loop_
 _symmetry_equiv_pos_site_id
 _symmetry_equiv_pos_as_xyz
  1  'x, y, z'
loop_
 _atom_site_type_symbol
 _atom_site_label
 _atom_site_symmetry_multiplicity
 _atom_site_fract_x
 _atom_site_fract_y
 _atom_site_fract_z
 _atom_site_occupancy
  As  As0  1  0.00000000  0.00000000  0.00000000  1
  As  As1  1  0.33300000  0.66700000  0.25000000  1
  As  As2  1  0.66700000  0.33300000  0.50000000  1
  As  As3  1  0.00000000  0.00000000  0.75000000  1
  As  As4  1  0.05963531  0.78111475  0.85685563  1
  As  As5  1  0.30143010  0.14631064  0.41719372  1
  Li  Li6  1  0.02622489  0.33969739  0.65515684  1
  Li  Li7  1  0.99410319  0.10455767  0.18492703  1
  N  N8  1  0.87343618  0.97320663  0.24712442  1
  N  N9  1  0.45775931  0.14356056  0.03483066  1
  N  N10  1  0.94721100  0.31224132  0.34564419  1
  N  N11  1  0.59392047  0.18341748  0.97512500  1
  N  N12  1  0.53091438  0.85322805  0.60404950  1
  Cu  Cu13  1  0.53058856  0.69459992  0.41822788  1
  Cu  Cu14  1  0.64555132  0.68130661  0.14085646  1
