# generated using pymatgen
data_Li4TiS2
_symmetry_space_group_name_H-M   'P 1'
_cell_length_a   5.16539474
_cell_length_b   4.78038792
_cell_length_c   6.91710571
_cell_angle_alpha   99.87829660
_cell_angle_beta   100.82692439
_cell_angle_gamma   98.88657506
_symmetry_Int_Tables_number   1
_chemical_formula_structural   Li4TiS2
_chemical_formula_sum   'Li4 Ti1 S2'
_cell_volume   162.16799726
_cell_formula_units_Z   1
loop_
 _symmetry_equiv_pos_site_id
 _symmetry_equiv_pos_as_xyz
  1  'x, y, z'
loop_
 _atom_site_type_symbol
 _atom_site_label
 _atom_site_symmetry_multiplicity
 _atom_site_fract_x
 _atom_site_fract_y
 _atom_site_fract_z
 _atom_site_occupancy
  Li  Li0  1  0.00000000  0.00000000  0.00000000  1
  Li  Li1  1  0.50000000  0.50000000  0.50000000  1
  Li  Li2  1  0.50000000  0.50000000  0.00000000  1
  Li  Li3  1  0.50000000  0.00000000  0.50000000  1
  Ti  Ti4  1  0.00000000  0.50000000  0.50000000  1
  S  S5  1  0.63674853  0.62773472  0.07527516  1
  S  S6  1  0.00222690  0.19985239  0.62040589  1
