# generated using pymatgen
data_LiZnCuAs3I2
_symmetry_space_group_name_H-M   'P 1'
_cell_length_a   7.94333483
_cell_length_b   8.26181689
_cell_length_c   7.93184984
_cell_angle_alpha   90.28050449
_cell_angle_beta   91.33455518
_cell_angle_gamma   90.32069153
_symmetry_Int_Tables_number   1
_chemical_formula_structural   LiZnCuAs3I2
_chemical_formula_sum   'Li2 Zn2 Cu2 As6 I4'
_cell_volume   520.38264850
_cell_formula_units_Z   2
loop_
 _symmetry_equiv_pos_site_id
 _symmetry_equiv_pos_as_xyz
  1  'x, y, z'
loop_
 _atom_site_type_symbol
 _atom_site_label
 _atom_site_symmetry_multiplicity
 _atom_site_fract_x
 _atom_site_fract_y
 _atom_site_fract_z
 _atom_site_occupancy
  I  I0  1  0.00000000  0.00000000  0.00000000  1
  I  I1  1  0.50000000  0.50000000  0.50000000  1
  I  I2  1  0.25000000  0.25000000  0.25000000  1
  I  I3  1  0.75000000  0.25000000  0.00000000  1
  As  As4  1  0.25000000  0.75000000  0.50000000  1
  As  As5  1  0.25626687  0.03896735  0.45756414  1
  As  As6  1  0.36909235  0.57317645  0.01188298  1
  As  As7  1  0.04526242  0.26815994  0.21703147  1
  As  As8  1  0.94396306  0.78958277  0.79088561  1
  As  As9  1  0.00023825  0.88552140  0.96850042  1
  Li  Li10  1  0.53602278  0.69124038  0.75050459  1
  Li  Li11  1  0.58785593  0.22080830  0.68350080  1
  Cu  Cu12  1  0.67126815  0.87658616  0.89065086  1
  Cu  Cu13  1  0.38745352  0.23214011  0.82702599  1
  Zn  Zn14  1  0.71855245  0.32904741  0.98695998  1
  Zn  Zn15  1  0.40718735  0.75709922  0.18132419  1
