# generated using pymatgen
data_Li2Mn2Sb4P3
_symmetry_space_group_name_H-M   'P 1'
_cell_length_a   7.20262152
_cell_length_b   7.84462682
_cell_length_c   7.48244913
_cell_angle_alpha   90.98536151
_cell_angle_beta   91.16725175
_cell_angle_gamma   91.12146306
_symmetry_Int_Tables_number   1
_chemical_formula_structural   Li2Mn2Sb4P3
_chemical_formula_sum   'Li2 Mn2 Sb4 P3'
_cell_volume   422.53825495
_cell_formula_units_Z   1
loop_
 _symmetry_equiv_pos_site_id
 _symmetry_equiv_pos_as_xyz
  1  'x, y, z'
loop_
 _atom_site_type_symbol
 _atom_site_label
 _atom_site_symmetry_multiplicity
 _atom_site_fract_x
 _atom_site_fract_y
 _atom_site_fract_z
 _atom_site_occupancy
  Mn  Mn0  1  0.00000000  0.00000000  0.00000000  1
  Mn  Mn1  1  0.50000000  0.50000000  0.50000000  1
  Sb  Sb2  1  0.50000000  0.50000000  0.00000000  1
  Sb  Sb3  1  0.50000000  0.00000000  0.50000000  1
  Sb  Sb4  1  0.00000000  0.50000000  0.50000000  1
  Sb  Sb5  1  0.74063803  0.72470487  0.66659597  1
  P  P6  1  0.00205657  0.67535026  0.79227712  1
  P  P7  1  0.98732565  0.41584917  0.35690348  1
  P  P8  1  0.51769665  0.99375631  0.63008801  1
  Li  Li9  1  0.92900236  0.97275155  0.64600686  1
  Li  Li10  1  0.70166714  0.10911270  0.44978412  1
