# generated using pymatgen
data_Li3Zn2I4O5
_symmetry_space_group_name_H-M   'P 1'
_cell_length_a   8.05275223
_cell_length_b   8.11751166
_cell_length_c   8.39698234
_cell_angle_alpha   91.04369651
_cell_angle_beta   90.66170016
_cell_angle_gamma   91.20945753
_symmetry_Int_Tables_number   1
_chemical_formula_structural   Li3Zn2I4O5
_chemical_formula_sum   'Li3 Zn2 I4 O5'
_cell_volume   548.64411660
_cell_formula_units_Z   1
loop_
 _symmetry_equiv_pos_site_id
 _symmetry_equiv_pos_as_xyz
  1  'x, y, z'
loop_
 _atom_site_type_symbol
 _atom_site_label
 _atom_site_symmetry_multiplicity
 _atom_site_fract_x
 _atom_site_fract_y
 _atom_site_fract_z
 _atom_site_occupancy
  I  I0  1  0.12500000  0.12500000  0.12500000  1
  I  I1  1  0.50000000  0.50000000  0.50000000  1
  I  I2  1  0.25000000  0.25000000  0.25000000  1
  I  I3  1  0.75000000  0.75000000  0.75000000  1
  Li  Li4  1  0.51829308  0.86245774  0.71044915  1
  Li  Li5  1  0.10103278  0.68313394  0.44935670  1
  Li  Li6  1  0.02500451  0.61698498  0.00768860  1
  Zn  Zn7  1  0.72432442  0.42736685  0.86562389  1
  Zn  Zn8  1  0.54664596  0.69906202  0.28047422  1
  O  O9  1  0.47751849  0.34982665  0.55688205  1
  O  O10  1  0.52241436  0.52604640  0.95032922  1
  O  O11  1  0.85415249  0.13614890  0.97478743  1
  O  O12  1  0.18083690  0.28172262  0.82758958  1
  O  O13  1  0.85890281  0.17825659  0.74995333  1
