# generated using pymatgen
data_Li2MnSb4P3
_symmetry_space_group_name_H-M   'P 1'
_cell_length_a   6.05683597
_cell_length_b   6.14194722
_cell_length_c   7.06871815
_cell_angle_alpha   95.17499782
_cell_angle_beta   93.96555301
_cell_angle_gamma   95.06166814
_symmetry_Int_Tables_number   1
_chemical_formula_structural   Li2MnSb4P3
_chemical_formula_sum   'Li2 Mn1 Sb4 P3'
_cell_volume   260.07923503
_cell_formula_units_Z   1
loop_
 _symmetry_equiv_pos_site_id
 _symmetry_equiv_pos_as_xyz
  1  'x, y, z'
loop_
 _atom_site_type_symbol
 _atom_site_label
 _atom_site_symmetry_multiplicity
 _atom_site_fract_x
 _atom_site_fract_y
 _atom_site_fract_z
 _atom_site_occupancy
  Mn  Mn0  1  0.00000000  0.00000000  0.00000000  1
  Sb  Sb1  1  0.50000000  0.50000000  0.50000000  1
  Sb  Sb2  1  0.25000000  0.25000000  0.25000000  1
  Sb  Sb3  1  0.75000000  0.25000000  0.00000000  1
  Sb  Sb4  1  0.25000000  0.75000000  0.50000000  1
  P  P5  1  0.20459610  0.72712354  0.82214757  1
  P  P6  1  0.38516727  0.80342873  0.35328303  1
  P  P7  1  0.40307941  0.15004692  0.56939582  1
  Li  Li8  1  0.16247864  0.27662694  0.66915328  1
  Li  Li9  1  0.53108065  0.23329840  0.11648737  1
