# generated using pymatgen
data_Li2As6P6O7F2
_symmetry_space_group_name_H-M   'P 1'
_cell_length_a   7.89764563
_cell_length_b   7.65713572
_cell_length_c   8.29647843
_cell_angle_alpha   91.17816948
_cell_angle_beta   91.13186851
_cell_angle_gamma   91.36383581
_symmetry_Int_Tables_number   1
_chemical_formula_structural   Li2As6P6O7F2
_chemical_formula_sum   'Li2 As6 P6 O7 F2'
_cell_volume   501.36477309
_cell_formula_units_Z   1
loop_
 _symmetry_equiv_pos_site_id
 _symmetry_equiv_pos_as_xyz
  1  'x, y, z'
loop_
 _atom_site_type_symbol
 _atom_site_label
 _atom_site_symmetry_multiplicity
 _atom_site_fract_x
 _atom_site_fract_y
 _atom_site_fract_z
 _atom_site_occupancy
  P  P0  1  0.00000000  0.00000000  0.00000000  1
  P  P1  1  0.50000000  0.50000000  0.50000000  1
  P  P2  1  0.50000000  0.50000000  0.00000000  1
  P  P3  1  0.50000000  0.00000000  0.50000000  1
  P  P4  1  0.00000000  0.50000000  0.50000000  1
  P  P5  1  0.23754717  0.56179673  0.40948423  1
  Li  Li6  1  0.71651946  0.60571407  0.21810028  1
  Li  Li7  1  0.88415963  0.00474157  0.99465910  1
  F  F8  1  0.93216326  0.57585570  0.80378680  1
  F  F9  1  0.56629950  0.50499823  0.55134796  1
  As  As10  1  0.04989683  0.11943411  0.02822856  1
  As  As11  1  0.07526607  0.32851473  0.78262889  1
  As  As12  1  0.73053802  0.17986017  0.79381018  1
  As  As13  1  0.98748524  0.46401934  0.83795399  1
  As  As14  1  0.78110498  0.52622638  0.62240575  1
  As  As15  1  0.48528011  0.49334771  0.80223070  1
  O  O16  1  0.54137953  0.89499726  0.61381914  1
  O  O17  1  0.83396274  0.63167611  0.70750332  1
  O  O18  1  0.49098938  0.61149760  0.92931509  1
  O  O19  1  0.52447462  0.50863024  0.24129902  1
  O  O20  1  0.79120019  0.25111919  0.04711510  1
  O  O21  1  0.29254400  0.70185850  0.16953836  1
  O  O22  1  0.76915698  0.63987097  0.13611703  1
