# generated using pymatgen
data_Li2Ti2As6P5
_symmetry_space_group_name_H-M   'P 1'
_cell_length_a   8.10472991
_cell_length_b   7.83193586
_cell_length_c   8.19355932
_cell_angle_alpha   90.91839510
_cell_angle_beta   91.07442174
_cell_angle_gamma   91.06239925
_symmetry_Int_Tables_number   1
_chemical_formula_structural   Li2Ti2As6P5
_chemical_formula_sum   'Li2 Ti2 As6 P5'
_cell_volume   519.84151839
_cell_formula_units_Z   1
loop_
 _symmetry_equiv_pos_site_id
 _symmetry_equiv_pos_as_xyz
  1  'x, y, z'
loop_
 _atom_site_type_symbol
 _atom_site_label
 _atom_site_symmetry_multiplicity
 _atom_site_fract_x
 _atom_site_fract_y
 _atom_site_fract_z
 _atom_site_occupancy
  P  P0  1  0.00000000  0.00000000  0.00000000  1
  P  P1  1  0.50000000  0.50000000  0.50000000  1
  P  P2  1  0.50000000  0.50000000  0.00000000  1
  P  P3  1  0.50000000  0.00000000  0.50000000  1
  P  P4  1  0.00000000  0.50000000  0.50000000  1
  Li  Li5  1  0.59034551  0.68619739  0.78665335  1
  Li  Li6  1  0.09086307  0.10437179  0.21464011  1
  Ti  Ti7  1  0.15513532  0.28082338  0.32368122  1
  Ti  Ti8  1  0.80788776  0.74051255  0.76054761  1
  As  As9  1  0.63370945  0.80201625  0.41632581  1
  As  As10  1  0.22667688  0.93937306  0.18011023  1
  As  As11  1  0.06772654  0.04498927  0.19278637  1
  As  As12  1  0.21008230  0.81864240  0.93730260  1
  As  As13  1  0.05259577  0.05278555  0.09557558  1
  As  As14  1  0.95173068  0.97892786  0.12594249  1
