# generated using pymatgen
data_Li2Mn2Sb4P3
_symmetry_space_group_name_H-M   'P 1'
_cell_length_a   4.58107130
_cell_length_b   4.82042439
_cell_length_c   6.20581582
_cell_angle_alpha   102.87438464
_cell_angle_beta   92.43131279
_cell_angle_gamma   102.86733736
_symmetry_Int_Tables_number   1
_chemical_formula_structural   Li2Mn2Sb4P3
_chemical_formula_sum   'Li2 Mn2 Sb4 P3'
_cell_volume   129.62907697
_cell_formula_units_Z   1
loop_
 _symmetry_equiv_pos_site_id
 _symmetry_equiv_pos_as_xyz
  1  'x, y, z'
loop_
 _atom_site_type_symbol
 _atom_site_label
 _atom_site_symmetry_multiplicity
 _atom_site_fract_x
 _atom_site_fract_y
 _atom_site_fract_z
 _atom_site_occupancy
  Mn  Mn0  1  0.00000000  0.00000000  0.00000000  1
  Mn  Mn1  1  0.50000000  0.50000000  0.50000000  1
  Sb  Sb2  1  0.50000000  0.50000000  0.00000000  1
  Sb  Sb3  1  0.50000000  0.00000000  0.50000000  1
  Sb  Sb4  1  0.00000000  0.50000000  0.50000000  1
  Sb  Sb5  1  0.75124544  0.94344451  0.90329109  1
  P  P6  1  0.35223779  0.55743303  0.95196013  1
  P  P7  1  0.42588013  0.17902226  0.72503349  1
  P  P8  1  0.92742869  0.12390741  0.86436077  1
  Li  Li9  1  0.38947132  0.15986564  0.76254522  1
  Li  Li10  1  0.66394369  0.79748365  0.36835772  1
