# generated using pymatgen
data_LiTiCuP3F
_symmetry_space_group_name_H-M   'P 1'
_cell_length_a   7.69847463
_cell_length_b   7.77154688
_cell_length_c   8.31532569
_cell_angle_alpha   90.40943852
_cell_angle_beta   91.94798415
_cell_angle_gamma   90.46809756
_symmetry_Int_Tables_number   1
_chemical_formula_structural   LiTiCuP3F
_chemical_formula_sum   'Li2 Ti2 Cu2 P6 F2'
_cell_volume   497.18027457
_cell_formula_units_Z   2
loop_
 _symmetry_equiv_pos_site_id
 _symmetry_equiv_pos_as_xyz
  1  'x, y, z'
loop_
 _atom_site_type_symbol
 _atom_site_label
 _atom_site_symmetry_multiplicity
 _atom_site_fract_x
 _atom_site_fract_y
 _atom_site_fract_z
 _atom_site_occupancy
  P  P0  1  0.00000000  0.00000000  0.00000000  1
  P  P1  1  0.50000000  0.50000000  0.50000000  1
  P  P2  1  0.50000000  0.50000000  0.00000000  1
  P  P3  1  0.50000000  0.00000000  0.50000000  1
  P  P4  1  0.00000000  0.50000000  0.50000000  1
  P  P5  1  0.99949899  0.72792054  0.44290585  1
  Li  Li6  1  0.95553301  0.68065895  0.63401749  1
  Li  Li7  1  0.06039814  0.59987478  0.05525956  1
  Cu  Cu8  1  0.51326300  0.82614221  0.24549131  1
  Cu  Cu9  1  0.94376714  0.69126866  0.79692186  1
  F  F10  1  0.76484402  0.70041468  0.78983996  1
  F  F11  1  0.78397633  0.02603758  0.24677164  1
  Ti  Ti12  1  0.58030333  0.73407077  0.43561625  1
  Ti  Ti13  1  0.74819968  0.84865460  0.08971432  1
