# generated using pymatgen
data_LiP3
_symmetry_space_group_name_H-M   'P 1'
_cell_length_a   3.72087202
_cell_length_b   3.89718814
_cell_length_c   6.38310454
_cell_angle_alpha   99.33931907
_cell_angle_beta   99.11327546
_cell_angle_gamma   100.47051077
_symmetry_Int_Tables_number   1
_chemical_formula_structural   LiP3
_chemical_formula_sum   'Li1 P3'
_cell_volume   88.11354820
_cell_formula_units_Z   1
loop_
 _symmetry_equiv_pos_site_id
 _symmetry_equiv_pos_as_xyz
  1  'x, y, z'
loop_
 _atom_site_type_symbol
 _atom_site_label
 _atom_site_symmetry_multiplicity
 _atom_site_fract_x
 _atom_site_fract_y
 _atom_site_fract_z
 _atom_site_occupancy
  P  P0  1  0.00000000  0.00000000  0.00000000  1
  P  P1  1  0.50000000  0.50000000  0.50000000  1
  P  P2  1  0.50000000  0.50000000  0.00000000  1
  Li  Li3  1  0.50000000  0.00000000  0.50000000  1
