# generated using pymatgen
data_Li3Cu2(As3P4)2
_symmetry_space_group_name_H-M   'P 1'
_cell_length_a   7.83256931
_cell_length_b   7.92897766
_cell_length_c   8.47761838
_cell_angle_alpha   90.97485547
_cell_angle_beta   90.74408110
_cell_angle_gamma   91.12920773
_symmetry_Int_Tables_number   1
_chemical_formula_structural   Li3Cu2(As3P4)2
_chemical_formula_sum   'Li3 Cu2 As6 P8'
_cell_volume   526.27110197
_cell_formula_units_Z   1
loop_
 _symmetry_equiv_pos_site_id
 _symmetry_equiv_pos_as_xyz
  1  'x, y, z'
loop_
 _atom_site_type_symbol
 _atom_site_label
 _atom_site_symmetry_multiplicity
 _atom_site_fract_x
 _atom_site_fract_y
 _atom_site_fract_z
 _atom_site_occupancy
  P  P0  1  0.12500000  0.12500000  0.12500000  1
  P  P1  1  0.50000000  0.50000000  0.50000000  1
  P  P2  1  0.25000000  0.25000000  0.25000000  1
  P  P3  1  0.75000000  0.75000000  0.75000000  1
  P  P4  1  0.18288035  0.85880965  0.49820082  1
  P  P5  1  0.13919549  0.85241837  0.58396472  1
  P  P6  1  0.41726310  0.73797747  0.57276232  1
  P  P7  1  0.05641456  0.72763335  0.79060089  1
  Li  Li8  1  0.53545453  0.54315145  0.61520904  1
  Li  Li9  1  0.60874840  0.03060656  0.69439065  1
  Li  Li10  1  0.10113347  0.91585420  0.17417379  1
  Cu  Cu11  1  0.34511875  0.59838902  0.18285035  1
  Cu  Cu12  1  0.47285244  0.13777685  0.30149313  1
  As  As13  1  0.78895731  0.92115080  0.16060020  1
  As  As14  1  0.47643334  0.67147415  0.05959323  1
  As  As15  1  0.24253263  0.10359006  0.55561655  1
  As  As16  1  0.35495377  0.96653619  0.21514384  1
  As  As17  1  0.85374580  0.57592280  0.17881631  1
  As  As18  1  0.86832003  0.17298025  0.54237750  1
