# generated using pymatgen
data_LiTi(SO)2
_symmetry_space_group_name_H-M   'P 1'
_cell_length_a   5.76022055
_cell_length_b   5.72396239
_cell_length_c   7.10180549
_cell_angle_alpha   93.36176700
_cell_angle_beta   98.41477785
_cell_angle_gamma   93.85141764
_symmetry_Int_Tables_number   1
_chemical_formula_structural   LiTi(SO)2
_chemical_formula_sum   'Li1 Ti1 S2 O2'
_cell_volume   230.55498618
_cell_formula_units_Z   1
loop_
 _symmetry_equiv_pos_site_id
 _symmetry_equiv_pos_as_xyz
  1  'x, y, z'
loop_
 _atom_site_type_symbol
 _atom_site_label
 _atom_site_symmetry_multiplicity
 _atom_site_fract_x
 _atom_site_fract_y
 _atom_site_fract_z
 _atom_site_occupancy
  Li  Li0  1  0.00000000  0.00000000  0.00000000  1
  S  S1  1  0.33300000  0.66700000  0.25000000  1
  S  S2  1  0.66700000  0.33300000  0.50000000  1
  Ti  Ti3  1  0.00000000  0.00000000  0.75000000  1
  O  O4  1  0.51713728  0.53617216  0.22199744  1
  O  O5  1  0.13984708  0.12130935  0.03539440  1
