# generated using pymatgen
data_Li2Mn2Sb4P2N
_symmetry_space_group_name_H-M   'P 1'
_cell_length_a   5.45344000
_cell_length_b   5.90730280
_cell_length_c   6.98517179
_cell_angle_alpha   96.51594514
_cell_angle_beta   97.13775622
_cell_angle_gamma   96.00799572
_symmetry_Int_Tables_number   1
_chemical_formula_structural   Li2Mn2Sb4P2N
_chemical_formula_sum   'Li2 Mn2 Sb4 P2 N1'
_cell_volume   220.22612744
_cell_formula_units_Z   1
loop_
 _symmetry_equiv_pos_site_id
 _symmetry_equiv_pos_as_xyz
  1  'x, y, z'
loop_
 _atom_site_type_symbol
 _atom_site_label
 _atom_site_symmetry_multiplicity
 _atom_site_fract_x
 _atom_site_fract_y
 _atom_site_fract_z
 _atom_site_occupancy
  N  N0  1  0.12500000  0.00000000  0.25000000  1
  Mn  Mn1  1  0.00000000  0.00000000  0.00000000  1
  Mn  Mn2  1  0.37500000  0.00000000  0.25000000  1
  Sb  Sb3  1  0.25000000  0.25000000  0.25000000  1
  Sb  Sb4  1  0.00000000  0.25000000  0.12500000  1
  Sb  Sb5  1  0.20354903  0.81639990  0.70934310  1
  Sb  Sb6  1  0.86333230  0.48848692  0.70507372  1
  P  P7  1  0.14793700  0.40473179  0.59853487  1
  P  P8  1  0.08699161  0.55287102  0.85177821  1
  Li  Li9  1  0.13985866  0.61909898  0.32780282  1
  Li  Li10  1  0.92880721  0.32896538  0.62848464  1
