# generated using pymatgen
data_Li2(MnP)3
_symmetry_space_group_name_H-M   'P 1'
_cell_length_a   6.00902129
_cell_length_b   6.45566969
_cell_length_c   6.34236153
_cell_angle_alpha   94.79312808
_cell_angle_beta   92.17761600
_cell_angle_gamma   93.33677059
_symmetry_Int_Tables_number   1
_chemical_formula_structural   Li2(MnP)3
_chemical_formula_sum   'Li2 Mn3 P3'
_cell_volume   244.53118078
_cell_formula_units_Z   1
loop_
 _symmetry_equiv_pos_site_id
 _symmetry_equiv_pos_as_xyz
  1  'x, y, z'
loop_
 _atom_site_type_symbol
 _atom_site_label
 _atom_site_symmetry_multiplicity
 _atom_site_fract_x
 _atom_site_fract_y
 _atom_site_fract_z
 _atom_site_occupancy
  Mn  Mn0  1  0.12500000  0.12500000  0.12500000  1
  Mn  Mn1  1  0.50000000  0.50000000  0.50000000  1
  Mn  Mn2  1  0.25000000  0.25000000  0.25000000  1
  P  P3  1  0.75000000  0.75000000  0.75000000  1
  P  P4  1  0.06175604  0.40590374  0.97632732  1
  P  P5  1  0.72031563  0.69945615  0.85460044  1
  Li  Li6  1  0.61834386  0.14755072  0.37768839  1
  Li  Li7  1  0.57221159  0.21948306  0.92782588  1
