# generated using pymatgen
data_LiMnP3
_symmetry_space_group_name_H-M   'P 1'
_cell_length_a   4.69545336
_cell_length_b   5.00693497
_cell_length_c   6.73941818
_cell_angle_alpha   96.05291795
_cell_angle_beta   97.44897023
_cell_angle_gamma   97.07512275
_symmetry_Int_Tables_number   1
_chemical_formula_structural   LiMnP3
_chemical_formula_sum   'Li1 Mn1 P3'
_cell_volume   154.71777363
_cell_formula_units_Z   1
loop_
 _symmetry_equiv_pos_site_id
 _symmetry_equiv_pos_as_xyz
  1  'x, y, z'
loop_
 _atom_site_type_symbol
 _atom_site_label
 _atom_site_symmetry_multiplicity
 _atom_site_fract_x
 _atom_site_fract_y
 _atom_site_fract_z
 _atom_site_occupancy
  Mn  Mn0  1  0.00000000  0.00000000  0.00000000  1
  P  P1  1  0.33300000  0.66700000  0.25000000  1
  P  P2  1  0.66700000  0.33300000  0.50000000  1
  P  P3  1  0.00000000  0.00000000  0.75000000  1
  Li  Li4  1  0.47850537  0.85854208  0.55839823  1
