# generated using pymatgen
data_LiMn2Sb4P3
_symmetry_space_group_name_H-M   'P 1'
_cell_length_a   5.09507378
_cell_length_b   5.33628823
_cell_length_c   6.51184594
_cell_angle_alpha   96.46965590
_cell_angle_beta   93.83061981
_cell_angle_gamma   96.76951558
_symmetry_Int_Tables_number   1
_chemical_formula_structural   LiMn2Sb4P3
_chemical_formula_sum   'Li1 Mn2 Sb4 P3'
_cell_volume   174.11877128
_cell_formula_units_Z   1
loop_
 _symmetry_equiv_pos_site_id
 _symmetry_equiv_pos_as_xyz
  1  'x, y, z'
loop_
 _atom_site_type_symbol
 _atom_site_label
 _atom_site_symmetry_multiplicity
 _atom_site_fract_x
 _atom_site_fract_y
 _atom_site_fract_z
 _atom_site_occupancy
  Mn  Mn0  1  0.00000000  0.00000000  0.00000000  1
  Mn  Mn1  1  0.33300000  0.66700000  0.25000000  1
  Sb  Sb2  1  0.66700000  0.33300000  0.50000000  1
  Sb  Sb3  1  0.00000000  0.00000000  0.75000000  1
  Sb  Sb4  1  0.84198983  0.50654531  0.44093213  1
  Sb  Sb5  1  0.61446872  0.85591671  0.03814732  1
  P  P6  1  0.59387779  0.35567630  0.76828587  1
  P  P7  1  0.88847727  0.62590066  0.31557487  1
  P  P8  1  0.08801852  0.79284050  0.66426080  1
  Li  Li9  1  0.52275418  0.70509474  0.28815854  1
