# generated using pymatgen
data_Li2MnSb4Mo2P3
_symmetry_space_group_name_H-M   'P 1'
_cell_length_a   5.78376985
_cell_length_b   5.47248271
_cell_length_c   6.87316171
_cell_angle_alpha   97.03465538
_cell_angle_beta   91.74570820
_cell_angle_gamma   96.60288948
_symmetry_Int_Tables_number   1
_chemical_formula_structural   Li2MnSb4Mo2P3
_chemical_formula_sum   'Li2 Mn1 Sb4 Mo2 P3'
_cell_volume   214.25762177
_cell_formula_units_Z   1
loop_
 _symmetry_equiv_pos_site_id
 _symmetry_equiv_pos_as_xyz
  1  'x, y, z'
loop_
 _atom_site_type_symbol
 _atom_site_label
 _atom_site_symmetry_multiplicity
 _atom_site_fract_x
 _atom_site_fract_y
 _atom_site_fract_z
 _atom_site_occupancy
  Mn  Mn0  1  0.12500000  0.00000000  0.25000000  1
  Sb  Sb1  1  0.00000000  0.00000000  0.00000000  1
  Sb  Sb2  1  0.37500000  0.00000000  0.25000000  1
  Sb  Sb3  1  0.25000000  0.25000000  0.25000000  1
  Sb  Sb4  1  0.00000000  0.25000000  0.12500000  1
  P  P5  1  0.18992703  0.45938567  0.91535825  1
  P  P6  1  0.96117379  0.28954357  0.86928300  1
  P  P7  1  0.15585817  0.23861187  0.49629879  1
  Mo  Mo8  1  0.50222323  0.08195992  0.08157659  1
  Mo  Mo9  1  0.26613950  0.06831900  0.19746217  1
  Li  Li10  1  0.06899095  0.48548231  0.43783076  1
  Li  Li11  1  0.92536125  0.03468539  0.39706334  1
