# generated using pymatgen
data_Li2TiP5F2
_symmetry_space_group_name_H-M   'P 1'
_cell_length_a   7.37267117
_cell_length_b   7.15110451
_cell_length_c   7.43838208
_cell_angle_alpha   91.06791880
_cell_angle_beta   92.32736630
_cell_angle_gamma   90.74775745
_symmetry_Int_Tables_number   1
_chemical_formula_structural   Li2TiP5F2
_chemical_formula_sum   'Li2 Ti1 P5 F2'
_cell_volume   391.74291824
_cell_formula_units_Z   1
loop_
 _symmetry_equiv_pos_site_id
 _symmetry_equiv_pos_as_xyz
  1  'x, y, z'
loop_
 _atom_site_type_symbol
 _atom_site_label
 _atom_site_symmetry_multiplicity
 _atom_site_fract_x
 _atom_site_fract_y
 _atom_site_fract_z
 _atom_site_occupancy
  P  P0  1  0.12500000  0.12500000  0.12500000  1
  P  P1  1  0.50000000  0.50000000  0.50000000  1
  P  P2  1  0.25000000  0.25000000  0.25000000  1
  P  P3  1  0.75000000  0.75000000  0.75000000  1
  P  P4  1  0.24068266  0.02910495  0.49218004  1
  Li  Li5  1  0.27057797  0.38798724  0.56494070  1
  Li  Li6  1  0.41765726  0.02966595  0.54126716  1
  F  F7  1  0.40475394  0.57192009  0.60053899  1
  F  F8  1  0.14665272  0.14051329  0.77012281  1
  Ti  Ti9  1  0.74481189  0.53956751  0.29085222  1
