# generated using pymatgen
data_Li2Mn2Sb4P2N
_symmetry_space_group_name_H-M   'P 1'
_cell_length_a   5.84055227
_cell_length_b   6.09256736
_cell_length_c   6.71023621
_cell_angle_alpha   98.57222384
_cell_angle_beta   92.84276054
_cell_angle_gamma   98.28609703
_symmetry_Int_Tables_number   1
_chemical_formula_structural   Li2Mn2Sb4P2N
_chemical_formula_sum   'Li2 Mn2 Sb4 P2 N1'
_cell_volume   233.02733729
_cell_formula_units_Z   1
loop_
 _symmetry_equiv_pos_site_id
 _symmetry_equiv_pos_as_xyz
  1  'x, y, z'
loop_
 _atom_site_type_symbol
 _atom_site_label
 _atom_site_symmetry_multiplicity
 _atom_site_fract_x
 _atom_site_fract_y
 _atom_site_fract_z
 _atom_site_occupancy
  Mn  Mn0  1  0.12500000  0.00000000  0.25000000  1
  Mn  Mn1  1  0.00000000  0.00000000  0.00000000  1
  Sb  Sb2  1  0.37500000  0.00000000  0.25000000  1
  Sb  Sb3  1  0.25000000  0.25000000  0.25000000  1
  Sb  Sb4  1  0.00000000  0.25000000  0.12500000  1
  Sb  Sb5  1  0.37556346  0.67206142  0.78338568  1
  P  P6  1  0.81959824  0.72243551  0.05041304  1
  P  P7  1  0.64852153  0.78080906  0.20790282  1
  Li  Li8  1  0.16043084  0.14909102  0.57402770  1
  Li  Li9  1  0.10901431  0.64990077  0.23846645  1
  N  N10  1  0.58753757  0.74266172  0.70439933  1
