# generated using pymatgen
data_Li3TiNi2I4N5
_symmetry_space_group_name_H-M   'P 1'
_cell_length_a   8.43851518
_cell_length_b   8.25391453
_cell_length_c   8.03033647
_cell_angle_alpha   90.81891129
_cell_angle_beta   90.28951953
_cell_angle_gamma   90.94983796
_symmetry_Int_Tables_number   1
_chemical_formula_structural   Li3TiNi2I4N5
_chemical_formula_sum   'Li3 Ti1 Ni2 I4 N5'
_cell_volume   559.17741939
_cell_formula_units_Z   1
loop_
 _symmetry_equiv_pos_site_id
 _symmetry_equiv_pos_as_xyz
  1  'x, y, z'
loop_
 _atom_site_type_symbol
 _atom_site_label
 _atom_site_symmetry_multiplicity
 _atom_site_fract_x
 _atom_site_fract_y
 _atom_site_fract_z
 _atom_site_occupancy
  I  I0  1  0.00000000  0.00000000  0.00000000  1
  I  I1  1  0.50000000  0.50000000  0.50000000  1
  I  I2  1  0.50000000  0.50000000  0.00000000  1
  I  I3  1  0.50000000  0.00000000  0.50000000  1
  Li  Li4  1  0.00000000  0.50000000  0.50000000  1
  Li  Li5  1  0.52605793  0.29698705  0.26881766  1
  Li  Li6  1  0.58884069  0.67909891  0.00369372  1
  Ni  Ni7  1  0.54057155  0.35322402  0.76487777  1
  Ni  Ni8  1  0.00036534  0.22180524  0.65923884  1
  Ti  Ti9  1  0.85594323  0.33624346  0.70618786  1
  N  N10  1  0.59572799  0.55084270  0.02765056  1
  N  N11  1  0.60911055  0.31372048  0.44565997  1
  N  N12  1  0.32309518  0.13173038  0.67679596  1
  N  N13  1  0.61087845  0.41382588  0.97122287  1
  N  N14  1  0.66502586  0.65920559  0.15249844  1
