# generated using pymatgen
data_Li3Ni2As6P4O7
_symmetry_space_group_name_H-M   'P 1'
_cell_length_a   7.57961860
_cell_length_b   7.39623783
_cell_length_c   8.86698383
_cell_angle_alpha   92.11736196
_cell_angle_beta   91.34240054
_cell_angle_gamma   92.45364372
_symmetry_Int_Tables_number   1
_chemical_formula_structural   Li3Ni2As6P4O7
_chemical_formula_sum   'Li3 Ni2 As6 P4 O7'
_cell_volume   496.13844037
_cell_formula_units_Z   1
loop_
 _symmetry_equiv_pos_site_id
 _symmetry_equiv_pos_as_xyz
  1  'x, y, z'
loop_
 _atom_site_type_symbol
 _atom_site_label
 _atom_site_symmetry_multiplicity
 _atom_site_fract_x
 _atom_site_fract_y
 _atom_site_fract_z
 _atom_site_occupancy
  P  P0  1  0.00000000  0.00000000  0.00000000  1
  P  P1  1  0.50000000  0.50000000  0.50000000  1
  P  P2  1  0.25000000  0.25000000  0.25000000  1
  P  P3  1  0.75000000  0.25000000  0.00000000  1
  Li  Li4  1  0.25000000  0.75000000  0.50000000  1
  Li  Li5  1  0.71884663  0.13687235  0.36327564  1
  Li  Li6  1  0.92886345  0.58056255  0.12285738  1
  Ni  Ni7  1  0.11905422  0.90861772  0.24967895  1
  Ni  Ni8  1  0.64162003  0.12850403  0.63834009  1
  As  As9  1  0.10597465  0.91000608  0.17465009  1
  As  As10  1  0.67907360  0.44549961  0.53605937  1
  As  As11  1  0.71139651  0.74632430  0.58474665  1
  As  As12  1  0.56373252  0.24836882  0.40564547  1
  As  As13  1  0.32042795  0.24476065  0.80775166  1
  As  As14  1  0.45571262  0.66174609  0.77222948  1
  O  O15  1  0.74662323  0.65590470  0.19878861  1
  O  O16  1  0.54201446  0.31202151  0.39292342  1
  O  O17  1  0.51322241  0.18054879  0.53526857  1
  O  O18  1  0.85405660  0.98638249  0.85622761  1
  O  O19  1  0.60372897  0.17525591  0.57447421  1
  O  O20  1  0.28731693  0.97413868  0.04093423  1
  O  O21  1  0.08499581  0.40802240  0.09349447  1
