# generated using pymatgen
data_Li2Mn2Sb2P3
_symmetry_space_group_name_H-M   'P 1'
_cell_length_a   4.99467448
_cell_length_b   5.31568182
_cell_length_c   6.58234600
_cell_angle_alpha   98.59455067
_cell_angle_beta   94.31358417
_cell_angle_gamma   98.88372283
_symmetry_Int_Tables_number   1
_chemical_formula_structural   Li2Mn2Sb2P3
_chemical_formula_sum   'Li2 Mn2 Sb2 P3'
_cell_volume   169.86014210
_cell_formula_units_Z   1
loop_
 _symmetry_equiv_pos_site_id
 _symmetry_equiv_pos_as_xyz
  1  'x, y, z'
loop_
 _atom_site_type_symbol
 _atom_site_label
 _atom_site_symmetry_multiplicity
 _atom_site_fract_x
 _atom_site_fract_y
 _atom_site_fract_z
 _atom_site_occupancy
  Mn  Mn0  1  0.00000000  0.00000000  0.00000000  1
  Mn  Mn1  1  0.50000000  0.50000000  0.50000000  1
  Sb  Sb2  1  0.50000000  0.50000000  0.00000000  1
  Sb  Sb3  1  0.50000000  0.00000000  0.50000000  1
  P  P4  1  0.00000000  0.50000000  0.50000000  1
  P  P5  1  0.02375173  0.80826526  0.64685364  1
  P  P6  1  0.57805097  0.75874510  0.88547738  1
  Li  Li7  1  0.14624383  0.47831985  0.77127932  1
  Li  Li8  1  0.36743817  0.83879717  0.65079313  1
