# generated using pymatgen
data_Li2NiP2
_symmetry_space_group_name_H-M   'P 1'
_cell_length_a   7.81109617
_cell_length_b   7.53273650
_cell_length_c   9.20348706
_cell_angle_alpha   91.99510434
_cell_angle_beta   90.70535316
_cell_angle_gamma   92.31407951
_symmetry_Int_Tables_number   1
_chemical_formula_structural   Li2NiP2
_chemical_formula_sum   'Li4 Ni2 P4'
_cell_volume   540.70269851
_cell_formula_units_Z   2
loop_
 _symmetry_equiv_pos_site_id
 _symmetry_equiv_pos_as_xyz
  1  'x, y, z'
loop_
 _atom_site_type_symbol
 _atom_site_label
 _atom_site_symmetry_multiplicity
 _atom_site_fract_x
 _atom_site_fract_y
 _atom_site_fract_z
 _atom_site_occupancy
  P  P0  1  0.00000000  0.00000000  0.00000000  1
  P  P1  1  0.50000000  0.50000000  0.50000000  1
  P  P2  1  0.50000000  0.50000000  0.00000000  1
  P  P3  1  0.50000000  0.00000000  0.50000000  1
  Li  Li4  1  0.00000000  0.50000000  0.50000000  1
  Li  Li5  1  0.42590474  0.12368253  0.51159288  1
  Li  Li6  1  0.21551167  0.15880287  0.45057425  1
  Li  Li7  1  0.58034041  0.10877631  0.29960562  1
  Ni  Ni8  1  0.99963613  0.17465572  0.67887108  1
  Ni  Ni9  1  0.40026401  0.41700280  0.36574085  1
