# generated using pymatgen
data_LiMnSb4Mo2P3
_symmetry_space_group_name_H-M   'P 1'
_cell_length_a   6.49648128
_cell_length_b   6.76470129
_cell_length_c   7.22535466
_cell_angle_alpha   92.46562157
_cell_angle_beta   92.54294163
_cell_angle_gamma   92.63900002
_symmetry_Int_Tables_number   1
_chemical_formula_structural   LiMnSb4Mo2P3
_chemical_formula_sum   'Li1 Mn1 Sb4 Mo2 P3'
_cell_volume   316.55855941
_cell_formula_units_Z   1
loop_
 _symmetry_equiv_pos_site_id
 _symmetry_equiv_pos_as_xyz
  1  'x, y, z'
loop_
 _atom_site_type_symbol
 _atom_site_label
 _atom_site_symmetry_multiplicity
 _atom_site_fract_x
 _atom_site_fract_y
 _atom_site_fract_z
 _atom_site_occupancy
  Mn  Mn0  1  0.12500000  0.00000000  0.25000000  1
  Sb  Sb1  1  0.00000000  0.00000000  0.00000000  1
  Sb  Sb2  1  0.37500000  0.00000000  0.25000000  1
  Sb  Sb3  1  0.25000000  0.25000000  0.25000000  1
  Sb  Sb4  1  0.00000000  0.25000000  0.12500000  1
  P  P5  1  0.30398178  0.18167544  0.36011860  1
  P  P6  1  0.19978814  0.24260666  0.70334978  1
  P  P7  1  0.83138233  0.63525070  0.65110697  1
  Mo  Mo8  1  0.44255837  0.97112462  0.75102811  1
  Mo  Mo9  1  0.30506432  0.60662089  0.17388406  1
  Li  Li10  1  0.13089840  0.72838898  0.84477843  1
