# generated using pymatgen
data_Li2TiP3(I2F)2
_symmetry_space_group_name_H-M   'P 1'
_cell_length_a   7.48802045
_cell_length_b   7.15936061
_cell_length_c   7.53834622
_cell_angle_alpha   92.56977216
_cell_angle_beta   93.31619482
_cell_angle_gamma   92.34503066
_symmetry_Int_Tables_number   1
_chemical_formula_structural   Li2TiP3(I2F)2
_chemical_formula_sum   'Li2 Ti1 P3 I4 F2'
_cell_volume   402.66032575
_cell_formula_units_Z   1
loop_
 _symmetry_equiv_pos_site_id
 _symmetry_equiv_pos_as_xyz
  1  'x, y, z'
loop_
 _atom_site_type_symbol
 _atom_site_label
 _atom_site_symmetry_multiplicity
 _atom_site_fract_x
 _atom_site_fract_y
 _atom_site_fract_z
 _atom_site_occupancy
  I  I0  1  0.12500000  0.00000000  0.25000000  1
  I  I1  1  0.00000000  0.00000000  0.00000000  1
  I  I2  1  0.37500000  0.00000000  0.25000000  1
  I  I3  1  0.25000000  0.25000000  0.25000000  1
  P  P4  1  0.00000000  0.25000000  0.12500000  1
  P  P5  1  0.08059758  0.88264004  0.16298423  1
  P  P6  1  0.16168946  0.46506243  0.84152876  1
  Li  Li7  1  0.34627120  0.64743936  0.09447377  1
  Li  Li8  1  0.82209105  0.03213003  0.51583997  1
  F  F9  1  0.45661058  0.85999133  0.31780702  1
  F  F10  1  0.67095952  0.71535907  0.63890323  1
  Ti  Ti11  1  0.01996628  0.09764626  0.82902476  1
