# generated using pymatgen
data_Li2LuTi(CuAs3)2
_symmetry_space_group_name_H-M   'P 1'
_cell_length_a   6.47657104
_cell_length_b   6.49686936
_cell_length_c   7.43801294
_cell_angle_alpha   95.31020126
_cell_angle_beta   97.13031257
_cell_angle_gamma   96.48725385
_symmetry_Int_Tables_number   1
_chemical_formula_structural   Li2LuTi(CuAs3)2
_chemical_formula_sum   'Li2 Lu1 Ti1 Cu2 As6'
_cell_volume   306.75565339
_cell_formula_units_Z   1
loop_
 _symmetry_equiv_pos_site_id
 _symmetry_equiv_pos_as_xyz
  1  'x, y, z'
loop_
 _atom_site_type_symbol
 _atom_site_label
 _atom_site_symmetry_multiplicity
 _atom_site_fract_x
 _atom_site_fract_y
 _atom_site_fract_z
 _atom_site_occupancy
  Lu  Lu0  1  0.00000000  0.00000000  0.00000000  1
  Li  Li1  1  0.50000000  0.50000000  0.50000000  1
  Li  Li2  1  0.50000000  0.50000000  0.00000000  1
  Cu  Cu3  1  0.50000000  0.00000000  0.50000000  1
  Cu  Cu4  1  0.00000000  0.50000000  0.50000000  1
  Ti  Ti5  1  0.21112283  0.17329942  0.24480780  1
  As  As6  1  0.88900425  0.52816224  0.74996845  1
  As  As7  1  0.44367663  0.16015230  0.90457731  1
  As  As8  1  0.26483746  0.78925519  0.61624734  1
  As  As9  1  0.37428424  0.54784725  0.09766597  1
  As  As10  1  0.20825198  0.26719080  0.82328530  1
  As  As11  1  0.06471383  0.45093383  0.31150223  1
