# generated using pymatgen
data_LiScSe3O3F2
_symmetry_space_group_name_H-M   'P 1'
_cell_length_a   7.02386373
_cell_length_b   7.64342503
_cell_length_c   8.00420598
_cell_angle_alpha   94.11008118
_cell_angle_beta   95.45414601
_cell_angle_gamma   93.86390447
_symmetry_Int_Tables_number   1
_chemical_formula_structural   LiScSe3O3F2
_chemical_formula_sum   'Li1 Sc1 Se3 O3 F2'
_cell_volume   425.47813771
_cell_formula_units_Z   1
loop_
 _symmetry_equiv_pos_site_id
 _symmetry_equiv_pos_as_xyz
  1  'x, y, z'
loop_
 _atom_site_type_symbol
 _atom_site_label
 _atom_site_symmetry_multiplicity
 _atom_site_fract_x
 _atom_site_fract_y
 _atom_site_fract_z
 _atom_site_occupancy
  Sc  Sc0  1  0.00000000  0.00000000  0.00000000  1
  Li  Li1  1  0.50000000  0.50000000  0.50000000  1
  F  F2  1  0.50000000  0.50000000  0.00000000  1
  F  F3  1  0.50000000  0.00000000  0.50000000  1
  Se  Se4  1  0.00000000  0.50000000  0.50000000  1
  Se  Se5  1  0.31205073  0.65463457  0.70865486  1
  Se  Se6  1  0.85945253  0.03512378  0.99470761  1
  O  O7  1  0.84153101  0.62414567  0.64354091  1
  O  O8  1  0.20641668  0.48932841  0.76745588  1
  O  O9  1  0.34162128  0.69866240  0.24845748  1
