# generated using pymatgen
data_LiMnSb4(MoP)2
_symmetry_space_group_name_H-M   'P 1'
_cell_length_a   4.96596813
_cell_length_b   5.24341451
_cell_length_c   6.53418852
_cell_angle_alpha   99.46242847
_cell_angle_beta   94.12939780
_cell_angle_gamma   99.74992478
_symmetry_Int_Tables_number   1
_chemical_formula_structural   LiMnSb4(MoP)2
_chemical_formula_sum   'Li1 Mn1 Sb4 Mo2 P2'
_cell_volume   164.52749543
_cell_formula_units_Z   1
loop_
 _symmetry_equiv_pos_site_id
 _symmetry_equiv_pos_as_xyz
  1  'x, y, z'
loop_
 _atom_site_type_symbol
 _atom_site_label
 _atom_site_symmetry_multiplicity
 _atom_site_fract_x
 _atom_site_fract_y
 _atom_site_fract_z
 _atom_site_occupancy
  Mn  Mn0  1  0.00000000  0.00000000  0.00000000  1
  Sb  Sb1  1  0.50000000  0.50000000  0.50000000  1
  Sb  Sb2  1  0.50000000  0.50000000  0.00000000  1
  Sb  Sb3  1  0.50000000  0.00000000  0.50000000  1
  Sb  Sb4  1  0.00000000  0.50000000  0.50000000  1
  P  P5  1  0.99943536  0.74506475  0.89478170  1
  P  P6  1  0.58212358  0.40905877  0.36000767  1
  Mo  Mo7  1  0.30493953  0.20365588  0.68155260  1
  Mo  Mo8  1  0.43520773  0.38594065  0.73007617  1
  Li  Li9  1  0.29513299  0.07631377  0.88690297  1
