# generated using pymatgen
data_Li4TiI4(OF)3
_symmetry_space_group_name_H-M   'P 1'
_cell_length_a   5.21515023
_cell_length_b   4.91944547
_cell_length_c   6.81115057
_cell_angle_alpha   103.40514379
_cell_angle_beta   107.49193636
_cell_angle_gamma   102.58464867
_symmetry_Int_Tables_number   1
_chemical_formula_structural   Li4TiI4(OF)3
_chemical_formula_sum   'Li4 Ti1 I4 O3 F3'
_cell_volume   154.13922362
_cell_formula_units_Z   1
loop_
 _symmetry_equiv_pos_site_id
 _symmetry_equiv_pos_as_xyz
  1  'x, y, z'
loop_
 _atom_site_type_symbol
 _atom_site_label
 _atom_site_symmetry_multiplicity
 _atom_site_fract_x
 _atom_site_fract_y
 _atom_site_fract_z
 _atom_site_occupancy
  I  I0  1  0.12500000  0.00000000  0.25000000  1
  I  I1  1  0.00000000  0.00000000  0.00000000  1
  I  I2  1  0.37500000  0.00000000  0.25000000  1
  I  I3  1  0.25000000  0.25000000  0.25000000  1
  Li  Li4  1  0.00000000  0.25000000  0.12500000  1
  Li  Li5  1  0.04312972  0.92641688  0.89234092  1
  Li  Li6  1  0.88861208  0.14775089  0.14663668  1
  Li  Li7  1  0.76898092  0.63048917  0.77864238  1
  F  F8  1  0.06777335  0.00519041  0.53009327  1
  F  F9  1  0.26579336  0.78326398  0.62089682  1
  F  F10  1  0.83958667  0.01902370  0.85252131  1
  Ti  Ti11  1  0.12584927  0.27738480  0.55925652  1
  O  O12  1  0.26632531  0.15634055  0.32413208  1
  O  O13  1  0.02867545  0.91867292  0.76710292  1
  O  O14  1  0.58763535  0.24341965  0.25303775  1
