# generated using pymatgen
data_LiMnSb4Mo2P3
_symmetry_space_group_name_H-M   'P 1'
_cell_length_a   4.03543091
_cell_length_b   4.13475662
_cell_length_c   5.86840772
_cell_angle_alpha   100.54710119
_cell_angle_beta   93.86606334
_cell_angle_gamma   101.03045661
_symmetry_Int_Tables_number   1
_chemical_formula_structural   LiMnSb4Mo2P3
_chemical_formula_sum   'Li1 Mn1 Sb4 Mo2 P3'
_cell_volume   93.95071083
_cell_formula_units_Z   1
loop_
 _symmetry_equiv_pos_site_id
 _symmetry_equiv_pos_as_xyz
  1  'x, y, z'
loop_
 _atom_site_type_symbol
 _atom_site_label
 _atom_site_symmetry_multiplicity
 _atom_site_fract_x
 _atom_site_fract_y
 _atom_site_fract_z
 _atom_site_occupancy
  Mn  Mn0  1  0.00000000  0.00000000  0.00000000  1
  Sb  Sb1  1  0.50000000  0.50000000  0.50000000  1
  Sb  Sb2  1  0.25000000  0.25000000  0.25000000  1
  Sb  Sb3  1  0.75000000  0.25000000  0.00000000  1
  Sb  Sb4  1  0.25000000  0.75000000  0.50000000  1
  P  P5  1  0.90706496  0.99329336  0.77521026  1
  P  P6  1  0.81714564  0.62400391  0.26478113  1
  P  P7  1  0.98103020  0.53338693  0.73784023  1
  Mo  Mo8  1  0.04428051  0.90882686  0.85663853  1
  Mo  Mo9  1  0.64402311  0.60224471  0.30588589  1
  Li  Li10  1  0.31900483  0.35419839  0.75357608  1
