# generated using pymatgen
data_Li2TiCu2P4F2
_symmetry_space_group_name_H-M   'P 1'
_cell_length_a   7.68815553
_cell_length_b   7.52009760
_cell_length_c   7.57622736
_cell_angle_alpha   90.39415475
_cell_angle_beta   91.29126235
_cell_angle_gamma   90.05897149
_symmetry_Int_Tables_number   1
_chemical_formula_structural   Li2TiCu2P4F2
_chemical_formula_sum   'Li2 Ti1 Cu2 P4 F2'
_cell_volume   437.90283350
_cell_formula_units_Z   1
loop_
 _symmetry_equiv_pos_site_id
 _symmetry_equiv_pos_as_xyz
  1  'x, y, z'
loop_
 _atom_site_type_symbol
 _atom_site_label
 _atom_site_symmetry_multiplicity
 _atom_site_fract_x
 _atom_site_fract_y
 _atom_site_fract_z
 _atom_site_occupancy
  P  P0  1  0.00000000  0.00000000  0.00000000  1
  P  P1  1  0.50000000  0.50000000  0.50000000  1
  P  P2  1  0.50000000  0.50000000  0.00000000  1
  P  P3  1  0.50000000  0.00000000  0.50000000  1
  Li  Li4  1  0.00000000  0.50000000  0.50000000  1
  Li  Li5  1  0.94786237  0.68260557  0.46549239  1
  Cu  Cu6  1  0.16742842  0.25079510  0.22301558  1
  Cu  Cu7  1  0.92304606  0.80072515  0.38039237  1
  F  F8  1  0.20454362  0.44156355  0.03445126  1
  F  F9  1  0.59419680  0.58787804  0.51098171  1
  Ti  Ti10  1  0.22731623  0.97471609  0.00796932  1
