# generated using pymatgen
data_Li2MnSb4P3
_symmetry_space_group_name_H-M   'P 1'
_cell_length_a   6.92522942
_cell_length_b   7.23548745
_cell_length_c   7.38249443
_cell_angle_alpha   93.05953596
_cell_angle_beta   91.16901495
_cell_angle_gamma   93.14019736
_symmetry_Int_Tables_number   1
_chemical_formula_structural   Li2MnSb4P3
_chemical_formula_sum   'Li2 Mn1 Sb4 P3'
_cell_volume   368.73481648
_cell_formula_units_Z   1
loop_
 _symmetry_equiv_pos_site_id
 _symmetry_equiv_pos_as_xyz
  1  'x, y, z'
loop_
 _atom_site_type_symbol
 _atom_site_label
 _atom_site_symmetry_multiplicity
 _atom_site_fract_x
 _atom_site_fract_y
 _atom_site_fract_z
 _atom_site_occupancy
  Mn  Mn0  1  0.00000000  0.00000000  0.00000000  1
  Sb  Sb1  1  0.50000000  0.50000000  0.50000000  1
  Sb  Sb2  1  0.50000000  0.50000000  0.00000000  1
  Sb  Sb3  1  0.50000000  0.00000000  0.50000000  1
  Sb  Sb4  1  0.00000000  0.50000000  0.50000000  1
  P  P5  1  0.61633089  0.93776217  0.85127246  1
  P  P6  1  0.23437716  0.24169440  0.07462243  1
  P  P7  1  0.39632589  0.87334093  0.35214137  1
  Li  Li8  1  0.24723670  0.36530438  0.11120417  1
  Li  Li9  1  0.82161186  0.41408313  0.06831563  1
