# generated using pymatgen
data_Li3Ti2I4O4F3
_symmetry_space_group_name_H-M   'P 1'
_cell_length_a   7.43307369
_cell_length_b   7.51660863
_cell_length_c   6.95014274
_cell_angle_alpha   90.58974550
_cell_angle_beta   92.80582997
_cell_angle_gamma   90.67423658
_symmetry_Int_Tables_number   1
_chemical_formula_structural   Li3Ti2I4O4F3
_chemical_formula_sum   'Li3 Ti2 I4 O4 F3'
_cell_volume   387.79959441
_cell_formula_units_Z   1
loop_
 _symmetry_equiv_pos_site_id
 _symmetry_equiv_pos_as_xyz
  1  'x, y, z'
loop_
 _atom_site_type_symbol
 _atom_site_label
 _atom_site_symmetry_multiplicity
 _atom_site_fract_x
 _atom_site_fract_y
 _atom_site_fract_z
 _atom_site_occupancy
  I  I0  1  0.00000000  0.00000000  0.00000000  1
  I  I1  1  0.50000000  0.50000000  0.50000000  1
  I  I2  1  0.50000000  0.50000000  0.00000000  1
  I  I3  1  0.50000000  0.00000000  0.50000000  1
  Li  Li4  1  0.00000000  0.50000000  0.50000000  1
  Li  Li5  1  0.31907692  0.96545634  0.73619381  1
  Li  Li6  1  0.57730852  0.34643962  0.83566211  1
  F  F7  1  0.77853130  0.16191751  0.47476201  1
  F  F8  1  0.72772564  0.72974029  0.46063856  1
  F  F9  1  0.46714476  0.71367281  0.80174190  1
  Ti  Ti10  1  0.46147976  0.77376225  0.48620344  1
  Ti  Ti11  1  0.63551940  0.54936740  0.26949730  1
  O  O12  1  0.55339935  0.58086269  0.65092032  1
  O  O13  1  0.73776314  0.78461446  0.92975667  1
  O  O14  1  0.35274928  0.34647241  0.54956129  1
  O  O15  1  0.89565786  0.61359028  0.18773121  1
