# generated using pymatgen
data_LiMn2Mo2P3
_symmetry_space_group_name_H-M   'P 1'
_cell_length_a   6.38260406
_cell_length_b   6.81642655
_cell_length_c   6.79006653
_cell_angle_alpha   91.59708385
_cell_angle_beta   91.01345199
_cell_angle_gamma   91.42897145
_symmetry_Int_Tables_number   1
_chemical_formula_structural   LiMn2Mo2P3
_chemical_formula_sum   'Li1 Mn2 Mo2 P3'
_cell_volume   295.15583883
_cell_formula_units_Z   1
loop_
 _symmetry_equiv_pos_site_id
 _symmetry_equiv_pos_as_xyz
  1  'x, y, z'
loop_
 _atom_site_type_symbol
 _atom_site_label
 _atom_site_symmetry_multiplicity
 _atom_site_fract_x
 _atom_site_fract_y
 _atom_site_fract_z
 _atom_site_occupancy
  Mn  Mn0  1  0.00000000  0.00000000  0.00000000  1
  Mn  Mn1  1  0.50000000  0.50000000  0.50000000  1
  P  P2  1  0.25000000  0.25000000  0.25000000  1
  P  P3  1  0.75000000  0.25000000  0.00000000  1
  P  P4  1  0.25000000  0.75000000  0.50000000  1
  Mo  Mo5  1  0.46429850  0.63582490  0.27403553  1
  Mo  Mo6  1  0.76513927  0.99519383  0.26188573  1
  Li  Li7  1  0.65156802  0.97516117  0.59435064  1
