# generated using pymatgen
data_Li2As3SeO2
_symmetry_space_group_name_H-M   'P 1'
_cell_length_a   8.23675402
_cell_length_b   7.80103878
_cell_length_c   7.36271828
_cell_angle_alpha   90.00000000
_cell_angle_beta   90.00000000
_cell_angle_gamma   90.00000000
_symmetry_Int_Tables_number   1
_chemical_formula_structural   Li2As3SeO2
_chemical_formula_sum   'Li2 As3 Se1 O2'
_cell_volume   473.09321179
_cell_formula_units_Z   1
loop_
 _symmetry_equiv_pos_site_id
 _symmetry_equiv_pos_as_xyz
  1  'x, y, z'
loop_
 _atom_site_type_symbol
 _atom_site_label
 _atom_site_symmetry_multiplicity
 _atom_site_fract_x
 _atom_site_fract_y
 _atom_site_fract_z
 _atom_site_occupancy
  Li  Li0  1  0.00000000  0.00000000  0.00000000  1
  Li  Li1  1  0.50000000  0.50000000  0.50000000  1
  Se  Se2  1  0.25000000  0.25000000  0.25000000  1
  As  As3  1  0.75000000  0.25000000  0.00000000  1
  As  As4  1  0.25000000  0.75000000  0.50000000  1
  As  As5  1  0.52861240  0.86520353  0.66601199  1
  O  O6  1  0.72197263  0.56868981  0.41954993  1
  O  O7  1  0.00712600  0.84902074  0.12119367  1
