# generated using pymatgen
data_LiMn2Sb4P3
_symmetry_space_group_name_H-M   'P 1'
_cell_length_a   5.94578487
_cell_length_b   6.35560407
_cell_length_c   6.70529959
_cell_angle_alpha   93.42363194
_cell_angle_beta   91.73312138
_cell_angle_gamma   93.75738999
_symmetry_Int_Tables_number   1
_chemical_formula_structural   LiMn2Sb4P3
_chemical_formula_sum   'Li1 Mn2 Sb4 P3'
_cell_volume   252.24257488
_cell_formula_units_Z   1
loop_
 _symmetry_equiv_pos_site_id
 _symmetry_equiv_pos_as_xyz
  1  'x, y, z'
loop_
 _atom_site_type_symbol
 _atom_site_label
 _atom_site_symmetry_multiplicity
 _atom_site_fract_x
 _atom_site_fract_y
 _atom_site_fract_z
 _atom_site_occupancy
  Mn  Mn0  1  0.00000000  0.00000000  0.00000000  1
  Mn  Mn1  1  0.50000000  0.50000000  0.50000000  1
  Sb  Sb2  1  0.25000000  0.25000000  0.25000000  1
  Sb  Sb3  1  0.75000000  0.25000000  0.00000000  1
  Sb  Sb4  1  0.25000000  0.75000000  0.50000000  1
  Sb  Sb5  1  0.46064788  0.67258433  0.48054915  1
  P  P6  1  0.77984118  0.94637392  0.10125468  1
  P  P7  1  0.30867583  0.32097093  0.10308042  1
  P  P8  1  0.60485752  0.24015620  0.73648001  1
  Li  Li9  1  0.23456304  0.49724987  0.62076129  1
