# generated using pymatgen
data_LiTi2Nb2O3F2
_symmetry_space_group_name_H-M   'P 1'
_cell_length_a   6.61074084
_cell_length_b   6.29479585
_cell_length_c   7.49152966
_cell_angle_alpha   91.64343735
_cell_angle_beta   94.55012841
_cell_angle_gamma   91.66136627
_symmetry_Int_Tables_number   1
_chemical_formula_structural   LiTi2Nb2O3F2
_chemical_formula_sum   'Li1 Ti2 Nb2 O3 F2'
_cell_volume   310.48366841
_cell_formula_units_Z   1
loop_
 _symmetry_equiv_pos_site_id
 _symmetry_equiv_pos_as_xyz
  1  'x, y, z'
loop_
 _atom_site_type_symbol
 _atom_site_label
 _atom_site_symmetry_multiplicity
 _atom_site_fract_x
 _atom_site_fract_y
 _atom_site_fract_z
 _atom_site_occupancy
  Li  Li0  1  0.12500000  0.00000000  0.25000000  1
  Nb  Nb1  1  0.00000000  0.00000000  0.00000000  1
  Nb  Nb2  1  0.37500000  0.00000000  0.25000000  1
  F  F3  1  0.25000000  0.25000000  0.25000000  1
  F  F4  1  0.00000000  0.25000000  0.12500000  1
  Ti  Ti5  1  0.12521750  0.75563105  0.66509313  1
  Ti  Ti6  1  0.56140105  0.66786757  0.31399714  1
  O  O7  1  0.65526370  0.24171851  0.74035985  1
  O  O8  1  0.14266332  0.26604903  0.34207741  1
  O  O9  1  0.53788201  0.89532983  0.59005975  1
