# generated using pymatgen
data_Li2TiCu2O5F3
_symmetry_space_group_name_H-M   'P 1'
_cell_length_a   8.29826768
_cell_length_b   8.21078998
_cell_length_c   8.38637726
_cell_angle_alpha   90.13314891
_cell_angle_beta   90.77416711
_cell_angle_gamma   90.14744769
_symmetry_Int_Tables_number   1
_chemical_formula_structural   Li2TiCu2O5F3
_chemical_formula_sum   'Li2 Ti1 Cu2 O5 F3'
_cell_volume   571.35296659
_cell_formula_units_Z   1
loop_
 _symmetry_equiv_pos_site_id
 _symmetry_equiv_pos_as_xyz
  1  'x, y, z'
loop_
 _atom_site_type_symbol
 _atom_site_label
 _atom_site_symmetry_multiplicity
 _atom_site_fract_x
 _atom_site_fract_y
 _atom_site_fract_z
 _atom_site_occupancy
  Li  Li0  1  0.12500000  0.00000000  0.25000000  1
  Li  Li1  1  0.00000000  0.00000000  0.00000000  1
  Cu  Cu2  1  0.37500000  0.00000000  0.25000000  1
  Cu  Cu3  1  0.25000000  0.25000000  0.25000000  1
  F  F4  1  0.00000000  0.25000000  0.12500000  1
  F  F5  1  0.36234804  0.34312120  0.82011497  1
  F  F6  1  0.80665526  0.84723557  0.79473789  1
  Ti  Ti7  1  0.69424104  0.89293032  0.42428255  1
  O  O8  1  0.85243128  0.14140733  0.09351020  1
  O  O9  1  0.78765387  0.43320906  0.16981492  1
  O  O10  1  0.95180864  0.97655665  0.87738320  1
  O  O11  1  0.92315436  0.41869194  0.48980030  1
  O  O12  1  0.75618952  0.57383988  0.40575045  1
