# generated using pymatgen
data_LiSb4Mo2P3
_symmetry_space_group_name_H-M   'P 1'
_cell_length_a   6.47378981
_cell_length_b   6.70386180
_cell_length_c   7.05817054
_cell_angle_alpha   94.00079944
_cell_angle_beta   92.06645134
_cell_angle_gamma   94.14341150
_symmetry_Int_Tables_number   1
_chemical_formula_structural   LiSb4Mo2P3
_chemical_formula_sum   'Li1 Sb4 Mo2 P3'
_cell_volume   304.51502362
_cell_formula_units_Z   1
loop_
 _symmetry_equiv_pos_site_id
 _symmetry_equiv_pos_as_xyz
  1  'x, y, z'
loop_
 _atom_site_type_symbol
 _atom_site_label
 _atom_site_symmetry_multiplicity
 _atom_site_fract_x
 _atom_site_fract_y
 _atom_site_fract_z
 _atom_site_occupancy
  Sb  Sb0  1  0.00000000  0.00000000  0.00000000  1
  Sb  Sb1  1  0.50000000  0.50000000  0.50000000  1
  Sb  Sb2  1  0.50000000  0.50000000  0.00000000  1
  Sb  Sb3  1  0.50000000  0.00000000  0.50000000  1
  P  P4  1  0.00000000  0.50000000  0.50000000  1
  P  P5  1  0.62643039  0.23272118  0.88454993  1
  P  P6  1  0.46331803  0.24268076  0.58891426  1
  Mo  Mo7  1  0.13738542  0.65909956  0.12724286  1
  Mo  Mo8  1  0.27677064  0.95168120  0.02765582  1
  Li  Li9  1  0.39909863  0.17989593  0.02897809  1
