# generated using pymatgen
data_Li2Mn2Sb4P3
_symmetry_space_group_name_H-M   'P 1'
_cell_length_a   6.16480799
_cell_length_b   6.25472875
_cell_length_c   7.03226855
_cell_angle_alpha   96.75864243
_cell_angle_beta   91.54967318
_cell_angle_gamma   96.79300516
_symmetry_Int_Tables_number   1
_chemical_formula_structural   Li2Mn2Sb4P3
_chemical_formula_sum   'Li2 Mn2 Sb4 P3'
_cell_volume   267.15316645
_cell_formula_units_Z   1
loop_
 _symmetry_equiv_pos_site_id
 _symmetry_equiv_pos_as_xyz
  1  'x, y, z'
loop_
 _atom_site_type_symbol
 _atom_site_label
 _atom_site_symmetry_multiplicity
 _atom_site_fract_x
 _atom_site_fract_y
 _atom_site_fract_z
 _atom_site_occupancy
  Mn  Mn0  1  0.00000000  0.00000000  0.00000000  1
  Mn  Mn1  1  0.33300000  0.66700000  0.25000000  1
  Sb  Sb2  1  0.66700000  0.33300000  0.50000000  1
  Sb  Sb3  1  0.00000000  0.00000000  0.75000000  1
  Sb  Sb4  1  0.87872948  0.46401412  0.07724444  1
  Sb  Sb5  1  0.44898158  0.53234058  0.03008420  1
  P  P6  1  0.95738601  0.99081832  0.06293490  1
  P  P7  1  0.78725936  0.02177950  0.93813742  1
  P  P8  1  0.55745927  0.01928250  0.02210767  1
  Li  Li9  1  0.49642555  0.31743785  0.10441790  1
  Li  Li10  1  0.35812356  0.84815832  0.32834860  1
