# generated using pymatgen
data_Li2Mn2(SbP)3
_symmetry_space_group_name_H-M   'P 1'
_cell_length_a   5.19301949
_cell_length_b   5.53161004
_cell_length_c   6.56210015
_cell_angle_alpha   99.13706407
_cell_angle_beta   92.90333035
_cell_angle_gamma   99.25944687
_symmetry_Int_Tables_number   1
_chemical_formula_structural   Li2Mn2(SbP)3
_chemical_formula_sum   'Li2 Mn2 Sb3 P3'
_cell_volume   183.12192704
_cell_formula_units_Z   1
loop_
 _symmetry_equiv_pos_site_id
 _symmetry_equiv_pos_as_xyz
  1  'x, y, z'
loop_
 _atom_site_type_symbol
 _atom_site_label
 _atom_site_symmetry_multiplicity
 _atom_site_fract_x
 _atom_site_fract_y
 _atom_site_fract_z
 _atom_site_occupancy
  Mn  Mn0  1  0.00000000  0.00000000  0.00000000  1
  Mn  Mn1  1  0.50000000  0.50000000  0.50000000  1
  Sb  Sb2  1  0.50000000  0.50000000  0.00000000  1
  Sb  Sb3  1  0.50000000  0.00000000  0.50000000  1
  Sb  Sb4  1  0.00000000  0.50000000  0.50000000  1
  P  P5  1  0.84889942  0.77140524  0.08481675  1
  P  P6  1  0.35611325  0.36012524  0.83668407  1
  P  P7  1  0.05138370  0.77001758  0.49923956  1
  Li  Li8  1  0.63938819  0.90355014  0.53422763  1
  Li  Li9  1  0.24579157  0.48587077  0.61562781  1
