# generated using pymatgen
data_LiMn3Sb2Mo2P3
_symmetry_space_group_name_H-M   'P 1'
_cell_length_a   6.22710088
_cell_length_b   6.65423357
_cell_length_c   6.67949581
_cell_angle_alpha   92.53134672
_cell_angle_beta   90.51762560
_cell_angle_gamma   92.67896070
_symmetry_Int_Tables_number   1
_chemical_formula_structural   LiMn3Sb2Mo2P3
_chemical_formula_sum   'Li1 Mn3 Sb2 Mo2 P3'
_cell_volume   276.18613898
_cell_formula_units_Z   1
loop_
 _symmetry_equiv_pos_site_id
 _symmetry_equiv_pos_as_xyz
  1  'x, y, z'
loop_
 _atom_site_type_symbol
 _atom_site_label
 _atom_site_symmetry_multiplicity
 _atom_site_fract_x
 _atom_site_fract_y
 _atom_site_fract_z
 _atom_site_occupancy
  Mn  Mn0  1  0.00000000  0.00000000  0.00000000  1
  Mn  Mn1  1  0.50000000  0.50000000  0.50000000  1
  Mn  Mn2  1  0.50000000  0.50000000  0.00000000  1
  Sb  Sb3  1  0.50000000  0.00000000  0.50000000  1
  Sb  Sb4  1  0.00000000  0.50000000  0.50000000  1
  P  P5  1  0.07910216  0.55969739  0.15932652  1
  P  P6  1  0.42495323  0.75047571  0.29384144  1
  P  P7  1  0.37147529  0.87067463  0.89967568  1
  Mo  Mo8  1  0.52440267  0.60128596  0.96545848  1
  Mo  Mo9  1  0.70993065  0.82389247  0.45358194  1
  Li  Li10  1  0.79521015  0.79449971  0.21276846  1
