# generated using pymatgen
data_LiMn2(Sb2P)2
_symmetry_space_group_name_H-M   'P 1'
_cell_length_a   5.20709311
_cell_length_b   5.52246311
_cell_length_c   6.34025543
_cell_angle_alpha   97.53225158
_cell_angle_beta   95.52516239
_cell_angle_gamma   95.57642367
_symmetry_Int_Tables_number   1
_chemical_formula_structural   LiMn2(Sb2P)2
_chemical_formula_sum   'Li1 Mn2 Sb4 P2'
_cell_volume   178.79017929
_cell_formula_units_Z   1
loop_
 _symmetry_equiv_pos_site_id
 _symmetry_equiv_pos_as_xyz
  1  'x, y, z'
loop_
 _atom_site_type_symbol
 _atom_site_label
 _atom_site_symmetry_multiplicity
 _atom_site_fract_x
 _atom_site_fract_y
 _atom_site_fract_z
 _atom_site_occupancy
  Mn  Mn0  1  0.12500000  0.12500000  0.12500000  1
  Mn  Mn1  1  0.50000000  0.50000000  0.50000000  1
  Sb  Sb2  1  0.25000000  0.25000000  0.25000000  1
  Sb  Sb3  1  0.75000000  0.75000000  0.75000000  1
  Sb  Sb4  1  0.76877584  0.70655464  0.24344975  1
  Sb  Sb5  1  0.82134413  0.81711620  0.93821987  1
  P  P6  1  0.41829356  0.97408546  0.56681982  1
  P  P7  1  0.85617213  0.31391632  0.89953974  1
  Li  Li8  1  0.84752669  0.46956028  0.05770026  1
