# generated using pymatgen
data_Li2TiCu2(NiAs3)2
_symmetry_space_group_name_H-M   'P 1'
_cell_length_a   7.28715291
_cell_length_b   7.26608880
_cell_length_c   7.87112211
_cell_angle_alpha   91.00217018
_cell_angle_beta   91.85298141
_cell_angle_gamma   90.87907275
_symmetry_Int_Tables_number   1
_chemical_formula_structural   Li2TiCu2(NiAs3)2
_chemical_formula_sum   'Li2 Ti1 Cu2 Ni2 As6'
_cell_volume   416.43440948
_cell_formula_units_Z   1
loop_
 _symmetry_equiv_pos_site_id
 _symmetry_equiv_pos_as_xyz
  1  'x, y, z'
loop_
 _atom_site_type_symbol
 _atom_site_label
 _atom_site_symmetry_multiplicity
 _atom_site_fract_x
 _atom_site_fract_y
 _atom_site_fract_z
 _atom_site_occupancy
  Li  Li0  1  0.12500000  0.00000000  0.25000000  1
  Li  Li1  1  0.00000000  0.00000000  0.00000000  1
  Cu  Cu2  1  0.37500000  0.00000000  0.25000000  1
  Cu  Cu3  1  0.25000000  0.25000000  0.25000000  1
  Ni  Ni4  1  0.00000000  0.25000000  0.12500000  1
  Ni  Ni5  1  0.37740032  0.34279931  0.82510305  1
  Ti  Ti6  1  0.87489417  0.68918057  0.51600800  1
  As  As7  1  0.02529194  0.37313280  0.71855028  1
  As  As8  1  0.67167197  0.62029620  0.95606469  1
  As  As9  1  0.43854917  0.99191319  0.29298047  1
  As  As10  1  0.12069998  0.71657809  0.07164595  1
  As  As11  1  0.99778612  0.06622205  0.67913213  1
  As  As12  1  0.79363007  0.37192969  0.86179706  1
