# generated using pymatgen
data_Li2TiCu2P4F2
_symmetry_space_group_name_H-M   'P 1'
_cell_length_a   7.11225442
_cell_length_b   7.08652861
_cell_length_c   7.69778728
_cell_angle_alpha   91.08750358
_cell_angle_beta   92.74822027
_cell_angle_gamma   90.82645622
_symmetry_Int_Tables_number   1
_chemical_formula_structural   Li2TiCu2P4F2
_chemical_formula_sum   'Li2 Ti1 Cu2 P4 F2'
_cell_volume   387.41597176
_cell_formula_units_Z   1
loop_
 _symmetry_equiv_pos_site_id
 _symmetry_equiv_pos_as_xyz
  1  'x, y, z'
loop_
 _atom_site_type_symbol
 _atom_site_label
 _atom_site_symmetry_multiplicity
 _atom_site_fract_x
 _atom_site_fract_y
 _atom_site_fract_z
 _atom_site_occupancy
  P  P0  1  0.00000000  0.00000000  0.00000000  1
  P  P1  1  0.50000000  0.50000000  0.50000000  1
  P  P2  1  0.25000000  0.25000000  0.25000000  1
  P  P3  1  0.75000000  0.25000000  0.00000000  1
  Li  Li4  1  0.25000000  0.75000000  0.50000000  1
  Li  Li5  1  0.64969134  0.83241531  0.41398622  1
  Cu  Cu6  1  0.24630144  0.63200874  0.32018303  1
  Cu  Cu7  1  0.14103368  0.29098499  0.32985335  1
  F  F8  1  0.11237346  0.57678154  0.16951989  1
  F  F9  1  0.82469210  0.73016491  0.46553827  1
  Ti  Ti10  1  0.75163419  0.17440944  0.47972580  1
