# generated using pymatgen
data_Li2Cu2Ni2As6O7
_symmetry_space_group_name_H-M   'P 1'
_cell_length_a   7.86991536
_cell_length_b   7.77220916
_cell_length_c   9.06985379
_cell_angle_alpha   90.65677463
_cell_angle_beta   91.22963203
_cell_angle_gamma   90.75301020
_symmetry_Int_Tables_number   1
_chemical_formula_structural   Li2Cu2Ni2As6O7
_chemical_formula_sum   'Li2 Cu2 Ni2 As6 O7'
_cell_volume   554.55844675
_cell_formula_units_Z   1
loop_
 _symmetry_equiv_pos_site_id
 _symmetry_equiv_pos_as_xyz
  1  'x, y, z'
loop_
 _atom_site_type_symbol
 _atom_site_label
 _atom_site_symmetry_multiplicity
 _atom_site_fract_x
 _atom_site_fract_y
 _atom_site_fract_z
 _atom_site_occupancy
  Li  Li0  1  0.12500000  0.00000000  0.25000000  1
  Li  Li1  1  0.00000000  0.00000000  0.00000000  1
  Cu  Cu2  1  0.37500000  0.00000000  0.25000000  1
  Cu  Cu3  1  0.25000000  0.25000000  0.25000000  1
  Ni  Ni4  1  0.00000000  0.25000000  0.12500000  1
  Ni  Ni5  1  0.27897783  0.09713678  0.54159561  1
  As  As6  1  0.34092612  0.11526891  0.71420584  1
  As  As7  1  0.86166147  0.70391814  0.40272753  1
  As  As8  1  0.75582445  0.03830048  0.04910317  1
  As  As9  1  0.48495716  0.28968811  0.40579162  1
  As  As10  1  0.35423863  0.88875673  0.57836793  1
  As  As11  1  0.21969229  0.40932607  0.95536787  1
  O  O12  1  0.54032750  0.10519711  0.48842950  1
  O  O13  1  0.76266844  0.70906315  0.24420621  1
  O  O14  1  0.93680369  0.99985733  0.13032055  1
  O  O15  1  0.01789836  0.41031847  0.86464294  1
  O  O16  1  0.16939099  0.46520906  0.78331110  1
  O  O17  1  0.16543041  0.01120226  0.17877045  1
  O  O18  1  0.92771816  0.06686729  0.65602994  1
