# generated using pymatgen
data_Li2Mn2Sb4Mo2P3
_symmetry_space_group_name_H-M   'P 1'
_cell_length_a   4.86076520
_cell_length_b   5.20178590
_cell_length_c   6.75907673
_cell_angle_alpha   99.07889742
_cell_angle_beta   95.78735528
_cell_angle_gamma   99.64112285
_symmetry_Int_Tables_number   1
_chemical_formula_structural   Li2Mn2Sb4Mo2P3
_chemical_formula_sum   'Li2 Mn2 Sb4 Mo2 P3'
_cell_volume   164.94863784
_cell_formula_units_Z   1
loop_
 _symmetry_equiv_pos_site_id
 _symmetry_equiv_pos_as_xyz
  1  'x, y, z'
loop_
 _atom_site_type_symbol
 _atom_site_label
 _atom_site_symmetry_multiplicity
 _atom_site_fract_x
 _atom_site_fract_y
 _atom_site_fract_z
 _atom_site_occupancy
  Mn  Mn0  1  0.00000000  0.00000000  0.00000000  1
  Mn  Mn1  1  0.50000000  0.50000000  0.50000000  1
  Sb  Sb2  1  0.50000000  0.50000000  0.00000000  1
  Sb  Sb3  1  0.50000000  0.00000000  0.50000000  1
  Sb  Sb4  1  0.00000000  0.50000000  0.50000000  1
  Sb  Sb5  1  0.90482860  0.60811905  0.97634930  1
  P  P6  1  0.43169136  0.33396992  0.52191691  1
  P  P7  1  0.44425412  0.67477145  0.80103583  1
  P  P8  1  0.92836294  0.13980217  0.00777231  1
  Mo  Mo9  1  0.28672877  0.01031453  0.65800110  1
  Mo  Mo10  1  0.60328070  0.21562645  0.02060975  1
  Li  Li11  1  0.81837839  0.29788213  0.02276301  1
  Li  Li12  1  0.26527236  0.12145913  0.63554222  1
