# generated using pymatgen
data_Li3Ni2As6N5O7
_symmetry_space_group_name_H-M   'P 1'
_cell_length_a   7.56582079
_cell_length_b   7.27248826
_cell_length_c   8.94354131
_cell_angle_alpha   92.70995069
_cell_angle_beta   91.15086388
_cell_angle_gamma   93.14248759
_symmetry_Int_Tables_number   1
_chemical_formula_structural   Li3Ni2As6N5O7
_chemical_formula_sum   'Li3 Ni2 As6 N5 O7'
_cell_volume   490.67826202
_cell_formula_units_Z   1
loop_
 _symmetry_equiv_pos_site_id
 _symmetry_equiv_pos_as_xyz
  1  'x, y, z'
loop_
 _atom_site_type_symbol
 _atom_site_label
 _atom_site_symmetry_multiplicity
 _atom_site_fract_x
 _atom_site_fract_y
 _atom_site_fract_z
 _atom_site_occupancy
  Li  Li0  1  0.00000000  0.00000000  0.00000000  1
  Li  Li1  1  0.50000000  0.50000000  0.50000000  1
  Li  Li2  1  0.50000000  0.50000000  0.00000000  1
  Ni  Ni3  1  0.50000000  0.00000000  0.50000000  1
  Ni  Ni4  1  0.00000000  0.50000000  0.50000000  1
  As  As5  1  0.96809538  0.29905125  0.52364013  1
  As  As6  1  0.52484515  0.25762503  0.05047012  1
  As  As7  1  0.55683180  0.59747944  0.42520411  1
  As  As8  1  0.14293865  0.52070884  0.87087976  1
  As  As9  1  0.62574034  0.12446895  0.33053213  1
  As  As10  1  0.46898003  0.80102973  0.99762751  1
  O  O11  1  0.54748869  0.99403398  0.15793929  1
  O  O12  1  0.48330670  0.26560543  0.03514366  1
  O  O13  1  0.15985980  0.11049850  0.99989913  1
  O  O14  1  0.73549486  0.99446093  0.51204348  1
  O  O15  1  0.23204070  0.43265779  0.00437655  1
  O  O16  1  0.23609349  0.27675576  0.53891640  1
  O  O17  1  0.89603556  0.48661748  0.33153234  1
  N  N18  1  0.70330816  0.03227763  0.67828290  1
  N  N19  1  0.47744259  0.73842317  0.00100991  1
  N  N20  1  0.98727654  0.45912413  0.30971239  1
  N  N21  1  0.97562682  0.21771804  0.50936328  1
  N  N22  1  0.93308873  0.58085171  0.25978981  1
