# generated using pymatgen
data_Li2Cu2As6P5F2
_symmetry_space_group_name_H-M   'P 1'
_cell_length_a   7.36398546
_cell_length_b   7.20438388
_cell_length_c   7.57045042
_cell_angle_alpha   91.00344969
_cell_angle_beta   92.35651753
_cell_angle_gamma   90.73176930
_symmetry_Int_Tables_number   1
_chemical_formula_structural   Li2Cu2As6P5F2
_chemical_formula_sum   'Li2 Cu2 As6 P5 F2'
_cell_volume   401.19715403
_cell_formula_units_Z   1
loop_
 _symmetry_equiv_pos_site_id
 _symmetry_equiv_pos_as_xyz
  1  'x, y, z'
loop_
 _atom_site_type_symbol
 _atom_site_label
 _atom_site_symmetry_multiplicity
 _atom_site_fract_x
 _atom_site_fract_y
 _atom_site_fract_z
 _atom_site_occupancy
  P  P0  1  0.00000000  0.00000000  0.00000000  1
  P  P1  1  0.50000000  0.50000000  0.50000000  1
  P  P2  1  0.25000000  0.25000000  0.25000000  1
  P  P3  1  0.75000000  0.25000000  0.00000000  1
  P  P4  1  0.25000000  0.75000000  0.50000000  1
  Li  Li5  1  0.05985475  0.23788306  0.22353953  1
  Li  Li6  1  0.31512112  0.81467512  0.91332117  1
  Cu  Cu7  1  0.59365544  0.84469621  0.29797391  1
  Cu  Cu8  1  0.97790004  0.72478958  0.75173828  1
  F  F9  1  0.07539341  0.91028854  0.94145123  1
  F  F10  1  0.63541526  0.05991790  0.54003019  1
  As  As11  1  0.86640910  0.32151625  0.35141429  1
  As  As12  1  0.40187301  0.28842567  0.39065723  1
  As  As13  1  0.60225444  0.87155766  0.38350318  1
  As  As14  1  0.97733550  0.54259891  0.89561451  1
  As  As15  1  0.05009668  0.98848308  0.00645002  1
  As  As16  1  0.33800712  0.86734110  0.52942060  1
