# generated using pymatgen
data_LiMn2Sb3P2
_symmetry_space_group_name_H-M   'P 1'
_cell_length_a   5.82051057
_cell_length_b   6.29139546
_cell_length_c   6.89006452
_cell_angle_alpha   95.40349455
_cell_angle_beta   94.07894679
_cell_angle_gamma   95.31050482
_symmetry_Int_Tables_number   1
_chemical_formula_structural   LiMn2Sb3P2
_chemical_formula_sum   'Li1 Mn2 Sb3 P2'
_cell_volume   249.29614980
_cell_formula_units_Z   1
loop_
 _symmetry_equiv_pos_site_id
 _symmetry_equiv_pos_as_xyz
  1  'x, y, z'
loop_
 _atom_site_type_symbol
 _atom_site_label
 _atom_site_symmetry_multiplicity
 _atom_site_fract_x
 _atom_site_fract_y
 _atom_site_fract_z
 _atom_site_occupancy
  Mn  Mn0  1  0.00000000  0.00000000  0.00000000  1
  Mn  Mn1  1  0.50000000  0.50000000  0.50000000  1
  Sb  Sb2  1  0.50000000  0.50000000  0.00000000  1
  Sb  Sb3  1  0.50000000  0.00000000  0.50000000  1
  Sb  Sb4  1  0.00000000  0.50000000  0.50000000  1
  P  P5  1  0.41401227  0.93517342  0.22710361  1
  P  P6  1  0.17448749  0.39792398  0.32136389  1
  Li  Li7  1  0.72857177  0.45296959  0.08391297  1
