# generated using pymatgen
data_Li2TiS3N5F2
_symmetry_space_group_name_H-M   'P 1'
_cell_length_a   7.19770092
_cell_length_b   7.04152825
_cell_length_c   7.76867673
_cell_angle_alpha   91.76268297
_cell_angle_beta   93.45975195
_cell_angle_gamma   92.03379967
_symmetry_Int_Tables_number   1
_chemical_formula_structural   Li2TiS3N5F2
_chemical_formula_sum   'Li2 Ti1 S3 N5 F2'
_cell_volume   392.55951593
_cell_formula_units_Z   1
loop_
 _symmetry_equiv_pos_site_id
 _symmetry_equiv_pos_as_xyz
  1  'x, y, z'
loop_
 _atom_site_type_symbol
 _atom_site_label
 _atom_site_symmetry_multiplicity
 _atom_site_fract_x
 _atom_site_fract_y
 _atom_site_fract_z
 _atom_site_occupancy
  Li  Li0  1  0.00000000  0.00000000  0.00000000  1
  Li  Li1  1  0.50000000  0.50000000  0.50000000  1
  F  F2  1  0.25000000  0.25000000  0.25000000  1
  F  F3  1  0.75000000  0.25000000  0.00000000  1
  S  S4  1  0.25000000  0.75000000  0.50000000  1
  S  S5  1  0.85451616  0.11192499  0.78347129  1
  S  S6  1  0.58848887  0.61433668  0.40985515  1
  Ti  Ti7  1  0.24218938  0.40669505  0.87424270  1
  N  N8  1  0.27006675  0.08240684  0.23413418  1
  N  N9  1  0.06614572  0.50930791  0.65590682  1
  N  N10  1  0.35880050  0.04146052  0.61382256  1
  N  N11  1  0.24478411  0.33196714  0.84150329  1
  N  N12  1  0.51504270  0.71610755  0.75694961  1
