# generated using pymatgen
data_Li2TiI4N5F2
_symmetry_space_group_name_H-M   'P 1'
_cell_length_a   7.64031923
_cell_length_b   7.41376371
_cell_length_c   7.74211617
_cell_angle_alpha   91.71208307
_cell_angle_beta   91.56610957
_cell_angle_gamma   91.70828496
_symmetry_Int_Tables_number   1
_chemical_formula_structural   Li2TiI4N5F2
_chemical_formula_sum   'Li2 Ti1 I4 N5 F2'
_cell_volume   437.97530927
_cell_formula_units_Z   1
loop_
 _symmetry_equiv_pos_site_id
 _symmetry_equiv_pos_as_xyz
  1  'x, y, z'
loop_
 _atom_site_type_symbol
 _atom_site_label
 _atom_site_symmetry_multiplicity
 _atom_site_fract_x
 _atom_site_fract_y
 _atom_site_fract_z
 _atom_site_occupancy
  I  I0  1  0.12500000  0.00000000  0.25000000  1
  I  I1  1  0.00000000  0.00000000  0.00000000  1
  I  I2  1  0.37500000  0.00000000  0.25000000  1
  I  I3  1  0.25000000  0.25000000  0.25000000  1
  Li  Li4  1  0.00000000  0.25000000  0.12500000  1
  Li  Li5  1  0.92509505  0.70359255  0.01804835  1
  F  F6  1  0.67330644  0.61977516  0.51242580  1
  F  F7  1  0.84499187  0.44179703  0.98151638  1
  Ti  Ti8  1  0.29142940  0.29438970  0.66723543  1
  N  N9  1  0.61326335  0.25066986  0.51729929  1
  N  N10  1  0.58419243  0.54607883  0.28819601  1
  N  N11  1  0.47775640  0.06662294  0.88020908  1
  N  N12  1  0.28343475  0.39863045  0.90578901  1
  N  N13  1  0.23670764  0.46925732  0.33027933  1
