# generated using pymatgen
data_Li2Cu2Ni2As6O7
_symmetry_space_group_name_H-M   'P 1'
_cell_length_a   7.53863599
_cell_length_b   7.56791256
_cell_length_c   8.45112864
_cell_angle_alpha   90.98537442
_cell_angle_beta   91.87930019
_cell_angle_gamma   91.13714056
_symmetry_Int_Tables_number   1
_chemical_formula_structural   Li2Cu2Ni2As6O7
_chemical_formula_sum   'Li2 Cu2 Ni2 As6 O7'
_cell_volume   481.72047928
_cell_formula_units_Z   1
loop_
 _symmetry_equiv_pos_site_id
 _symmetry_equiv_pos_as_xyz
  1  'x, y, z'
loop_
 _atom_site_type_symbol
 _atom_site_label
 _atom_site_symmetry_multiplicity
 _atom_site_fract_x
 _atom_site_fract_y
 _atom_site_fract_z
 _atom_site_occupancy
  Ni  Ni0  1  0.00000000  0.00000000  0.00000000  1
  Ni  Ni1  1  0.50000000  0.50000000  0.50000000  1
  O  O2  1  0.25000000  0.25000000  0.25000000  1
  O  O3  1  0.75000000  0.25000000  0.00000000  1
  O  O4  1  0.25000000  0.75000000  0.50000000  1
  O  O5  1  0.48322520  0.55250288  0.38830676  1
  O  O6  1  0.11828119  0.17280800  0.57552645  1
  O  O7  1  0.40110317  0.09108539  0.01158447  1
  O  O8  1  0.63396587  0.35586531  0.97055903  1
  As  As9  1  0.59857823  0.34874378  0.20711150  1
  As  As10  1  0.39526019  0.57804196  0.13541510  1
  As  As11  1  0.46305796  0.99058732  0.66441210  1
  As  As12  1  0.75852168  0.31031990  0.26855251  1
  As  As13  1  0.21964891  0.62230089  0.07073001  1
  As  As14  1  0.71726280  0.43840291  0.54798343  1
  Li  Li15  1  0.05840292  0.71161244  0.64112486  1
  Li  Li16  1  0.64412614  0.56383010  0.22225827  1
  Cu  Cu17  1  0.25729742  0.80087641  0.25149848  1
  Cu  Cu18  1  0.42547752  0.51448581  0.37954470  1
