# generated using pymatgen
data_Li2MnSb4P2N
_symmetry_space_group_name_H-M   'P 1'
_cell_length_a   4.65261474
_cell_length_b   4.96127312
_cell_length_c   6.36289123
_cell_angle_alpha   99.44098469
_cell_angle_beta   96.50796916
_cell_angle_gamma   98.88622601
_symmetry_Int_Tables_number   1
_chemical_formula_structural   Li2MnSb4P2N
_chemical_formula_sum   'Li2 Mn1 Sb4 P2 N1'
_cell_volume   141.68894918
_cell_formula_units_Z   1
loop_
 _symmetry_equiv_pos_site_id
 _symmetry_equiv_pos_as_xyz
  1  'x, y, z'
loop_
 _atom_site_type_symbol
 _atom_site_label
 _atom_site_symmetry_multiplicity
 _atom_site_fract_x
 _atom_site_fract_y
 _atom_site_fract_z
 _atom_site_occupancy
  N  N0  1  0.00000000  0.00000000  0.00000000  1
  Mn  Mn1  1  0.50000000  0.50000000  0.50000000  1
  Sb  Sb2  1  0.50000000  0.50000000  0.00000000  1
  Sb  Sb3  1  0.50000000  0.00000000  0.50000000  1
  Sb  Sb4  1  0.00000000  0.50000000  0.50000000  1
  Sb  Sb5  1  0.80770272  0.59824993  0.13823076  1
  P  P6  1  0.16025515  0.68727319  0.34506696  1
  P  P7  1  0.37643688  0.64979175  0.30562042  1
  Li  Li8  1  0.28256235  0.57036658  0.76477411  1
  Li  Li9  1  0.58483241  0.93809240  0.29144106  1
