# generated using pymatgen
data_LiAs3(IO)2
_symmetry_space_group_name_H-M   'P 1'
_cell_length_a   8.34747079
_cell_length_b   8.34647844
_cell_length_c   7.66892160
_cell_angle_alpha   90.18223269
_cell_angle_beta   90.86700779
_cell_angle_gamma   90.20834062
_symmetry_Int_Tables_number   1
_chemical_formula_structural   LiAs3(IO)2
_chemical_formula_sum   'Li2 As6 I4 O4'
_cell_volume   534.24148900
_cell_formula_units_Z   2
loop_
 _symmetry_equiv_pos_site_id
 _symmetry_equiv_pos_as_xyz
  1  'x, y, z'
loop_
 _atom_site_type_symbol
 _atom_site_label
 _atom_site_symmetry_multiplicity
 _atom_site_fract_x
 _atom_site_fract_y
 _atom_site_fract_z
 _atom_site_occupancy
  O  O0  1  0.00000000  0.00000000  0.00000000  1
  O  O1  1  0.50000000  0.50000000  0.50000000  1
  O  O2  1  0.25000000  0.25000000  0.25000000  1
  O  O3  1  0.75000000  0.25000000  0.00000000  1
  I  I4  1  0.25000000  0.75000000  0.50000000  1
  I  I5  1  0.55925936  0.56807875  0.98914460  1
  I  I6  1  0.64146934  0.00874281  0.24577397  1
  I  I7  1  0.49676999  0.38620200  0.72953116  1
  As  As8  1  0.61267843  0.18653402  0.91407245  1
  As  As9  1  0.56939235  0.76260261  0.39970479  1
  As  As10  1  0.25711882  0.65745708  0.31544799  1
  As  As11  1  0.57325605  0.69206856  0.78999962  1
  As  As12  1  0.15111267  0.22653695  0.82181468  1
  As  As13  1  0.61887711  0.36573543  0.51709046  1
  Li  Li14  1  0.19172598  0.92111379  0.47408417  1
  Li  Li15  1  0.07756559  0.10415000  0.88362986  1
