# generated using pymatgen
data_Li3Ni2Te6(AsO)6
_symmetry_space_group_name_H-M   'P 1'
_cell_length_a   7.03857724
_cell_length_b   6.86545324
_cell_length_c   8.26371592
_cell_angle_alpha   95.95296501
_cell_angle_beta   97.12943294
_cell_angle_gamma   95.75991412
_symmetry_Int_Tables_number   1
_chemical_formula_structural   Li3Ni2Te6(AsO)6
_chemical_formula_sum   'Li3 Ni2 Te6 As6 O6'
_cell_volume   391.50096087
_cell_formula_units_Z   1
loop_
 _symmetry_equiv_pos_site_id
 _symmetry_equiv_pos_as_xyz
  1  'x, y, z'
loop_
 _atom_site_type_symbol
 _atom_site_label
 _atom_site_symmetry_multiplicity
 _atom_site_fract_x
 _atom_site_fract_y
 _atom_site_fract_z
 _atom_site_occupancy
  Li  Li0  1  0.00000000  0.00000000  0.00000000  1
  Li  Li1  1  0.50000000  0.50000000  0.50000000  1
  Li  Li2  1  0.25000000  0.25000000  0.25000000  1
  Ni  Ni3  1  0.75000000  0.25000000  0.00000000  1
  Ni  Ni4  1  0.25000000  0.75000000  0.50000000  1
  Te  Te5  1  0.45039072  0.53457698  0.57395805  1
  Te  Te6  1  0.00627896  0.89520294  0.15310320  1
  Te  Te7  1  0.09273414  0.59909377  0.95194841  1
  Te  Te8  1  0.28897468  0.40100255  0.25564928  1
  Te  Te9  1  0.31657542  0.77028080  0.61991392  1
  Te  Te10  1  0.73540923  0.94043695  0.95695344  1
  As  As11  1  0.65187896  0.18896862  0.76171378  1
  As  As12  1  0.45212648  0.11747969  0.84490116  1
  As  As13  1  0.43695037  0.94043357  0.23601799  1
  As  As14  1  0.67249426  0.18270370  0.48993331  1
  As  As15  1  0.85672084  0.87465398  0.11387179  1
  As  As16  1  0.02638253  0.52423744  0.57897543  1
  O  O17  1  0.93038360  0.62364482  0.16102308  1
  O  O18  1  0.98398666  0.34139854  0.20376080  1
  O  O19  1  0.58400853  0.95560943  0.92032575  1
  O  O20  1  0.80430701  0.21935064  0.10633480  1
  O  O21  1  0.78031839  0.89709076  0.65866408  1
  O  O22  1  0.33995337  0.69647390  0.25082910  1
