# generated using pymatgen
data_Li3TiNi2(IO)4
_symmetry_space_group_name_H-M   'P 1'
_cell_length_a   7.96521339
_cell_length_b   7.82594678
_cell_length_c   7.36402285
_cell_angle_alpha   93.57557271
_cell_angle_beta   94.56518512
_cell_angle_gamma   93.36359804
_symmetry_Int_Tables_number   1
_chemical_formula_structural   Li3TiNi2(IO)4
_chemical_formula_sum   'Li3 Ti1 Ni2 I4 O4'
_cell_volume   455.75659565
_cell_formula_units_Z   1
loop_
 _symmetry_equiv_pos_site_id
 _symmetry_equiv_pos_as_xyz
  1  'x, y, z'
loop_
 _atom_site_type_symbol
 _atom_site_label
 _atom_site_symmetry_multiplicity
 _atom_site_fract_x
 _atom_site_fract_y
 _atom_site_fract_z
 _atom_site_occupancy
  I  I0  1  0.12500000  0.00000000  0.25000000  1
  I  I1  1  0.00000000  0.00000000  0.00000000  1
  I  I2  1  0.37500000  0.00000000  0.25000000  1
  I  I3  1  0.25000000  0.25000000  0.25000000  1
  Li  Li4  1  0.00000000  0.25000000  0.12500000  1
  Li  Li5  1  0.01665813  0.29732807  0.20670343  1
  Li  Li6  1  0.11290235  0.38151064  0.62724123  1
  Ni  Ni7  1  0.89873206  0.43943398  0.97388197  1
  Ni  Ni8  1  0.84686473  0.88387000  0.72955558  1
  Ti  Ti9  1  0.72553590  0.01132129  0.81093723  1
  O  O10  1  0.89171163  0.37169250  0.97427814  1
  O  O11  1  0.67558586  0.92850535  0.09970476  1
  O  O12  1  0.63494282  0.34546530  0.39240370  1
  O  O13  1  0.82360726  0.78704857  0.73001255  1
