# generated using pymatgen
data_Li2TiCu2P4F2
_symmetry_space_group_name_H-M   'P 1'
_cell_length_a   7.14975861
_cell_length_b   6.96564568
_cell_length_c   7.94476048
_cell_angle_alpha   91.99564740
_cell_angle_beta   92.33476718
_cell_angle_gamma   91.94252547
_symmetry_Int_Tables_number   1
_chemical_formula_structural   Li2TiCu2P4F2
_chemical_formula_sum   'Li2 Ti1 Cu2 P4 F2'
_cell_volume   394.85498713
_cell_formula_units_Z   1
loop_
 _symmetry_equiv_pos_site_id
 _symmetry_equiv_pos_as_xyz
  1  'x, y, z'
loop_
 _atom_site_type_symbol
 _atom_site_label
 _atom_site_symmetry_multiplicity
 _atom_site_fract_x
 _atom_site_fract_y
 _atom_site_fract_z
 _atom_site_occupancy
  P  P0  1  0.12500000  0.00000000  0.25000000  1
  P  P1  1  0.00000000  0.00000000  0.00000000  1
  P  P2  1  0.37500000  0.00000000  0.25000000  1
  P  P3  1  0.25000000  0.25000000  0.25000000  1
  Li  Li4  1  0.00000000  0.25000000  0.12500000  1
  Li  Li5  1  0.61775929  0.11432626  0.56727005  1
  Cu  Cu6  1  0.41084554  0.85051753  0.50208850  1
  Cu  Cu7  1  0.94063581  0.42625218  0.14661980  1
  F  F8  1  0.80011064  0.76249036  0.48195875  1
  F  F9  1  0.83996485  0.13089049  0.30421144  1
  Ti  Ti10  1  0.02098928  0.47289221  0.37821617  1
