# generated using pymatgen
data_Li2Ti2Te6NO4
_symmetry_space_group_name_H-M   'P 1'
_cell_length_a   6.66518558
_cell_length_b   7.10101142
_cell_length_c   6.44822898
_cell_angle_alpha   91.14642596
_cell_angle_beta   99.46679969
_cell_angle_gamma   91.17442514
_symmetry_Int_Tables_number   1
_chemical_formula_structural   Li2Ti2Te6NO4
_chemical_formula_sum   'Li2 Ti2 Te6 N1 O4'
_cell_volume   300.88762550
_cell_formula_units_Z   1
loop_
 _symmetry_equiv_pos_site_id
 _symmetry_equiv_pos_as_xyz
  1  'x, y, z'
loop_
 _atom_site_type_symbol
 _atom_site_label
 _atom_site_symmetry_multiplicity
 _atom_site_fract_x
 _atom_site_fract_y
 _atom_site_fract_z
 _atom_site_occupancy
  Li  Li0  1  0.00000000  0.00000000  0.00000000  1
  Li  Li1  1  0.50000000  0.50000000  0.50000000  1
  Te  Te2  1  0.25000000  0.25000000  0.25000000  1
  Te  Te3  1  0.75000000  0.25000000  0.00000000  1
  Te  Te4  1  0.25000000  0.75000000  0.50000000  1
  Te  Te5  1  0.05117767  0.08852351  0.96937353  1
  Te  Te6  1  0.66790055  0.65232656  0.85957270  1
  Te  Te7  1  0.41673589  0.74714424  0.64561567  1
  Ti  Ti8  1  0.68350990  0.31610072  0.33348572  1
  Ti  Ti9  1  0.77381182  0.10961559  0.02712225  1
  O  O10  1  0.57758333  0.19915241  0.21941652  1
  O  O11  1  0.74834938  0.03360577  0.77874494  1
  O  O12  1  0.27543728  0.68315907  0.83117478  1
  O  O13  1  0.97558080  0.72333310  0.97842573  1
  N  N14  1  0.17331108  0.11162161  0.37819221  1
