# generated using pymatgen
data_Li2TiCu2(As3P2)2
_symmetry_space_group_name_H-M   'P 1'
_cell_length_a   7.01457511
_cell_length_b   7.07706519
_cell_length_c   7.52867641
_cell_angle_alpha   90.60472591
_cell_angle_beta   91.98196018
_cell_angle_gamma   90.09105326
_symmetry_Int_Tables_number   1
_chemical_formula_structural   Li2TiCu2(As3P2)2
_chemical_formula_sum   'Li2 Ti1 Cu2 As6 P4'
_cell_volume   373.49800747
_cell_formula_units_Z   1
loop_
 _symmetry_equiv_pos_site_id
 _symmetry_equiv_pos_as_xyz
  1  'x, y, z'
loop_
 _atom_site_type_symbol
 _atom_site_label
 _atom_site_symmetry_multiplicity
 _atom_site_fract_x
 _atom_site_fract_y
 _atom_site_fract_z
 _atom_site_occupancy
  Ti  Ti0  1  0.00000000  0.00000000  0.00000000  1
  P  P1  1  0.50000000  0.50000000  0.50000000  1
  P  P2  1  0.25000000  0.25000000  0.25000000  1
  P  P3  1  0.75000000  0.25000000  0.00000000  1
  P  P4  1  0.25000000  0.75000000  0.50000000  1
  As  As5  1  0.46367798  0.68700692  0.50525385  1
  As  As6  1  0.60323114  0.61932246  0.99293654  1
  As  As7  1  0.04822446  0.62929045  0.82568790  1
  As  As8  1  0.25647137  0.86266815  0.47440601  1
  As  As9  1  0.78776062  0.56994458  0.74860299  1
  As  As10  1  0.63462982  0.48871077  0.23821602  1
  Li  Li11  1  0.43746200  0.09021059  0.44953384  1
  Li  Li12  1  0.31460343  0.58999362  0.76881007  1
  Cu  Cu13  1  0.55906528  0.15563688  0.33644874  1
  Cu  Cu14  1  0.40868624  0.41457901  0.58958522  1
