# generated using pymatgen
data_LiMn2Sb4P2N
_symmetry_space_group_name_H-M   'P 1'
_cell_length_a   5.38526826
_cell_length_b   5.80750410
_cell_length_c   6.37269513
_cell_angle_alpha   98.72863601
_cell_angle_beta   97.20170659
_cell_angle_gamma   95.42531004
_symmetry_Int_Tables_number   1
_chemical_formula_structural   LiMn2Sb4P2N
_chemical_formula_sum   'Li1 Mn2 Sb4 P2 N1'
_cell_volume   194.12816384
_cell_formula_units_Z   1
loop_
 _symmetry_equiv_pos_site_id
 _symmetry_equiv_pos_as_xyz
  1  'x, y, z'
loop_
 _atom_site_type_symbol
 _atom_site_label
 _atom_site_symmetry_multiplicity
 _atom_site_fract_x
 _atom_site_fract_y
 _atom_site_fract_z
 _atom_site_occupancy
  N  N0  1  0.00000000  0.00000000  0.00000000  1
  Mn  Mn1  1  0.50000000  0.50000000  0.50000000  1
  Mn  Mn2  1  0.50000000  0.50000000  0.00000000  1
  Sb  Sb3  1  0.50000000  0.00000000  0.50000000  1
  Sb  Sb4  1  0.00000000  0.50000000  0.50000000  1
  Sb  Sb5  1  0.93398727  0.83295706  0.48224910  1
  Sb  Sb6  1  0.20262137  0.57815791  0.44212133  1
  P  P7  1  0.74963858  0.31366368  0.87206586  1
  P  P8  1  0.16560006  0.07866970  0.89079189  1
  Li  Li9  1  0.32211186  0.30365997  0.97069546  1
