# generated using pymatgen
data_Li3Ti2Zn2N5
_symmetry_space_group_name_H-M   'P 1'
_cell_length_a   7.66586483
_cell_length_b   7.86140017
_cell_length_c   7.42227974
_cell_angle_alpha   93.21191084
_cell_angle_beta   93.66223874
_cell_angle_gamma   94.04610283
_symmetry_Int_Tables_number   1
_chemical_formula_structural   Li3Ti2Zn2N5
_chemical_formula_sum   'Li3 Ti2 Zn2 N5'
_cell_volume   444.44939672
_cell_formula_units_Z   1
loop_
 _symmetry_equiv_pos_site_id
 _symmetry_equiv_pos_as_xyz
  1  'x, y, z'
loop_
 _atom_site_type_symbol
 _atom_site_label
 _atom_site_symmetry_multiplicity
 _atom_site_fract_x
 _atom_site_fract_y
 _atom_site_fract_z
 _atom_site_occupancy
  Li  Li0  1  0.12500000  0.12500000  0.12500000  1
  Li  Li1  1  0.50000000  0.50000000  0.50000000  1
  Li  Li2  1  0.25000000  0.25000000  0.25000000  1
  Zn  Zn3  1  0.75000000  0.75000000  0.75000000  1
  Zn  Zn4  1  0.46736636  0.71429085  0.57504916  1
  Ti  Ti5  1  0.97969581  0.61500150  0.02852261  1
  Ti  Ti6  1  0.22553995  0.80389294  0.64186127  1
  N  N7  1  0.11838303  0.33517675  0.68053635  1
  N  N8  1  0.83206376  0.67776894  0.89605650  1
  N  N9  1  0.17136589  0.58953542  0.38645038  1
  N  N10  1  0.11341791  0.31919113  0.74867713  1
  N  N11  1  0.41586970  0.79711113  0.61647136  1
