# generated using pymatgen
data_Li3LuCu2I4N5
_symmetry_space_group_name_H-M   'P 1'
_cell_length_a   8.09419144
_cell_length_b   7.93747771
_cell_length_c   7.88563857
_cell_angle_alpha   91.77963512
_cell_angle_beta   91.55984239
_cell_angle_gamma   91.88085667
_symmetry_Int_Tables_number   1
_chemical_formula_structural   Li3LuCu2I4N5
_chemical_formula_sum   'Li3 Lu1 Cu2 I4 N5'
_cell_volume   505.91282010
_cell_formula_units_Z   1
loop_
 _symmetry_equiv_pos_site_id
 _symmetry_equiv_pos_as_xyz
  1  'x, y, z'
loop_
 _atom_site_type_symbol
 _atom_site_label
 _atom_site_symmetry_multiplicity
 _atom_site_fract_x
 _atom_site_fract_y
 _atom_site_fract_z
 _atom_site_occupancy
  I  I0  1  0.00000000  0.00000000  0.00000000  1
  I  I1  1  0.50000000  0.50000000  0.50000000  1
  I  I2  1  0.50000000  0.50000000  0.00000000  1
  I  I3  1  0.50000000  0.00000000  0.50000000  1
  Lu  Lu4  1  0.00000000  0.50000000  0.50000000  1
  Li  Li5  1  0.62906884  0.95368241  0.76432223  1
  Li  Li6  1  0.86954250  0.84317923  0.27091998  1
  Li  Li7  1  0.60286252  0.80778261  0.33030250  1
  Cu  Cu8  1  0.05128400  0.19705763  0.27408709  1
  Cu  Cu9  1  0.31071830  0.32155768  0.35142970  1
  N  N10  1  0.03199383  0.55124654  0.48484808  1
  N  N11  1  0.42327479  0.14640604  0.81945674  1
  N  N12  1  0.04364307  0.00970194  0.62084103  1
  N  N13  1  0.58903098  0.80718803  0.65579745  1
  N  N14  1  0.23489493  0.65666213  0.72379666  1
