# generated using pymatgen
data_Li2MnSb3Mo2P3
_symmetry_space_group_name_H-M   'P 1'
_cell_length_a   6.23206410
_cell_length_b   6.60538092
_cell_length_c   7.23163624
_cell_angle_alpha   95.58791656
_cell_angle_beta   91.59579596
_cell_angle_gamma   95.59094181
_symmetry_Int_Tables_number   1
_chemical_formula_structural   Li2MnSb3Mo2P3
_chemical_formula_sum   'Li2 Mn1 Sb3 Mo2 P3'
_cell_volume   294.65782047
_cell_formula_units_Z   1
loop_
 _symmetry_equiv_pos_site_id
 _symmetry_equiv_pos_as_xyz
  1  'x, y, z'
loop_
 _atom_site_type_symbol
 _atom_site_label
 _atom_site_symmetry_multiplicity
 _atom_site_fract_x
 _atom_site_fract_y
 _atom_site_fract_z
 _atom_site_occupancy
  Mn  Mn0  1  0.00000000  0.00000000  0.00000000  1
  Sb  Sb1  1  0.50000000  0.50000000  0.50000000  1
  Sb  Sb2  1  0.25000000  0.25000000  0.25000000  1
  Sb  Sb3  1  0.75000000  0.25000000  0.00000000  1
  P  P4  1  0.25000000  0.75000000  0.50000000  1
  P  P5  1  0.98007956  0.96256857  0.11594059  1
  P  P6  1  0.55013251  0.83176855  0.44680540  1
  Mo  Mo7  1  0.31133364  0.04474328  0.02862199  1
  Mo  Mo8  1  0.11160632  0.39586052  0.77029928  1
  Li  Li9  1  0.88838588  0.38251491  0.85717216  1
  Li  Li10  1  0.05953305  0.89407499  0.45611101  1
