# generated using pymatgen
data_Li3TiP3
_symmetry_space_group_name_H-M   'P 1'
_cell_length_a   7.27656724
_cell_length_b   6.97721357
_cell_length_c   6.93757785
_cell_angle_alpha   92.28828877
_cell_angle_beta   93.86045336
_cell_angle_gamma   92.14855326
_symmetry_Int_Tables_number   1
_chemical_formula_structural   Li3TiP3
_chemical_formula_sum   'Li3 Ti1 P3'
_cell_volume   350.85724327
_cell_formula_units_Z   1
loop_
 _symmetry_equiv_pos_site_id
 _symmetry_equiv_pos_as_xyz
  1  'x, y, z'
loop_
 _atom_site_type_symbol
 _atom_site_label
 _atom_site_symmetry_multiplicity
 _atom_site_fract_x
 _atom_site_fract_y
 _atom_site_fract_z
 _atom_site_occupancy
  P  P0  1  0.12500000  0.00000000  0.25000000  1
  P  P1  1  0.00000000  0.00000000  0.00000000  1
  P  P2  1  0.37500000  0.00000000  0.25000000  1
  Li  Li3  1  0.25000000  0.25000000  0.25000000  1
  Li  Li4  1  0.00000000  0.25000000  0.12500000  1
  Li  Li5  1  0.93155199  0.25547294  0.82983821  1
  Ti  Ti6  1  0.81486001  0.71274085  0.24943782  1
