# generated using pymatgen
data_Li3TiN5
_symmetry_space_group_name_H-M   'P 1'
_cell_length_a   7.72123747
_cell_length_b   7.58965978
_cell_length_c   8.12457180
_cell_angle_alpha   93.35351206
_cell_angle_beta   93.17272879
_cell_angle_gamma   93.41794981
_symmetry_Int_Tables_number   1
_chemical_formula_structural   Li3TiN5
_chemical_formula_sum   'Li3 Ti1 N5'
_cell_volume   473.62426338
_cell_formula_units_Z   1
loop_
 _symmetry_equiv_pos_site_id
 _symmetry_equiv_pos_as_xyz
  1  'x, y, z'
loop_
 _atom_site_type_symbol
 _atom_site_label
 _atom_site_symmetry_multiplicity
 _atom_site_fract_x
 _atom_site_fract_y
 _atom_site_fract_z
 _atom_site_occupancy
  Li  Li0  1  0.12500000  0.12500000  0.12500000  1
  Li  Li1  1  0.50000000  0.50000000  0.50000000  1
  Li  Li2  1  0.25000000  0.25000000  0.25000000  1
  Ti  Ti3  1  0.75000000  0.75000000  0.75000000  1
  N  N4  1  0.64977378  0.16141535  0.53549195  1
  N  N5  1  0.20972390  0.39238543  0.29949246  1
  N  N6  1  0.21449570  0.46017056  0.07845478  1
  N  N7  1  0.90516902  0.15608804  0.30007941  1
  N  N8  1  0.90091731  0.21221411  0.17004055  1
