# generated using pymatgen
data_LiMn2Sb4P3
_symmetry_space_group_name_H-M   'P 1'
_cell_length_a   5.26844474
_cell_length_b   5.54817911
_cell_length_c   6.39048096
_cell_angle_alpha   97.96661949
_cell_angle_beta   91.71594417
_cell_angle_gamma   97.84085643
_symmetry_Int_Tables_number   1
_chemical_formula_structural   LiMn2Sb4P3
_chemical_formula_sum   'Li1 Mn2 Sb4 P3'
_cell_volume   183.03588524
_cell_formula_units_Z   1
loop_
 _symmetry_equiv_pos_site_id
 _symmetry_equiv_pos_as_xyz
  1  'x, y, z'
loop_
 _atom_site_type_symbol
 _atom_site_label
 _atom_site_symmetry_multiplicity
 _atom_site_fract_x
 _atom_site_fract_y
 _atom_site_fract_z
 _atom_site_occupancy
  Mn  Mn0  1  0.00000000  0.00000000  0.00000000  1
  Mn  Mn1  1  0.50000000  0.50000000  0.50000000  1
  Sb  Sb2  1  0.25000000  0.25000000  0.25000000  1
  Sb  Sb3  1  0.75000000  0.25000000  0.00000000  1
  Sb  Sb4  1  0.25000000  0.75000000  0.50000000  1
  Sb  Sb5  1  0.11713619  0.83198991  0.48140199  1
  P  P6  1  0.91901169  0.40075738  0.23019461  1
  P  P7  1  0.85019513  0.48797372  0.11851913  1
  P  P8  1  0.71367795  0.32637221  0.44492272  1
  Li  Li9  1  0.79825689  0.96740674  0.70018872  1
