# generated using pymatgen
data_LiCu(AsP)3
_symmetry_space_group_name_H-M   'P 1'
_cell_length_a   8.08306706
_cell_length_b   7.94946792
_cell_length_c   8.11602334
_cell_angle_alpha   90.28353249
_cell_angle_beta   91.34896146
_cell_angle_gamma   90.32415334
_symmetry_Int_Tables_number   1
_chemical_formula_structural   LiCu(AsP)3
_chemical_formula_sum   'Li2 Cu2 As6 P6'
_cell_volume   521.34425247
_cell_formula_units_Z   2
loop_
 _symmetry_equiv_pos_site_id
 _symmetry_equiv_pos_as_xyz
  1  'x, y, z'
loop_
 _atom_site_type_symbol
 _atom_site_label
 _atom_site_symmetry_multiplicity
 _atom_site_fract_x
 _atom_site_fract_y
 _atom_site_fract_z
 _atom_site_occupancy
  P  P0  1  0.00000000  0.00000000  0.00000000  1
  P  P1  1  0.33300000  0.66700000  0.25000000  1
  P  P2  1  0.66700000  0.33300000  0.50000000  1
  P  P3  1  0.00000000  0.00000000  0.75000000  1
  P  P4  1  0.99143066  0.50274593  0.52376374  1
  P  P5  1  0.47686879  0.32604230  0.76447133  1
  Li  Li6  1  0.92478402  0.21555810  0.70569578  1
  Li  Li7  1  0.48552073  0.51754209  0.18970513  1
  Cu  Cu8  1  0.51166245  0.45167155  0.70265113  1
  Cu  Cu9  1  0.50630510  0.15511877  0.94347365  1
  As  As10  1  0.09243021  0.71872801  0.36815236  1
  As  As11  1  0.68814377  0.45655537  0.06723797  1
  As  As12  1  0.30881197  0.55847830  0.47382044  1
  As  As13  1  0.08999427  0.29988848  0.24381792  1
  As  As14  1  0.43435943  0.20019328  0.62137361  1
  As  As15  1  0.18871174  0.28777291  0.21540624  1
