# generated using pymatgen
data_Li2MnSb4P3
_symmetry_space_group_name_H-M   'P 1'
_cell_length_a   7.23379015
_cell_length_b   7.72039848
_cell_length_c   7.46036791
_cell_angle_alpha   91.61191291
_cell_angle_beta   90.61589415
_cell_angle_gamma   91.65440927
_symmetry_Int_Tables_number   1
_chemical_formula_structural   Li2MnSb4P3
_chemical_formula_sum   'Li2 Mn1 Sb4 P3'
_cell_volume   416.27835562
_cell_formula_units_Z   1
loop_
 _symmetry_equiv_pos_site_id
 _symmetry_equiv_pos_as_xyz
  1  'x, y, z'
loop_
 _atom_site_type_symbol
 _atom_site_label
 _atom_site_symmetry_multiplicity
 _atom_site_fract_x
 _atom_site_fract_y
 _atom_site_fract_z
 _atom_site_occupancy
  Mn  Mn0  1  0.12500000  0.00000000  0.25000000  1
  Sb  Sb1  1  0.00000000  0.00000000  0.00000000  1
  Sb  Sb2  1  0.37500000  0.00000000  0.25000000  1
  Sb  Sb3  1  0.25000000  0.25000000  0.25000000  1
  Sb  Sb4  1  0.00000000  0.25000000  0.12500000  1
  P  P5  1  0.82541624  0.24849411  0.77146187  1
  P  P6  1  0.15586682  0.57132606  0.57764309  1
  P  P7  1  0.28335106  0.50274935  0.03706417  1
  Li  Li8  1  0.69378563  0.84386257  0.40267390  1
  Li  Li9  1  0.28613719  0.48287890  0.34418687  1
