# generated using pymatgen
data_Li2SbMo2P3
_symmetry_space_group_name_H-M   'P 1'
_cell_length_a   4.50018975
_cell_length_b   4.64209377
_cell_length_c   5.68152616
_cell_angle_alpha   102.72717391
_cell_angle_beta   89.99471006
_cell_angle_gamma   102.17702332
_symmetry_Int_Tables_number   1
_chemical_formula_structural   Li2SbMo2P3
_chemical_formula_sum   'Li2 Sb1 Mo2 P3'
_cell_volume   113.03386662
_cell_formula_units_Z   1
loop_
 _symmetry_equiv_pos_site_id
 _symmetry_equiv_pos_as_xyz
  1  'x, y, z'
loop_
 _atom_site_type_symbol
 _atom_site_label
 _atom_site_symmetry_multiplicity
 _atom_site_fract_x
 _atom_site_fract_y
 _atom_site_fract_z
 _atom_site_occupancy
  Sb  Sb0  1  0.00000000  0.00000000  0.00000000  1
  P  P1  1  0.33300000  0.66700000  0.25000000  1
  P  P2  1  0.66700000  0.33300000  0.50000000  1
  P  P3  1  0.00000000  0.00000000  0.75000000  1
  Mo  Mo4  1  0.62514111  0.60495666  0.23429073  1
  Mo  Mo5  1  0.99672403  0.22110418  0.70558762  1
  Li  Li6  1  0.22731442  0.78276155  0.80266287  1
  Li  Li7  1  0.19476596  0.16551389  0.24077421  1
