# generated using pymatgen
data_Li3Ti(NiI2)2
_symmetry_space_group_name_H-M   'P 1'
_cell_length_a   7.88029699
_cell_length_b   7.71125915
_cell_length_c   8.26362202
_cell_angle_alpha   91.74330056
_cell_angle_beta   91.10524684
_cell_angle_gamma   92.02017347
_symmetry_Int_Tables_number   1
_chemical_formula_structural   Li3Ti(NiI2)2
_chemical_formula_sum   'Li3 Ti1 Ni2 I4'
_cell_volume   501.50702658
_cell_formula_units_Z   1
loop_
 _symmetry_equiv_pos_site_id
 _symmetry_equiv_pos_as_xyz
  1  'x, y, z'
loop_
 _atom_site_type_symbol
 _atom_site_label
 _atom_site_symmetry_multiplicity
 _atom_site_fract_x
 _atom_site_fract_y
 _atom_site_fract_z
 _atom_site_occupancy
  I  I0  1  0.12500000  0.00000000  0.25000000  1
  I  I1  1  0.00000000  0.00000000  0.00000000  1
  I  I2  1  0.37500000  0.00000000  0.25000000  1
  I  I3  1  0.25000000  0.25000000  0.25000000  1
  Li  Li4  1  0.00000000  0.25000000  0.12500000  1
  Li  Li5  1  0.49779007  0.99175531  0.62042830  1
  Li  Li6  1  0.98502058  0.62955820  0.10395286  1
  Ni  Ni7  1  0.87883114  0.41295617  0.03004841  1
  Ni  Ni8  1  0.22271541  0.59013415  0.57122541  1
  Ti  Ti9  1  0.56942845  0.47896680  0.53996056  1
