# generated using pymatgen
data_Li4Cu2As6P8O3
_symmetry_space_group_name_H-M   'P 1'
_cell_length_a   7.25131557
_cell_length_b   7.23753372
_cell_length_c   8.37921355
_cell_angle_alpha   93.64287295
_cell_angle_beta   95.71595055
_cell_angle_gamma   93.45036724
_symmetry_Int_Tables_number   1
_chemical_formula_structural   Li4Cu2As6P8O3
_chemical_formula_sum   'Li4 Cu2 As6 P8 O3'
_cell_volume   435.70359692
_cell_formula_units_Z   1
loop_
 _symmetry_equiv_pos_site_id
 _symmetry_equiv_pos_as_xyz
  1  'x, y, z'
loop_
 _atom_site_type_symbol
 _atom_site_label
 _atom_site_symmetry_multiplicity
 _atom_site_fract_x
 _atom_site_fract_y
 _atom_site_fract_z
 _atom_site_occupancy
  P  P0  1  0.00000000  0.00000000  0.00000000  1
  P  P1  1  0.50000000  0.50000000  0.50000000  1
  P  P2  1  0.25000000  0.25000000  0.25000000  1
  P  P3  1  0.75000000  0.25000000  0.00000000  1
  P  P4  1  0.25000000  0.75000000  0.50000000  1
  P  P5  1  0.92614098  0.23435565  0.80856591  1
  P  P6  1  0.77875362  0.85775511  0.24135949  1
  P  P7  1  0.03423034  0.76610135  0.18276706  1
  Li  Li8  1  0.25770447  0.71055591  0.78839558  1
  Li  Li9  1  0.24344204  0.34857333  0.34417562  1
  Li  Li10  1  0.90470307  0.69642249  0.58855846  1
  Li  Li11  1  0.37868844  0.07987280  0.53433630  1
  Cu  Cu12  1  0.18854498  0.43750622  0.77001519  1
  Cu  Cu13  1  0.91774791  0.53191053  0.93282248  1
  As  As14  1  0.68091367  0.32928023  0.85738479  1
  As  As15  1  0.88911407  0.37452808  0.28041904  1
  As  As16  1  0.58418823  0.97978086  0.07581754  1
  As  As17  1  0.29848442  0.83660955  0.77335854  1
  As  As18  1  0.58538713  0.26763591  0.59026433  1
  As  As19  1  0.36615743  0.43192581  0.77637592  1
  O  O20  1  0.89502219  0.12113647  0.78933132  1
  O  O21  1  0.54219060  0.31629422  0.02412176  1
  O  O22  1  0.01578903  0.75309145  0.64132239  1
