# generated using pymatgen
data_LiNiTe3P3I2
_symmetry_space_group_name_H-M   'P 1'
_cell_length_a   7.47923093
_cell_length_b   7.23436101
_cell_length_c   7.79128040
_cell_angle_alpha   94.62463753
_cell_angle_beta   96.22319437
_cell_angle_gamma   94.36900863
_symmetry_Int_Tables_number   1
_chemical_formula_structural   LiNiTe3P3I2
_chemical_formula_sum   'Li2 Ni2 Te6 P6 I4'
_cell_volume   416.18086769
_cell_formula_units_Z   2
loop_
 _symmetry_equiv_pos_site_id
 _symmetry_equiv_pos_as_xyz
  1  'x, y, z'
loop_
 _atom_site_type_symbol
 _atom_site_label
 _atom_site_symmetry_multiplicity
 _atom_site_fract_x
 _atom_site_fract_y
 _atom_site_fract_z
 _atom_site_occupancy
  P  P0  1  0.12500000  0.00000000  0.25000000  1
  P  P1  1  0.00000000  0.00000000  0.00000000  1
  P  P2  1  0.37500000  0.00000000  0.25000000  1
  P  P3  1  0.25000000  0.25000000  0.25000000  1
  P  P4  1  0.00000000  0.25000000  0.12500000  1
  P  P5  1  0.27914591  0.85971043  0.33787630  1
  I  I6  1  0.43494005  0.12879473  0.75794591  1
  I  I7  1  0.98682655  0.21039290  0.27267356  1
  I  I8  1  0.34379629  0.26963150  0.05486417  1
  I  I9  1  0.86384213  0.45957802  0.08713843  1
  Li  Li10  1  0.78933361  0.04156051  0.00548554  1
  Li  Li11  1  0.86260038  0.42621720  0.40093009  1
  Ni  Ni12  1  0.80059705  0.37484378  0.37155166  1
  Ni  Ni13  1  0.96400997  0.72141308  0.88806981  1
  Te  Te14  1  0.16460053  0.07737590  0.81427738  1
  Te  Te15  1  0.18127625  0.17174418  0.64665605  1
  Te  Te16  1  0.32903069  0.85365492  0.98839647  1
  Te  Te17  1  0.41728776  0.77049014  0.38958424  1
  Te  Te18  1  0.15043555  0.32319746  0.42561242  1
  Te  Te19  1  0.66862604  0.00630394  0.20311497  1
