# generated using pymatgen
data_LiTi(IO)4
_symmetry_space_group_name_H-M   'P 1'
_cell_length_a   7.13505664
_cell_length_b   7.08244291
_cell_length_c   7.25051660
_cell_angle_alpha   90.92164226
_cell_angle_beta   94.38489396
_cell_angle_gamma   91.05368320
_symmetry_Int_Tables_number   1
_chemical_formula_structural   LiTi(IO)4
_chemical_formula_sum   'Li1 Ti1 I4 O4'
_cell_volume   365.20447517
_cell_formula_units_Z   1
loop_
 _symmetry_equiv_pos_site_id
 _symmetry_equiv_pos_as_xyz
  1  'x, y, z'
loop_
 _atom_site_type_symbol
 _atom_site_label
 _atom_site_symmetry_multiplicity
 _atom_site_fract_x
 _atom_site_fract_y
 _atom_site_fract_z
 _atom_site_occupancy
  I  I0  1  0.00000000  0.00000000  0.00000000  1
  I  I1  1  0.50000000  0.50000000  0.50000000  1
  I  I2  1  0.50000000  0.50000000  0.00000000  1
  I  I3  1  0.50000000  0.00000000  0.50000000  1
  Li  Li4  1  0.00000000  0.50000000  0.50000000  1
  Ti  Ti5  1  0.78480766  0.20915443  0.28787039  1
  O  O6  1  0.16680756  0.94425768  0.11621658  1
  O  O7  1  0.37532663  0.95842262  0.43767135  1
  O  O8  1  0.98751582  0.91619704  0.76691774  1
  O  O9  1  0.54687216  0.85199051  0.02947801  1
