# generated using pymatgen
data_LiScSe3(BrF)2
_symmetry_space_group_name_H-M   'P 1'
_cell_length_a   6.63675908
_cell_length_b   6.88908219
_cell_length_c   7.49370381
_cell_angle_alpha   90.81428691
_cell_angle_beta   93.87412982
_cell_angle_gamma   90.93094737
_symmetry_Int_Tables_number   1
_chemical_formula_structural   LiScSe3(BrF)2
_chemical_formula_sum   'Li1 Sc1 Se3 Br2 F2'
_cell_volume   341.75267197
_cell_formula_units_Z   1
loop_
 _symmetry_equiv_pos_site_id
 _symmetry_equiv_pos_as_xyz
  1  'x, y, z'
loop_
 _atom_site_type_symbol
 _atom_site_label
 _atom_site_symmetry_multiplicity
 _atom_site_fract_x
 _atom_site_fract_y
 _atom_site_fract_z
 _atom_site_occupancy
  Sc  Sc0  1  0.00000000  0.00000000  0.00000000  1
  Li  Li1  1  0.50000000  0.50000000  0.50000000  1
  Br  Br2  1  0.50000000  0.50000000  0.00000000  1
  Br  Br3  1  0.50000000  0.00000000  0.50000000  1
  Se  Se4  1  0.00000000  0.50000000  0.50000000  1
  Se  Se5  1  0.93250709  0.16628939  0.70533452  1
  Se  Se6  1  0.69710223  0.18830070  0.29040572  1
  F  F7  1  0.68982407  0.85037203  0.46734354  1
  F  F8  1  0.06613162  0.16974345  0.62134750  1
