# generated using pymatgen
data_LiMn2Sb4P3
_symmetry_space_group_name_H-M   'P 1'
_cell_length_a   6.03601428
_cell_length_b   6.46173707
_cell_length_c   6.92951955
_cell_angle_alpha   93.78038558
_cell_angle_beta   92.63338746
_cell_angle_gamma   93.91132060
_symmetry_Int_Tables_number   1
_chemical_formula_structural   LiMn2Sb4P3
_chemical_formula_sum   'Li1 Mn2 Sb4 P3'
_cell_volume   268.71114574
_cell_formula_units_Z   1
loop_
 _symmetry_equiv_pos_site_id
 _symmetry_equiv_pos_as_xyz
  1  'x, y, z'
loop_
 _atom_site_type_symbol
 _atom_site_label
 _atom_site_symmetry_multiplicity
 _atom_site_fract_x
 _atom_site_fract_y
 _atom_site_fract_z
 _atom_site_occupancy
  Mn  Mn0  1  0.00000000  0.00000000  0.00000000  1
  Mn  Mn1  1  0.33300000  0.66700000  0.25000000  1
  Sb  Sb2  1  0.66700000  0.33300000  0.50000000  1
  Sb  Sb3  1  0.00000000  0.00000000  0.75000000  1
  Sb  Sb4  1  0.48384990  0.52015287  0.25975529  1
  Sb  Sb5  1  0.27165486  0.72689879  0.28036996  1
  P  P6  1  0.68569244  0.35515056  0.22000677  1
  P  P7  1  0.73385406  0.63772754  0.70865124  1
  P  P8  1  0.15731369  0.41499074  0.26488974  1
  Li  Li9  1  0.11093093  0.27259719  0.33974316  1
