# generated using pymatgen
data_Li2Ti(CuP2)2
_symmetry_space_group_name_H-M   'P 1'
_cell_length_a   6.90788746
_cell_length_b   6.90154523
_cell_length_c   7.34901707
_cell_angle_alpha   93.16282345
_cell_angle_beta   94.13653926
_cell_angle_gamma   93.52769775
_symmetry_Int_Tables_number   1
_chemical_formula_structural   Li2Ti(CuP2)2
_chemical_formula_sum   'Li2 Ti1 Cu2 P4'
_cell_volume   348.16434584
_cell_formula_units_Z   1
loop_
 _symmetry_equiv_pos_site_id
 _symmetry_equiv_pos_as_xyz
  1  'x, y, z'
loop_
 _atom_site_type_symbol
 _atom_site_label
 _atom_site_symmetry_multiplicity
 _atom_site_fract_x
 _atom_site_fract_y
 _atom_site_fract_z
 _atom_site_occupancy
  P  P0  1  0.12500000  0.12500000  0.12500000  1
  P  P1  1  0.50000000  0.50000000  0.50000000  1
  P  P2  1  0.25000000  0.25000000  0.25000000  1
  P  P3  1  0.75000000  0.75000000  0.75000000  1
  Li  Li4  1  0.17976742  0.60836746  0.90341849  1
  Li  Li5  1  0.93244866  0.33836954  0.90068332  1
  Cu  Cu6  1  0.24323088  0.36905195  0.95623865  1
  Cu  Cu7  1  0.08365090  0.81026997  0.14353478  1
  Ti  Ti8  1  0.08869176  0.43555553  0.83524533  1
