# generated using pymatgen
data_Li(NiP)3
_symmetry_space_group_name_H-M   'P 1'
_cell_length_a   4.95624452
_cell_length_b   5.09579252
_cell_length_c   6.64569114
_cell_angle_alpha   96.09155630
_cell_angle_beta   95.79132437
_cell_angle_gamma   96.40379598
_symmetry_Int_Tables_number   1
_chemical_formula_structural   Li(NiP)3
_chemical_formula_sum   'Li1 Ni3 P3'
_cell_volume   164.77145216
_cell_formula_units_Z   1
loop_
 _symmetry_equiv_pos_site_id
 _symmetry_equiv_pos_as_xyz
  1  'x, y, z'
loop_
 _atom_site_type_symbol
 _atom_site_label
 _atom_site_symmetry_multiplicity
 _atom_site_fract_x
 _atom_site_fract_y
 _atom_site_fract_z
 _atom_site_occupancy
  P  P0  1  0.00000000  0.00000000  0.00000000  1
  P  P1  1  0.50000000  0.50000000  0.50000000  1
  P  P2  1  0.25000000  0.25000000  0.25000000  1
  Li  Li3  1  0.75000000  0.25000000  0.00000000  1
  Ni  Ni4  1  0.25000000  0.75000000  0.50000000  1
  Ni  Ni5  1  0.60493195  0.48514450  0.48026464  1
  Ni  Ni6  1  0.44816520  0.49769345  0.58311454  1
