# generated using pymatgen
data_LiTi2Cu2P5S3
_symmetry_space_group_name_H-M   'P 1'
_cell_length_a   6.97331490
_cell_length_b   6.90463571
_cell_length_c   7.34269280
_cell_angle_alpha   90.80719557
_cell_angle_beta   93.84039137
_cell_angle_gamma   90.92284007
_symmetry_Int_Tables_number   1
_chemical_formula_structural   LiTi2Cu2P5S3
_chemical_formula_sum   'Li1 Ti2 Cu2 P5 S3'
_cell_volume   352.65705276
_cell_formula_units_Z   1
loop_
 _symmetry_equiv_pos_site_id
 _symmetry_equiv_pos_as_xyz
  1  'x, y, z'
loop_
 _atom_site_type_symbol
 _atom_site_label
 _atom_site_symmetry_multiplicity
 _atom_site_fract_x
 _atom_site_fract_y
 _atom_site_fract_z
 _atom_site_occupancy
  P  P0  1  0.12500000  0.00000000  0.25000000  1
  P  P1  1  0.00000000  0.00000000  0.00000000  1
  P  P2  1  0.37500000  0.00000000  0.25000000  1
  P  P3  1  0.25000000  0.25000000  0.25000000  1
  P  P4  1  0.00000000  0.25000000  0.12500000  1
  Li  Li5  1  0.71922662  0.45135690  0.21384413  1
  Cu  Cu6  1  0.85210440  0.19092078  0.49705103  1
  Cu  Cu7  1  0.55269719  0.01603696  0.20369319  1
  S  S8  1  0.47328372  0.63602892  0.85235924  1
  S  S9  1  0.37669369  0.47190442  0.14437654  1
  S  S10  1  0.55321284  0.31567235  0.21978836  1
  Ti  Ti11  1  0.72686965  0.52638170  0.97678237  1
  Ti  Ti12  1  0.45265402  0.66358521  0.93216691  1
