# generated using pymatgen
data_Li3LuCu2(PN)5
_symmetry_space_group_name_H-M   'P 1'
_cell_length_a   7.22810626
_cell_length_b   7.09631298
_cell_length_c   8.09355144
_cell_angle_alpha   94.24675482
_cell_angle_beta   94.22573891
_cell_angle_gamma   94.87556511
_symmetry_Int_Tables_number   1
_chemical_formula_structural   Li3LuCu2(PN)5
_chemical_formula_sum   'Li3 Lu1 Cu2 P5 N5'
_cell_volume   411.16547361
_cell_formula_units_Z   1
loop_
 _symmetry_equiv_pos_site_id
 _symmetry_equiv_pos_as_xyz
  1  'x, y, z'
loop_
 _atom_site_type_symbol
 _atom_site_label
 _atom_site_symmetry_multiplicity
 _atom_site_fract_x
 _atom_site_fract_y
 _atom_site_fract_z
 _atom_site_occupancy
  P  P0  1  0.00000000  0.00000000  0.00000000  1
  P  P1  1  0.50000000  0.50000000  0.50000000  1
  P  P2  1  0.50000000  0.50000000  0.00000000  1
  P  P3  1  0.50000000  0.00000000  0.50000000  1
  P  P4  1  0.00000000  0.50000000  0.50000000  1
  Lu  Lu5  1  0.94154578  0.90675423  0.95326791  1
  Li  Li6  1  0.92327260  0.42077809  0.44325030  1
  Li  Li7  1  0.41373463  0.58299671  0.80102546  1
  Li  Li8  1  0.80090991  0.19991403  0.45806387  1
  Cu  Cu9  1  0.16622781  0.85838566  0.62486914  1
  Cu  Cu10  1  0.67985881  0.67913344  0.05387333  1
  N  N11  1  0.13748936  0.55252684  0.72030653  1
  N  N12  1  0.33268081  0.53791352  0.18045580  1
  N  N13  1  0.23378234  0.52221366  0.33688272  1
  N  N14  1  0.65947035  0.10917314  0.97425661  1
  N  N15  1  0.47271890  0.99852978  0.66061082  1
