# generated using pymatgen
data_LiNi3Sb4P3
_symmetry_space_group_name_H-M   'P 1'
_cell_length_a   5.77968370
_cell_length_b   5.71128402
_cell_length_c   6.71398392
_cell_angle_alpha   94.85280168
_cell_angle_beta   91.71230039
_cell_angle_gamma   94.46873719
_symmetry_Int_Tables_number   1
_chemical_formula_structural   LiNi3Sb4P3
_chemical_formula_sum   'Li1 Ni3 Sb4 P3'
_cell_volume   220.01046855
_cell_formula_units_Z   1
loop_
 _symmetry_equiv_pos_site_id
 _symmetry_equiv_pos_as_xyz
  1  'x, y, z'
loop_
 _atom_site_type_symbol
 _atom_site_label
 _atom_site_symmetry_multiplicity
 _atom_site_fract_x
 _atom_site_fract_y
 _atom_site_fract_z
 _atom_site_occupancy
  Ni  Ni0  1  0.12500000  0.12500000  0.12500000  1
  Ni  Ni1  1  0.50000000  0.50000000  0.50000000  1
  Ni  Ni2  1  0.25000000  0.25000000  0.25000000  1
  Sb  Sb3  1  0.75000000  0.75000000  0.75000000  1
  Sb  Sb4  1  0.94803315  0.00488658  0.35826491  1
  Sb  Sb5  1  0.21971806  0.42214608  0.23177215  1
  Sb  Sb6  1  0.63247362  0.49133457  0.44823998  1
  P  P7  1  0.57446697  0.02556485  0.96784504  1
  P  P8  1  0.76137051  0.35604622  0.82174155  1
  P  P9  1  0.68689768  0.07420693  0.51449068  1
  Li  Li10  1  0.06225929  0.70196712  0.50276296  1
