# generated using pymatgen
data_Li3Ti(IO)4
_symmetry_space_group_name_H-M   'P 1'
_cell_length_a   8.83324572
_cell_length_b   8.71214854
_cell_length_c   7.39614012
_cell_angle_alpha   90.00000000
_cell_angle_beta   90.00000000
_cell_angle_gamma   90.00000000
_symmetry_Int_Tables_number   1
_chemical_formula_structural   Li3Ti(IO)4
_chemical_formula_sum   'Li3 Ti1 I4 O4'
_cell_volume   569.18141767
_cell_formula_units_Z   1
loop_
 _symmetry_equiv_pos_site_id
 _symmetry_equiv_pos_as_xyz
  1  'x, y, z'
loop_
 _atom_site_type_symbol
 _atom_site_label
 _atom_site_symmetry_multiplicity
 _atom_site_fract_x
 _atom_site_fract_y
 _atom_site_fract_z
 _atom_site_occupancy
  I  I0  1  0.00000000  0.00000000  0.00000000  1
  I  I1  1  0.50000000  0.50000000  0.50000000  1
  I  I2  1  0.50000000  0.50000000  0.00000000  1
  I  I3  1  0.50000000  0.00000000  0.50000000  1
  Li  Li4  1  0.00000000  0.50000000  0.50000000  1
  Li  Li5  1  0.25770640  0.28528388  0.69514449  1
  Li  Li6  1  0.71389849  0.74801624  0.38677887  1
  Ti  Ti7  1  0.80820780  0.59698732  0.99241214  1
  O  O8  1  0.51082960  0.39254789  0.61166991  1
  O  O9  1  0.11374276  0.92594484  0.80614828  1
  O  O10  1  0.69802491  0.16642256  0.72004877  1
  O  O11  1  0.77580410  0.72936381  0.33804634  1
