# generated using pymatgen
data_LiTiNiAs3F
_symmetry_space_group_name_H-M   'P 1'
_cell_length_a   8.10524539
_cell_length_b   7.85760458
_cell_length_c   8.45590006
_cell_angle_alpha   90.84992326
_cell_angle_beta   90.92648012
_cell_angle_gamma   90.98344691
_symmetry_Int_Tables_number   1
_chemical_formula_structural   LiTiNiAs3F
_chemical_formula_sum   'Li2 Ti2 Ni2 As6 F2'
_cell_volume   538.32655475
_cell_formula_units_Z   2
loop_
 _symmetry_equiv_pos_site_id
 _symmetry_equiv_pos_as_xyz
  1  'x, y, z'
loop_
 _atom_site_type_symbol
 _atom_site_label
 _atom_site_symmetry_multiplicity
 _atom_site_fract_x
 _atom_site_fract_y
 _atom_site_fract_z
 _atom_site_occupancy
  Li  Li0  1  0.00000000  0.00000000  0.00000000  1
  Li  Li1  1  0.50000000  0.50000000  0.50000000  1
  F  F2  1  0.50000000  0.50000000  0.00000000  1
  F  F3  1  0.50000000  0.00000000  0.50000000  1
  Ni  Ni4  1  0.00000000  0.50000000  0.50000000  1
  Ni  Ni5  1  0.78877674  0.95113802  0.22022947  1
  Ti  Ti6  1  0.34452455  0.17315101  0.37368492  1
  Ti  Ti7  1  0.38168418  0.17609365  0.27737519  1
  As  As8  1  0.06998708  0.40896286  0.48789209  1
  As  As9  1  0.82672916  0.97061296  0.08616025  1
  As  As10  1  0.45164771  0.81991133  0.22797260  1
  As  As11  1  0.93057070  0.44730808  0.19288272  1
  As  As12  1  0.90416143  0.17953093  0.32189496  1
  As  As13  1  0.03666468  0.96638461  0.11512510  1
