# generated using pymatgen
data_LiMn2Sb4P2N
_symmetry_space_group_name_H-M   'P 1'
_cell_length_a   5.35944076
_cell_length_b   5.71479529
_cell_length_c   6.57201950
_cell_angle_alpha   95.85680094
_cell_angle_beta   93.83279221
_cell_angle_gamma   95.89735389
_symmetry_Int_Tables_number   1
_chemical_formula_structural   LiMn2Sb4P2N
_chemical_formula_sum   'Li1 Mn2 Sb4 P2 N1'
_cell_volume   198.56890450
_cell_formula_units_Z   1
loop_
 _symmetry_equiv_pos_site_id
 _symmetry_equiv_pos_as_xyz
  1  'x, y, z'
loop_
 _atom_site_type_symbol
 _atom_site_label
 _atom_site_symmetry_multiplicity
 _atom_site_fract_x
 _atom_site_fract_y
 _atom_site_fract_z
 _atom_site_occupancy
  N  N0  1  0.12500000  0.00000000  0.25000000  1
  Mn  Mn1  1  0.00000000  0.00000000  0.00000000  1
  Mn  Mn2  1  0.37500000  0.00000000  0.25000000  1
  Sb  Sb3  1  0.25000000  0.25000000  0.25000000  1
  Sb  Sb4  1  0.00000000  0.25000000  0.12500000  1
  Sb  Sb5  1  0.64984694  0.52809120  0.32380727  1
  Sb  Sb6  1  0.82292352  0.05105533  0.90733149  1
  P  P7  1  0.12636907  0.11916092  0.19989088  1
  P  P8  1  0.18562812  0.20824885  0.69860465  1
  Li  Li9  1  0.99643173  0.74078256  0.33539109  1
