# generated using pymatgen
data_Li2MnMo2P3
_symmetry_space_group_name_H-M   'P 1'
_cell_length_a   4.89759294
_cell_length_b   5.16540265
_cell_length_c   6.30766751
_cell_angle_alpha   101.77443116
_cell_angle_beta   91.89480072
_cell_angle_gamma   101.72219790
_symmetry_Int_Tables_number   1
_chemical_formula_structural   Li2MnMo2P3
_chemical_formula_sum   'Li2 Mn1 Mo2 P3'
_cell_volume   152.49306708
_cell_formula_units_Z   1
loop_
 _symmetry_equiv_pos_site_id
 _symmetry_equiv_pos_as_xyz
  1  'x, y, z'
loop_
 _atom_site_type_symbol
 _atom_site_label
 _atom_site_symmetry_multiplicity
 _atom_site_fract_x
 _atom_site_fract_y
 _atom_site_fract_z
 _atom_site_occupancy
  Mn  Mn0  1  0.12500000  0.12500000  0.12500000  1
  P  P1  1  0.50000000  0.50000000  0.50000000  1
  P  P2  1  0.25000000  0.25000000  0.25000000  1
  P  P3  1  0.75000000  0.75000000  0.75000000  1
  Mo  Mo4  1  0.06076769  0.09260783  0.92264718  1
  Mo  Mo5  1  0.05905718  0.52162642  0.52757212  1
  Li  Li6  1  0.42433000  0.92910025  0.82353312  1
  Li  Li7  1  0.71546471  0.41207260  0.19048779  1
