# generated using pymatgen
data_LiMnSb4Mo2P3
_symmetry_space_group_name_H-M   'P 1'
_cell_length_a   5.13637801
_cell_length_b   5.44690338
_cell_length_c   6.59004618
_cell_angle_alpha   97.82000506
_cell_angle_beta   93.71268832
_cell_angle_gamma   98.02393351
_symmetry_Int_Tables_number   1
_chemical_formula_structural   LiMnSb4Mo2P3
_chemical_formula_sum   'Li1 Mn1 Sb4 Mo2 P3'
_cell_volume   180.20896931
_cell_formula_units_Z   1
loop_
 _symmetry_equiv_pos_site_id
 _symmetry_equiv_pos_as_xyz
  1  'x, y, z'
loop_
 _atom_site_type_symbol
 _atom_site_label
 _atom_site_symmetry_multiplicity
 _atom_site_fract_x
 _atom_site_fract_y
 _atom_site_fract_z
 _atom_site_occupancy
  Mn  Mn0  1  0.00000000  0.00000000  0.00000000  1
  Sb  Sb1  1  0.50000000  0.50000000  0.50000000  1
  Sb  Sb2  1  0.50000000  0.50000000  0.00000000  1
  Sb  Sb3  1  0.50000000  0.00000000  0.50000000  1
  Sb  Sb4  1  0.00000000  0.50000000  0.50000000  1
  P  P5  1  0.20939257  0.75148219  0.91945442  1
  P  P6  1  0.29555362  0.16389107  0.18812052  1
  P  P7  1  0.77948576  0.07533465  0.95213805  1
  Mo  Mo8  1  0.01923870  0.30782962  0.28911029  1
  Mo  Mo9  1  0.39242306  0.44155957  0.36614123  1
  Li  Li10  1  0.90613325  0.68221185  0.08486821  1
