# generated using pymatgen
data_Li3TiI4O3
_symmetry_space_group_name_H-M   'P 1'
_cell_length_a   6.66304573
_cell_length_b   6.54054889
_cell_length_c   7.70631930
_cell_angle_alpha   96.52925185
_cell_angle_beta   99.13104979
_cell_angle_gamma   96.15176989
_symmetry_Int_Tables_number   1
_chemical_formula_structural   Li3TiI4O3
_chemical_formula_sum   'Li3 Ti1 I4 O3'
_cell_volume   326.74003755
_cell_formula_units_Z   1
loop_
 _symmetry_equiv_pos_site_id
 _symmetry_equiv_pos_as_xyz
  1  'x, y, z'
loop_
 _atom_site_type_symbol
 _atom_site_label
 _atom_site_symmetry_multiplicity
 _atom_site_fract_x
 _atom_site_fract_y
 _atom_site_fract_z
 _atom_site_occupancy
  I  I0  1  0.00000000  0.00000000  0.00000000  1
  I  I1  1  0.50000000  0.50000000  0.50000000  1
  I  I2  1  0.50000000  0.50000000  0.00000000  1
  I  I3  1  0.50000000  0.00000000  0.50000000  1
  Li  Li4  1  0.00000000  0.50000000  0.50000000  1
  Li  Li5  1  0.73040969  0.54321718  0.79919170  1
  Li  Li6  1  0.16311437  0.38280071  0.32407752  1
  Ti  Ti7  1  0.42087439  0.30830863  0.43899366  1
  O  O8  1  0.21796696  0.17396628  0.83040818  1
  O  O9  1  0.44275028  0.63554124  0.23021996  1
  O  O10  1  0.89815893  0.86378695  0.43625946  1
