# generated using pymatgen
data_Li2Mn2Sb4Mo2P3
_symmetry_space_group_name_H-M   'P 1'
_cell_length_a   4.72081842
_cell_length_b   4.97377803
_cell_length_c   6.21804959
_cell_angle_alpha   102.57884112
_cell_angle_beta   91.89669880
_cell_angle_gamma   102.50527606
_symmetry_Int_Tables_number   1
_chemical_formula_structural   Li2Mn2Sb4Mo2P3
_chemical_formula_sum   'Li2 Mn2 Sb4 Mo2 P3'
_cell_volume   138.62232744
_cell_formula_units_Z   1
loop_
 _symmetry_equiv_pos_site_id
 _symmetry_equiv_pos_as_xyz
  1  'x, y, z'
loop_
 _atom_site_type_symbol
 _atom_site_label
 _atom_site_symmetry_multiplicity
 _atom_site_fract_x
 _atom_site_fract_y
 _atom_site_fract_z
 _atom_site_occupancy
  Mn  Mn0  1  0.00000000  0.00000000  0.00000000  1
  Mn  Mn1  1  0.50000000  0.50000000  0.50000000  1
  Sb  Sb2  1  0.50000000  0.50000000  0.00000000  1
  Sb  Sb3  1  0.50000000  0.00000000  0.50000000  1
  Sb  Sb4  1  0.00000000  0.50000000  0.50000000  1
  Sb  Sb5  1  0.32543145  0.84376598  0.74934056  1
  P  P6  1  0.18163010  0.15791594  0.89638333  1
  P  P7  1  0.17481847  0.03379136  0.90578923  1
  P  P8  1  0.85648468  0.38038032  0.44704551  1
  Mo  Mo9  1  0.48523543  0.44669318  0.48403845  1
  Mo  Mo10  1  0.35945212  0.02970754  0.01948715  1
  Li  Li11  1  0.84044414  0.84501184  0.88380034  1
  Li  Li12  1  0.84933313  0.73764424  0.36584397  1
