# generated using pymatgen
data_Li2TiNiS
_symmetry_space_group_name_H-M   'P 1'
_cell_length_a   4.97467519
_cell_length_b   4.58604790
_cell_length_c   7.64765388
_cell_angle_alpha   99.85511624
_cell_angle_beta   100.51036388
_cell_angle_gamma   99.02906787
_symmetry_Int_Tables_number   1
_chemical_formula_structural   Li2TiNiS
_chemical_formula_sum   'Li4 Ti2 Ni2 S2'
_cell_volume   165.79673079
_cell_formula_units_Z   2
loop_
 _symmetry_equiv_pos_site_id
 _symmetry_equiv_pos_as_xyz
  1  'x, y, z'
loop_
 _atom_site_type_symbol
 _atom_site_label
 _atom_site_symmetry_multiplicity
 _atom_site_fract_x
 _atom_site_fract_y
 _atom_site_fract_z
 _atom_site_occupancy
  Ni  Ni0  1  0.00000000  0.00000000  0.00000000  1
  Ni  Ni1  1  0.50000000  0.50000000  0.50000000  1
  S  S2  1  0.50000000  0.50000000  0.00000000  1
  S  S3  1  0.50000000  0.00000000  0.50000000  1
  Ti  Ti4  1  0.00000000  0.50000000  0.50000000  1
  Ti  Ti5  1  0.43737010  0.91549435  0.25288498  1
  Li  Li6  1  0.40155862  0.85666538  0.86484617  1
  Li  Li7  1  0.84929422  0.05192913  0.02372402  1
  Li  Li8  1  0.73498716  0.31494525  0.71691279  1
  Li  Li9  1  0.30587294  0.87130739  0.22263979  1
