# generated using pymatgen
data_Li3LuNi2As6O7
_symmetry_space_group_name_H-M   'P 1'
_cell_length_a   7.66424617
_cell_length_b   7.46847564
_cell_length_c   8.63531877
_cell_angle_alpha   91.67668748
_cell_angle_beta   91.21548092
_cell_angle_gamma   91.94240575
_symmetry_Int_Tables_number   1
_chemical_formula_structural   Li3LuNi2As6O7
_chemical_formula_sum   'Li3 Lu1 Ni2 As6 O7'
_cell_volume   493.67017131
_cell_formula_units_Z   1
loop_
 _symmetry_equiv_pos_site_id
 _symmetry_equiv_pos_as_xyz
  1  'x, y, z'
loop_
 _atom_site_type_symbol
 _atom_site_label
 _atom_site_symmetry_multiplicity
 _atom_site_fract_x
 _atom_site_fract_y
 _atom_site_fract_z
 _atom_site_occupancy
  Lu  Lu0  1  0.00000000  0.00000000  0.00000000  1
  Li  Li1  1  0.50000000  0.50000000  0.50000000  1
  Li  Li2  1  0.50000000  0.50000000  0.00000000  1
  Li  Li3  1  0.50000000  0.00000000  0.50000000  1
  Ni  Ni4  1  0.00000000  0.50000000  0.50000000  1
  Ni  Ni5  1  0.00468014  0.45377717  0.19059709  1
  As  As6  1  0.97155100  0.06448235  0.34868658  1
  As  As7  1  0.16716008  0.71033847  0.06198113  1
  As  As8  1  0.19123828  0.42687684  0.75903883  1
  As  As9  1  0.62380021  0.91001103  0.73660187  1
  As  As10  1  0.15322998  0.63602739  0.09809304  1
  As  As11  1  0.82762038  0.72781255  0.16144600  1
  O  O12  1  0.62908891  0.15759733  0.08001178  1
  O  O13  1  0.24142216  0.71870678  0.22743527  1
  O  O14  1  0.89494321  0.69601211  0.39101449  1
  O  O15  1  0.04798989  0.74499923  0.22897704  1
  O  O16  1  0.09828077  0.43352509  0.80032287  1
  O  O17  1  0.15360296  0.82580987  0.10508800  1
  O  O18  1  0.52419510  0.62564408  0.86826525  1
