# generated using pymatgen
data_Li2Mn3Sb2P3
_symmetry_space_group_name_H-M   'P 1'
_cell_length_a   6.68321773
_cell_length_b   6.69220869
_cell_length_c   7.07973372
_cell_angle_alpha   94.78933542
_cell_angle_beta   89.99800935
_cell_angle_gamma   94.58230944
_symmetry_Int_Tables_number   1
_chemical_formula_structural   Li2Mn3Sb2P3
_chemical_formula_sum   'Li2 Mn3 Sb2 P3'
_cell_volume   314.52334428
_cell_formula_units_Z   1
loop_
 _symmetry_equiv_pos_site_id
 _symmetry_equiv_pos_as_xyz
  1  'x, y, z'
loop_
 _atom_site_type_symbol
 _atom_site_label
 _atom_site_symmetry_multiplicity
 _atom_site_fract_x
 _atom_site_fract_y
 _atom_site_fract_z
 _atom_site_occupancy
  Mn  Mn0  1  0.12500000  0.00000000  0.25000000  1
  Mn  Mn1  1  0.00000000  0.00000000  0.00000000  1
  Mn  Mn2  1  0.37500000  0.00000000  0.25000000  1
  Sb  Sb3  1  0.25000000  0.25000000  0.25000000  1
  Sb  Sb4  1  0.00000000  0.25000000  0.12500000  1
  P  P5  1  0.06187524  0.01052143  0.10494463  1
  P  P6  1  0.80898487  0.02523287  0.81528372  1
  P  P7  1  0.47593234  0.92340381  0.64040515  1
  Li  Li8  1  0.75004113  0.36632297  0.47142653  1
  Li  Li9  1  0.52532198  0.40108787  0.97824317  1
