# generated using pymatgen
data_Li2Mn2Sb4P3
_symmetry_space_group_name_H-M   'P 1'
_cell_length_a   5.90759341
_cell_length_b   6.36899345
_cell_length_c   6.78498351
_cell_angle_alpha   95.18788705
_cell_angle_beta   93.35815461
_cell_angle_gamma   94.83813402
_symmetry_Int_Tables_number   1
_chemical_formula_structural   Li2Mn2Sb4P3
_chemical_formula_sum   'Li2 Mn2 Sb4 P3'
_cell_volume   252.77183263
_cell_formula_units_Z   1
loop_
 _symmetry_equiv_pos_site_id
 _symmetry_equiv_pos_as_xyz
  1  'x, y, z'
loop_
 _atom_site_type_symbol
 _atom_site_label
 _atom_site_symmetry_multiplicity
 _atom_site_fract_x
 _atom_site_fract_y
 _atom_site_fract_z
 _atom_site_occupancy
  Mn  Mn0  1  0.00000000  0.00000000  0.00000000  1
  Mn  Mn1  1  0.50000000  0.50000000  0.50000000  1
  Sb  Sb2  1  0.50000000  0.50000000  0.00000000  1
  Sb  Sb3  1  0.50000000  0.00000000  0.50000000  1
  Sb  Sb4  1  0.00000000  0.50000000  0.50000000  1
  Sb  Sb5  1  0.29609364  0.86086463  0.68484377  1
  P  P6  1  0.53967776  0.78639734  0.28979565  1
  P  P7  1  0.48859812  0.74149247  0.82103708  1
  P  P8  1  0.36462717  0.76752717  0.99502468  1
  Li  Li9  1  0.43887554  0.50252721  0.07541070  1
  Li  Li10  1  0.52452382  0.93396839  0.97702743  1
