# generated using pymatgen
data_LiCuAs3F
_symmetry_space_group_name_H-M   'P 1'
_cell_length_a   7.99600880
_cell_length_b   7.90919282
_cell_length_c   8.16113841
_cell_angle_alpha   90.31203321
_cell_angle_beta   91.48455922
_cell_angle_gamma   90.35673727
_symmetry_Int_Tables_number   1
_chemical_formula_structural   LiCuAs3F
_chemical_formula_sum   'Li2 Cu2 As6 F2'
_cell_volume   515.93515562
_cell_formula_units_Z   2
loop_
 _symmetry_equiv_pos_site_id
 _symmetry_equiv_pos_as_xyz
  1  'x, y, z'
loop_
 _atom_site_type_symbol
 _atom_site_label
 _atom_site_symmetry_multiplicity
 _atom_site_fract_x
 _atom_site_fract_y
 _atom_site_fract_z
 _atom_site_occupancy
  F  F0  1  0.00000000  0.00000000  0.00000000  1
  F  F1  1  0.33300000  0.66700000  0.25000000  1
  As  As2  1  0.66700000  0.33300000  0.50000000  1
  As  As3  1  0.00000000  0.00000000  0.75000000  1
  As  As4  1  0.57636459  0.71786786  0.12506338  1
  As  As5  1  0.74518203  0.38795102  0.41702624  1
  As  As6  1  0.17015978  0.16214059  0.18153388  1
  As  As7  1  0.57368839  0.49468082  0.58443878  1
  Li  Li8  1  0.25760668  0.74863050  0.23901569  1
  Li  Li9  1  0.65973859  0.67044887  0.38830341  1
  Cu  Cu10  1  0.28545369  0.67168088  0.69593351  1
  Cu  Cu11  1  0.10599255  0.13094877  0.18023628  1
