# generated using pymatgen
data_Li3TiI4(OF)3
_symmetry_space_group_name_H-M   'P 1'
_cell_length_a   4.87255357
_cell_length_b   4.55463086
_cell_length_c   6.75066966
_cell_angle_alpha   104.98670013
_cell_angle_beta   109.46139082
_cell_angle_gamma   104.06381948
_symmetry_Int_Tables_number   1
_chemical_formula_structural   Li3TiI4(OF)3
_chemical_formula_sum   'Li3 Ti1 I4 O3 F3'
_cell_volume   127.22877461
_cell_formula_units_Z   1
loop_
 _symmetry_equiv_pos_site_id
 _symmetry_equiv_pos_as_xyz
  1  'x, y, z'
loop_
 _atom_site_type_symbol
 _atom_site_label
 _atom_site_symmetry_multiplicity
 _atom_site_fract_x
 _atom_site_fract_y
 _atom_site_fract_z
 _atom_site_occupancy
  I  I0  1  0.12500000  0.00000000  0.25000000  1
  I  I1  1  0.00000000  0.00000000  0.00000000  1
  I  I2  1  0.37500000  0.00000000  0.25000000  1
  I  I3  1  0.25000000  0.25000000  0.25000000  1
  Li  Li4  1  0.00000000  0.25000000  0.12500000  1
  Li  Li5  1  0.28652637  0.26459763  0.50886010  1
  Li  Li6  1  0.82828291  0.37891857  0.52244251  1
  F  F7  1  0.27376837  0.79157780  0.30638968  1
  F  F8  1  0.80368323  0.58799752  0.63030779  1
  F  F9  1  0.50741608  0.14437742  0.89594831  1
  Ti  Ti10  1  0.17243358  0.28378923  0.60075435  1
  O  O11  1  0.16149488  0.37061290  0.26273748  1
  O  O12  1  0.86679212  0.99637236  0.85474804  1
  O  O13  1  0.05255156  0.79275755  0.55976316  1
