# generated using pymatgen
data_Li2MnSb4P3
_symmetry_space_group_name_H-M   'P 1'
_cell_length_a   6.68724746
_cell_length_b   7.01737681
_cell_length_c   7.49040219
_cell_angle_alpha   92.69556206
_cell_angle_beta   93.19314232
_cell_angle_gamma   93.06788244
_symmetry_Int_Tables_number   1
_chemical_formula_structural   Li2MnSb4P3
_chemical_formula_sum   'Li2 Mn1 Sb4 P3'
_cell_volume   350.01176126
_cell_formula_units_Z   1
loop_
 _symmetry_equiv_pos_site_id
 _symmetry_equiv_pos_as_xyz
  1  'x, y, z'
loop_
 _atom_site_type_symbol
 _atom_site_label
 _atom_site_symmetry_multiplicity
 _atom_site_fract_x
 _atom_site_fract_y
 _atom_site_fract_z
 _atom_site_occupancy
  Mn  Mn0  1  0.00000000  0.00000000  0.00000000  1
  Sb  Sb1  1  0.33300000  0.66700000  0.25000000  1
  Sb  Sb2  1  0.66700000  0.33300000  0.50000000  1
  Sb  Sb3  1  0.00000000  0.00000000  0.75000000  1
  Sb  Sb4  1  0.26242694  0.72319888  0.71370637  1
  P  P5  1  0.12549208  0.01058723  0.98957192  1
  P  P6  1  0.45834260  0.57497475  0.97453246  1
  P  P7  1  0.75630783  0.96165856  0.74740349  1
  Li  Li8  1  0.08456507  0.46318727  0.04913566  1
  Li  Li9  1  0.71987035  0.08805051  0.39989561  1
