# generated using pymatgen
data_LiTiCuAs3P2
_symmetry_space_group_name_H-M   'P 1'
_cell_length_a   7.61603324
_cell_length_b   7.49438832
_cell_length_c   8.52437685
_cell_angle_alpha   91.63936780
_cell_angle_beta   91.62516512
_cell_angle_gamma   91.89752439
_symmetry_Int_Tables_number   1
_chemical_formula_structural   LiTiCuAs3P2
_chemical_formula_sum   'Li2 Ti2 Cu2 As6 P4'
_cell_volume   485.87516232
_cell_formula_units_Z   2
loop_
 _symmetry_equiv_pos_site_id
 _symmetry_equiv_pos_as_xyz
  1  'x, y, z'
loop_
 _atom_site_type_symbol
 _atom_site_label
 _atom_site_symmetry_multiplicity
 _atom_site_fract_x
 _atom_site_fract_y
 _atom_site_fract_z
 _atom_site_occupancy
  P  P0  1  0.00000000  0.00000000  0.00000000  1
  P  P1  1  0.50000000  0.50000000  0.50000000  1
  P  P2  1  0.50000000  0.50000000  0.00000000  1
  P  P3  1  0.50000000  0.00000000  0.50000000  1
  Li  Li4  1  0.00000000  0.50000000  0.50000000  1
  Li  Li5  1  0.59896478  0.04999666  0.96256595  1
  Cu  Cu6  1  0.61530588  0.07069097  0.94947831  1
  Cu  Cu7  1  0.34688757  0.85570828  0.91711417  1
  Ti  Ti8  1  0.82309648  0.69369098  0.31938473  1
  Ti  Ti9  1  0.81443151  0.28170241  0.55185597  1
  As  As10  1  0.77167665  0.97094524  0.40329202  1
  As  As11  1  0.02820807  0.75916158  0.62070659  1
  As  As12  1  0.02003570  0.40999891  0.36636785  1
  As  As13  1  0.98738163  0.72229465  0.04475971  1
  As  As14  1  0.07653038  0.64733595  0.77822371  1
  As  As15  1  0.09398874  0.18645701  0.93844172  1
