# generated using pymatgen
data_Li3Ti(IO)4
_symmetry_space_group_name_H-M   'P 1'
_cell_length_a   8.87687184
_cell_length_b   8.75761409
_cell_length_c   7.20693757
_cell_angle_alpha   90.00000000
_cell_angle_beta   90.00000000
_cell_angle_gamma   90.00000000
_symmetry_Int_Tables_number   1
_chemical_formula_structural   Li3Ti(IO)4
_chemical_formula_sum   'Li3 Ti1 I4 O4'
_cell_volume   560.26889682
_cell_formula_units_Z   1
loop_
 _symmetry_equiv_pos_site_id
 _symmetry_equiv_pos_as_xyz
  1  'x, y, z'
loop_
 _atom_site_type_symbol
 _atom_site_label
 _atom_site_symmetry_multiplicity
 _atom_site_fract_x
 _atom_site_fract_y
 _atom_site_fract_z
 _atom_site_occupancy
  I  I0  1  0.00000000  0.00000000  0.00000000  1
  I  I1  1  0.50000000  0.50000000  0.50000000  1
  I  I2  1  0.25000000  0.25000000  0.25000000  1
  I  I3  1  0.75000000  0.25000000  0.00000000  1
  Li  Li4  1  0.25000000  0.75000000  0.50000000  1
  Li  Li5  1  0.39552341  0.84870728  0.62816777  1
  Li  Li6  1  0.44846885  0.80139937  0.96064430  1
  Ti  Ti7  1  0.15187350  0.72857801  0.89119867  1
  O  O8  1  0.74630905  0.62763766  0.27468048  1
  O  O9  1  0.40597236  0.64925060  0.79904217  1
  O  O10  1  0.84529543  0.07584559  0.96783486  1
  O  O11  1  0.01415987  0.43853285  0.30850444  1
