# generated using pymatgen
data_LiSb4Mo2P3
_symmetry_space_group_name_H-M   'P 1'
_cell_length_a   5.16456166
_cell_length_b   5.36634690
_cell_length_c   6.39292739
_cell_angle_alpha   97.10633261
_cell_angle_beta   92.46373295
_cell_angle_gamma   97.29067709
_symmetry_Int_Tables_number   1
_chemical_formula_structural   LiSb4Mo2P3
_chemical_formula_sum   'Li1 Sb4 Mo2 P3'
_cell_volume   174.08612928
_cell_formula_units_Z   1
loop_
 _symmetry_equiv_pos_site_id
 _symmetry_equiv_pos_as_xyz
  1  'x, y, z'
loop_
 _atom_site_type_symbol
 _atom_site_label
 _atom_site_symmetry_multiplicity
 _atom_site_fract_x
 _atom_site_fract_y
 _atom_site_fract_z
 _atom_site_occupancy
  Sb  Sb0  1  0.12500000  0.12500000  0.12500000  1
  Sb  Sb1  1  0.50000000  0.50000000  0.50000000  1
  Sb  Sb2  1  0.25000000  0.25000000  0.25000000  1
  Sb  Sb3  1  0.75000000  0.75000000  0.75000000  1
  P  P4  1  0.42191600  0.02587300  0.44220479  1
  P  P5  1  0.09781177  0.67991105  0.63492998  1
  P  P6  1  0.25682003  0.80819397  0.50568671  1
  Mo  Mo7  1  0.56739173  0.60220368  0.90955804  1
  Mo  Mo8  1  0.47023944  0.92603174  0.45752491  1
  Li  Li9  1  0.12663409  0.73463012  0.21841177  1
