# generated using pymatgen
data_Li2Mn2Sb4Mo2P3
_symmetry_space_group_name_H-M   'P 1'
_cell_length_a   4.28301428
_cell_length_b   4.49237840
_cell_length_c   6.17284278
_cell_angle_alpha   103.54641949
_cell_angle_beta   93.51396242
_cell_angle_gamma   103.67210370
_symmetry_Int_Tables_number   1
_chemical_formula_structural   Li2Mn2Sb4Mo2P3
_chemical_formula_sum   'Li2 Mn2 Sb4 Mo2 P3'
_cell_volume   111.33636889
_cell_formula_units_Z   1
loop_
 _symmetry_equiv_pos_site_id
 _symmetry_equiv_pos_as_xyz
  1  'x, y, z'
loop_
 _atom_site_type_symbol
 _atom_site_label
 _atom_site_symmetry_multiplicity
 _atom_site_fract_x
 _atom_site_fract_y
 _atom_site_fract_z
 _atom_site_occupancy
  Mn  Mn0  1  0.00000000  0.00000000  0.00000000  1
  Mn  Mn1  1  0.50000000  0.50000000  0.50000000  1
  Sb  Sb2  1  0.25000000  0.25000000  0.25000000  1
  Sb  Sb3  1  0.75000000  0.25000000  0.00000000  1
  Sb  Sb4  1  0.25000000  0.75000000  0.50000000  1
  Sb  Sb5  1  0.84247607  0.34367735  0.88199267  1
  P  P6  1  0.68526283  0.90359920  0.06637320  1
  P  P7  1  0.58249952  0.03718104  0.16128687  1
  P  P8  1  0.43293364  0.47404553  0.35655313  1
  Mo  Mo9  1  0.58856875  0.47604325  0.15237820  1
  Mo  Mo10  1  0.17810592  0.96497892  0.52515501  1
  Li  Li11  1  0.19645445  0.26285760  0.58521105  1
  Li  Li12  1  0.11725873  0.24903730  0.23339813  1
