# generated using pymatgen
data_Li2NiAs3O2
_symmetry_space_group_name_H-M   'P 1'
_cell_length_a   7.47789866
_cell_length_b   7.47883813
_cell_length_c   8.84727264
_cell_angle_alpha   93.28088959
_cell_angle_beta   94.35960393
_cell_angle_gamma   93.84699190
_symmetry_Int_Tables_number   1
_chemical_formula_structural   Li2NiAs3O2
_chemical_formula_sum   'Li4 Ni2 As6 O4'
_cell_volume   491.28213334
_cell_formula_units_Z   2
loop_
 _symmetry_equiv_pos_site_id
 _symmetry_equiv_pos_as_xyz
  1  'x, y, z'
loop_
 _atom_site_type_symbol
 _atom_site_label
 _atom_site_symmetry_multiplicity
 _atom_site_fract_x
 _atom_site_fract_y
 _atom_site_fract_z
 _atom_site_occupancy
  Li  Li0  1  0.00000000  0.00000000  0.00000000  1
  Li  Li1  1  0.50000000  0.50000000  0.50000000  1
  Li  Li2  1  0.50000000  0.50000000  0.00000000  1
  Li  Li3  1  0.50000000  0.00000000  0.50000000  1
  Ni  Ni4  1  0.00000000  0.50000000  0.50000000  1
  Ni  Ni5  1  0.48060138  0.58460702  0.47837060  1
  As  As6  1  0.69799961  0.19875134  0.22489478  1
  As  As7  1  0.11546058  0.79456980  0.63105901  1
  As  As8  1  0.32608640  0.96540308  0.89229779  1
  As  As9  1  0.84635257  0.34503597  0.49219334  1
  As  As10  1  0.68670998  0.99870019  0.03807195  1
  As  As11  1  0.22355678  0.53068826  0.08252639  1
  O  O12  1  0.36894449  0.55442990  0.59387794  1
  O  O13  1  0.50618996  0.93384243  0.60406185  1
  O  O14  1  0.71878946  0.99086271  0.23886786  1
  O  O15  1  0.96377736  0.37283219  0.93631313  1
