# generated using pymatgen
data_Li3TiI4(OF)3
_symmetry_space_group_name_H-M   'P 1'
_cell_length_a   7.19294411
_cell_length_b   7.00022215
_cell_length_c   7.05646676
_cell_angle_alpha   95.72437903
_cell_angle_beta   97.59634608
_cell_angle_gamma   95.38151262
_symmetry_Int_Tables_number   1
_chemical_formula_structural   Li3TiI4(OF)3
_chemical_formula_sum   'Li3 Ti1 I4 O3 F3'
_cell_volume   348.36688585
_cell_formula_units_Z   1
loop_
 _symmetry_equiv_pos_site_id
 _symmetry_equiv_pos_as_xyz
  1  'x, y, z'
loop_
 _atom_site_type_symbol
 _atom_site_label
 _atom_site_symmetry_multiplicity
 _atom_site_fract_x
 _atom_site_fract_y
 _atom_site_fract_z
 _atom_site_occupancy
  I  I0  1  0.00000000  0.00000000  0.00000000  1
  I  I1  1  0.50000000  0.50000000  0.50000000  1
  I  I2  1  0.25000000  0.25000000  0.25000000  1
  I  I3  1  0.75000000  0.25000000  0.00000000  1
  Li  Li4  1  0.25000000  0.75000000  0.50000000  1
  Li  Li5  1  0.44910521  0.16278142  0.57732951  1
  Li  Li6  1  0.55613028  0.55970843  0.91967670  1
  F  F7  1  0.14578135  0.35847324  0.17680239  1
  F  F8  1  0.10093745  0.56721301  0.77782772  1
  F  F9  1  0.82012946  0.39043665  0.58111179  1
  Ti  Ti10  1  0.94037153  0.29743544  0.98603928  1
  O  O11  1  0.22978118  0.59158439  0.65050663  1
  O  O12  1  0.20159171  0.26938281  0.31297157  1
  O  O13  1  0.63483121  0.69518651  0.70938619  1
