# generated using pymatgen
data_Li2MnSb4P3
_symmetry_space_group_name_H-M   'P 1'
_cell_length_a   5.90771941
_cell_length_b   5.97304254
_cell_length_c   6.96250530
_cell_angle_alpha   97.87491910
_cell_angle_beta   93.91570300
_cell_angle_gamma   98.32695574
_symmetry_Int_Tables_number   1
_chemical_formula_structural   Li2MnSb4P3
_chemical_formula_sum   'Li2 Mn1 Sb4 P3'
_cell_volume   239.82829243
_cell_formula_units_Z   1
loop_
 _symmetry_equiv_pos_site_id
 _symmetry_equiv_pos_as_xyz
  1  'x, y, z'
loop_
 _atom_site_type_symbol
 _atom_site_label
 _atom_site_symmetry_multiplicity
 _atom_site_fract_x
 _atom_site_fract_y
 _atom_site_fract_z
 _atom_site_occupancy
  Mn  Mn0  1  0.00000000  0.00000000  0.00000000  1
  Sb  Sb1  1  0.50000000  0.50000000  0.50000000  1
  Sb  Sb2  1  0.50000000  0.50000000  0.00000000  1
  Sb  Sb3  1  0.50000000  0.00000000  0.50000000  1
  Sb  Sb4  1  0.00000000  0.50000000  0.50000000  1
  P  P5  1  0.18556886  0.70894427  0.59073564  1
  P  P6  1  0.46451111  0.70255335  0.17100015  1
  P  P7  1  0.89127934  0.43660664  0.00979390  1
  Li  Li8  1  0.47284106  0.19629364  0.86527741  1
  Li  Li9  1  0.14035320  0.67564140  0.91405168  1
