# generated using pymatgen
data_Li2TiNi2I4O3
_symmetry_space_group_name_H-M   'P 1'
_cell_length_a   7.61816972
_cell_length_b   7.43408443
_cell_length_c   7.58531275
_cell_angle_alpha   90.46536910
_cell_angle_beta   92.21408482
_cell_angle_gamma   90.53204114
_symmetry_Int_Tables_number   1
_chemical_formula_structural   Li2TiNi2I4O3
_chemical_formula_sum   'Li2 Ti1 Ni2 I4 O3'
_cell_volume   429.23281148
_cell_formula_units_Z   1
loop_
 _symmetry_equiv_pos_site_id
 _symmetry_equiv_pos_as_xyz
  1  'x, y, z'
loop_
 _atom_site_type_symbol
 _atom_site_label
 _atom_site_symmetry_multiplicity
 _atom_site_fract_x
 _atom_site_fract_y
 _atom_site_fract_z
 _atom_site_occupancy
  I  I0  1  0.12500000  0.00000000  0.25000000  1
  I  I1  1  0.00000000  0.00000000  0.00000000  1
  I  I2  1  0.37500000  0.00000000  0.25000000  1
  I  I3  1  0.25000000  0.25000000  0.25000000  1
  Li  Li4  1  0.00000000  0.25000000  0.12500000  1
  Li  Li5  1  0.21991919  0.97650039  0.72587730  1
  Ni  Ni6  1  0.90364448  0.56256324  0.80800095  1
  Ni  Ni7  1  0.98136157  0.58945558  0.52928170  1
  Ti  Ti8  1  0.66813707  0.82639844  0.34597051  1
  O  O9  1  0.56745192  0.14122482  0.73253061  1
  O  O10  1  0.70707662  0.45452896  0.05250078  1
  O  O11  1  0.37523529  0.24425669  0.91627634  1
