# generated using pymatgen
data_LiMn2Sb2Mo2P3
_symmetry_space_group_name_H-M   'P 1'
_cell_length_a   4.73091467
_cell_length_b   4.90395085
_cell_length_c   5.87048441
_cell_angle_alpha   96.31925143
_cell_angle_beta   91.65942283
_cell_angle_gamma   96.67752754
_symmetry_Int_Tables_number   1
_chemical_formula_structural   LiMn2Sb2Mo2P3
_chemical_formula_sum   'Li1 Mn2 Sb2 Mo2 P3'
_cell_volume   134.33009713
_cell_formula_units_Z   1
loop_
 _symmetry_equiv_pos_site_id
 _symmetry_equiv_pos_as_xyz
  1  'x, y, z'
loop_
 _atom_site_type_symbol
 _atom_site_label
 _atom_site_symmetry_multiplicity
 _atom_site_fract_x
 _atom_site_fract_y
 _atom_site_fract_z
 _atom_site_occupancy
  Mn  Mn0  1  0.12500000  0.00000000  0.25000000  1
  Mn  Mn1  1  0.00000000  0.00000000  0.00000000  1
  Sb  Sb2  1  0.37500000  0.00000000  0.25000000  1
  Sb  Sb3  1  0.25000000  0.25000000  0.25000000  1
  P  P4  1  0.00000000  0.25000000  0.12500000  1
  P  P5  1  0.50753726  0.22017691  0.84466636  1
  P  P6  1  0.28587952  0.91110843  0.38976431  1
  Mo  Mo7  1  0.10407518  0.85233471  0.75557496  1
  Mo  Mo8  1  0.31321532  0.42550556  0.90417110  1
  Li  Li9  1  0.33095190  0.29265010  0.29820176  1
