# generated using pymatgen
data_Li2Mn2Sb4P2N
_symmetry_space_group_name_H-M   'P 1'
_cell_length_a   5.06681152
_cell_length_b   5.45605165
_cell_length_c   6.74210185
_cell_angle_alpha   98.58081913
_cell_angle_beta   97.04006423
_cell_angle_gamma   97.89659563
_symmetry_Int_Tables_number   1
_chemical_formula_structural   Li2Mn2Sb4P2N
_chemical_formula_sum   'Li2 Mn2 Sb4 P2 N1'
_cell_volume   180.59217957
_cell_formula_units_Z   1
loop_
 _symmetry_equiv_pos_site_id
 _symmetry_equiv_pos_as_xyz
  1  'x, y, z'
loop_
 _atom_site_type_symbol
 _atom_site_label
 _atom_site_symmetry_multiplicity
 _atom_site_fract_x
 _atom_site_fract_y
 _atom_site_fract_z
 _atom_site_occupancy
  Mn  Mn0  1  0.00000000  0.00000000  0.00000000  1
  Mn  Mn1  1  0.50000000  0.50000000  0.50000000  1
  Sb  Sb2  1  0.50000000  0.50000000  0.00000000  1
  Sb  Sb3  1  0.50000000  0.00000000  0.50000000  1
  Sb  Sb4  1  0.00000000  0.50000000  0.50000000  1
  Sb  Sb5  1  0.63811491  0.10915191  0.10555545  1
  P  P6  1  0.04865471  0.88374887  0.71410512  1
  P  P7  1  0.18502330  0.88130236  0.46199765  1
  Li  Li8  1  0.72516221  0.55248702  0.92545701  1
  Li  Li9  1  0.07062285  0.04779642  0.33306416  1
  N  N10  1  0.81860867  0.81832334  0.31969760  1
