# generated using pymatgen
data_Li2Ti2Cu2P5O
_symmetry_space_group_name_H-M   'P 1'
_cell_length_a   7.55616002
_cell_length_b   7.58894071
_cell_length_c   7.86271679
_cell_angle_alpha   90.41265456
_cell_angle_beta   91.96328506
_cell_angle_gamma   90.47177435
_symmetry_Int_Tables_number   1
_chemical_formula_structural   Li2Ti2Cu2P5O
_chemical_formula_sum   'Li2 Ti2 Cu2 P5 O1'
_cell_volume   450.58115655
_cell_formula_units_Z   1
loop_
 _symmetry_equiv_pos_site_id
 _symmetry_equiv_pos_as_xyz
  1  'x, y, z'
loop_
 _atom_site_type_symbol
 _atom_site_label
 _atom_site_symmetry_multiplicity
 _atom_site_fract_x
 _atom_site_fract_y
 _atom_site_fract_z
 _atom_site_occupancy
  P  P0  1  0.12500000  0.00000000  0.25000000  1
  P  P1  1  0.00000000  0.00000000  0.00000000  1
  P  P2  1  0.37500000  0.00000000  0.25000000  1
  P  P3  1  0.25000000  0.25000000  0.25000000  1
  P  P4  1  0.00000000  0.25000000  0.12500000  1
  Li  Li5  1  0.96211369  0.78549630  0.35131300  1
  Li  Li6  1  0.33130415  0.32629340  0.46900164  1
  Cu  Cu7  1  0.17686708  0.12794150  0.95176845  1
  Cu  Cu8  1  0.04099744  0.60348517  0.41550372  1
  Ti  Ti9  1  0.71096319  0.94334169  0.84089648  1
  Ti  Ti10  1  0.98320705  0.01690948  0.12920106  1
  O  O11  1  0.39956249  0.98668005  0.38198175  1
