# generated using pymatgen
data_Li2Ti2P5F2
_symmetry_space_group_name_H-M   'P 1'
_cell_length_a   7.87084767
_cell_length_b   7.52542195
_cell_length_c   7.69632862
_cell_angle_alpha   91.04522840
_cell_angle_beta   92.19803347
_cell_angle_gamma   91.01032644
_symmetry_Int_Tables_number   1
_chemical_formula_structural   Li2Ti2P5F2
_chemical_formula_sum   'Li2 Ti2 P5 F2'
_cell_volume   455.37681880
_cell_formula_units_Z   1
loop_
 _symmetry_equiv_pos_site_id
 _symmetry_equiv_pos_as_xyz
  1  'x, y, z'
loop_
 _atom_site_type_symbol
 _atom_site_label
 _atom_site_symmetry_multiplicity
 _atom_site_fract_x
 _atom_site_fract_y
 _atom_site_fract_z
 _atom_site_occupancy
  P  P0  1  0.12500000  0.00000000  0.25000000  1
  P  P1  1  0.00000000  0.00000000  0.00000000  1
  P  P2  1  0.37500000  0.00000000  0.25000000  1
  P  P3  1  0.25000000  0.25000000  0.25000000  1
  P  P4  1  0.00000000  0.25000000  0.12500000  1
  Li  Li5  1  0.72195483  0.77754798  0.88444455  1
  Li  Li6  1  0.99225687  0.06366302  0.78079878  1
  F  F7  1  0.69065177  0.75913244  0.42768359  1
  F  F8  1  0.78743577  0.53804389  0.43051454  1
  Ti  Ti9  1  0.42314343  0.03052093  0.46914466  1
  Ti  Ti10  1  0.17170435  0.06575507  0.49233762  1
