# generated using pymatgen
data_Li3LuCu2N5O7
_symmetry_space_group_name_H-M   'P 1'
_cell_length_a   7.53884678
_cell_length_b   7.35502998
_cell_length_c   8.69503446
_cell_angle_alpha   92.65196050
_cell_angle_beta   92.13725262
_cell_angle_gamma   92.88148561
_symmetry_Int_Tables_number   1
_chemical_formula_structural   Li3LuCu2N5O7
_chemical_formula_sum   'Li3 Lu1 Cu2 N5 O7'
_cell_volume   480.62143262
_cell_formula_units_Z   1
loop_
 _symmetry_equiv_pos_site_id
 _symmetry_equiv_pos_as_xyz
  1  'x, y, z'
loop_
 _atom_site_type_symbol
 _atom_site_label
 _atom_site_symmetry_multiplicity
 _atom_site_fract_x
 _atom_site_fract_y
 _atom_site_fract_z
 _atom_site_occupancy
  Lu  Lu0  1  0.00000000  0.00000000  0.00000000  1
  Li  Li1  1  0.50000000  0.50000000  0.50000000  1
  Li  Li2  1  0.50000000  0.50000000  0.00000000  1
  Li  Li3  1  0.50000000  0.00000000  0.50000000  1
  Cu  Cu4  1  0.00000000  0.50000000  0.50000000  1
  Cu  Cu5  1  0.90506758  0.94712849  0.11440413  1
  O  O6  1  0.53922291  0.49254965  0.19174615  1
  O  O7  1  0.94207079  0.43798751  0.92956388  1
  O  O8  1  0.45310987  0.91403077  0.50481012  1
  O  O9  1  0.26444548  0.11734494  0.73923395  1
  O  O10  1  0.79650674  0.24726098  0.08229569  1
  O  O11  1  0.13809145  0.87365106  0.43472053  1
  O  O12  1  0.85207693  0.97400548  0.00700840  1
  N  N13  1  0.94791236  0.50206676  0.33855593  1
  N  N14  1  0.21921686  0.37398872  0.60326374  1
  N  N15  1  0.21065789  0.01474248  0.68019298  1
  N  N16  1  0.67767039  0.37459497  0.76393653  1
  N  N17  1  0.80023614  0.47381186  0.16948173  1
