# generated using pymatgen
data_Li2TiCu2I4N5
_symmetry_space_group_name_H-M   'P 1'
_cell_length_a   8.09872163
_cell_length_b   7.90875940
_cell_length_c   8.09979283
_cell_angle_alpha   90.99683064
_cell_angle_beta   91.02870430
_cell_angle_gamma   91.15365201
_symmetry_Int_Tables_number   1
_chemical_formula_structural   Li2TiCu2I4N5
_chemical_formula_sum   'Li2 Ti1 Cu2 I4 N5'
_cell_volume   518.52793731
_cell_formula_units_Z   1
loop_
 _symmetry_equiv_pos_site_id
 _symmetry_equiv_pos_as_xyz
  1  'x, y, z'
loop_
 _atom_site_type_symbol
 _atom_site_label
 _atom_site_symmetry_multiplicity
 _atom_site_fract_x
 _atom_site_fract_y
 _atom_site_fract_z
 _atom_site_occupancy
  I  I0  1  0.12500000  0.00000000  0.25000000  1
  I  I1  1  0.00000000  0.00000000  0.00000000  1
  I  I2  1  0.37500000  0.00000000  0.25000000  1
  I  I3  1  0.25000000  0.25000000  0.25000000  1
  Li  Li4  1  0.00000000  0.25000000  0.12500000  1
  Li  Li5  1  0.30779993  0.18060721  0.33874187  1
  Cu  Cu6  1  0.84928464  0.12017156  0.54208452  1
  Cu  Cu7  1  0.74085774  0.04158306  0.14739594  1
  Ti  Ti8  1  0.22057738  0.43006215  0.31363475  1
  N  N9  1  0.63703860  0.23279595  0.15695646  1
  N  N10  1  0.16772567  0.63645612  0.68812417  1
  N  N11  1  0.86381982  0.35738293  0.46494669  1
  N  N12  1  0.28578402  0.32235903  0.68972612  1
  N  N13  1  0.18464793  0.31616876  0.54850448  1
