# generated using pymatgen
data_Li2TiP6F2
_symmetry_space_group_name_H-M   'P 1'
_cell_length_a   8.68090566
_cell_length_b   8.49076423
_cell_length_c   7.59531203
_cell_angle_alpha   90.06364864
_cell_angle_beta   90.30282092
_cell_angle_gamma   90.07276740
_symmetry_Int_Tables_number   1
_chemical_formula_structural   Li2TiP6F2
_chemical_formula_sum   'Li2 Ti1 P6 F2'
_cell_volume   559.82301828
_cell_formula_units_Z   1
loop_
 _symmetry_equiv_pos_site_id
 _symmetry_equiv_pos_as_xyz
  1  'x, y, z'
loop_
 _atom_site_type_symbol
 _atom_site_label
 _atom_site_symmetry_multiplicity
 _atom_site_fract_x
 _atom_site_fract_y
 _atom_site_fract_z
 _atom_site_occupancy
  P  P0  1  0.12500000  0.12500000  0.12500000  1
  P  P1  1  0.50000000  0.50000000  0.50000000  1
  P  P2  1  0.25000000  0.25000000  0.25000000  1
  P  P3  1  0.75000000  0.75000000  0.75000000  1
  P  P4  1  0.47808498  0.93570738  0.62701526  1
  P  P5  1  0.39376008  0.13852016  0.40862973  1
  Li  Li6  1  0.66819953  0.44262773  0.38678737  1
  Li  Li7  1  0.92092662  0.82339577  0.09846716  1
  F  F8  1  0.44762444  0.50902038  0.17820258  1
  F  F9  1  0.53048158  0.87646841  0.61523752  1
  Ti  Ti10  1  0.49981101  0.66557284  0.76973450  1
