# generated using pymatgen
data_Li2Mn2Sb4P3
_symmetry_space_group_name_H-M   'P 1'
_cell_length_a   7.00581523
_cell_length_b   7.62630575
_cell_length_c   7.44850734
_cell_angle_alpha   91.50284391
_cell_angle_beta   91.78025747
_cell_angle_gamma   91.71042192
_symmetry_Int_Tables_number   1
_chemical_formula_structural   Li2Mn2Sb4P3
_chemical_formula_sum   'Li2 Mn2 Sb4 P3'
_cell_volume   397.44629953
_cell_formula_units_Z   1
loop_
 _symmetry_equiv_pos_site_id
 _symmetry_equiv_pos_as_xyz
  1  'x, y, z'
loop_
 _atom_site_type_symbol
 _atom_site_label
 _atom_site_symmetry_multiplicity
 _atom_site_fract_x
 _atom_site_fract_y
 _atom_site_fract_z
 _atom_site_occupancy
  Mn  Mn0  1  0.00000000  0.00000000  0.00000000  1
  Mn  Mn1  1  0.33300000  0.66700000  0.25000000  1
  Sb  Sb2  1  0.66700000  0.33300000  0.50000000  1
  Sb  Sb3  1  0.00000000  0.00000000  0.75000000  1
  Sb  Sb4  1  0.82141199  0.33694965  0.09767234  1
  Sb  Sb5  1  0.72557945  0.54959976  0.76991588  1
  P  P6  1  0.34784358  0.06297622  0.62689834  1
  P  P7  1  0.21037081  0.84601083  0.74115245  1
  P  P8  1  0.90761755  0.17228673  0.41389176  1
  Li  Li9  1  0.20376569  0.27480676  0.70206101  1
  Li  Li10  1  0.07210104  0.04804972  0.27815069  1
