# generated using pymatgen
data_Li2Mn3Sb4P3
_symmetry_space_group_name_H-M   'P 1'
_cell_length_a   6.53101935
_cell_length_b   7.04893848
_cell_length_c   7.00669225
_cell_angle_alpha   94.93217542
_cell_angle_beta   90.24639552
_cell_angle_gamma   94.83407443
_symmetry_Int_Tables_number   1
_chemical_formula_structural   Li2Mn3Sb4P3
_chemical_formula_sum   'Li2 Mn3 Sb4 P3'
_cell_volume   320.20616127
_cell_formula_units_Z   1
loop_
 _symmetry_equiv_pos_site_id
 _symmetry_equiv_pos_as_xyz
  1  'x, y, z'
loop_
 _atom_site_type_symbol
 _atom_site_label
 _atom_site_symmetry_multiplicity
 _atom_site_fract_x
 _atom_site_fract_y
 _atom_site_fract_z
 _atom_site_occupancy
  Mn  Mn0  1  0.00000000  0.00000000  0.00000000  1
  Mn  Mn1  1  0.50000000  0.50000000  0.50000000  1
  Mn  Mn2  1  0.25000000  0.25000000  0.25000000  1
  Sb  Sb3  1  0.75000000  0.25000000  0.00000000  1
  Sb  Sb4  1  0.25000000  0.75000000  0.50000000  1
  Sb  Sb5  1  0.41308114  0.45988202  0.22918740  1
  Sb  Sb6  1  0.71776488  0.30547854  0.49146638  1
  P  P7  1  0.69272770  0.69534372  0.78283524  1
  P  P8  1  0.79145016  0.35081625  0.12801446  1
  P  P9  1  0.54077443  0.10106069  0.23306406  1
  Li  Li10  1  0.97984181  0.15980761  0.61285100  1
  Li  Li11  1  0.86678161  0.17383064  0.85173910  1
