# generated using pymatgen
data_Li2Al3Zn2O3
_symmetry_space_group_name_H-M   'P 1'
_cell_length_a   8.24720043
_cell_length_b   8.15345617
_cell_length_c   7.05331766
_cell_angle_alpha   90.00000000
_cell_angle_beta   90.00000000
_cell_angle_gamma   90.00000000
_symmetry_Int_Tables_number   1
_chemical_formula_structural   Li2Al3Zn2O3
_chemical_formula_sum   'Li2 Al3 Zn2 O3'
_cell_volume   474.28755994
_cell_formula_units_Z   1
loop_
 _symmetry_equiv_pos_site_id
 _symmetry_equiv_pos_as_xyz
  1  'x, y, z'
loop_
 _atom_site_type_symbol
 _atom_site_label
 _atom_site_symmetry_multiplicity
 _atom_site_fract_x
 _atom_site_fract_y
 _atom_site_fract_z
 _atom_site_occupancy
  O  O0  1  0.00000000  0.00000000  0.00000000  1
  O  O1  1  0.50000000  0.50000000  0.50000000  1
  O  O2  1  0.50000000  0.50000000  0.00000000  1
  Li  Li3  1  0.50000000  0.00000000  0.50000000  1
  Li  Li4  1  0.00000000  0.50000000  0.50000000  1
  Zn  Zn5  1  0.41584148  0.92814661  0.93749984  1
  Zn  Zn6  1  0.82154925  0.23878188  0.36114712  1
  Al  Al7  1  0.26683528  0.60347625  0.09884897  1
  Al  Al8  1  0.27305785  0.21753943  0.94118530  1
  Al  Al9  1  0.37692878  0.10177525  0.70247715  1
