# generated using pymatgen
data_Li2Mn2Sb4P2N
_symmetry_space_group_name_H-M   'P 1'
_cell_length_a   6.12668538
_cell_length_b   6.64148274
_cell_length_c   7.16667955
_cell_angle_alpha   94.53088011
_cell_angle_beta   94.04535455
_cell_angle_gamma   94.59363029
_symmetry_Int_Tables_number   1
_chemical_formula_structural   Li2Mn2Sb4P2N
_chemical_formula_sum   'Li2 Mn2 Sb4 P2 N1'
_cell_volume   288.90061755
_cell_formula_units_Z   1
loop_
 _symmetry_equiv_pos_site_id
 _symmetry_equiv_pos_as_xyz
  1  'x, y, z'
loop_
 _atom_site_type_symbol
 _atom_site_label
 _atom_site_symmetry_multiplicity
 _atom_site_fract_x
 _atom_site_fract_y
 _atom_site_fract_z
 _atom_site_occupancy
  N  N0  1  0.12500000  0.00000000  0.25000000  1
  Mn  Mn1  1  0.00000000  0.00000000  0.00000000  1
  Mn  Mn2  1  0.37500000  0.00000000  0.25000000  1
  Sb  Sb3  1  0.25000000  0.25000000  0.25000000  1
  Sb  Sb4  1  0.00000000  0.25000000  0.12500000  1
  Sb  Sb5  1  0.33098022  0.74864709  0.09971337  1
  Sb  Sb6  1  0.12830888  0.76597524  0.21795600  1
  P  P7  1  0.28511318  0.04484838  0.59577514  1
  P  P8  1  0.54101669  0.42708070  0.85926057  1
  Li  Li9  1  0.79954649  0.39852499  0.29196052  1
  Li  Li10  1  0.25157590  0.27690571  0.22597239  1
