# generated using pymatgen
data_LiMnSb2MoP
_symmetry_space_group_name_H-M   'P 1'
_cell_length_a   5.40729244
_cell_length_b   5.80748066
_cell_length_c   6.77807714
_cell_angle_alpha   98.01476729
_cell_angle_beta   94.16163298
_cell_angle_gamma   97.94501052
_symmetry_Int_Tables_number   1
_chemical_formula_structural   LiMnSb2MoP
_chemical_formula_sum   'Li2 Mn2 Sb4 Mo2 P2'
_cell_volume   207.83063929
_cell_formula_units_Z   2
loop_
 _symmetry_equiv_pos_site_id
 _symmetry_equiv_pos_as_xyz
  1  'x, y, z'
loop_
 _atom_site_type_symbol
 _atom_site_label
 _atom_site_symmetry_multiplicity
 _atom_site_fract_x
 _atom_site_fract_y
 _atom_site_fract_z
 _atom_site_occupancy
  Mn  Mn0  1  0.12500000  0.00000000  0.25000000  1
  Mn  Mn1  1  0.00000000  0.00000000  0.00000000  1
  Sb  Sb2  1  0.37500000  0.00000000  0.25000000  1
  Sb  Sb3  1  0.25000000  0.25000000  0.25000000  1
  Sb  Sb4  1  0.00000000  0.25000000  0.12500000  1
  Sb  Sb5  1  0.09891737  0.28032978  0.29522408  1
  P  P6  1  0.91988503  0.59449734  0.84197150  1
  P  P7  1  0.10546083  0.75359275  0.93382168  1
  Mo  Mo8  1  0.57560140  0.01907690  0.21283450  1
  Mo  Mo9  1  0.67604269  0.39102612  0.73928937  1
  Li  Li10  1  0.67178041  0.62226651  0.81321108  1
  Li  Li11  1  0.79964660  0.36183544  0.62920584  1
