# generated using pymatgen
data_Li2P4O
_symmetry_space_group_name_H-M   'P 1'
_cell_length_a   6.24058438
_cell_length_b   7.01272904
_cell_length_c   6.94018341
_cell_angle_alpha   100.24936794
_cell_angle_beta   91.39108542
_cell_angle_gamma   100.45275759
_symmetry_Int_Tables_number   1
_chemical_formula_structural   Li2P4O
_chemical_formula_sum   'Li2 P4 O1'
_cell_volume   293.41784565
_cell_formula_units_Z   1
loop_
 _symmetry_equiv_pos_site_id
 _symmetry_equiv_pos_as_xyz
  1  'x, y, z'
loop_
 _atom_site_type_symbol
 _atom_site_label
 _atom_site_symmetry_multiplicity
 _atom_site_fract_x
 _atom_site_fract_y
 _atom_site_fract_z
 _atom_site_occupancy
  P  P0  1  0.00000000  0.00000000  0.00000000  1
  P  P1  1  0.50000000  0.50000000  0.50000000  1
  P  P2  1  0.50000000  0.50000000  0.00000000  1
  P  P3  1  0.50000000  0.00000000  0.50000000  1
  O  O4  1  0.00000000  0.50000000  0.50000000  1
  Li  Li5  1  0.13072533  0.28763176  0.00484448  1
  Li  Li6  1  0.34529031  0.25415804  0.35045299  1
