# generated using pymatgen
data_Li3TiI4
_symmetry_space_group_name_H-M   'P 1'
_cell_length_a   7.92349538
_cell_length_b   7.74118262
_cell_length_c   7.48521330
_cell_angle_alpha   92.27891022
_cell_angle_beta   92.33354184
_cell_angle_gamma   92.14225111
_symmetry_Int_Tables_number   1
_chemical_formula_structural   Li3TiI4
_chemical_formula_sum   'Li3 Ti1 I4'
_cell_volume   458.02879879
_cell_formula_units_Z   1
loop_
 _symmetry_equiv_pos_site_id
 _symmetry_equiv_pos_as_xyz
  1  'x, y, z'
loop_
 _atom_site_type_symbol
 _atom_site_label
 _atom_site_symmetry_multiplicity
 _atom_site_fract_x
 _atom_site_fract_y
 _atom_site_fract_z
 _atom_site_occupancy
  I  I0  1  0.12500000  0.12500000  0.12500000  1
  I  I1  1  0.50000000  0.50000000  0.50000000  1
  I  I2  1  0.25000000  0.25000000  0.25000000  1
  I  I3  1  0.75000000  0.75000000  0.75000000  1
  Li  Li4  1  0.52650522  0.38832888  0.14713648  1
  Li  Li5  1  0.25306168  0.84689208  0.41520815  1
  Li  Li6  1  0.89382491  0.04327137  0.13195607  1
  Ti  Ti7  1  0.02872614  0.46174255  0.86335410  1
