# generated using pymatgen
data_Li2MnSb4P3
_symmetry_space_group_name_H-M   'P 1'
_cell_length_a   5.66345421
_cell_length_b   5.79255392
_cell_length_c   6.83752615
_cell_angle_alpha   98.35078404
_cell_angle_beta   92.36318832
_cell_angle_gamma   98.45569534
_symmetry_Int_Tables_number   1
_chemical_formula_structural   Li2MnSb4P3
_chemical_formula_sum   'Li2 Mn1 Sb4 P3'
_cell_volume   219.07083406
_cell_formula_units_Z   1
loop_
 _symmetry_equiv_pos_site_id
 _symmetry_equiv_pos_as_xyz
  1  'x, y, z'
loop_
 _atom_site_type_symbol
 _atom_site_label
 _atom_site_symmetry_multiplicity
 _atom_site_fract_x
 _atom_site_fract_y
 _atom_site_fract_z
 _atom_site_occupancy
  Mn  Mn0  1  0.12500000  0.00000000  0.25000000  1
  Sb  Sb1  1  0.00000000  0.00000000  0.00000000  1
  Sb  Sb2  1  0.37500000  0.00000000  0.25000000  1
  Sb  Sb3  1  0.25000000  0.25000000  0.25000000  1
  Sb  Sb4  1  0.00000000  0.25000000  0.12500000  1
  P  P5  1  0.51200356  0.51397802  0.79323942  1
  P  P6  1  0.97903284  0.61902318  0.10360096  1
  P  P7  1  0.51411201  0.85859085  0.45964101  1
  Li  Li8  1  0.76176724  0.50063882  0.37220705  1
  Li  Li9  1  0.14606543  0.40969224  0.57798494  1
