# generated using pymatgen
data_Li2As6Br5(OF)3
_symmetry_space_group_name_H-M   'P 1'
_cell_length_a   6.03653894
_cell_length_b   5.77076227
_cell_length_c   7.48904366
_cell_angle_alpha   94.21027430
_cell_angle_beta   96.61630985
_cell_angle_gamma   93.92078987
_symmetry_Int_Tables_number   1
_chemical_formula_structural   Li2As6Br5(OF)3
_chemical_formula_sum   'Li2 As6 Br5 O3 F3'
_cell_volume   257.66868562
_cell_formula_units_Z   1
loop_
 _symmetry_equiv_pos_site_id
 _symmetry_equiv_pos_as_xyz
  1  'x, y, z'
loop_
 _atom_site_type_symbol
 _atom_site_label
 _atom_site_symmetry_multiplicity
 _atom_site_fract_x
 _atom_site_fract_y
 _atom_site_fract_z
 _atom_site_occupancy
  F  F0  1  0.12500000  0.00000000  0.25000000  1
  F  F1  1  0.00000000  0.00000000  0.00000000  1
  F  F2  1  0.37500000  0.00000000  0.25000000  1
  O  O3  1  0.25000000  0.25000000  0.25000000  1
  O  O4  1  0.00000000  0.25000000  0.12500000  1
  O  O5  1  0.29210843  0.01975656  0.80721611  1
  As  As6  1  0.83420700  0.58334274  0.46076617  1
  As  As7  1  0.35163721  0.55868048  0.71554465  1
  As  As8  1  0.33214099  0.44484189  0.37113360  1
  As  As9  1  0.60418823  0.59131570  0.80802273  1
  As  As10  1  0.67117305  0.20057844  0.67094287  1
  As  As11  1  0.19271986  0.36014838  0.91455107  1
  Li  Li12  1  0.55385728  0.76882592  0.85629513  1
  Li  Li13  1  0.57546808  0.03632126  0.87805242  1
  Br  Br14  1  0.66259894  0.35219179  0.96594749  1
  Br  Br15  1  0.01861296  0.87217957  0.20907902  1
  Br  Br16  1  0.02183235  0.84587457  0.95291726  1
  Br  Br17  1  0.92810846  0.40715985  0.74653955  1
  Br  Br18  1  0.73619079  0.52153218  0.21862018  1
