# generated using pymatgen
data_Li3TiO4F3
_symmetry_space_group_name_H-M   'P 1'
_cell_length_a   7.46693336
_cell_length_b   7.17799978
_cell_length_c   6.90247863
_cell_angle_alpha   90.65046880
_cell_angle_beta   93.09473300
_cell_angle_gamma   90.74365953
_symmetry_Int_Tables_number   1
_chemical_formula_structural   Li3TiO4F3
_chemical_formula_sum   'Li3 Ti1 O4 F3'
_cell_volume   369.35904310
_cell_formula_units_Z   1
loop_
 _symmetry_equiv_pos_site_id
 _symmetry_equiv_pos_as_xyz
  1  'x, y, z'
loop_
 _atom_site_type_symbol
 _atom_site_label
 _atom_site_symmetry_multiplicity
 _atom_site_fract_x
 _atom_site_fract_y
 _atom_site_fract_z
 _atom_site_occupancy
  Li  Li0  1  0.12500000  0.00000000  0.25000000  1
  Li  Li1  1  0.00000000  0.00000000  0.00000000  1
  Li  Li2  1  0.37500000  0.00000000  0.25000000  1
  F  F3  1  0.25000000  0.25000000  0.25000000  1
  F  F4  1  0.00000000  0.25000000  0.12500000  1
  F  F5  1  0.73364786  0.79705935  0.72558958  1
  Ti  Ti6  1  0.79795238  0.36919911  0.43314453  1
  O  O7  1  0.57710101  0.19514237  0.78202463  1
  O  O8  1  0.06468888  0.60862112  0.19319856  1
  O  O9  1  0.43705399  0.73779086  0.71534966  1
  O  O10  1  0.18953541  0.75106984  0.64466551  1
