# generated using pymatgen
data_Li3Ni2As6O7
_symmetry_space_group_name_H-M   'P 1'
_cell_length_a   8.04572634
_cell_length_b   7.88798255
_cell_length_c   9.36332413
_cell_angle_alpha   90.77316687
_cell_angle_beta   90.49018526
_cell_angle_gamma   90.89596209
_symmetry_Int_Tables_number   1
_chemical_formula_structural   Li3Ni2As6O7
_chemical_formula_sum   'Li3 Ni2 As6 O7'
_cell_volume   594.08955438
_cell_formula_units_Z   1
loop_
 _symmetry_equiv_pos_site_id
 _symmetry_equiv_pos_as_xyz
  1  'x, y, z'
loop_
 _atom_site_type_symbol
 _atom_site_label
 _atom_site_symmetry_multiplicity
 _atom_site_fract_x
 _atom_site_fract_y
 _atom_site_fract_z
 _atom_site_occupancy
  Li  Li0  1  0.12500000  0.12500000  0.12500000  1
  Li  Li1  1  0.50000000  0.50000000  0.50000000  1
  Li  Li2  1  0.25000000  0.25000000  0.25000000  1
  Ni  Ni3  1  0.75000000  0.75000000  0.75000000  1
  Ni  Ni4  1  0.87974632  0.12322095  0.13826680  1
  As  As5  1  0.70238684  0.94315387  0.61796321  1
  As  As6  1  0.55589498  0.91897168  0.06645702  1
  As  As7  1  0.64428976  0.94004258  0.03089711  1
  As  As8  1  0.53034886  0.24557668  0.42957176  1
  As  As9  1  0.28991301  0.33138270  0.07186064  1
  As  As10  1  0.08254972  0.48786948  0.83256137  1
  O  O11  1  0.18770198  0.45719653  0.08278949  1
  O  O12  1  0.28001670  0.76593798  0.83698042  1
  O  O13  1  0.37166570  0.00594862  0.85219379  1
  O  O14  1  0.88250949  0.20304113  0.46331198  1
  O  O15  1  0.31802623  0.93203507  0.99767568  1
  O  O16  1  0.52043504  0.63657423  0.26800344  1
  O  O17  1  0.67129932  0.44085506  0.40060138  1
