# generated using pymatgen
data_LiMnSb4P3
_symmetry_space_group_name_H-M   'P 1'
_cell_length_a   6.66591343
_cell_length_b   7.14289151
_cell_length_c   7.11375638
_cell_angle_alpha   92.72803394
_cell_angle_beta   91.69025251
_cell_angle_gamma   92.83479667
_symmetry_Int_Tables_number   1
_chemical_formula_structural   LiMnSb4P3
_chemical_formula_sum   'Li1 Mn1 Sb4 P3'
_cell_volume   337.74352906
_cell_formula_units_Z   1
loop_
 _symmetry_equiv_pos_site_id
 _symmetry_equiv_pos_as_xyz
  1  'x, y, z'
loop_
 _atom_site_type_symbol
 _atom_site_label
 _atom_site_symmetry_multiplicity
 _atom_site_fract_x
 _atom_site_fract_y
 _atom_site_fract_z
 _atom_site_occupancy
  Mn  Mn0  1  0.00000000  0.00000000  0.00000000  1
  Sb  Sb1  1  0.33300000  0.66700000  0.25000000  1
  Sb  Sb2  1  0.66700000  0.33300000  0.50000000  1
  Sb  Sb3  1  0.00000000  0.00000000  0.75000000  1
  Sb  Sb4  1  0.32849713  0.54128671  0.78427116  1
  P  P5  1  0.78512238  0.20124942  0.77082023  1
  P  P6  1  0.63693828  0.27396698  0.01048324  1
  P  P7  1  0.58048119  0.89773042  0.48836809  1
  Li  Li8  1  0.44769202  0.89476715  0.07752816  1
