# generated using pymatgen
data_LiCuAs3P3F
_symmetry_space_group_name_H-M   'P 1'
_cell_length_a   7.64371420
_cell_length_b   7.74621348
_cell_length_c   8.34370348
_cell_angle_alpha   90.42736573
_cell_angle_beta   92.03327636
_cell_angle_gamma   90.48859315
_symmetry_Int_Tables_number   1
_chemical_formula_structural   LiCuAs3P3F
_chemical_formula_sum   'Li2 Cu2 As6 P6 F2'
_cell_volume   493.68547668
_cell_formula_units_Z   2
loop_
 _symmetry_equiv_pos_site_id
 _symmetry_equiv_pos_as_xyz
  1  'x, y, z'
loop_
 _atom_site_type_symbol
 _atom_site_label
 _atom_site_symmetry_multiplicity
 _atom_site_fract_x
 _atom_site_fract_y
 _atom_site_fract_z
 _atom_site_occupancy
  P  P0  1  0.00000000  0.00000000  0.00000000  1
  P  P1  1  0.50000000  0.50000000  0.50000000  1
  P  P2  1  0.50000000  0.50000000  0.00000000  1
  P  P3  1  0.50000000  0.00000000  0.50000000  1
  P  P4  1  0.00000000  0.50000000  0.50000000  1
  P  P5  1  0.15341411  0.88073473  0.74600048  1
  Li  Li6  1  0.20230660  0.41386703  0.47778851  1
  Li  Li7  1  0.05273385  0.37712702  0.50044095  1
  Cu  Cu8  1  0.62352656  0.61237507  0.51179819  1
  Cu  Cu9  1  0.71805770  0.85471436  0.44001690  1
  F  F10  1  0.86410488  0.52046148  0.04993603  1
  F  F11  1  0.32405740  0.62052493  0.33164811  1
  As  As12  1  0.24236191  0.64951866  0.33108917  1
  As  As13  1  0.46097859  0.12471203  0.89392309  1
  As  As14  1  0.88744783  0.83387498  0.40081453  1
  As  As15  1  0.82689971  0.17919056  0.33789871  1
  As  As16  1  0.88733643  0.01946550  0.77608803  1
  As  As17  1  0.83449779  0.97124128  0.25051348  1
