# generated using pymatgen
data_LiTi2P6S3F2
_symmetry_space_group_name_H-M   'P 1'
_cell_length_a   7.35276632
_cell_length_b   7.16629048
_cell_length_c   7.67972793
_cell_angle_alpha   90.76467176
_cell_angle_beta   93.63807598
_cell_angle_gamma   90.87422400
_symmetry_Int_Tables_number   1
_chemical_formula_structural   LiTi2P6S3F2
_chemical_formula_sum   'Li1 Ti2 P6 S3 F2'
_cell_volume   403.75664605
_cell_formula_units_Z   1
loop_
 _symmetry_equiv_pos_site_id
 _symmetry_equiv_pos_as_xyz
  1  'x, y, z'
loop_
 _atom_site_type_symbol
 _atom_site_label
 _atom_site_symmetry_multiplicity
 _atom_site_fract_x
 _atom_site_fract_y
 _atom_site_fract_z
 _atom_site_occupancy
  P  P0  1  0.00000000  0.00000000  0.00000000  1
  P  P1  1  0.50000000  0.50000000  0.50000000  1
  P  P2  1  0.50000000  0.50000000  0.00000000  1
  P  P3  1  0.50000000  0.00000000  0.50000000  1
  P  P4  1  0.00000000  0.50000000  0.50000000  1
  P  P5  1  0.66702920  0.88530608  0.69030003  1
  Li  Li6  1  0.84100731  0.87894088  0.84161790  1
  F  F7  1  0.01259232  0.49981376  0.20439113  1
  F  F8  1  0.29909791  0.50310320  0.22018876  1
  S  S9  1  0.26481343  0.66034269  0.51103195  1
  S  S10  1  0.18302210  0.11982981  0.80709349  1
  S  S11  1  0.64225334  0.93356626  0.09241993  1
  Ti  Ti12  1  0.93658977  0.92680318  0.55796580  1
  Ti  Ti13  1  0.15095810  0.84069575  0.06787410  1
