# generated using pymatgen
data_LiMn2Mo2P3
_symmetry_space_group_name_H-M   'P 1'
_cell_length_a   5.65902081
_cell_length_b   6.04342148
_cell_length_c   6.81171165
_cell_angle_alpha   95.54006958
_cell_angle_beta   93.22084857
_cell_angle_gamma   95.73063689
_symmetry_Int_Tables_number   1
_chemical_formula_structural   LiMn2Mo2P3
_chemical_formula_sum   'Li1 Mn2 Mo2 P3'
_cell_volume   230.20233915
_cell_formula_units_Z   1
loop_
 _symmetry_equiv_pos_site_id
 _symmetry_equiv_pos_as_xyz
  1  'x, y, z'
loop_
 _atom_site_type_symbol
 _atom_site_label
 _atom_site_symmetry_multiplicity
 _atom_site_fract_x
 _atom_site_fract_y
 _atom_site_fract_z
 _atom_site_occupancy
  Mn  Mn0  1  0.00000000  0.00000000  0.00000000  1
  Mn  Mn1  1  0.33300000  0.66700000  0.25000000  1
  P  P2  1  0.66700000  0.33300000  0.50000000  1
  P  P3  1  0.00000000  0.00000000  0.75000000  1
  P  P4  1  0.94298973  0.15765226  0.01277381  1
  Mo  Mo5  1  0.09106631  0.48602078  0.32414675  1
  Mo  Mo6  1  0.37206081  0.12213019  0.75525016  1
  Li  Li7  1  0.19036416  0.64877353  0.29414434  1
