# generated using pymatgen
data_LiLa3Ti2S3F2
_symmetry_space_group_name_H-M   'P 1'
_cell_length_a   9.41397898
_cell_length_b   9.22336708
_cell_length_c   10.01374139
_cell_angle_alpha   90.75399309
_cell_angle_beta   93.58727013
_cell_angle_gamma   90.86201544
_symmetry_Int_Tables_number   1
_chemical_formula_structural   LiLa3Ti2S3F2
_chemical_formula_sum   'Li1 La3 Ti2 S3 F2'
_cell_volume   867.59054179
_cell_formula_units_Z   1
loop_
 _symmetry_equiv_pos_site_id
 _symmetry_equiv_pos_as_xyz
  1  'x, y, z'
loop_
 _atom_site_type_symbol
 _atom_site_label
 _atom_site_symmetry_multiplicity
 _atom_site_fract_x
 _atom_site_fract_y
 _atom_site_fract_z
 _atom_site_occupancy
  Li  Li0  1  0.00000000  0.00000000  0.00000000  1
  F  F1  1  0.50000000  0.50000000  0.50000000  1
  F  F2  1  0.50000000  0.50000000  0.00000000  1
  La  La3  1  0.50000000  0.00000000  0.50000000  1
  La  La4  1  0.00000000  0.50000000  0.50000000  1
  La  La5  1  0.28206561  0.78672924  0.79806178  1
  S  S6  1  0.75254110  0.29301509  0.90577242  1
  S  S7  1  0.24327163  0.18371042  0.78964263  1
  S  S8  1  0.79325371  0.38138246  0.27394554  1
  Ti  Ti9  1  0.40087983  0.27843783  0.20899734  1
  Ti  Ti10  1  0.10556986  0.25352590  0.69645393  1
