# generated using pymatgen
data_Li4Ti2NCl2
_symmetry_space_group_name_H-M   'P 1'
_cell_length_a   3.87811487
_cell_length_b   3.69877890
_cell_length_c   6.13048074
_cell_angle_alpha   105.61774952
_cell_angle_beta   116.68710846
_cell_angle_gamma   104.77276555
_symmetry_Int_Tables_number   1
_chemical_formula_structural   Li4Ti2NCl2
_chemical_formula_sum   'Li4 Ti2 N1 Cl2'
_cell_volume   68.06692233
_cell_formula_units_Z   1
loop_
 _symmetry_equiv_pos_site_id
 _symmetry_equiv_pos_as_xyz
  1  'x, y, z'
loop_
 _atom_site_type_symbol
 _atom_site_label
 _atom_site_symmetry_multiplicity
 _atom_site_fract_x
 _atom_site_fract_y
 _atom_site_fract_z
 _atom_site_occupancy
  Li  Li0  1  0.12500000  0.00000000  0.25000000  1
  Li  Li1  1  0.00000000  0.00000000  0.00000000  1
  Li  Li2  1  0.37500000  0.00000000  0.25000000  1
  Li  Li3  1  0.25000000  0.25000000  0.25000000  1
  Cl  Cl4  1  0.00000000  0.25000000  0.12500000  1
  Cl  Cl5  1  0.57308582  0.48581102  0.46290989  1
  Ti  Ti6  1  0.58434254  0.44566637  0.48451057  1
  Ti  Ti7  1  0.74670787  0.48637659  0.15570045  1
  N  N8  1  0.82378826  0.33995797  0.81212887  1
