# generated using pymatgen
data_Li2TiI4
_symmetry_space_group_name_H-M   'P 1'
_cell_length_a   8.13789159
_cell_length_b   8.18371812
_cell_length_c   7.85181177
_cell_angle_alpha   90.25437494
_cell_angle_beta   91.21023870
_cell_angle_gamma   90.29081848
_symmetry_Int_Tables_number   1
_chemical_formula_structural   Li2TiI4
_chemical_formula_sum   'Li2 Ti1 I4'
_cell_volume   522.78782473
_cell_formula_units_Z   1
loop_
 _symmetry_equiv_pos_site_id
 _symmetry_equiv_pos_as_xyz
  1  'x, y, z'
loop_
 _atom_site_type_symbol
 _atom_site_label
 _atom_site_symmetry_multiplicity
 _atom_site_fract_x
 _atom_site_fract_y
 _atom_site_fract_z
 _atom_site_occupancy
  Ti  Ti0  1  0.12500000  0.12500000  0.12500000  1
  I  I1  1  0.50000000  0.50000000  0.50000000  1
  I  I2  1  0.25000000  0.25000000  0.25000000  1
  I  I3  1  0.75000000  0.75000000  0.75000000  1
  I  I4  1  0.33487828  0.22106383  0.98453962  1
  Li  Li5  1  0.32203613  0.77290363  0.93500529  1
  Li  Li6  1  0.91442267  0.65039191  0.71356080  1
