# generated using pymatgen
data_Li4MnP3
_symmetry_space_group_name_H-M   'P 1'
_cell_length_a   4.26160754
_cell_length_b   4.58210273
_cell_length_c   6.97523337
_cell_angle_alpha   98.71846241
_cell_angle_beta   100.32782429
_cell_angle_gamma   99.92268667
_symmetry_Int_Tables_number   1
_chemical_formula_structural   Li4MnP3
_chemical_formula_sum   'Li4 Mn1 P3'
_cell_volume   129.63392352
_cell_formula_units_Z   1
loop_
 _symmetry_equiv_pos_site_id
 _symmetry_equiv_pos_as_xyz
  1  'x, y, z'
loop_
 _atom_site_type_symbol
 _atom_site_label
 _atom_site_symmetry_multiplicity
 _atom_site_fract_x
 _atom_site_fract_y
 _atom_site_fract_z
 _atom_site_occupancy
  Mn  Mn0  1  0.12500000  0.12500000  0.12500000  1
  P  P1  1  0.50000000  0.50000000  0.50000000  1
  P  P2  1  0.25000000  0.25000000  0.25000000  1
  P  P3  1  0.75000000  0.75000000  0.75000000  1
  Li  Li4  1  0.77818425  0.10034276  0.95673619  1
  Li  Li5  1  0.66153566  0.00971581  0.64763708  1
  Li  Li6  1  0.37482131  0.95797795  0.63589320  1
  Li  Li7  1  0.01073998  0.58971224  0.40767948  1
