# generated using pymatgen
data_Li2(NiP)3
_symmetry_space_group_name_H-M   'P 1'
_cell_length_a   5.44628279
_cell_length_b   5.58827153
_cell_length_c   7.10678098
_cell_angle_alpha   95.91092387
_cell_angle_beta   95.73481906
_cell_angle_gamma   96.32273578
_symmetry_Int_Tables_number   1
_chemical_formula_structural   Li2(NiP)3
_chemical_formula_sum   'Li2 Ni3 P3'
_cell_volume   212.47978984
_cell_formula_units_Z   1
loop_
 _symmetry_equiv_pos_site_id
 _symmetry_equiv_pos_as_xyz
  1  'x, y, z'
loop_
 _atom_site_type_symbol
 _atom_site_label
 _atom_site_symmetry_multiplicity
 _atom_site_fract_x
 _atom_site_fract_y
 _atom_site_fract_z
 _atom_site_occupancy
  P  P0  1  0.00000000  0.00000000  0.00000000  1
  P  P1  1  0.33300000  0.66700000  0.25000000  1
  P  P2  1  0.66700000  0.33300000  0.50000000  1
  Li  Li3  1  0.00000000  0.00000000  0.75000000  1
  Li  Li4  1  0.65108885  0.10626784  0.65704428  1
  Ni  Ni5  1  0.16257151  0.06216699  0.43235812  1
  Ni  Ni6  1  0.32814483  0.15227145  0.90480871  1
  Ni  Ni7  1  0.38466623  0.90426360  0.50374378  1
