# generated using pymatgen
data_LiMo2P3N
_symmetry_space_group_name_H-M   'P 1'
_cell_length_a   4.03023034
_cell_length_b   4.15624209
_cell_length_c   5.14332163
_cell_angle_alpha   100.81086449
_cell_angle_beta   94.65590427
_cell_angle_gamma   98.49015700
_symmetry_Int_Tables_number   1
_chemical_formula_structural   LiMo2P3N
_chemical_formula_sum   'Li1 Mo2 P3 N1'
_cell_volume   83.17016264
_cell_formula_units_Z   1
loop_
 _symmetry_equiv_pos_site_id
 _symmetry_equiv_pos_as_xyz
  1  'x, y, z'
loop_
 _atom_site_type_symbol
 _atom_site_label
 _atom_site_symmetry_multiplicity
 _atom_site_fract_x
 _atom_site_fract_y
 _atom_site_fract_z
 _atom_site_occupancy
  P  P0  1  0.12500000  0.00000000  0.25000000  1
  P  P1  1  0.00000000  0.00000000  0.00000000  1
  P  P2  1  0.37500000  0.00000000  0.25000000  1
  Mo  Mo3  1  0.25000000  0.25000000  0.25000000  1
  Mo  Mo4  1  0.00000000  0.25000000  0.12500000  1
  Li  Li5  1  0.02855206  0.45820604  0.72452585  1
  N  N6  1  0.12021986  0.38631737  0.52547243  1
