# generated using pymatgen
data_Li3Ni2P4I4O5
_symmetry_space_group_name_H-M   'P 1'
_cell_length_a   7.00755911
_cell_length_b   6.80731748
_cell_length_c   7.83262984
_cell_angle_alpha   95.55995855
_cell_angle_beta   96.71998503
_cell_angle_gamma   95.42261379
_symmetry_Int_Tables_number   1
_chemical_formula_structural   Li3Ni2P4I4O5
_chemical_formula_sum   'Li3 Ni2 P4 I4 O5'
_cell_volume   367.20149480
_cell_formula_units_Z   1
loop_
 _symmetry_equiv_pos_site_id
 _symmetry_equiv_pos_as_xyz
  1  'x, y, z'
loop_
 _atom_site_type_symbol
 _atom_site_label
 _atom_site_symmetry_multiplicity
 _atom_site_fract_x
 _atom_site_fract_y
 _atom_site_fract_z
 _atom_site_occupancy
  I  I0  1  0.00000000  0.00000000  0.00000000  1
  I  I1  1  0.50000000  0.50000000  0.50000000  1
  I  I2  1  0.50000000  0.50000000  0.00000000  1
  I  I3  1  0.50000000  0.00000000  0.50000000  1
  P  P4  1  0.00000000  0.50000000  0.50000000  1
  P  P5  1  0.57946850  0.65308748  0.57243134  1
  P  P6  1  0.18702039  0.25197459  0.97114127  1
  P  P7  1  0.45663358  0.11879905  0.09384616  1
  Li  Li8  1  0.61177515  0.31569972  0.22698143  1
  Li  Li9  1  0.47790844  0.85917497  0.17764181  1
  Li  Li10  1  0.89959626  0.53107584  0.10260864  1
  Ni  Ni11  1  0.49009813  0.28617981  0.55439348  1
  Ni  Ni12  1  0.32762694  0.93181510  0.56640962  1
  O  O13  1  0.63556140  0.28330788  0.14356477  1
  O  O14  1  0.51134798  0.41169078  0.64114818  1
  O  O15  1  0.24247659  0.87141952  0.71928553  1
  O  O16  1  0.08190357  0.26017230  0.41195650  1
  O  O17  1  0.03471713  0.52702361  0.21018385  1
