# generated using pymatgen
data_Li2Mn2Sb4P2N
_symmetry_space_group_name_H-M   'P 1'
_cell_length_a   6.34695371
_cell_length_b   6.52958190
_cell_length_c   7.26137942
_cell_angle_alpha   94.85801346
_cell_angle_beta   93.65965382
_cell_angle_gamma   94.63658878
_symmetry_Int_Tables_number   1
_chemical_formula_structural   Li2Mn2Sb4P2N
_chemical_formula_sum   'Li2 Mn2 Sb4 P2 N1'
_cell_volume   298.11294520
_cell_formula_units_Z   1
loop_
 _symmetry_equiv_pos_site_id
 _symmetry_equiv_pos_as_xyz
  1  'x, y, z'
loop_
 _atom_site_type_symbol
 _atom_site_label
 _atom_site_symmetry_multiplicity
 _atom_site_fract_x
 _atom_site_fract_y
 _atom_site_fract_z
 _atom_site_occupancy
  N  N0  1  0.00000000  0.00000000  0.00000000  1
  Mn  Mn1  1  0.50000000  0.50000000  0.50000000  1
  Mn  Mn2  1  0.25000000  0.25000000  0.25000000  1
  Sb  Sb3  1  0.75000000  0.25000000  0.00000000  1
  Sb  Sb4  1  0.25000000  0.75000000  0.50000000  1
  Sb  Sb5  1  0.52924397  0.44708008  0.70402809  1
  Sb  Sb6  1  0.07964072  0.15709738  0.09309672  1
  P  P7  1  0.89406521  0.30458010  0.79662478  1
  P  P8  1  0.81450993  0.08615522  0.79504833  1
  Li  Li9  1  0.72817028  0.64732071  0.52123472  1
  Li  Li10  1  0.59890357  0.54428636  0.68831820  1
