# generated using pymatgen
data_Li3Ni2(As3P2)2
_symmetry_space_group_name_H-M   'P 1'
_cell_length_a   7.31139163
_cell_length_b   7.18166952
_cell_length_c   8.55830711
_cell_angle_alpha   92.88349201
_cell_angle_beta   92.65411933
_cell_angle_gamma   93.40144122
_symmetry_Int_Tables_number   1
_chemical_formula_structural   Li3Ni2(As3P2)2
_chemical_formula_sum   'Li3 Ni2 As6 P4'
_cell_volume   447.47205602
_cell_formula_units_Z   1
loop_
 _symmetry_equiv_pos_site_id
 _symmetry_equiv_pos_as_xyz
  1  'x, y, z'
loop_
 _atom_site_type_symbol
 _atom_site_label
 _atom_site_symmetry_multiplicity
 _atom_site_fract_x
 _atom_site_fract_y
 _atom_site_fract_z
 _atom_site_occupancy
  P  P0  1  0.12500000  0.00000000  0.25000000  1
  P  P1  1  0.00000000  0.00000000  0.00000000  1
  P  P2  1  0.37500000  0.00000000  0.25000000  1
  P  P3  1  0.25000000  0.25000000  0.25000000  1
  Li  Li4  1  0.00000000  0.25000000  0.12500000  1
  Li  Li5  1  0.57130293  0.31702390  0.26182035  1
  Li  Li6  1  0.50419221  0.29414380  0.53476475  1
  Ni  Ni7  1  0.33647606  0.03728443  0.82591312  1
  Ni  Ni8  1  0.14620814  0.57575428  0.47739736  1
  As  As9  1  0.79249446  0.47857928  0.81871077  1
  As  As10  1  0.65284395  0.64207318  0.65214346  1
  As  As11  1  0.75068637  0.76377387  0.37308194  1
  As  As12  1  0.97117772  0.64008112  0.77805472  1
  As  As13  1  0.13710387  0.94771542  0.89458054  1
  As  As14  1  0.09689383  0.50443031  0.22043785  1
