# generated using pymatgen
data_Li3As6SeO4F3
_symmetry_space_group_name_H-M   'P 1'
_cell_length_a   6.15214249
_cell_length_b   6.11479256
_cell_length_c   7.67937361
_cell_angle_alpha   97.64235444
_cell_angle_beta   100.83240257
_cell_angle_gamma   97.22552230
_symmetry_Int_Tables_number   1
_chemical_formula_structural   Li3As6SeO4F3
_chemical_formula_sum   'Li3 As6 Se1 O4 F3'
_cell_volume   277.82945126
_cell_formula_units_Z   1
loop_
 _symmetry_equiv_pos_site_id
 _symmetry_equiv_pos_as_xyz
  1  'x, y, z'
loop_
 _atom_site_type_symbol
 _atom_site_label
 _atom_site_symmetry_multiplicity
 _atom_site_fract_x
 _atom_site_fract_y
 _atom_site_fract_z
 _atom_site_occupancy
  Li  Li0  1  0.00000000  0.00000000  0.00000000  1
  Li  Li1  1  0.50000000  0.50000000  0.50000000  1
  Li  Li2  1  0.50000000  0.50000000  0.00000000  1
  Se  Se3  1  0.50000000  0.00000000  0.50000000  1
  F  F4  1  0.00000000  0.50000000  0.50000000  1
  F  F5  1  0.24412679  0.69418358  0.11505674  1
  F  F6  1  0.30393690  0.20686493  0.46209243  1
  As  As7  1  0.05686937  0.47201546  0.86939879  1
  As  As8  1  0.20106100  0.55431624  0.04617487  1
  As  As9  1  0.49642720  0.65648527  0.95517665  1
  As  As10  1  0.49538586  0.63327057  0.08724917  1
  As  As11  1  0.16600944  0.02066401  0.68531664  1
  As  As12  1  0.26880473  0.74868980  0.23234604  1
  O  O13  1  0.72626227  0.16919973  0.11414534  1
  O  O14  1  0.25807211  0.65960876  0.52215852  1
  O  O15  1  0.95310555  0.15291293  0.88708816  1
  O  O16  1  0.74801938  0.15528935  0.68714831  1
