# generated using pymatgen
data_Li2TiCuS
_symmetry_space_group_name_H-M   'P 1'
_cell_length_a   4.38678811
_cell_length_b   4.01904402
_cell_length_c   7.00823470
_cell_angle_alpha   102.11151691
_cell_angle_beta   103.34974048
_cell_angle_gamma   101.50811288
_symmetry_Int_Tables_number   1
_chemical_formula_structural   Li2TiCuS
_chemical_formula_sum   'Li4 Ti2 Cu2 S2'
_cell_volume   113.48249680
_cell_formula_units_Z   2
loop_
 _symmetry_equiv_pos_site_id
 _symmetry_equiv_pos_as_xyz
  1  'x, y, z'
loop_
 _atom_site_type_symbol
 _atom_site_label
 _atom_site_symmetry_multiplicity
 _atom_site_fract_x
 _atom_site_fract_y
 _atom_site_fract_z
 _atom_site_occupancy
  S  S0  1  0.00000000  0.00000000  0.00000000  1
  S  S1  1  0.33300000  0.66700000  0.25000000  1
  Ti  Ti2  1  0.66700000  0.33300000  0.50000000  1
  Ti  Ti3  1  0.00000000  0.00000000  0.75000000  1
  Li  Li4  1  0.66110942  0.96897404  0.92023235  1
  Li  Li5  1  0.59279427  0.07704478  0.75290025  1
  Li  Li6  1  0.18008793  0.91306064  0.53665161  1
  Li  Li7  1  0.71506962  0.46431326  0.30769880  1
  Cu  Cu8  1  0.49089963  0.04130969  0.82791751  1
  Cu  Cu9  1  0.00636729  0.52338733  0.00245187  1
