# generated using pymatgen
data_LiSe3(BrO)3
_symmetry_space_group_name_H-M   'P 1'
_cell_length_a   7.76264694
_cell_length_b   8.27465529
_cell_length_c   8.09754974
_cell_angle_alpha   90.00000000
_cell_angle_beta   90.00000000
_cell_angle_gamma   90.00000000
_symmetry_Int_Tables_number   1
_chemical_formula_structural   LiSe3(BrO)3
_chemical_formula_sum   'Li1 Se3 Br3 O3'
_cell_volume   520.13175490
_cell_formula_units_Z   1
loop_
 _symmetry_equiv_pos_site_id
 _symmetry_equiv_pos_as_xyz
  1  'x, y, z'
loop_
 _atom_site_type_symbol
 _atom_site_label
 _atom_site_symmetry_multiplicity
 _atom_site_fract_x
 _atom_site_fract_y
 _atom_site_fract_z
 _atom_site_occupancy
  Li  Li0  1  0.12500000  0.12500000  0.12500000  1
  Br  Br1  1  0.50000000  0.50000000  0.50000000  1
  Br  Br2  1  0.25000000  0.25000000  0.25000000  1
  Br  Br3  1  0.75000000  0.75000000  0.75000000  1
  Se  Se4  1  0.98216075  0.28536487  0.28637668  1
  Se  Se5  1  0.79653881  0.59817080  0.60481691  1
  Se  Se6  1  0.06905761  0.48223965  0.88840295  1
  O  O7  1  0.09783076  0.86780685  0.09014498  1
  O  O8  1  0.00186766  0.12790300  0.21650840  1
  O  O9  1  0.05301172  0.58492629  0.72899373  1
