# generated using pymatgen
data_Li2TiCu2P5O2
_symmetry_space_group_name_H-M   'P 1'
_cell_length_a   8.49288938
_cell_length_b   8.37775840
_cell_length_c   7.25838340
_cell_angle_alpha   90.10821351
_cell_angle_beta   90.51484702
_cell_angle_gamma   90.12371694
_symmetry_Int_Tables_number   1
_chemical_formula_structural   Li2TiCu2P5O2
_chemical_formula_sum   'Li2 Ti1 Cu2 P5 O2'
_cell_volume   516.42096760
_cell_formula_units_Z   1
loop_
 _symmetry_equiv_pos_site_id
 _symmetry_equiv_pos_as_xyz
  1  'x, y, z'
loop_
 _atom_site_type_symbol
 _atom_site_label
 _atom_site_symmetry_multiplicity
 _atom_site_fract_x
 _atom_site_fract_y
 _atom_site_fract_z
 _atom_site_occupancy
  P  P0  1  0.00000000  0.00000000  0.00000000  1
  P  P1  1  0.50000000  0.50000000  0.50000000  1
  P  P2  1  0.25000000  0.25000000  0.25000000  1
  P  P3  1  0.75000000  0.25000000  0.00000000  1
  P  P4  1  0.25000000  0.75000000  0.50000000  1
  Li  Li5  1  0.66166141  0.32530422  0.30362356  1
  Li  Li6  1  0.27229138  0.28493773  0.10703795  1
  Cu  Cu7  1  0.99291664  0.93032697  0.43544952  1
  Cu  Cu8  1  0.36583819  0.77767180  0.43491054  1
  Ti  Ti9  1  0.60714100  0.66455664  0.87335043  1
  O  O10  1  0.00225090  0.48913071  0.64618626  1
  O  O11  1  0.68099006  0.40024969  0.36193410  1
