# generated using pymatgen
data_LiMn2Sb4P3
_symmetry_space_group_name_H-M   'P 1'
_cell_length_a   5.08654973
_cell_length_b   5.28642713
_cell_length_c   6.28206099
_cell_angle_alpha   95.90222453
_cell_angle_beta   92.60985276
_cell_angle_gamma   95.78821411
_symmetry_Int_Tables_number   1
_chemical_formula_structural   LiMn2Sb4P3
_chemical_formula_sum   'Li1 Mn2 Sb4 P3'
_cell_volume   166.90343960
_cell_formula_units_Z   1
loop_
 _symmetry_equiv_pos_site_id
 _symmetry_equiv_pos_as_xyz
  1  'x, y, z'
loop_
 _atom_site_type_symbol
 _atom_site_label
 _atom_site_symmetry_multiplicity
 _atom_site_fract_x
 _atom_site_fract_y
 _atom_site_fract_z
 _atom_site_occupancy
  Mn  Mn0  1  0.12500000  0.12500000  0.12500000  1
  Mn  Mn1  1  0.50000000  0.50000000  0.50000000  1
  Sb  Sb2  1  0.25000000  0.25000000  0.25000000  1
  Sb  Sb3  1  0.75000000  0.75000000  0.75000000  1
  Sb  Sb4  1  0.87282701  0.74348802  0.14489088  1
  Sb  Sb5  1  0.33695167  0.42132188  0.82982716  1
  P  P6  1  0.22879239  0.33230406  0.26778049  1
  P  P7  1  0.88956491  0.88441042  0.52450066  1
  P  P8  1  0.40689541  0.32351154  0.91862857  1
  Li  Li9  1  0.58309238  0.22446199  0.51588860  1
