# generated using pymatgen
data_Li2Sb3Se2I4O
_symmetry_space_group_name_H-M   'P 1'
_cell_length_a   8.32643383
_cell_length_b   8.41099566
_cell_length_c   7.20162877
_cell_angle_alpha   90.00000000
_cell_angle_beta   90.00000000
_cell_angle_gamma   90.00000000
_symmetry_Int_Tables_number   1
_chemical_formula_structural   Li2Sb3Se2I4O
_chemical_formula_sum   'Li2 Sb3 Se2 I4 O1'
_cell_volume   504.35598032
_cell_formula_units_Z   1
loop_
 _symmetry_equiv_pos_site_id
 _symmetry_equiv_pos_as_xyz
  1  'x, y, z'
loop_
 _atom_site_type_symbol
 _atom_site_label
 _atom_site_symmetry_multiplicity
 _atom_site_fract_x
 _atom_site_fract_y
 _atom_site_fract_z
 _atom_site_occupancy
  I  I0  1  0.00000000  0.00000000  0.00000000  1
  I  I1  1  0.50000000  0.50000000  0.50000000  1
  I  I2  1  0.50000000  0.50000000  0.00000000  1
  I  I3  1  0.50000000  0.00000000  0.50000000  1
  Li  Li4  1  0.00000000  0.50000000  0.50000000  1
  Li  Li5  1  0.68169125  0.55331876  0.57700611  1
  Sb  Sb6  1  0.77385937  0.95942847  0.80694170  1
  Sb  Sb7  1  0.91754833  0.44493657  0.03846137  1
  Sb  Sb8  1  0.46380516  0.57061731  0.10512138  1
  Se  Se9  1  0.58750696  0.93897794  0.36096171  1
  Se  Se10  1  0.87365631  0.58617181  0.09012033  1
  O  O11  1  0.72829557  0.37891040  0.07414875  1
