# generated using pymatgen
data_Li2Mn2Sb4P3
_symmetry_space_group_name_H-M   'P 1'
_cell_length_a   6.80141308
_cell_length_b   7.39955848
_cell_length_c   7.41325556
_cell_angle_alpha   92.04029881
_cell_angle_beta   92.41692246
_cell_angle_gamma   92.32211196
_symmetry_Int_Tables_number   1
_chemical_formula_structural   Li2Mn2Sb4P3
_chemical_formula_sum   'Li2 Mn2 Sb4 P3'
_cell_volume   372.19205786
_cell_formula_units_Z   1
loop_
 _symmetry_equiv_pos_site_id
 _symmetry_equiv_pos_as_xyz
  1  'x, y, z'
loop_
 _atom_site_type_symbol
 _atom_site_label
 _atom_site_symmetry_multiplicity
 _atom_site_fract_x
 _atom_site_fract_y
 _atom_site_fract_z
 _atom_site_occupancy
  Mn  Mn0  1  0.12500000  0.00000000  0.25000000  1
  Mn  Mn1  1  0.00000000  0.00000000  0.00000000  1
  Sb  Sb2  1  0.37500000  0.00000000  0.25000000  1
  Sb  Sb3  1  0.25000000  0.25000000  0.25000000  1
  Sb  Sb4  1  0.00000000  0.25000000  0.12500000  1
  Sb  Sb5  1  0.50928783  0.12102241  0.62197962  1
  P  P6  1  0.34619410  0.62530587  0.23046662  1
  P  P7  1  0.35117852  0.27677496  0.29518913  1
  P  P8  1  0.18157101  0.00380410  0.12866938  1
  Li  Li9  1  0.75239188  0.23024687  0.93079718  1
  Li  Li10  1  0.29453823  0.07159100  0.46383813  1
