# generated using pymatgen
data_Li3TiNi2As6O5
_symmetry_space_group_name_H-M   'P 1'
_cell_length_a   8.18932624
_cell_length_b   8.06285931
_cell_length_c   8.45867243
_cell_angle_alpha   90.11600754
_cell_angle_beta   90.55192862
_cell_angle_gamma   90.13262759
_symmetry_Int_Tables_number   1
_chemical_formula_structural   Li3TiNi2As6O5
_chemical_formula_sum   'Li3 Ti1 Ni2 As6 O5'
_cell_volume   558.49236155
_cell_formula_units_Z   1
loop_
 _symmetry_equiv_pos_site_id
 _symmetry_equiv_pos_as_xyz
  1  'x, y, z'
loop_
 _atom_site_type_symbol
 _atom_site_label
 _atom_site_symmetry_multiplicity
 _atom_site_fract_x
 _atom_site_fract_y
 _atom_site_fract_z
 _atom_site_occupancy
  Li  Li0  1  0.00000000  0.00000000  0.00000000  1
  Li  Li1  1  0.50000000  0.50000000  0.50000000  1
  Li  Li2  1  0.50000000  0.50000000  0.00000000  1
  Ni  Ni3  1  0.50000000  0.00000000  0.50000000  1
  Ni  Ni4  1  0.00000000  0.50000000  0.50000000  1
  Ti  Ti5  1  0.90529512  0.82952108  0.83717490  1
  As  As6  1  0.87936552  0.36947968  0.12770696  1
  As  As7  1  0.14175198  0.19661372  0.72819523  1
  As  As8  1  0.12324736  0.82084029  0.49699326  1
  As  As9  1  0.38346051  0.36538404  0.99938518  1
  As  As10  1  0.37077968  0.19011247  0.31521923  1
  As  As11  1  0.01710861  0.34597508  0.31188464  1
  O  O12  1  0.31977635  0.18229295  0.35921348  1
  O  O13  1  0.37641371  0.41505587  0.57716411  1
  O  O14  1  0.19680338  0.45783746  0.03030431  1
  O  O15  1  0.40140171  0.44986824  0.07282170  1
  O  O16  1  0.94110056  0.49096645  0.08581671  1
