# generated using pymatgen
data_Li3Ni2Te6I4O5
_symmetry_space_group_name_H-M   'P 1'
_cell_length_a   6.45833780
_cell_length_b   6.28599865
_cell_length_c   7.62366830
_cell_angle_alpha   99.48561853
_cell_angle_beta   102.11095623
_cell_angle_gamma   98.92327201
_symmetry_Int_Tables_number   1
_chemical_formula_structural   Li3Ni2Te6I4O5
_chemical_formula_sum   'Li3 Ni2 Te6 I4 O5'
_cell_volume   292.64203171
_cell_formula_units_Z   1
loop_
 _symmetry_equiv_pos_site_id
 _symmetry_equiv_pos_as_xyz
  1  'x, y, z'
loop_
 _atom_site_type_symbol
 _atom_site_label
 _atom_site_symmetry_multiplicity
 _atom_site_fract_x
 _atom_site_fract_y
 _atom_site_fract_z
 _atom_site_occupancy
  I  I0  1  0.00000000  0.00000000  0.00000000  1
  I  I1  1  0.50000000  0.50000000  0.50000000  1
  I  I2  1  0.25000000  0.25000000  0.25000000  1
  I  I3  1  0.75000000  0.25000000  0.00000000  1
  Li  Li4  1  0.25000000  0.75000000  0.50000000  1
  Li  Li5  1  0.66799361  0.73391236  0.78352911  1
  Li  Li6  1  0.03443610  0.31869100  0.28257490  1
  Ni  Ni7  1  0.20087667  0.26447406  0.94319207  1
  Ni  Ni8  1  0.15586309  0.94679752  0.49983609  1
  Te  Te9  1  0.40177421  0.74545973  0.99531399  1
  Te  Te10  1  0.56967670  0.65528794  0.12353463  1
  Te  Te11  1  0.28416399  0.21564516  0.50977594  1
  Te  Te12  1  0.23232213  0.23432769  0.52060695  1
  Te  Te13  1  0.24830010  0.41016503  0.36349623  1
  Te  Te14  1  0.88811500  0.62702617  0.66398040  1
  O  O15  1  0.38958495  0.20949647  0.59179242  1
  O  O16  1  0.38426847  0.63869708  0.67248566  1
  O  O17  1  0.75619492  0.14886368  0.42926485  1
  O  O18  1  0.46502121  0.98227084  0.09329654  1
  O  O19  1  0.73420257  0.85727995  0.20547436  1
