# generated using pymatgen
data_Li2Mn2Sb4P3
_symmetry_space_group_name_H-M   'P 1'
_cell_length_a   5.28102396
_cell_length_b   5.41718756
_cell_length_c   6.63348772
_cell_angle_alpha   100.09359960
_cell_angle_beta   93.29091621
_cell_angle_gamma   100.33394186
_symmetry_Int_Tables_number   1
_chemical_formula_structural   Li2Mn2Sb4P3
_chemical_formula_sum   'Li2 Mn2 Sb4 P3'
_cell_volume   183.03004270
_cell_formula_units_Z   1
loop_
 _symmetry_equiv_pos_site_id
 _symmetry_equiv_pos_as_xyz
  1  'x, y, z'
loop_
 _atom_site_type_symbol
 _atom_site_label
 _atom_site_symmetry_multiplicity
 _atom_site_fract_x
 _atom_site_fract_y
 _atom_site_fract_z
 _atom_site_occupancy
  Mn  Mn0  1  0.00000000  0.00000000  0.00000000  1
  Mn  Mn1  1  0.33300000  0.66700000  0.25000000  1
  Sb  Sb2  1  0.66700000  0.33300000  0.50000000  1
  Sb  Sb3  1  0.00000000  0.00000000  0.75000000  1
  Sb  Sb4  1  0.66348671  0.93040651  0.90119863  1
  Sb  Sb5  1  0.06820472  0.44373923  0.64736959  1
  P  P6  1  0.23400703  0.42563500  0.36363400  1
  P  P7  1  0.91522459  0.71237129  0.92542928  1
  P  P8  1  0.61888013  0.07990168  0.11718628  1
  Li  Li9  1  0.74077087  0.38145754  0.14583865  1
  Li  Li10  1  0.26294776  0.85383646  0.83351296  1
