# generated using pymatgen
data_LiSb2Mo2P3
_symmetry_space_group_name_H-M   'P 1'
_cell_length_a   5.08681837
_cell_length_b   5.30748470
_cell_length_c   6.00434018
_cell_angle_alpha   94.60677176
_cell_angle_beta   91.29186391
_cell_angle_gamma   94.95422588
_symmetry_Int_Tables_number   1
_chemical_formula_structural   LiSb2Mo2P3
_chemical_formula_sum   'Li1 Sb2 Mo2 P3'
_cell_volume   160.90811006
_cell_formula_units_Z   1
loop_
 _symmetry_equiv_pos_site_id
 _symmetry_equiv_pos_as_xyz
  1  'x, y, z'
loop_
 _atom_site_type_symbol
 _atom_site_label
 _atom_site_symmetry_multiplicity
 _atom_site_fract_x
 _atom_site_fract_y
 _atom_site_fract_z
 _atom_site_occupancy
  Sb  Sb0  1  0.12500000  0.00000000  0.25000000  1
  Sb  Sb1  1  0.00000000  0.00000000  0.00000000  1
  P  P2  1  0.37500000  0.00000000  0.25000000  1
  P  P3  1  0.25000000  0.25000000  0.25000000  1
  P  P4  1  0.00000000  0.25000000  0.12500000  1
  Mo  Mo5  1  0.72962246  0.63830259  0.07592506  1
  Mo  Mo6  1  0.96615523  0.97336567  0.62945557  1
  Li  Li7  1  0.67471818  0.16722636  0.12081604  1
