# generated using pymatgen
data_Li2Sb4P3N5
_symmetry_space_group_name_H-M   'P 1'
_cell_length_a   7.15848926
_cell_length_b   7.82339882
_cell_length_c   7.78194037
_cell_angle_alpha   92.49510178
_cell_angle_beta   90.61385167
_cell_angle_gamma   92.51360258
_symmetry_Int_Tables_number   1
_chemical_formula_structural   Li2Sb4P3N5
_chemical_formula_sum   'Li2 Sb4 P3 N5'
_cell_volume   434.95068604
_cell_formula_units_Z   1
loop_
 _symmetry_equiv_pos_site_id
 _symmetry_equiv_pos_as_xyz
  1  'x, y, z'
loop_
 _atom_site_type_symbol
 _atom_site_label
 _atom_site_symmetry_multiplicity
 _atom_site_fract_x
 _atom_site_fract_y
 _atom_site_fract_z
 _atom_site_occupancy
  Sb  Sb0  1  0.00000000  0.00000000  0.00000000  1
  Sb  Sb1  1  0.50000000  0.50000000  0.50000000  1
  Sb  Sb2  1  0.50000000  0.50000000  0.00000000  1
  Sb  Sb3  1  0.50000000  0.00000000  0.50000000  1
  P  P4  1  0.00000000  0.50000000  0.50000000  1
  P  P5  1  0.96008734  0.75043040  0.51576203  1
  P  P6  1  0.88008675  0.19744954  0.33825587  1
  Li  Li7  1  0.17795267  0.32233656  0.93817900  1
  Li  Li8  1  0.15088062  0.65039681  0.12183754  1
  N  N9  1  0.13256407  0.26138281  0.61469456  1
  N  N10  1  0.42155175  0.03839101  0.84032901  1
  N  N11  1  0.51210575  0.37440879  0.74621440  1
  N  N12  1  0.78237030  0.38095544  0.40588959  1
  N  N13  1  0.18272963  0.28918728  0.89961385  1
