# generated using pymatgen
data_Li2Mn2Sb4P3
_symmetry_space_group_name_H-M   'P 1'
_cell_length_a   4.82861725
_cell_length_b   5.15305922
_cell_length_c   6.66072540
_cell_angle_alpha   99.72576674
_cell_angle_beta   95.11066246
_cell_angle_gamma   100.17638687
_symmetry_Int_Tables_number   1
_chemical_formula_structural   Li2Mn2Sb4P3
_chemical_formula_sum   'Li2 Mn2 Sb4 P3'
_cell_volume   159.56873628
_cell_formula_units_Z   1
loop_
 _symmetry_equiv_pos_site_id
 _symmetry_equiv_pos_as_xyz
  1  'x, y, z'
loop_
 _atom_site_type_symbol
 _atom_site_label
 _atom_site_symmetry_multiplicity
 _atom_site_fract_x
 _atom_site_fract_y
 _atom_site_fract_z
 _atom_site_occupancy
  Mn  Mn0  1  0.00000000  0.00000000  0.00000000  1
  Mn  Mn1  1  0.50000000  0.50000000  0.50000000  1
  Sb  Sb2  1  0.50000000  0.50000000  0.00000000  1
  Sb  Sb3  1  0.50000000  0.00000000  0.50000000  1
  Sb  Sb4  1  0.00000000  0.50000000  0.50000000  1
  Sb  Sb5  1  0.54257147  0.11178241  0.25734289  1
  P  P6  1  0.16209469  0.35589488  0.03330052  1
  P  P7  1  0.85215949  0.79795561  0.71234623  1
  P  P8  1  0.59183733  0.36081070  0.44197991  1
  Li  Li9  1  0.33662612  0.09568521  0.08189211  1
  Li  Li10  1  0.20090042  0.04072515  0.15635780  1
