# generated using pymatgen
data_Li3Zn2I4(OF)3
_symmetry_space_group_name_H-M   'P 1'
_cell_length_a   6.80078530
_cell_length_b   6.78251335
_cell_length_c   7.03934012
_cell_angle_alpha   96.76132481
_cell_angle_beta   98.97239036
_cell_angle_gamma   96.35634968
_symmetry_Int_Tables_number   1
_chemical_formula_structural   Li3Zn2I4(OF)3
_chemical_formula_sum   'Li3 Zn2 I4 O3 F3'
_cell_volume   315.72634026
_cell_formula_units_Z   1
loop_
 _symmetry_equiv_pos_site_id
 _symmetry_equiv_pos_as_xyz
  1  'x, y, z'
loop_
 _atom_site_type_symbol
 _atom_site_label
 _atom_site_symmetry_multiplicity
 _atom_site_fract_x
 _atom_site_fract_y
 _atom_site_fract_z
 _atom_site_occupancy
  I  I0  1  0.00000000  0.00000000  0.00000000  1
  I  I1  1  0.50000000  0.50000000  0.50000000  1
  I  I2  1  0.25000000  0.25000000  0.25000000  1
  I  I3  1  0.75000000  0.25000000  0.00000000  1
  Li  Li4  1  0.25000000  0.75000000  0.50000000  1
  Li  Li5  1  0.58238422  0.42227229  0.13255527  1
  Li  Li6  1  0.77359178  0.41342423  0.93019324  1
  Zn  Zn7  1  0.23744160  0.41533386  0.07310594  1
  Zn  Zn8  1  0.56506745  0.29520213  0.07555120  1
  F  F9  1  0.32830483  0.16046563  0.84880630  1
  F  F10  1  0.12736651  0.22673365  0.66495870  1
  F  F11  1  0.89337951  0.02986356  0.94082447  1
  O  O12  1  0.01107746  0.87670279  0.47030487  1
  O  O13  1  0.11804922  0.56341771  0.35022125  1
  O  O14  1  0.22786019  0.23307619  0.66893895  1
