# generated using pymatgen
data_Li2LuCu2Ni2P5
_symmetry_space_group_name_H-M   'P 1'
_cell_length_a   7.73266098
_cell_length_b   7.53841704
_cell_length_c   8.06407599
_cell_angle_alpha   91.22868576
_cell_angle_beta   91.43419637
_cell_angle_gamma   91.42135560
_symmetry_Int_Tables_number   1
_chemical_formula_structural   Li2LuCu2Ni2P5
_chemical_formula_sum   'Li2 Lu1 Cu2 Ni2 P5'
_cell_volume   469.66495306
_cell_formula_units_Z   1
loop_
 _symmetry_equiv_pos_site_id
 _symmetry_equiv_pos_as_xyz
  1  'x, y, z'
loop_
 _atom_site_type_symbol
 _atom_site_label
 _atom_site_symmetry_multiplicity
 _atom_site_fract_x
 _atom_site_fract_y
 _atom_site_fract_z
 _atom_site_occupancy
  P  P0  1  0.00000000  0.00000000  0.00000000  1
  P  P1  1  0.50000000  0.50000000  0.50000000  1
  P  P2  1  0.25000000  0.25000000  0.25000000  1
  P  P3  1  0.75000000  0.25000000  0.00000000  1
  P  P4  1  0.25000000  0.75000000  0.50000000  1
  Lu  Lu5  1  0.50573044  0.30102700  0.49131644  1
  Li  Li6  1  0.41490229  0.16899118  0.45996877  1
  Li  Li7  1  0.51360915  0.12327792  0.77401510  1
  Cu  Cu8  1  0.49708403  0.51474699  0.15778613  1
  Cu  Cu9  1  0.79921385  0.75141305  0.69288305  1
  Ni  Ni10  1  0.94648066  0.51999909  0.18842967  1
  Ni  Ni11  1  0.59769213  0.82675768  0.68193933  1
