# generated using pymatgen
data_Li2Mn3Sb4P3
_symmetry_space_group_name_H-M   'P 1'
_cell_length_a   4.84754933
_cell_length_b   5.09991444
_cell_length_c   6.13726488
_cell_angle_alpha   102.86754148
_cell_angle_beta   90.64282072
_cell_angle_gamma   102.61160603
_symmetry_Int_Tables_number   1
_chemical_formula_structural   Li2Mn3Sb4P3
_chemical_formula_sum   'Li2 Mn3 Sb4 P3'
_cell_volume   144.06109558
_cell_formula_units_Z   1
loop_
 _symmetry_equiv_pos_site_id
 _symmetry_equiv_pos_as_xyz
  1  'x, y, z'
loop_
 _atom_site_type_symbol
 _atom_site_label
 _atom_site_symmetry_multiplicity
 _atom_site_fract_x
 _atom_site_fract_y
 _atom_site_fract_z
 _atom_site_occupancy
  Mn  Mn0  1  0.00000000  0.00000000  0.00000000  1
  Mn  Mn1  1  0.33300000  0.66700000  0.25000000  1
  Mn  Mn2  1  0.66700000  0.33300000  0.50000000  1
  Sb  Sb3  1  0.00000000  0.00000000  0.75000000  1
  Sb  Sb4  1  0.06670607  0.86021178  0.35302176  1
  Sb  Sb5  1  0.65669944  0.24102170  0.22599852  1
  Sb  Sb6  1  0.54731673  0.51256115  0.51884185  1
  P  P7  1  0.70229266  0.86935749  0.34087962  1
  P  P8  1  0.76066565  0.63312619  0.31308249  1
  P  P9  1  0.93173692  0.45502302  0.14491264  1
  Li  Li10  1  0.88910854  0.57139586  0.34707618  1
  Li  Li11  1  0.72667405  0.73187695  0.99489377  1
