# generated using pymatgen
data_Li3TiCu2(IO)4
_symmetry_space_group_name_H-M   'P 1'
_cell_length_a   8.06705100
_cell_length_b   7.99199696
_cell_length_c   7.35634102
_cell_angle_alpha   92.38060136
_cell_angle_beta   92.71437501
_cell_angle_gamma   92.99888707
_symmetry_Int_Tables_number   1
_chemical_formula_structural   Li3TiCu2(IO)4
_chemical_formula_sum   'Li3 Ti1 Cu2 I4 O4'
_cell_volume   472.63521425
_cell_formula_units_Z   1
loop_
 _symmetry_equiv_pos_site_id
 _symmetry_equiv_pos_as_xyz
  1  'x, y, z'
loop_
 _atom_site_type_symbol
 _atom_site_label
 _atom_site_symmetry_multiplicity
 _atom_site_fract_x
 _atom_site_fract_y
 _atom_site_fract_z
 _atom_site_occupancy
  I  I0  1  0.00000000  0.00000000  0.00000000  1
  I  I1  1  0.50000000  0.50000000  0.50000000  1
  I  I2  1  0.50000000  0.50000000  0.00000000  1
  I  I3  1  0.50000000  0.00000000  0.50000000  1
  Li  Li4  1  0.00000000  0.50000000  0.50000000  1
  Li  Li5  1  0.79395823  0.78608569  0.25465640  1
  Li  Li6  1  0.77287307  0.23202402  0.12835418  1
  Cu  Cu7  1  0.91469476  0.11818829  0.35213260  1
  Cu  Cu8  1  0.63877767  0.18005070  0.60810273  1
  Ti  Ti9  1  0.16267890  0.38552224  0.56471609  1
  O  O10  1  0.49260656  0.98621783  0.02783187  1
  O  O11  1  0.72465680  0.17122130  0.14378085  1
  O  O12  1  0.49232888  0.70835449  0.44188252  1
  O  O13  1  0.18872136  0.69336348  0.54320325  1
