# generated using pymatgen
data_Li2Ni2As6O7
_symmetry_space_group_name_H-M   'P 1'
_cell_length_a   7.60432937
_cell_length_b   7.62291315
_cell_length_c   8.72565552
_cell_angle_alpha   91.03051810
_cell_angle_beta   91.69545195
_cell_angle_gamma   91.19025543
_symmetry_Int_Tables_number   1
_chemical_formula_structural   Li2Ni2As6O7
_chemical_formula_sum   'Li2 Ni2 As6 O7'
_cell_volume   505.38323963
_cell_formula_units_Z   1
loop_
 _symmetry_equiv_pos_site_id
 _symmetry_equiv_pos_as_xyz
  1  'x, y, z'
loop_
 _atom_site_type_symbol
 _atom_site_label
 _atom_site_symmetry_multiplicity
 _atom_site_fract_x
 _atom_site_fract_y
 _atom_site_fract_z
 _atom_site_occupancy
  Ni  Ni0  1  0.00000000  0.00000000  0.00000000  1
  Ni  Ni1  1  0.33300000  0.66700000  0.25000000  1
  O  O2  1  0.66700000  0.33300000  0.50000000  1
  O  O3  1  0.00000000  0.00000000  0.75000000  1
  O  O4  1  0.23627870  0.91808514  0.10731307  1
  O  O5  1  0.71242984  0.66952646  0.56859425  1
  O  O6  1  0.44958903  0.37504623  0.14814116  1
  O  O7  1  0.94384539  0.98808660  0.25462769  1
  O  O8  1  0.80182617  0.29798120  0.71012908  1
  As  As9  1  0.74696811  0.45188350  0.11421770  1
  As  As10  1  0.26641640  0.30601561  0.31023882  1
  As  As11  1  0.53200985  0.37060352  0.45219408  1
  As  As12  1  0.30997457  0.55526481  0.92968649  1
  As  As13  1  0.88857045  0.29983174  0.38813002  1
  As  As14  1  0.16100862  0.22812306  0.04295212  1
  Li  Li15  1  0.76985312  0.08515141  0.46215572  1
  Li  Li16  1  0.20758334  0.59989758  0.46575278  1
