# generated using pymatgen
data_Li3TiAs6P3Se
_symmetry_space_group_name_H-M   'P 1'
_cell_length_a   7.00495847
_cell_length_b   6.71259848
_cell_length_c   7.36131402
_cell_angle_alpha   95.48141614
_cell_angle_beta   96.76357841
_cell_angle_gamma   95.27493642
_symmetry_Int_Tables_number   1
_chemical_formula_structural   Li3TiAs6P3Se
_chemical_formula_sum   'Li3 Ti1 As6 P3 Se1'
_cell_volume   340.28985219
_cell_formula_units_Z   1
loop_
 _symmetry_equiv_pos_site_id
 _symmetry_equiv_pos_as_xyz
  1  'x, y, z'
loop_
 _atom_site_type_symbol
 _atom_site_label
 _atom_site_symmetry_multiplicity
 _atom_site_fract_x
 _atom_site_fract_y
 _atom_site_fract_z
 _atom_site_occupancy
  P  P0  1  0.00000000  0.00000000  0.00000000  1
  P  P1  1  0.50000000  0.50000000  0.50000000  1
  P  P2  1  0.25000000  0.25000000  0.25000000  1
  Li  Li3  1  0.75000000  0.25000000  0.00000000  1
  Li  Li4  1  0.25000000  0.75000000  0.50000000  1
  Li  Li5  1  0.16608144  0.96343223  0.43450349  1
  Se  Se6  1  0.12442966  0.53081380  0.67336128  1
  Ti  Ti7  1  0.50609047  0.46987240  0.15201504  1
  As  As8  1  0.01060584  0.45474981  0.99736737  1
  As  As9  1  0.49392652  0.35120220  0.69925213  1
  As  As10  1  0.42651999  0.55707263  0.63891089  1
  As  As11  1  0.51267314  0.23198071  0.17092395  1
  As  As12  1  0.77728221  0.74022412  0.60022585  1
  As  As13  1  0.18390048  0.44802521  0.64161261  1
