# generated using pymatgen
data_LiSb4(MoP)2
_symmetry_space_group_name_H-M   'P 1'
_cell_length_a   5.11693390
_cell_length_b   5.33170032
_cell_length_c   6.10382998
_cell_angle_alpha   96.69556156
_cell_angle_beta   92.00059988
_cell_angle_gamma   96.07457856
_symmetry_Int_Tables_number   1
_chemical_formula_structural   LiSb4(MoP)2
_chemical_formula_sum   'Li1 Sb4 Mo2 P2'
_cell_volume   164.27171073
_cell_formula_units_Z   1
loop_
 _symmetry_equiv_pos_site_id
 _symmetry_equiv_pos_as_xyz
  1  'x, y, z'
loop_
 _atom_site_type_symbol
 _atom_site_label
 _atom_site_symmetry_multiplicity
 _atom_site_fract_x
 _atom_site_fract_y
 _atom_site_fract_z
 _atom_site_occupancy
  Sb  Sb0  1  0.12500000  0.12500000  0.12500000  1
  Sb  Sb1  1  0.50000000  0.50000000  0.50000000  1
  Sb  Sb2  1  0.25000000  0.25000000  0.25000000  1
  Sb  Sb3  1  0.75000000  0.75000000  0.75000000  1
  P  P4  1  0.87111083  0.36847341  0.93883044  1
  P  P5  1  0.62663168  0.41306557  0.71344414  1
  Mo  Mo6  1  0.98198672  0.46947431  0.25501549  1
  Mo  Mo7  1  0.58581824  0.97190803  0.13877502  1
  Li  Li8  1  0.32994317  0.81974836  0.09348112  1
