# generated using pymatgen
data_LiMnSb4Mo2P3
_symmetry_space_group_name_H-M   'P 1'
_cell_length_a   5.20730428
_cell_length_b   5.49841465
_cell_length_c   6.53506370
_cell_angle_alpha   96.95603201
_cell_angle_beta   93.27960703
_cell_angle_gamma   97.06223221
_symmetry_Int_Tables_number   1
_chemical_formula_structural   LiMnSb4Mo2P3
_chemical_formula_sum   'Li1 Mn1 Sb4 Mo2 P3'
_cell_volume   183.83068858
_cell_formula_units_Z   1
loop_
 _symmetry_equiv_pos_site_id
 _symmetry_equiv_pos_as_xyz
  1  'x, y, z'
loop_
 _atom_site_type_symbol
 _atom_site_label
 _atom_site_symmetry_multiplicity
 _atom_site_fract_x
 _atom_site_fract_y
 _atom_site_fract_z
 _atom_site_occupancy
  Mn  Mn0  1  0.12500000  0.00000000  0.25000000  1
  Sb  Sb1  1  0.00000000  0.00000000  0.00000000  1
  Sb  Sb2  1  0.37500000  0.00000000  0.25000000  1
  Sb  Sb3  1  0.25000000  0.25000000  0.25000000  1
  Sb  Sb4  1  0.00000000  0.25000000  0.12500000  1
  P  P5  1  0.63290116  0.92067454  0.42924815  1
  P  P6  1  0.22442228  0.25884858  0.52081557  1
  P  P7  1  0.15879765  0.92108787  0.23839227  1
  Mo  Mo8  1  0.36910165  0.30086785  0.72135869  1
  Mo  Mo9  1  0.09234634  0.50573571  0.99002854  1
  Li  Li10  1  0.85667355  0.85216816  0.36088022  1
