# generated using pymatgen
data_Li2LuCu2(NiP2)2
_symmetry_space_group_name_H-M   'P 1'
_cell_length_a   7.52016515
_cell_length_b   7.42268688
_cell_length_c   8.15784882
_cell_angle_alpha   91.35637796
_cell_angle_beta   91.73293425
_cell_angle_gamma   91.56850658
_symmetry_Int_Tables_number   1
_chemical_formula_structural   Li2LuCu2(NiP2)2
_chemical_formula_sum   'Li2 Lu1 Cu2 Ni2 P4'
_cell_volume   454.85414410
_cell_formula_units_Z   1
loop_
 _symmetry_equiv_pos_site_id
 _symmetry_equiv_pos_as_xyz
  1  'x, y, z'
loop_
 _atom_site_type_symbol
 _atom_site_label
 _atom_site_symmetry_multiplicity
 _atom_site_fract_x
 _atom_site_fract_y
 _atom_site_fract_z
 _atom_site_occupancy
  P  P0  1  0.12500000  0.00000000  0.25000000  1
  P  P1  1  0.00000000  0.00000000  0.00000000  1
  P  P2  1  0.37500000  0.00000000  0.25000000  1
  P  P3  1  0.25000000  0.25000000  0.25000000  1
  Lu  Lu4  1  0.00000000  0.25000000  0.12500000  1
  Li  Li5  1  0.85219794  0.44302966  0.65574830  1
  Li  Li6  1  0.23600984  0.15102470  0.30717706  1
  Cu  Cu7  1  0.57765588  0.65683368  0.98938669  1
  Cu  Cu8  1  0.24368349  0.21038666  0.43861129  1
  Ni  Ni9  1  0.61841877  0.28345177  0.08386075  1
  Ni  Ni10  1  0.80629789  0.96178869  0.67399804  1
