# generated using pymatgen
data_Li2TiP3SF
_symmetry_space_group_name_H-M   'P 1'
_cell_length_a   6.29968356
_cell_length_b   5.90178816
_cell_length_c   7.46422032
_cell_angle_alpha   96.23276230
_cell_angle_beta   97.21161058
_cell_angle_gamma   95.63233751
_symmetry_Int_Tables_number   1
_chemical_formula_structural   Li2TiP3SF
_chemical_formula_sum   'Li4 Ti2 P6 S2 F2'
_cell_volume   271.92903069
_cell_formula_units_Z   2
loop_
 _symmetry_equiv_pos_site_id
 _symmetry_equiv_pos_as_xyz
  1  'x, y, z'
loop_
 _atom_site_type_symbol
 _atom_site_label
 _atom_site_symmetry_multiplicity
 _atom_site_fract_x
 _atom_site_fract_y
 _atom_site_fract_z
 _atom_site_occupancy
  F  F0  1  0.00000000  0.00000000  0.00000000  1
  F  F1  1  0.50000000  0.50000000  0.50000000  1
  S  S2  1  0.25000000  0.25000000  0.25000000  1
  S  S3  1  0.75000000  0.25000000  0.00000000  1
  Ti  Ti4  1  0.25000000  0.75000000  0.50000000  1
  Ti  Ti5  1  0.68301382  0.47977122  0.18779379  1
  P  P6  1  0.40789421  0.37079964  0.66743280  1
  P  P7  1  0.91771772  0.25767265  0.12657331  1
  P  P8  1  0.67349458  0.64151732  0.26936612  1
  P  P9  1  0.68893483  0.72390276  0.19429231  1
  P  P10  1  0.25927913  0.36516930  0.12184957  1
  P  P11  1  0.19113649  0.54808713  0.12839234  1
  Li  Li12  1  0.62848853  0.67997969  0.67455074  1
  Li  Li13  1  0.91984719  0.15066421  0.38017436  1
  Li  Li14  1  0.68509902  0.16537970  0.52489046  1
  Li  Li15  1  0.43350288  0.77990971  0.30958536  1
