# generated using pymatgen
data_Li3Ti3(CuP4)2
_symmetry_space_group_name_H-M   'P 1'
_cell_length_a   6.71176356
_cell_length_b   6.94027296
_cell_length_c   7.90911806
_cell_angle_alpha   94.88820321
_cell_angle_beta   97.31853905
_cell_angle_gamma   95.72461136
_symmetry_Int_Tables_number   1
_chemical_formula_structural   Li3Ti3(CuP4)2
_chemical_formula_sum   'Li3 Ti3 Cu2 P8'
_cell_volume   361.80050247
_cell_formula_units_Z   1
loop_
 _symmetry_equiv_pos_site_id
 _symmetry_equiv_pos_as_xyz
  1  'x, y, z'
loop_
 _atom_site_type_symbol
 _atom_site_label
 _atom_site_symmetry_multiplicity
 _atom_site_fract_x
 _atom_site_fract_y
 _atom_site_fract_z
 _atom_site_occupancy
  P  P0  1  0.00000000  0.00000000  0.00000000  1
  P  P1  1  0.50000000  0.50000000  0.50000000  1
  P  P2  1  0.25000000  0.25000000  0.25000000  1
  P  P3  1  0.75000000  0.25000000  0.00000000  1
  P  P4  1  0.25000000  0.75000000  0.50000000  1
  P  P5  1  0.53278153  0.60506486  0.70630088  1
  P  P6  1  0.75564489  0.47251956  0.66840701  1
  P  P7  1  0.01730614  0.11092502  0.04988964  1
  Li  Li8  1  0.19955752  0.56785385  0.40946879  1
  Li  Li9  1  0.90878678  0.90666470  0.16838208  1
  Li  Li10  1  0.11650609  0.36658867  0.14079487  1
  Cu  Cu11  1  0.00481618  0.30023628  0.92753038  1
  Cu  Cu12  1  0.52040812  0.91354912  0.02541835  1
  Ti  Ti13  1  0.10512945  0.06975266  0.47928362  1
  Ti  Ti14  1  0.78103530  0.94595023  0.40780158  1
  Ti  Ti15  1  0.83804930  0.46625836  0.35546474  1
