# generated using pymatgen
data_LiMn2Sb2Mo2P3
_symmetry_space_group_name_H-M   'P 1'
_cell_length_a   5.28969345
_cell_length_b   5.56861493
_cell_length_c   6.38551968
_cell_angle_alpha   95.01912756
_cell_angle_beta   92.56896052
_cell_angle_gamma   95.24332847
_symmetry_Int_Tables_number   1
_chemical_formula_structural   LiMn2Sb2Mo2P3
_chemical_formula_sum   'Li1 Mn2 Sb2 Mo2 P3'
_cell_volume   186.32362386
_cell_formula_units_Z   1
loop_
 _symmetry_equiv_pos_site_id
 _symmetry_equiv_pos_as_xyz
  1  'x, y, z'
loop_
 _atom_site_type_symbol
 _atom_site_label
 _atom_site_symmetry_multiplicity
 _atom_site_fract_x
 _atom_site_fract_y
 _atom_site_fract_z
 _atom_site_occupancy
  Mn  Mn0  1  0.00000000  0.00000000  0.00000000  1
  Mn  Mn1  1  0.50000000  0.50000000  0.50000000  1
  Sb  Sb2  1  0.25000000  0.25000000  0.25000000  1
  Sb  Sb3  1  0.75000000  0.25000000  0.00000000  1
  P  P4  1  0.25000000  0.75000000  0.50000000  1
  P  P5  1  0.08280364  0.70049155  0.96343166  1
  P  P6  1  0.21268611  0.89662382  0.50966364  1
  Mo  Mo7  1  0.64734403  0.79596602  0.17795127  1
  Mo  Mo8  1  0.94954618  0.62363956  0.54517498  1
  Li  Li9  1  0.30645375  0.51241252  0.75704577  1
