# generated using pymatgen
data_Li3TiAs6(PO)3
_symmetry_space_group_name_H-M   'P 1'
_cell_length_a   6.92009961
_cell_length_b   6.65008953
_cell_length_c   7.93479614
_cell_angle_alpha   93.91581441
_cell_angle_beta   94.10544125
_cell_angle_gamma   93.72918988
_symmetry_Int_Tables_number   1
_chemical_formula_structural   Li3TiAs6(PO)3
_chemical_formula_sum   'Li3 Ti1 As6 P3 O3'
_cell_volume   362.46802289
_cell_formula_units_Z   1
loop_
 _symmetry_equiv_pos_site_id
 _symmetry_equiv_pos_as_xyz
  1  'x, y, z'
loop_
 _atom_site_type_symbol
 _atom_site_label
 _atom_site_symmetry_multiplicity
 _atom_site_fract_x
 _atom_site_fract_y
 _atom_site_fract_z
 _atom_site_occupancy
  P  P0  1  0.12500000  0.00000000  0.25000000  1
  P  P1  1  0.00000000  0.00000000  0.00000000  1
  P  P2  1  0.37500000  0.00000000  0.25000000  1
  Li  Li3  1  0.25000000  0.25000000  0.25000000  1
  Li  Li4  1  0.00000000  0.25000000  0.12500000  1
  Li  Li5  1  0.01879366  0.73444889  0.73067650  1
  Ti  Ti6  1  0.23398124  0.41804673  0.07124673  1
  As  As7  1  0.43196499  0.27184725  0.59686578  1
  As  As8  1  0.02828558  0.14474932  0.89077769  1
  As  As9  1  0.75373910  0.87816205  0.52042516  1
  As  As10  1  0.76380519  0.44399231  0.85085759  1
  As  As11  1  0.19304497  0.98443646  0.77171596  1
  As  As12  1  0.83103153  0.95944263  0.96687010  1
  O  O13  1  0.65198060  0.69473717  0.73754976  1
  O  O14  1  0.53968936  0.31314528  0.61476755  1
  O  O15  1  0.12013554  0.57639512  0.78797661  1
