# generated using pymatgen
data_LiMnP2
_symmetry_space_group_name_H-M   'P 1'
_cell_length_a   4.56553671
_cell_length_b   4.90635749
_cell_length_c   6.64060966
_cell_angle_alpha   99.10685332
_cell_angle_beta   97.89841105
_cell_angle_gamma   99.33000000
_symmetry_Int_Tables_number   1
_chemical_formula_structural   LiMnP2
_chemical_formula_sum   'Li1 Mn1 P2'
_cell_volume   142.88817462
_cell_formula_units_Z   1
loop_
 _symmetry_equiv_pos_site_id
 _symmetry_equiv_pos_as_xyz
  1  'x, y, z'
loop_
 _atom_site_type_symbol
 _atom_site_label
 _atom_site_symmetry_multiplicity
 _atom_site_fract_x
 _atom_site_fract_y
 _atom_site_fract_z
 _atom_site_occupancy
  Mn  Mn0  1  0.00000000  0.00000000  0.00000000  1
  P  P1  1  0.50000000  0.50000000  0.50000000  1
  P  P2  1  0.50000000  0.50000000  0.00000000  1
  Li  Li3  1  0.50000000  0.00000000  0.50000000  1
