# generated using pymatgen
data_Li4Ti2P3F3
_symmetry_space_group_name_H-M   'P 1'
_cell_length_a   6.52096257
_cell_length_b   6.04654583
_cell_length_c   6.62489845
_cell_angle_alpha   90.97200389
_cell_angle_beta   94.62449929
_cell_angle_gamma   91.11125999
_symmetry_Int_Tables_number   1
_chemical_formula_structural   Li4Ti2P3F3
_chemical_formula_sum   'Li4 Ti2 P3 F3'
_cell_volume   260.27075335
_cell_formula_units_Z   1
loop_
 _symmetry_equiv_pos_site_id
 _symmetry_equiv_pos_as_xyz
  1  'x, y, z'
loop_
 _atom_site_type_symbol
 _atom_site_label
 _atom_site_symmetry_multiplicity
 _atom_site_fract_x
 _atom_site_fract_y
 _atom_site_fract_z
 _atom_site_occupancy
  P  P0  1  0.12500000  0.00000000  0.25000000  1
  P  P1  1  0.00000000  0.00000000  0.00000000  1
  P  P2  1  0.37500000  0.00000000  0.25000000  1
  Li  Li3  1  0.25000000  0.25000000  0.25000000  1
  Li  Li4  1  0.00000000  0.25000000  0.12500000  1
  Li  Li5  1  0.52660930  0.61487745  0.40256946  1
  Li  Li6  1  0.04438367  0.28597447  0.93064558  1
  F  F7  1  0.22449831  0.35770553  0.01420480  1
  F  F8  1  0.93420938  0.45099502  0.81470820  1
  F  F9  1  0.19545818  0.72402359  0.32514520  1
  Ti  Ti10  1  0.86618034  0.23813870  0.10625460  1
  Ti  Ti11  1  0.53740840  0.29230383  0.60239638  1
