# generated using pymatgen
data_Li2Mn2Sb4P3
_symmetry_space_group_name_H-M   'P 1'
_cell_length_a   7.14597920
_cell_length_b   7.12132548
_cell_length_c   7.72296637
_cell_angle_alpha   92.05204040
_cell_angle_beta   92.43083146
_cell_angle_gamma   92.33547534
_symmetry_Int_Tables_number   1
_chemical_formula_structural   Li2Mn2Sb4P3
_chemical_formula_sum   'Li2 Mn2 Sb4 P3'
_cell_volume   392.05557744
_cell_formula_units_Z   1
loop_
 _symmetry_equiv_pos_site_id
 _symmetry_equiv_pos_as_xyz
  1  'x, y, z'
loop_
 _atom_site_type_symbol
 _atom_site_label
 _atom_site_symmetry_multiplicity
 _atom_site_fract_x
 _atom_site_fract_y
 _atom_site_fract_z
 _atom_site_occupancy
  Mn  Mn0  1  0.00000000  0.00000000  0.00000000  1
  Mn  Mn1  1  0.50000000  0.50000000  0.50000000  1
  Sb  Sb2  1  0.50000000  0.50000000  0.00000000  1
  Sb  Sb3  1  0.50000000  0.00000000  0.50000000  1
  Sb  Sb4  1  0.00000000  0.50000000  0.50000000  1
  Sb  Sb5  1  0.95433241  0.91478547  0.10938124  1
  P  P6  1  0.43008427  0.45993745  0.81534548  1
  P  P7  1  0.58243047  0.66302417  0.86113741  1
  P  P8  1  0.33628824  0.88422186  0.32387008  1
  Li  Li9  1  0.56160488  0.58838985  0.99683085  1
  Li  Li10  1  0.15980615  0.63556419  0.25765334  1
