# generated using pymatgen
data_Li3TiNi2O5
_symmetry_space_group_name_H-M   'P 1'
_cell_length_a   8.21619277
_cell_length_b   8.06482928
_cell_length_c   8.28443080
_cell_angle_alpha   90.95446868
_cell_angle_beta   90.60513002
_cell_angle_gamma   91.10605845
_symmetry_Int_Tables_number   1
_chemical_formula_structural   Li3TiNi2O5
_chemical_formula_sum   'Li3 Ti1 Ni2 O5'
_cell_volume   548.73359133
_cell_formula_units_Z   1
loop_
 _symmetry_equiv_pos_site_id
 _symmetry_equiv_pos_as_xyz
  1  'x, y, z'
loop_
 _atom_site_type_symbol
 _atom_site_label
 _atom_site_symmetry_multiplicity
 _atom_site_fract_x
 _atom_site_fract_y
 _atom_site_fract_z
 _atom_site_occupancy
  Li  Li0  1  0.00000000  0.00000000  0.00000000  1
  Li  Li1  1  0.50000000  0.50000000  0.50000000  1
  Li  Li2  1  0.25000000  0.25000000  0.25000000  1
  Ni  Ni3  1  0.75000000  0.25000000  0.00000000  1
  Ni  Ni4  1  0.25000000  0.75000000  0.50000000  1
  Ti  Ti5  1  0.44446318  0.56717533  0.55710072  1
  O  O6  1  0.39759245  0.09183863  0.40504686  1
  O  O7  1  0.83249302  0.73147248  0.38896237  1
  O  O8  1  0.57705333  0.93981431  0.94974616  1
  O  O9  1  0.86161921  0.44787004  0.95205135  1
  O  O10  1  0.88390677  0.46346735  0.60853360  1
