# generated using pymatgen
data_Li3LuP5O7
_symmetry_space_group_name_H-M   'P 1'
_cell_length_a   7.56997592
_cell_length_b   7.38760324
_cell_length_c   8.74725481
_cell_angle_alpha   92.50030965
_cell_angle_beta   91.97345589
_cell_angle_gamma   92.73418883
_symmetry_Int_Tables_number   1
_chemical_formula_structural   Li3LuP5O7
_chemical_formula_sum   'Li3 Lu1 P5 O7'
_cell_volume   487.83226325
_cell_formula_units_Z   1
loop_
 _symmetry_equiv_pos_site_id
 _symmetry_equiv_pos_as_xyz
  1  'x, y, z'
loop_
 _atom_site_type_symbol
 _atom_site_label
 _atom_site_symmetry_multiplicity
 _atom_site_fract_x
 _atom_site_fract_y
 _atom_site_fract_z
 _atom_site_occupancy
  P  P0  1  0.00000000  0.00000000  0.00000000  1
  P  P1  1  0.50000000  0.50000000  0.50000000  1
  P  P2  1  0.25000000  0.25000000  0.25000000  1
  P  P3  1  0.75000000  0.25000000  0.00000000  1
  P  P4  1  0.25000000  0.75000000  0.50000000  1
  Lu  Lu5  1  0.91304271  0.68074491  0.98644115  1
  Li  Li6  1  0.46935662  0.88202239  0.64372482  1
  Li  Li7  1  0.37631012  0.56777690  0.89800516  1
  Li  Li8  1  0.62531831  0.74142066  0.22066573  1
  O  O9  1  0.67177008  0.60535883  0.57338503  1
  O  O10  1  0.15146558  0.18872607  0.25222872  1
  O  O11  1  0.74149336  0.40964399  0.03510121  1
  O  O12  1  0.36617550  0.58958687  0.55319994  1
  O  O13  1  0.66274514  0.45457147  0.08728018  1
  O  O14  1  0.25045257  0.31905264  0.06190617  1
  O  O15  1  0.15966133  0.20276854  0.76634721  1
