# generated using pymatgen
data_Li3Ni2P4O7
_symmetry_space_group_name_H-M   'P 1'
_cell_length_a   7.63446669
_cell_length_b   7.38591110
_cell_length_c   8.98237579
_cell_angle_alpha   92.30441253
_cell_angle_beta   91.10674769
_cell_angle_gamma   92.67173803
_symmetry_Int_Tables_number   1
_chemical_formula_structural   Li3Ni2P4O7
_chemical_formula_sum   'Li3 Ni2 P4 O7'
_cell_volume   505.41999139
_cell_formula_units_Z   1
loop_
 _symmetry_equiv_pos_site_id
 _symmetry_equiv_pos_as_xyz
  1  'x, y, z'
loop_
 _atom_site_type_symbol
 _atom_site_label
 _atom_site_symmetry_multiplicity
 _atom_site_fract_x
 _atom_site_fract_y
 _atom_site_fract_z
 _atom_site_occupancy
  P  P0  1  0.12500000  0.00000000  0.25000000  1
  P  P1  1  0.00000000  0.00000000  0.00000000  1
  P  P2  1  0.37500000  0.00000000  0.25000000  1
  P  P3  1  0.25000000  0.25000000  0.25000000  1
  Li  Li4  1  0.00000000  0.25000000  0.12500000  1
  Li  Li5  1  0.86334576  0.75191380  0.20224376  1
  Li  Li6  1  0.14557919  0.32415450  0.47957598  1
  Ni  Ni7  1  0.82399663  0.48277944  0.06229524  1
  Ni  Ni8  1  0.81807850  0.18557539  0.46018024  1
  O  O9  1  0.07281368  0.59486440  0.55751196  1
  O  O10  1  0.87851988  0.98548567  0.92954173  1
  O  O11  1  0.96729252  0.74879400  0.01123209  1
  O  O12  1  0.86164384  0.99053253  0.11480754  1
  O  O13  1  0.32069536  0.79570106  0.08670970  1
  O  O14  1  0.04543145  0.53146549  0.78254008  1
  O  O15  1  0.49152826  0.77072108  0.34530547  1
