# generated using pymatgen
data_Li2MnSb4P3
_symmetry_space_group_name_H-M   'P 1'
_cell_length_a   4.64114386
_cell_length_b   5.00312975
_cell_length_c   7.04068930
_cell_angle_alpha   97.72050978
_cell_angle_beta   99.14565719
_cell_angle_gamma   98.78689337
_symmetry_Int_Tables_number   1
_chemical_formula_structural   Li2MnSb4P3
_chemical_formula_sum   'Li2 Mn1 Sb4 P3'
_cell_volume   157.39175300
_cell_formula_units_Z   1
loop_
 _symmetry_equiv_pos_site_id
 _symmetry_equiv_pos_as_xyz
  1  'x, y, z'
loop_
 _atom_site_type_symbol
 _atom_site_label
 _atom_site_symmetry_multiplicity
 _atom_site_fract_x
 _atom_site_fract_y
 _atom_site_fract_z
 _atom_site_occupancy
  Mn  Mn0  1  0.00000000  0.00000000  0.00000000  1
  Sb  Sb1  1  0.33300000  0.66700000  0.25000000  1
  Sb  Sb2  1  0.66700000  0.33300000  0.50000000  1
  Sb  Sb3  1  0.00000000  0.00000000  0.75000000  1
  Sb  Sb4  1  0.96462099  0.95802530  0.43849629  1
  P  P5  1  0.02326969  0.10089806  0.93705341  1
  P  P6  1  0.90403429  0.20770175  0.59828556  1
  P  P7  1  0.97941247  0.62959601  0.40947182  1
  Li  Li8  1  0.62018820  0.10206102  0.42644688  1
  Li  Li9  1  0.52995721  0.33115406  0.78875870  1
