# generated using pymatgen
data_LiLa3Ti2S3F2
_symmetry_space_group_name_H-M   'P 1'
_cell_length_a   9.41397898
_cell_length_b   9.22336708
_cell_length_c   10.51073088
_cell_angle_alpha   90.75399309
_cell_angle_beta   93.58727013
_cell_angle_gamma   90.86201544
_symmetry_Int_Tables_number   1
_chemical_formula_structural   LiLa3Ti2S3F2
_chemical_formula_sum   'Li1 La3 Ti2 S3 F2'
_cell_volume   910.64971059
_cell_formula_units_Z   1
loop_
 _symmetry_equiv_pos_site_id
 _symmetry_equiv_pos_as_xyz
  1  'x, y, z'
loop_
 _atom_site_type_symbol
 _atom_site_label
 _atom_site_symmetry_multiplicity
 _atom_site_fract_x
 _atom_site_fract_y
 _atom_site_fract_z
 _atom_site_occupancy
  Li  Li0  1  0.12500000  0.00000000  0.25000000  1
  F  F1  1  0.00000000  0.00000000  0.00000000  1
  F  F2  1  0.37500000  0.00000000  0.25000000  1
  La  La3  1  0.25000000  0.25000000  0.25000000  1
  La  La4  1  0.00000000  0.25000000  0.12500000  1
  La  La5  1  0.94887918  0.93288811  0.19849318  1
  S  S6  1  0.61880778  0.85343935  0.62639724  1
  S  S7  1  0.57282136  0.97288402  0.89331844  1
  S  S8  1  0.53626905  0.16204530  0.01768597  1
  Ti  Ti9  1  0.29669934  0.14078874  0.69957543  1
  Ti  Ti10  1  0.33022676  0.00110223  0.23344034  1
