# generated using pymatgen
data_Li2Ti(OF)2
_symmetry_space_group_name_H-M   'P 1'
_cell_length_a   5.90228072
_cell_length_b   5.89019774
_cell_length_c   6.90286146
_cell_angle_alpha   98.31709180
_cell_angle_beta   101.43213753
_cell_angle_gamma   99.08215372
_symmetry_Int_Tables_number   1
_chemical_formula_structural   Li2Ti(OF)2
_chemical_formula_sum   'Li2 Ti1 O2 F2'
_cell_volume   228.40218168
_cell_formula_units_Z   1
loop_
 _symmetry_equiv_pos_site_id
 _symmetry_equiv_pos_as_xyz
  1  'x, y, z'
loop_
 _atom_site_type_symbol
 _atom_site_label
 _atom_site_symmetry_multiplicity
 _atom_site_fract_x
 _atom_site_fract_y
 _atom_site_fract_z
 _atom_site_occupancy
  Li  Li0  1  0.12500000  0.12500000  0.12500000  1
  Li  Li1  1  0.50000000  0.50000000  0.50000000  1
  F  F2  1  0.25000000  0.25000000  0.25000000  1
  F  F3  1  0.75000000  0.75000000  0.75000000  1
  Ti  Ti4  1  0.33410325  0.80317802  0.76001777  1
  O  O5  1  0.60927943  0.52394812  0.74568469  1
  O  O6  1  0.33024417  0.20616865  0.27742821  1
