# generated using pymatgen
data_Li2Mn2Sb4P3
_symmetry_space_group_name_H-M   'P 1'
_cell_length_a   6.22976814
_cell_length_b   6.76542161
_cell_length_c   7.31466802
_cell_angle_alpha   93.54338177
_cell_angle_beta   94.19746311
_cell_angle_gamma   94.03280595
_symmetry_Int_Tables_number   1
_chemical_formula_structural   Li2Mn2Sb4P3
_chemical_formula_sum   'Li2 Mn2 Sb4 P3'
_cell_volume   306.00781787
_cell_formula_units_Z   1
loop_
 _symmetry_equiv_pos_site_id
 _symmetry_equiv_pos_as_xyz
  1  'x, y, z'
loop_
 _atom_site_type_symbol
 _atom_site_label
 _atom_site_symmetry_multiplicity
 _atom_site_fract_x
 _atom_site_fract_y
 _atom_site_fract_z
 _atom_site_occupancy
  Mn  Mn0  1  0.00000000  0.00000000  0.00000000  1
  Mn  Mn1  1  0.50000000  0.50000000  0.50000000  1
  Sb  Sb2  1  0.25000000  0.25000000  0.25000000  1
  Sb  Sb3  1  0.75000000  0.25000000  0.00000000  1
  Sb  Sb4  1  0.25000000  0.75000000  0.50000000  1
  Sb  Sb5  1  0.35158082  0.52796014  0.25643186  1
  P  P6  1  0.65649191  0.57713706  0.43226586  1
  P  P7  1  0.94127491  0.56287401  0.63066757  1
  P  P8  1  0.75787189  0.80320221  0.85916440  1
  Li  Li9  1  0.66545451  0.65120669  0.04767274  1
  Li  Li10  1  0.85968527  0.12719532  0.11238349  1
