# generated using pymatgen
data_Li2(MnP)3
_symmetry_space_group_name_H-M   'P 1'
_cell_length_a   5.33831777
_cell_length_b   5.38340131
_cell_length_c   6.86925893
_cell_angle_alpha   98.88651292
_cell_angle_beta   94.02275924
_cell_angle_gamma   99.20815929
_symmetry_Int_Tables_number   1
_chemical_formula_structural   Li2(MnP)3
_chemical_formula_sum   'Li2 Mn3 P3'
_cell_volume   191.61467459
_cell_formula_units_Z   1
loop_
 _symmetry_equiv_pos_site_id
 _symmetry_equiv_pos_as_xyz
  1  'x, y, z'
loop_
 _atom_site_type_symbol
 _atom_site_label
 _atom_site_symmetry_multiplicity
 _atom_site_fract_x
 _atom_site_fract_y
 _atom_site_fract_z
 _atom_site_occupancy
  Mn  Mn0  1  0.12500000  0.12500000  0.12500000  1
  Mn  Mn1  1  0.50000000  0.50000000  0.50000000  1
  Mn  Mn2  1  0.25000000  0.25000000  0.25000000  1
  P  P3  1  0.75000000  0.75000000  0.75000000  1
  P  P4  1  0.13708627  0.26681442  0.94634810  1
  P  P5  1  0.01380492  0.25563752  0.64789002  1
  Li  Li6  1  0.66093954  0.43315590  0.34669866  1
  Li  Li7  1  0.83035472  0.53616842  0.75252350  1
