# generated using pymatgen
data_LiTi(Te3I2)2
_symmetry_space_group_name_H-M   'P 1'
_cell_length_a   8.63726648
_cell_length_b   8.91193334
_cell_length_c   8.17004498
_cell_angle_alpha   90.00000000
_cell_angle_beta   90.00000000
_cell_angle_gamma   90.00000000
_symmetry_Int_Tables_number   1
_chemical_formula_structural   LiTi(Te3I2)2
_chemical_formula_sum   'Li1 Ti1 Te6 I4'
_cell_volume   628.88711340
_cell_formula_units_Z   1
loop_
 _symmetry_equiv_pos_site_id
 _symmetry_equiv_pos_as_xyz
  1  'x, y, z'
loop_
 _atom_site_type_symbol
 _atom_site_label
 _atom_site_symmetry_multiplicity
 _atom_site_fract_x
 _atom_site_fract_y
 _atom_site_fract_z
 _atom_site_occupancy
  I  I0  1  0.00000000  0.00000000  0.00000000  1
  I  I1  1  0.50000000  0.50000000  0.50000000  1
  I  I2  1  0.50000000  0.50000000  0.00000000  1
  I  I3  1  0.50000000  0.00000000  0.50000000  1
  Li  Li4  1  0.00000000  0.50000000  0.50000000  1
  Te  Te5  1  0.04545898  0.25646606  0.36582438  1
  Te  Te6  1  0.85379351  0.19173154  0.00314989  1
  Te  Te7  1  0.27245904  0.46292936  0.53957881  1
  Te  Te8  1  0.53494542  0.97496865  0.65650586  1
  Te  Te9  1  0.43066347  0.75640082  0.21201718  1
  Te  Te10  1  0.07542501  0.49623389  0.04625369  1
  Ti  Ti11  1  0.89809998  0.19322885  0.36592667  1
