# generated using pymatgen
data_Li2TiCu2(OF)2
_symmetry_space_group_name_H-M   'P 1'
_cell_length_a   6.33241855
_cell_length_b   6.40885539
_cell_length_c   7.16332138
_cell_angle_alpha   96.55532924
_cell_angle_beta   98.63646952
_cell_angle_gamma   98.13275325
_symmetry_Int_Tables_number   1
_chemical_formula_structural   Li2TiCu2(OF)2
_chemical_formula_sum   'Li2 Ti1 Cu2 O2 F2'
_cell_volume   281.78989764
_cell_formula_units_Z   1
loop_
 _symmetry_equiv_pos_site_id
 _symmetry_equiv_pos_as_xyz
  1  'x, y, z'
loop_
 _atom_site_type_symbol
 _atom_site_label
 _atom_site_symmetry_multiplicity
 _atom_site_fract_x
 _atom_site_fract_y
 _atom_site_fract_z
 _atom_site_occupancy
  Li  Li0  1  0.12500000  0.00000000  0.25000000  1
  Li  Li1  1  0.00000000  0.00000000  0.00000000  1
  Cu  Cu2  1  0.37500000  0.00000000  0.25000000  1
  Cu  Cu3  1  0.25000000  0.25000000  0.25000000  1
  F  F4  1  0.00000000  0.25000000  0.12500000  1
  F  F5  1  0.44002669  0.15928196  0.32281155  1
  Ti  Ti6  1  0.02688054  0.52043208  0.57178412  1
  O  O7  1  0.71273443  0.04247555  0.06489866  1
  O  O8  1  0.84881371  0.41694440  0.04066695  1
