# generated using pymatgen
data_Li3Ni2P8Cl2O7
_symmetry_space_group_name_H-M   'P 1'
_cell_length_a   6.85218905
_cell_length_b   6.59518998
_cell_length_c   8.39563849
_cell_angle_alpha   96.50823323
_cell_angle_beta   97.65374610
_cell_angle_gamma   96.34491451
_symmetry_Int_Tables_number   1
_chemical_formula_structural   Li3Ni2P8Cl2O7
_chemical_formula_sum   'Li3 Ni2 P8 Cl2 O7'
_cell_volume   370.55584491
_cell_formula_units_Z   1
loop_
 _symmetry_equiv_pos_site_id
 _symmetry_equiv_pos_as_xyz
  1  'x, y, z'
loop_
 _atom_site_type_symbol
 _atom_site_label
 _atom_site_symmetry_multiplicity
 _atom_site_fract_x
 _atom_site_fract_y
 _atom_site_fract_z
 _atom_site_occupancy
  Cl  Cl0  1  0.12500000  0.00000000  0.25000000  1
  Cl  Cl1  1  0.00000000  0.00000000  0.00000000  1
  Ni  Ni2  1  0.37500000  0.00000000  0.25000000  1
  Ni  Ni3  1  0.25000000  0.25000000  0.25000000  1
  O  O4  1  0.00000000  0.25000000  0.12500000  1
  O  O5  1  0.03206068  0.31761761  0.42454454  1
  O  O6  1  0.31720131  0.68684128  0.57471604  1
  O  O7  1  0.35200081  0.48328625  0.71580368  1
  O  O8  1  0.41666390  0.97167467  0.86272258  1
  O  O9  1  0.22625284  0.36560073  0.89033102  1
  O  O10  1  0.55211291  0.28013179  0.05694059  1
  P  P11  1  0.31361918  0.15034397  0.12522182  1
  P  P12  1  0.76726774  0.60039215  0.18279030  1
  P  P13  1  0.20292093  0.30037597  0.78269704  1
  P  P14  1  0.15697041  0.55303987  0.31121258  1
  P  P15  1  0.02133225  0.48381364  0.11833118  1
  P  P16  1  0.52027543  0.34169540  0.39701958  1
  P  P17  1  0.27220462  0.90630149  0.00161579  1
  P  P18  1  0.24418576  0.47109939  0.65738873  1
  Li  Li19  1  0.12612745  0.63711306  0.46977946  1
  Li  Li20  1  0.05843557  0.59650868  0.77671439  1
  Li  Li21  1  0.51172644  0.57496058  0.61899549  1
