# generated using pymatgen
data_Li2Ti2Te6I4O3
_symmetry_space_group_name_H-M   'P 1'
_cell_length_a   7.02072392
_cell_length_b   6.88036692
_cell_length_c   7.50374284
_cell_angle_alpha   95.09332000
_cell_angle_beta   97.09225446
_cell_angle_gamma   94.82565508
_symmetry_Int_Tables_number   1
_chemical_formula_structural   Li2Ti2Te6I4O3
_chemical_formula_sum   'Li2 Ti2 Te6 I4 O3'
_cell_volume   356.61418739
_cell_formula_units_Z   1
loop_
 _symmetry_equiv_pos_site_id
 _symmetry_equiv_pos_as_xyz
  1  'x, y, z'
loop_
 _atom_site_type_symbol
 _atom_site_label
 _atom_site_symmetry_multiplicity
 _atom_site_fract_x
 _atom_site_fract_y
 _atom_site_fract_z
 _atom_site_occupancy
  I  I0  1  0.12500000  0.00000000  0.25000000  1
  I  I1  1  0.00000000  0.00000000  0.00000000  1
  I  I2  1  0.37500000  0.00000000  0.25000000  1
  I  I3  1  0.25000000  0.25000000  0.25000000  1
  Li  Li4  1  0.00000000  0.25000000  0.12500000  1
  Li  Li5  1  0.10679884  0.48032196  0.53230147  1
  Ti  Ti6  1  0.33653456  0.03763883  0.59757622  1
  Ti  Ti7  1  0.37045018  0.38681092  0.96553067  1
  Te  Te8  1  0.42250531  0.76572835  0.91911701  1
  Te  Te9  1  0.58894553  0.78703707  0.34058852  1
  Te  Te10  1  0.69869674  0.58927333  0.32415606  1
  Te  Te11  1  0.05647356  0.08380322  0.90363972  1
  Te  Te12  1  0.91207689  0.36349064  0.17567131  1
  Te  Te13  1  0.70418931  0.47462073  0.11707328  1
  O  O14  1  0.82583261  0.05552921  0.71283221  1
  O  O15  1  0.95677018  0.42005232  0.02609363  1
  O  O16  1  0.87754764  0.73898530  0.86408439  1
