# generated using pymatgen
data_Li2Mn2Sb4Mo2P3
_symmetry_space_group_name_H-M   'P 1'
_cell_length_a   5.84882962
_cell_length_b   5.86821874
_cell_length_c   7.02067845
_cell_angle_alpha   97.47656799
_cell_angle_beta   92.83211193
_cell_angle_gamma   97.67025352
_symmetry_Int_Tables_number   1
_chemical_formula_structural   Li2Mn2Sb4Mo2P3
_chemical_formula_sum   'Li2 Mn2 Sb4 Mo2 P3'
_cell_volume   236.23150474
_cell_formula_units_Z   1
loop_
 _symmetry_equiv_pos_site_id
 _symmetry_equiv_pos_as_xyz
  1  'x, y, z'
loop_
 _atom_site_type_symbol
 _atom_site_label
 _atom_site_symmetry_multiplicity
 _atom_site_fract_x
 _atom_site_fract_y
 _atom_site_fract_z
 _atom_site_occupancy
  Mn  Mn0  1  0.00000000  0.00000000  0.00000000  1
  Mn  Mn1  1  0.50000000  0.50000000  0.50000000  1
  Sb  Sb2  1  0.25000000  0.25000000  0.25000000  1
  Sb  Sb3  1  0.75000000  0.25000000  0.00000000  1
  Sb  Sb4  1  0.25000000  0.75000000  0.50000000  1
  Sb  Sb5  1  0.50860255  0.95562925  0.28041723  1
  P  P6  1  0.60625637  0.56631671  0.52547366  1
  P  P7  1  0.55446847  0.99851278  0.05225911  1
  P  P8  1  0.88579354  0.34192185  0.02351107  1
  Mo  Mo9  1  0.56216125  0.96241331  0.61346208  1
  Mo  Mo10  1  0.77091138  0.10577573  0.25385489  1
  Li  Li11  1  0.99153099  0.62255022  0.45120823  1
  Li  Li12  1  0.22222286  0.05541590  0.10962602  1
