# generated using pymatgen
data_Li3Ti2P3
_symmetry_space_group_name_H-M   'P 1'
_cell_length_a   6.16255250
_cell_length_b   5.76974383
_cell_length_c   7.21289330
_cell_angle_alpha   94.33100534
_cell_angle_beta   96.36873225
_cell_angle_gamma   94.20300124
_symmetry_Int_Tables_number   1
_chemical_formula_structural   Li3Ti2P3
_chemical_formula_sum   'Li3 Ti2 P3'
_cell_volume   253.28907696
_cell_formula_units_Z   1
loop_
 _symmetry_equiv_pos_site_id
 _symmetry_equiv_pos_as_xyz
  1  'x, y, z'
loop_
 _atom_site_type_symbol
 _atom_site_label
 _atom_site_symmetry_multiplicity
 _atom_site_fract_x
 _atom_site_fract_y
 _atom_site_fract_z
 _atom_site_occupancy
  P  P0  1  0.00000000  0.00000000  0.00000000  1
  P  P1  1  0.50000000  0.50000000  0.50000000  1
  P  P2  1  0.25000000  0.25000000  0.25000000  1
  Li  Li3  1  0.75000000  0.25000000  0.00000000  1
  Li  Li4  1  0.25000000  0.75000000  0.50000000  1
  Li  Li5  1  0.77702873  0.72749822  0.32910612  1
  Ti  Ti6  1  0.52309816  0.46238776  0.39656604  1
  Ti  Ti7  1  0.60523161  0.54114383  0.91266188  1
