# generated using pymatgen
data_LiTi2P5F2
_symmetry_space_group_name_H-M   'P 1'
_cell_length_a   6.57574166
_cell_length_b   6.29344545
_cell_length_c   7.27021256
_cell_angle_alpha   92.28196483
_cell_angle_beta   95.55673405
_cell_angle_gamma   92.25620237
_symmetry_Int_Tables_number   1
_chemical_formula_structural   LiTi2P5F2
_chemical_formula_sum   'Li1 Ti2 P5 F2'
_cell_volume   298.93692852
_cell_formula_units_Z   1
loop_
 _symmetry_equiv_pos_site_id
 _symmetry_equiv_pos_as_xyz
  1  'x, y, z'
loop_
 _atom_site_type_symbol
 _atom_site_label
 _atom_site_symmetry_multiplicity
 _atom_site_fract_x
 _atom_site_fract_y
 _atom_site_fract_z
 _atom_site_occupancy
  P  P0  1  0.12500000  0.12500000  0.12500000  1
  P  P1  1  0.50000000  0.50000000  0.50000000  1
  P  P2  1  0.25000000  0.25000000  0.25000000  1
  P  P3  1  0.75000000  0.75000000  0.75000000  1
  P  P4  1  0.71790101  0.36663645  0.54411889  1
  Li  Li5  1  0.10679234  0.74410548  0.95130761  1
  F  F6  1  0.13563343  0.42327045  0.88784055  1
  F  F7  1  0.98968884  0.95156270  0.76444931  1
  Ti  Ti8  1  0.71151788  0.55845237  0.90702381  1
  Ti  Ti9  1  0.17847092  0.17912499  0.04401564  1
