# generated using pymatgen
data_Li2Mn2Sb4Mo2P3
_symmetry_space_group_name_H-M   'P 1'
_cell_length_a   5.97512710
_cell_length_b   6.10725624
_cell_length_c   6.77498264
_cell_angle_alpha   98.68367138
_cell_angle_beta   92.65077004
_cell_angle_gamma   98.97026479
_symmetry_Int_Tables_number   1
_chemical_formula_structural   Li2Mn2Sb4Mo2P3
_chemical_formula_sum   'Li2 Mn2 Sb4 Mo2 P3'
_cell_volume   240.78966909
_cell_formula_units_Z   1
loop_
 _symmetry_equiv_pos_site_id
 _symmetry_equiv_pos_as_xyz
  1  'x, y, z'
loop_
 _atom_site_type_symbol
 _atom_site_label
 _atom_site_symmetry_multiplicity
 _atom_site_fract_x
 _atom_site_fract_y
 _atom_site_fract_z
 _atom_site_occupancy
  Mn  Mn0  1  0.00000000  0.00000000  0.00000000  1
  Mn  Mn1  1  0.50000000  0.50000000  0.50000000  1
  Sb  Sb2  1  0.25000000  0.25000000  0.25000000  1
  Sb  Sb3  1  0.75000000  0.25000000  0.00000000  1
  Sb  Sb4  1  0.25000000  0.75000000  0.50000000  1
  Sb  Sb5  1  0.73148370  0.66066074  0.06248991  1
  P  P6  1  0.93588273  0.97350774  0.29482292  1
  P  P7  1  0.40272554  0.15249112  0.06645080  1
  P  P8  1  0.47371919  0.21272271  0.50693508  1
  Mo  Mo9  1  0.62614152  0.30562634  0.07304625  1
  Mo  Mo10  1  0.36771138  0.11988533  0.66167423  1
  Li  Li11  1  0.44233157  0.95920045  0.52526497  1
  Li  Li12  1  0.16636155  0.49965075  0.54531987  1
