# generated using pymatgen
data_Li3LuTi(As3I2)2
_symmetry_space_group_name_H-M   'P 1'
_cell_length_a   8.35336958
_cell_length_b   8.19877204
_cell_length_c   7.81728202
_cell_angle_alpha   90.67530427
_cell_angle_beta   90.51544169
_cell_angle_gamma   90.78222755
_symmetry_Int_Tables_number   1
_chemical_formula_structural   Li3LuTi(As3I2)2
_chemical_formula_sum   'Li3 Lu1 Ti1 As6 I4'
_cell_volume   535.27558239
_cell_formula_units_Z   1
loop_
 _symmetry_equiv_pos_site_id
 _symmetry_equiv_pos_as_xyz
  1  'x, y, z'
loop_
 _atom_site_type_symbol
 _atom_site_label
 _atom_site_symmetry_multiplicity
 _atom_site_fract_x
 _atom_site_fract_y
 _atom_site_fract_z
 _atom_site_occupancy
  I  I0  1  0.12500000  0.00000000  0.25000000  1
  I  I1  1  0.00000000  0.00000000  0.00000000  1
  I  I2  1  0.37500000  0.00000000  0.25000000  1
  I  I3  1  0.25000000  0.25000000  0.25000000  1
  Lu  Lu4  1  0.00000000  0.25000000  0.12500000  1
  Li  Li5  1  0.17601718  0.97254699  0.94479743  1
  Li  Li6  1  0.93171853  0.02573426  0.87579124  1
  Li  Li7  1  0.49196123  0.23288708  0.20600969  1
  Ti  Ti8  1  0.65572825  0.24938638  0.96367931  1
  As  As9  1  0.42226978  0.96251681  0.08414156  1
  As  As10  1  0.48572052  0.57297080  0.31750647  1
  As  As11  1  0.49862785  0.11283753  0.65245226  1
  As  As12  1  0.24584567  0.48492195  0.50591452  1
  As  As13  1  0.42380645  0.51823851  0.56657302  1
  As  As14  1  0.57026717  0.77353293  0.04447611  1
