# generated using pymatgen
data_Li2TiCu2As6P5
_symmetry_space_group_name_H-M   'P 1'
_cell_length_a   7.32828865
_cell_length_b   7.27683704
_cell_length_c   7.53100657
_cell_angle_alpha   90.50615768
_cell_angle_beta   91.64236541
_cell_angle_gamma   90.06511825
_symmetry_Int_Tables_number   1
_chemical_formula_structural   Li2TiCu2As6P5
_chemical_formula_sum   'Li2 Ti1 Cu2 As6 P5'
_cell_volume   401.42316399
_cell_formula_units_Z   1
loop_
 _symmetry_equiv_pos_site_id
 _symmetry_equiv_pos_as_xyz
  1  'x, y, z'
loop_
 _atom_site_type_symbol
 _atom_site_label
 _atom_site_symmetry_multiplicity
 _atom_site_fract_x
 _atom_site_fract_y
 _atom_site_fract_z
 _atom_site_occupancy
  P  P0  1  0.00000000  0.00000000  0.00000000  1
  P  P1  1  0.50000000  0.50000000  0.50000000  1
  P  P2  1  0.50000000  0.50000000  0.00000000  1
  P  P3  1  0.50000000  0.00000000  0.50000000  1
  P  P4  1  0.00000000  0.50000000  0.50000000  1
  Li  Li5  1  0.08405524  0.50016379  0.92609839  1
  Li  Li6  1  0.31811542  0.51464250  0.45768516  1
  Cu  Cu7  1  0.02026663  0.18064972  0.06805879  1
  Cu  Cu8  1  0.64431375  0.54431761  0.85612814  1
  Ti  Ti9  1  0.24563749  0.56347285  0.91349636  1
  As  As10  1  0.19500647  0.96762438  0.76665333  1
  As  As11  1  0.73952529  0.50693905  0.87104982  1
  As  As12  1  0.14588591  0.52078006  0.63538652  1
  As  As13  1  0.64518494  0.38889933  0.89564424  1
  As  As14  1  0.15316555  0.98758040  0.00694829  1
  As  As15  1  0.96204194  0.84842973  0.52996467  1
