# generated using pymatgen
data_Li2TiCu2(NiP2)2
_symmetry_space_group_name_H-M   'P 1'
_cell_length_a   8.10785447
_cell_length_b   8.02206625
_cell_length_c   7.72183674
_cell_angle_alpha   90.20565313
_cell_angle_beta   90.57586108
_cell_angle_gamma   89.96513785
_symmetry_Int_Tables_number   1
_chemical_formula_structural   Li2TiCu2(NiP2)2
_chemical_formula_sum   'Li2 Ti1 Cu2 Ni2 P4'
_cell_volume   502.21305703
_cell_formula_units_Z   1
loop_
 _symmetry_equiv_pos_site_id
 _symmetry_equiv_pos_as_xyz
  1  'x, y, z'
loop_
 _atom_site_type_symbol
 _atom_site_label
 _atom_site_symmetry_multiplicity
 _atom_site_fract_x
 _atom_site_fract_y
 _atom_site_fract_z
 _atom_site_occupancy
  P  P0  1  0.12500000  0.00000000  0.25000000  1
  P  P1  1  0.00000000  0.00000000  0.00000000  1
  P  P2  1  0.37500000  0.00000000  0.25000000  1
  P  P3  1  0.25000000  0.25000000  0.25000000  1
  Li  Li4  1  0.00000000  0.25000000  0.12500000  1
  Li  Li5  1  0.82870864  0.83447341  0.65551141  1
  Cu  Cu6  1  0.74665350  0.91567241  0.84304010  1
  Cu  Cu7  1  0.54209385  0.27906835  0.80085974  1
  Ni  Ni8  1  0.21917370  0.81521808  0.33288486  1
  Ni  Ni9  1  0.16250753  0.60050345  0.66925374  1
  Ti  Ti10  1  0.33544374  0.45807063  0.43997549  1
