# generated using pymatgen
data_Li2Te6I4Br5O3
_symmetry_space_group_name_H-M   'P 1'
_cell_length_a   8.13190975
_cell_length_b   7.84421054
_cell_length_c   6.99135167
_cell_angle_alpha   90.00000000
_cell_angle_beta   90.00000000
_cell_angle_gamma   90.00000000
_symmetry_Int_Tables_number   1
_chemical_formula_structural   Li2Te6I4Br5O3
_chemical_formula_sum   'Li2 Te6 I4 Br5 O3'
_cell_volume   445.96722169
_cell_formula_units_Z   1
loop_
 _symmetry_equiv_pos_site_id
 _symmetry_equiv_pos_as_xyz
  1  'x, y, z'
loop_
 _atom_site_type_symbol
 _atom_site_label
 _atom_site_symmetry_multiplicity
 _atom_site_fract_x
 _atom_site_fract_y
 _atom_site_fract_z
 _atom_site_occupancy
  I  I0  1  0.00000000  0.00000000  0.00000000  1
  I  I1  1  0.50000000  0.50000000  0.50000000  1
  I  I2  1  0.50000000  0.50000000  0.00000000  1
  I  I3  1  0.50000000  0.00000000  0.50000000  1
  Li  Li4  1  0.00000000  0.50000000  0.50000000  1
  Li  Li5  1  0.96465280  0.80047053  0.51928306  1
  Br  Br6  1  0.21417491  0.89627562  0.70827690  1
  Br  Br7  1  0.51175016  0.37471113  0.41139929  1
  Br  Br8  1  0.77887286  0.38682906  0.40923151  1
  Br  Br9  1  0.78998294  0.57378161  0.07351866  1
  Br  Br10  1  0.78911944  0.28031763  0.82597259  1
  Te  Te11  1  0.34552087  0.75336422  0.96785505  1
  Te  Te12  1  0.64535034  0.47084640  0.29810255  1
  Te  Te13  1  0.60046598  0.96408092  0.68265427  1
  Te  Te14  1  0.59077468  0.11742157  0.97928258  1
  Te  Te15  1  0.34654463  0.74670390  0.80353550  1
  Te  Te16  1  0.16665391  0.52217726  0.82263657  1
  O  O17  1  0.45309645  0.52177316  0.40794158  1
  O  O18  1  0.35980822  0.57931292  0.89303996  1
  O  O19  1  0.75024636  0.53472233  0.10465431  1
