# generated using pymatgen
data_LiSb4P3N
_symmetry_space_group_name_H-M   'P 1'
_cell_length_a   5.38958775
_cell_length_b   5.56440009
_cell_length_c   6.29465198
_cell_angle_alpha   97.91079314
_cell_angle_beta   93.56067485
_cell_angle_gamma   97.33717288
_symmetry_Int_Tables_number   1
_chemical_formula_structural   LiSb4P3N
_chemical_formula_sum   'Li1 Sb4 P3 N1'
_cell_volume   184.83695144
_cell_formula_units_Z   1
loop_
 _symmetry_equiv_pos_site_id
 _symmetry_equiv_pos_as_xyz
  1  'x, y, z'
loop_
 _atom_site_type_symbol
 _atom_site_label
 _atom_site_symmetry_multiplicity
 _atom_site_fract_x
 _atom_site_fract_y
 _atom_site_fract_z
 _atom_site_occupancy
  N  N0  1  0.00000000  0.00000000  0.00000000  1
  Sb  Sb1  1  0.50000000  0.50000000  0.50000000  1
  Sb  Sb2  1  0.25000000  0.25000000  0.25000000  1
  Sb  Sb3  1  0.75000000  0.25000000  0.00000000  1
  Sb  Sb4  1  0.25000000  0.75000000  0.50000000  1
  P  P5  1  0.44105878  0.36198997  0.08559870  1
  P  P6  1  0.94838888  0.34945138  0.06473325  1
  P  P7  1  0.93677220  0.11517035  0.30064073  1
  Li  Li8  1  0.09989474  0.79265969  0.17424930  1
