# generated using pymatgen
data_Li2MnP3N
_symmetry_space_group_name_H-M   'P 1'
_cell_length_a   4.62181821
_cell_length_b   4.80553274
_cell_length_c   5.48628163
_cell_angle_alpha   98.98748067
_cell_angle_beta   94.43719685
_cell_angle_gamma   96.99136124
_symmetry_Int_Tables_number   1
_chemical_formula_structural   Li2MnP3N
_chemical_formula_sum   'Li2 Mn1 P3 N1'
_cell_volume   118.88232096
_cell_formula_units_Z   1
loop_
 _symmetry_equiv_pos_site_id
 _symmetry_equiv_pos_as_xyz
  1  'x, y, z'
loop_
 _atom_site_type_symbol
 _atom_site_label
 _atom_site_symmetry_multiplicity
 _atom_site_fract_x
 _atom_site_fract_y
 _atom_site_fract_z
 _atom_site_occupancy
  Mn  Mn0  1  0.00000000  0.00000000  0.00000000  1
  P  P1  1  0.50000000  0.50000000  0.50000000  1
  P  P2  1  0.25000000  0.25000000  0.25000000  1
  P  P3  1  0.75000000  0.25000000  0.00000000  1
  Li  Li4  1  0.25000000  0.75000000  0.50000000  1
  Li  Li5  1  0.27060249  0.03632667  0.14955989  1
  N  N6  1  0.99213331  0.43918408  0.57945069  1
