# generated using pymatgen
data_Li2Mn2Sb4P3
_symmetry_space_group_name_H-M   'P 1'
_cell_length_a   6.66467658
_cell_length_b   7.24787401
_cell_length_c   7.38967359
_cell_angle_alpha   92.39983372
_cell_angle_beta   92.84282478
_cell_angle_gamma   92.73130708
_symmetry_Int_Tables_number   1
_chemical_formula_structural   Li2Mn2Sb4P3
_chemical_formula_sum   'Li2 Mn2 Sb4 P3'
_cell_volume   355.76168285
_cell_formula_units_Z   1
loop_
 _symmetry_equiv_pos_site_id
 _symmetry_equiv_pos_as_xyz
  1  'x, y, z'
loop_
 _atom_site_type_symbol
 _atom_site_label
 _atom_site_symmetry_multiplicity
 _atom_site_fract_x
 _atom_site_fract_y
 _atom_site_fract_z
 _atom_site_occupancy
  Mn  Mn0  1  0.12500000  0.12500000  0.12500000  1
  Mn  Mn1  1  0.50000000  0.50000000  0.50000000  1
  Sb  Sb2  1  0.25000000  0.25000000  0.25000000  1
  Sb  Sb3  1  0.75000000  0.75000000  0.75000000  1
  Sb  Sb4  1  0.58127957  0.10128069  0.78935627  1
  Sb  Sb5  1  0.12518972  0.92508306  0.71252756  1
  P  P6  1  0.99744607  0.63914951  0.59764911  1
  P  P7  1  0.70675191  0.12990006  0.73124989  1
  P  P8  1  0.35050342  0.03209503  0.00652221  1
  Li  Li9  1  0.61480256  0.05663083  0.44620271  1
  Li  Li10  1  0.96421449  0.46092578  0.80545069  1
