# generated using pymatgen
data_Li2Mn2Sb4P2N
_symmetry_space_group_name_H-M   'P 1'
_cell_length_a   6.52773214
_cell_length_b   6.83273886
_cell_length_c   7.33048065
_cell_angle_alpha   93.83657282
_cell_angle_beta   93.20827108
_cell_angle_gamma   93.79719862
_symmetry_Int_Tables_number   1
_chemical_formula_structural   Li2Mn2Sb4P2N
_chemical_formula_sum   'Li2 Mn2 Sb4 P2 N1'
_cell_volume   324.90780123
_cell_formula_units_Z   1
loop_
 _symmetry_equiv_pos_site_id
 _symmetry_equiv_pos_as_xyz
  1  'x, y, z'
loop_
 _atom_site_type_symbol
 _atom_site_label
 _atom_site_symmetry_multiplicity
 _atom_site_fract_x
 _atom_site_fract_y
 _atom_site_fract_z
 _atom_site_occupancy
  N  N0  1  0.00000000  0.00000000  0.00000000  1
  Mn  Mn1  1  0.50000000  0.50000000  0.50000000  1
  Mn  Mn2  1  0.25000000  0.25000000  0.25000000  1
  Sb  Sb3  1  0.75000000  0.25000000  0.00000000  1
  Sb  Sb4  1  0.25000000  0.75000000  0.50000000  1
  Sb  Sb5  1  0.72008616  0.10487075  0.61890784  1
  Sb  Sb6  1  0.51445401  0.30059803  0.13179811  1
  P  P7  1  0.16239162  0.05086979  0.52444575  1
  P  P8  1  0.53498878  0.37683532  0.54010286  1
  Li  Li9  1  0.93287529  0.03414609  0.81124803  1
  Li  Li10  1  0.86828449  0.20330495  0.31890675  1
