# generated using pymatgen
data_Li3Ti(IO)4
_symmetry_space_group_name_H-M   'P 1'
_cell_length_a   8.85193497
_cell_length_b   8.73162580
_cell_length_c   7.31508651
_cell_angle_alpha   90.00000000
_cell_angle_beta   90.00000000
_cell_angle_gamma   90.00000000
_symmetry_Int_Tables_number   1
_chemical_formula_structural   Li3Ti(IO)4
_chemical_formula_sum   'Li3 Ti1 I4 O4'
_cell_volume   565.39608442
_cell_formula_units_Z   1
loop_
 _symmetry_equiv_pos_site_id
 _symmetry_equiv_pos_as_xyz
  1  'x, y, z'
loop_
 _atom_site_type_symbol
 _atom_site_label
 _atom_site_symmetry_multiplicity
 _atom_site_fract_x
 _atom_site_fract_y
 _atom_site_fract_z
 _atom_site_occupancy
  I  I0  1  0.12500000  0.12500000  0.12500000  1
  I  I1  1  0.50000000  0.50000000  0.50000000  1
  I  I2  1  0.25000000  0.25000000  0.25000000  1
  I  I3  1  0.75000000  0.75000000  0.75000000  1
  Li  Li4  1  0.03067226  0.33605082  0.36594668  1
  Li  Li5  1  0.49078472  0.75963211  0.75090225  1
  Li  Li6  1  0.45757456  0.96749019  0.84608308  1
  Ti  Ti7  1  0.76344425  0.92594959  0.91661521  1
  O  O8  1  0.40522170  0.82092392  0.61877318  1
  O  O9  1  0.27820953  0.62650884  0.86852746  1
  O  O10  1  0.37205161  0.88269012  0.20749020  1
  O  O11  1  0.78186170  0.78923408  0.22913093  1
