# generated using pymatgen
data_Li4SeO5F3
_symmetry_space_group_name_H-M   'P 1'
_cell_length_a   6.33677439
_cell_length_b   6.08894822
_cell_length_c   8.05096366
_cell_angle_alpha   98.18089180
_cell_angle_beta   99.94061908
_cell_angle_gamma   97.88328785
_symmetry_Int_Tables_number   1
_chemical_formula_structural   Li4SeO5F3
_chemical_formula_sum   'Li4 Se1 O5 F3'
_cell_volume   298.66789632
_cell_formula_units_Z   1
loop_
 _symmetry_equiv_pos_site_id
 _symmetry_equiv_pos_as_xyz
  1  'x, y, z'
loop_
 _atom_site_type_symbol
 _atom_site_label
 _atom_site_symmetry_multiplicity
 _atom_site_fract_x
 _atom_site_fract_y
 _atom_site_fract_z
 _atom_site_occupancy
  Li  Li0  1  0.12500000  0.00000000  0.25000000  1
  Li  Li1  1  0.00000000  0.00000000  0.00000000  1
  Li  Li2  1  0.37500000  0.00000000  0.25000000  1
  Li  Li3  1  0.25000000  0.25000000  0.25000000  1
  Se  Se4  1  0.00000000  0.25000000  0.12500000  1
  F  F5  1  0.69971407  0.23651888  0.91790550  1
  F  F6  1  0.37171113  0.58785855  0.06000698  1
  F  F7  1  0.28301063  0.46218102  0.83454769  1
  O  O8  1  0.83475246  0.98983308  0.58632526  1
  O  O9  1  0.56314051  0.81708690  0.87829902  1
  O  O10  1  0.49291208  0.10002165  0.98811180  1
  O  O11  1  0.02498702  0.20669327  0.68175340  1
  O  O12  1  0.41341169  0.24758925  0.39551703  1
