# generated using pymatgen
data_Li3Ni2(As3P2)2
_symmetry_space_group_name_H-M   'P 1'
_cell_length_a   7.71202187
_cell_length_b   7.52341129
_cell_length_c   8.44971355
_cell_angle_alpha   92.09506518
_cell_angle_beta   91.27027349
_cell_angle_gamma   92.42802448
_symmetry_Int_Tables_number   1
_chemical_formula_structural   Li3Ni2(As3P2)2
_chemical_formula_sum   'Li3 Ni2 As6 P4'
_cell_volume   489.35271472
_cell_formula_units_Z   1
loop_
 _symmetry_equiv_pos_site_id
 _symmetry_equiv_pos_as_xyz
  1  'x, y, z'
loop_
 _atom_site_type_symbol
 _atom_site_label
 _atom_site_symmetry_multiplicity
 _atom_site_fract_x
 _atom_site_fract_y
 _atom_site_fract_z
 _atom_site_occupancy
  P  P0  1  0.00000000  0.00000000  0.00000000  1
  P  P1  1  0.50000000  0.50000000  0.50000000  1
  P  P2  1  0.50000000  0.50000000  0.00000000  1
  P  P3  1  0.50000000  0.00000000  0.50000000  1
  Li  Li4  1  0.00000000  0.50000000  0.50000000  1
  Li  Li5  1  0.65340993  0.47543570  0.35947685  1
  Li  Li6  1  0.96756492  0.34957297  0.89550572  1
  Ni  Ni7  1  0.77445582  0.99929385  0.19476347  1
  Ni  Ni8  1  0.41560432  0.77293047  0.69115977  1
  As  As9  1  0.01448170  0.93794589  0.02453251  1
  As  As10  1  0.23093022  0.10320035  0.64326131  1
  As  As11  1  0.78981719  0.05573614  0.53373897  1
  As  As12  1  0.39901724  0.16757733  0.90372665  1
  As  As13  1  0.16405417  0.04398763  0.12621561  1
  As  As14  1  0.43062693  0.17826625  0.43350562  1
