# generated using pymatgen
data_LiMnSb4(MoP)2
_symmetry_space_group_name_H-M   'P 1'
_cell_length_a   5.22273885
_cell_length_b   5.38023588
_cell_length_c   6.18750079
_cell_angle_alpha   95.86127690
_cell_angle_beta   91.87246624
_cell_angle_gamma   95.63809852
_symmetry_Int_Tables_number   1
_chemical_formula_structural   LiMnSb4(MoP)2
_chemical_formula_sum   'Li1 Mn1 Sb4 Mo2 P2'
_cell_volume   171.96017163
_cell_formula_units_Z   1
loop_
 _symmetry_equiv_pos_site_id
 _symmetry_equiv_pos_as_xyz
  1  'x, y, z'
loop_
 _atom_site_type_symbol
 _atom_site_label
 _atom_site_symmetry_multiplicity
 _atom_site_fract_x
 _atom_site_fract_y
 _atom_site_fract_z
 _atom_site_occupancy
  Mn  Mn0  1  0.00000000  0.00000000  0.00000000  1
  Sb  Sb1  1  0.50000000  0.50000000  0.50000000  1
  Sb  Sb2  1  0.50000000  0.50000000  0.00000000  1
  Sb  Sb3  1  0.50000000  0.00000000  0.50000000  1
  Sb  Sb4  1  0.00000000  0.50000000  0.50000000  1
  P  P5  1  0.51918426  0.35325518  0.70553869  1
  P  P6  1  0.28847677  0.77899434  0.08494460  1
  Mo  Mo7  1  0.64919839  0.92317613  0.35394178  1
  Mo  Mo8  1  0.62393923  0.89930690  0.69510967  1
  Li  Li9  1  0.28185536  0.98694740  0.14244677  1
