# generated using pymatgen
data_LiLa2MnAl2P3
_symmetry_space_group_name_H-M   'P 1'
_cell_length_a   7.06218225
_cell_length_b   7.51973735
_cell_length_c   7.08781918
_cell_angle_alpha   92.04336524
_cell_angle_beta   92.42055493
_cell_angle_gamma   92.32560194
_symmetry_Int_Tables_number   1
_chemical_formula_structural   LiLa2MnAl2P3
_chemical_formula_sum   'Li1 La2 Mn1 Al2 P3'
_cell_volume   375.49503425
_cell_formula_units_Z   1
loop_
 _symmetry_equiv_pos_site_id
 _symmetry_equiv_pos_as_xyz
  1  'x, y, z'
loop_
 _atom_site_type_symbol
 _atom_site_label
 _atom_site_symmetry_multiplicity
 _atom_site_fract_x
 _atom_site_fract_y
 _atom_site_fract_z
 _atom_site_occupancy
  Al  Al0  1  0.12500000  0.00000000  0.25000000  1
  Al  Al1  1  0.00000000  0.00000000  0.00000000  1
  Mn  Mn2  1  0.37500000  0.00000000  0.25000000  1
  La  La3  1  0.25000000  0.25000000  0.25000000  1
  La  La4  1  0.00000000  0.25000000  0.12500000  1
  P  P5  1  0.60078029  0.95151062  0.62877687  1
  P  P6  1  0.54627456  0.85326490  0.04310223  1
  P  P7  1  0.26073610  0.22599770  0.10570229  1
  Li  Li8  1  0.61117970  0.96344888  0.96151360  1
