# generated using pymatgen
data_LiMn2Ni3Sb4P3
_symmetry_space_group_name_H-M   'P 1'
_cell_length_a   5.04480392
_cell_length_b   5.09555858
_cell_length_c   6.71914893
_cell_angle_alpha   95.77708533
_cell_angle_beta   95.43723839
_cell_angle_gamma   96.04920668
_symmetry_Int_Tables_number   1
_chemical_formula_structural   LiMn2Ni3Sb4P3
_chemical_formula_sum   'Li1 Mn2 Ni3 Sb4 P3'
_cell_volume   169.91715841
_cell_formula_units_Z   1
loop_
 _symmetry_equiv_pos_site_id
 _symmetry_equiv_pos_as_xyz
  1  'x, y, z'
loop_
 _atom_site_type_symbol
 _atom_site_label
 _atom_site_symmetry_multiplicity
 _atom_site_fract_x
 _atom_site_fract_y
 _atom_site_fract_z
 _atom_site_occupancy
  Mn  Mn0  1  0.00000000  0.00000000  0.00000000  1
  Mn  Mn1  1  0.50000000  0.50000000  0.50000000  1
  Sb  Sb2  1  0.25000000  0.25000000  0.25000000  1
  Sb  Sb3  1  0.75000000  0.25000000  0.00000000  1
  Sb  Sb4  1  0.25000000  0.75000000  0.50000000  1
  Sb  Sb5  1  0.42913148  0.22604710  0.06325998  1
  P  P6  1  0.23224567  0.44710231  0.87165182  1
  P  P7  1  0.84852238  0.41931659  0.49458641  1
  P  P8  1  0.59878377  0.17995586  0.19093557  1
  Li  Li9  1  0.95205929  0.56941193  0.41075693  1
  Ni  Ni10  1  0.21334535  0.33373915  0.60558910  1
  Ni  Ni11  1  0.92803161  0.13548023  0.63377708  1
  Ni  Ni12  1  0.92185439  0.40337513  0.52405754  1
