# generated using pymatgen
data_LiMnSb4Mo2P3
_symmetry_space_group_name_H-M   'P 1'
_cell_length_a   6.22936725
_cell_length_b   6.13919468
_cell_length_c   6.83014595
_cell_angle_alpha   93.67289912
_cell_angle_beta   90.89645200
_cell_angle_gamma   93.44764505
_symmetry_Int_Tables_number   1
_chemical_formula_structural   LiMnSb4Mo2P3
_chemical_formula_sum   'Li1 Mn1 Sb4 Mo2 P3'
_cell_volume   260.14917812
_cell_formula_units_Z   1
loop_
 _symmetry_equiv_pos_site_id
 _symmetry_equiv_pos_as_xyz
  1  'x, y, z'
loop_
 _atom_site_type_symbol
 _atom_site_label
 _atom_site_symmetry_multiplicity
 _atom_site_fract_x
 _atom_site_fract_y
 _atom_site_fract_z
 _atom_site_occupancy
  Mn  Mn0  1  0.00000000  0.00000000  0.00000000  1
  Sb  Sb1  1  0.50000000  0.50000000  0.50000000  1
  Sb  Sb2  1  0.25000000  0.25000000  0.25000000  1
  Sb  Sb3  1  0.75000000  0.25000000  0.00000000  1
  Sb  Sb4  1  0.25000000  0.75000000  0.50000000  1
  P  P5  1  0.01674494  0.84620697  0.66659342  1
  P  P6  1  0.46027329  0.90445284  0.52413537  1
  P  P7  1  0.23819442  0.71977188  0.79324706  1
  Mo  Mo8  1  0.49391827  0.83944051  0.51039126  1
  Mo  Mo9  1  0.99094733  0.18277262  0.45108671  1
  Li  Li10  1  0.75199337  0.84556124  0.89983691  1
