# generated using pymatgen
data_Li2TiP6(IO)4
_symmetry_space_group_name_H-M   'P 1'
_cell_length_a   8.63628373
_cell_length_b   8.41730003
_cell_length_c   7.59013348
_cell_angle_alpha   90.09105192
_cell_angle_beta   90.43319740
_cell_angle_gamma   90.10409666
_symmetry_Int_Tables_number   1
_chemical_formula_structural   Li2TiP6(IO)4
_chemical_formula_sum   'Li2 Ti1 P6 I4 O4'
_cell_volume   551.74122468
_cell_formula_units_Z   1
loop_
 _symmetry_equiv_pos_site_id
 _symmetry_equiv_pos_as_xyz
  1  'x, y, z'
loop_
 _atom_site_type_symbol
 _atom_site_label
 _atom_site_symmetry_multiplicity
 _atom_site_fract_x
 _atom_site_fract_y
 _atom_site_fract_z
 _atom_site_occupancy
  I  I0  1  0.00000000  0.00000000  0.00000000  1
  I  I1  1  0.50000000  0.50000000  0.50000000  1
  I  I2  1  0.50000000  0.50000000  0.00000000  1
  I  I3  1  0.50000000  0.00000000  0.50000000  1
  P  P4  1  0.00000000  0.50000000  0.50000000  1
  P  P5  1  0.96970960  0.04849892  0.55088999  1
  P  P6  1  0.35883345  0.12982465  0.89184749  1
  P  P7  1  0.98832667  0.13094328  0.95801623  1
  P  P8  1  0.60668719  0.18754689  0.94504031  1
  P  P9  1  0.19050981  0.61886439  0.50486369  1
  Li  Li10  1  0.39990875  0.87434999  0.83463674  1
  Li  Li11  1  0.88701382  0.92746233  0.09285252  1
  Ti  Ti12  1  0.46768827  0.63692401  0.53584468  1
  O  O13  1  0.71809671  0.03289740  0.02701386  1
  O  O14  1  0.97495245  0.48180072  0.91749157  1
  O  O15  1  0.76011162  0.44694987  0.42386354  1
  O  O16  1  0.24477414  0.45608687  0.31869130  1
