# generated using pymatgen
data_LiMnSb4P3
_symmetry_space_group_name_H-M   'P 1'
_cell_length_a   5.77167659
_cell_length_b   5.96156380
_cell_length_c   6.74854323
_cell_angle_alpha   95.20076665
_cell_angle_beta   92.29810063
_cell_angle_gamma   95.20710503
_symmetry_Int_Tables_number   1
_chemical_formula_structural   LiMnSb4P3
_chemical_formula_sum   'Li1 Mn1 Sb4 P3'
_cell_volume   230.02152023
_cell_formula_units_Z   1
loop_
 _symmetry_equiv_pos_site_id
 _symmetry_equiv_pos_as_xyz
  1  'x, y, z'
loop_
 _atom_site_type_symbol
 _atom_site_label
 _atom_site_symmetry_multiplicity
 _atom_site_fract_x
 _atom_site_fract_y
 _atom_site_fract_z
 _atom_site_occupancy
  Mn  Mn0  1  0.00000000  0.00000000  0.00000000  1
  Sb  Sb1  1  0.33300000  0.66700000  0.25000000  1
  Sb  Sb2  1  0.66700000  0.33300000  0.50000000  1
  Sb  Sb3  1  0.00000000  0.00000000  0.75000000  1
  Sb  Sb4  1  0.68257185  0.02417691  0.64773383  1
  P  P5  1  0.36613641  0.64997759  0.51010818  1
  P  P6  1  0.63271220  0.34936755  0.69769890  1
  P  P7  1  0.69859199  0.37297605  0.21523098  1
  Li  Li8  1  0.70256821  0.66402989  0.99376132  1
