# generated using pymatgen
data_LiMn3Sb2Mo2P3
_symmetry_space_group_name_H-M   'P 1'
_cell_length_a   5.72457305
_cell_length_b   5.80416240
_cell_length_c   6.38820916
_cell_angle_alpha   93.71325946
_cell_angle_beta   90.75931051
_cell_angle_gamma   93.92979597
_symmetry_Int_Tables_number   1
_chemical_formula_structural   LiMn3Sb2Mo2P3
_chemical_formula_sum   'Li1 Mn3 Sb2 Mo2 P3'
_cell_volume   211.27990313
_cell_formula_units_Z   1
loop_
 _symmetry_equiv_pos_site_id
 _symmetry_equiv_pos_as_xyz
  1  'x, y, z'
loop_
 _atom_site_type_symbol
 _atom_site_label
 _atom_site_symmetry_multiplicity
 _atom_site_fract_x
 _atom_site_fract_y
 _atom_site_fract_z
 _atom_site_occupancy
  Mn  Mn0  1  0.12500000  0.00000000  0.25000000  1
  Mn  Mn1  1  0.00000000  0.00000000  0.00000000  1
  Mn  Mn2  1  0.37500000  0.00000000  0.25000000  1
  Sb  Sb3  1  0.25000000  0.25000000  0.25000000  1
  Sb  Sb4  1  0.00000000  0.25000000  0.12500000  1
  P  P5  1  0.69474891  0.69127690  0.22198852  1
  P  P6  1  0.68352157  0.52227189  0.36519626  1
  P  P7  1  0.15340497  0.79519949  0.52533660  1
  Mo  Mo8  1  0.21722817  0.67654639  0.10072642  1
  Mo  Mo9  1  0.77171820  0.08188833  0.55409832  1
  Li  Li10  1  0.04646564  0.18968445  0.15698127  1
