# generated using pymatgen
data_Li3TiN5O7
_symmetry_space_group_name_H-M   'P 1'
_cell_length_a   7.98589133
_cell_length_b   7.75872368
_cell_length_c   8.42492583
_cell_angle_alpha   91.76485058
_cell_angle_beta   90.78682148
_cell_angle_gamma   92.04639868
_symmetry_Int_Tables_number   1
_chemical_formula_structural   Li3TiN5O7
_chemical_formula_sum   'Li3 Ti1 N5 O7'
_cell_volume   521.37326939
_cell_formula_units_Z   1
loop_
 _symmetry_equiv_pos_site_id
 _symmetry_equiv_pos_as_xyz
  1  'x, y, z'
loop_
 _atom_site_type_symbol
 _atom_site_label
 _atom_site_symmetry_multiplicity
 _atom_site_fract_x
 _atom_site_fract_y
 _atom_site_fract_z
 _atom_site_occupancy
  Li  Li0  1  0.00000000  0.00000000  0.00000000  1
  Li  Li1  1  0.33300000  0.66700000  0.25000000  1
  Li  Li2  1  0.66700000  0.33300000  0.50000000  1
  Ti  Ti3  1  0.00000000  0.00000000  0.75000000  1
  O  O4  1  0.18343746  0.39491572  0.96030607  1
  O  O5  1  0.91359011  0.16465238  0.62250179  1
  O  O6  1  0.12690388  0.18358153  0.01244529  1
  O  O7  1  0.11845157  0.14518715  0.18351203  1
  O  O8  1  0.53402849  0.32757962  0.74012657  1
  O  O9  1  0.67143553  0.18354932  0.40656414  1
  O  O10  1  0.92991707  0.81437158  0.56182425  1
  N  N11  1  0.20840508  0.28676821  0.13064050  1
  N  N12  1  0.35918411  0.19400178  0.72436465  1
  N  N13  1  0.90449373  0.13694198  0.77653142  1
  N  N14  1  0.03409098  0.43324435  0.16977384  1
  N  N15  1  0.42415340  0.72586479  0.85973258  1
