# generated using pymatgen
data_Li2P3N
_symmetry_space_group_name_H-M   'P 1'
_cell_length_a   4.65460712
_cell_length_b   4.82203003
_cell_length_c   5.72459901
_cell_angle_alpha   98.79876177
_cell_angle_beta   95.33872636
_cell_angle_gamma   96.93706782
_symmetry_Int_Tables_number   1
_chemical_formula_structural   Li2P3N
_chemical_formula_sum   'Li2 P3 N1'
_cell_volume   125.22797329
_cell_formula_units_Z   1
loop_
 _symmetry_equiv_pos_site_id
 _symmetry_equiv_pos_as_xyz
  1  'x, y, z'
loop_
 _atom_site_type_symbol
 _atom_site_label
 _atom_site_symmetry_multiplicity
 _atom_site_fract_x
 _atom_site_fract_y
 _atom_site_fract_z
 _atom_site_occupancy
  P  P0  1  0.00000000  0.00000000  0.00000000  1
  P  P1  1  0.50000000  0.50000000  0.50000000  1
  P  P2  1  0.25000000  0.25000000  0.25000000  1
  Li  Li3  1  0.75000000  0.25000000  0.00000000  1
  Li  Li4  1  0.25000000  0.75000000  0.50000000  1
  N  N5  1  0.03529586  0.54685051  0.19186745  1
