# generated using pymatgen
data_Li3Ti(IO)4
_symmetry_space_group_name_H-M   'P 1'
_cell_length_a   6.37446459
_cell_length_b   6.07675066
_cell_length_c   7.11966884
_cell_angle_alpha   96.59509682
_cell_angle_beta   97.22843396
_cell_angle_gamma   95.93298878
_symmetry_Int_Tables_number   1
_chemical_formula_structural   Li3Ti(IO)4
_chemical_formula_sum   'Li3 Ti1 I4 O4'
_cell_volume   269.83612345
_cell_formula_units_Z   1
loop_
 _symmetry_equiv_pos_site_id
 _symmetry_equiv_pos_as_xyz
  1  'x, y, z'
loop_
 _atom_site_type_symbol
 _atom_site_label
 _atom_site_symmetry_multiplicity
 _atom_site_fract_x
 _atom_site_fract_y
 _atom_site_fract_z
 _atom_site_occupancy
  Ti  Ti0  1  0.12500000  0.00000000  0.25000000  1
  O  O1  1  0.00000000  0.00000000  0.00000000  1
  O  O2  1  0.37500000  0.00000000  0.25000000  1
  O  O3  1  0.25000000  0.25000000  0.25000000  1
  O  O4  1  0.00000000  0.25000000  0.12500000  1
  I  I5  1  0.52945394  0.51455919  0.48282370  1
  I  I6  1  0.20894208  0.91716382  0.81221489  1
  I  I7  1  0.18029926  0.99495221  0.28730363  1
  I  I8  1  0.80574964  0.84942872  0.15906729  1
  Li  Li9  1  0.31394759  0.52737765  0.45088524  1
  Li  Li10  1  0.27855642  0.54599623  0.31761878  1
  Li  Li11  1  0.60815132  0.41811247  0.44239484  1
