# generated using pymatgen
data_Li2TiP6(IO)4
_symmetry_space_group_name_H-M   'P 1'
_cell_length_a   8.71678657
_cell_length_b   8.53117203
_cell_length_c   7.46191284
_cell_angle_alpha   90.06058517
_cell_angle_beta   90.28824583
_cell_angle_gamma   90.06926503
_symmetry_Int_Tables_number   1
_chemical_formula_structural   Li2TiP6(IO)4
_chemical_formula_sum   'Li2 Ti1 P6 I4 O4'
_cell_volume   554.89297318
_cell_formula_units_Z   1
loop_
 _symmetry_equiv_pos_site_id
 _symmetry_equiv_pos_as_xyz
  1  'x, y, z'
loop_
 _atom_site_type_symbol
 _atom_site_label
 _atom_site_symmetry_multiplicity
 _atom_site_fract_x
 _atom_site_fract_y
 _atom_site_fract_z
 _atom_site_occupancy
  P  P0  1  0.00000000  0.00000000  0.00000000  1
  P  P1  1  0.50000000  0.50000000  0.50000000  1
  P  P2  1  0.50000000  0.50000000  0.00000000  1
  P  P3  1  0.50000000  0.00000000  0.50000000  1
  P  P4  1  0.00000000  0.50000000  0.50000000  1
  P  P5  1  0.85285641  0.26342349  0.08699875  1
  I  I6  1  0.43817438  0.22041034  0.24898842  1
  I  I7  1  0.92892844  0.76054071  0.15188040  1
  I  I8  1  0.80656063  0.08835525  0.75776114  1
  I  I9  1  0.96695206  0.95570452  0.19773889  1
  Li  Li10  1  0.65158321  0.19780167  0.09717252  1
  Li  Li11  1  0.09050944  0.66369819  0.61014646  1
  Ti  Ti12  1  0.29820342  0.59830504  0.77871679  1
  O  O13  1  0.78278574  0.19250367  0.51902445  1
  O  O14  1  0.34217325  0.76047347  0.70976071  1
  O  O15  1  0.42309077  0.23399029  0.45823668  1
  O  O16  1  0.11044864  0.27460391  0.04682114  1
