# generated using pymatgen
data_LiSb2Mo2P3
_symmetry_space_group_name_H-M   'P 1'
_cell_length_a   4.40247828
_cell_length_b   4.56243182
_cell_length_c   5.90109509
_cell_angle_alpha   99.51143471
_cell_angle_beta   92.52890265
_cell_angle_gamma   99.77025462
_symmetry_Int_Tables_number   1
_chemical_formula_structural   LiSb2Mo2P3
_chemical_formula_sum   'Li1 Sb2 Mo2 P3'
_cell_volume   114.88648444
_cell_formula_units_Z   1
loop_
 _symmetry_equiv_pos_site_id
 _symmetry_equiv_pos_as_xyz
  1  'x, y, z'
loop_
 _atom_site_type_symbol
 _atom_site_label
 _atom_site_symmetry_multiplicity
 _atom_site_fract_x
 _atom_site_fract_y
 _atom_site_fract_z
 _atom_site_occupancy
  Sb  Sb0  1  0.00000000  0.00000000  0.00000000  1
  Sb  Sb1  1  0.33300000  0.66700000  0.25000000  1
  P  P2  1  0.66700000  0.33300000  0.50000000  1
  P  P3  1  0.00000000  0.00000000  0.75000000  1
  P  P4  1  0.05694235  0.21992277  0.10719776  1
  Mo  Mo5  1  0.64841971  0.63033234  0.87738791  1
  Mo  Mo6  1  0.17797111  0.25110876  0.68838985  1
  Li  Li7  1  0.62507047  0.01425326  0.03932740  1
