# generated using pymatgen
data_Li3Lu(CuP2)2
_symmetry_space_group_name_H-M   'P 1'
_cell_length_a   7.46174082
_cell_length_b   7.24886180
_cell_length_c   8.17837348
_cell_angle_alpha   92.50506259
_cell_angle_beta   92.16733111
_cell_angle_gamma   92.75055315
_symmetry_Int_Tables_number   1
_chemical_formula_structural   Li3Lu(CuP2)2
_chemical_formula_sum   'Li3 Lu1 Cu2 P4'
_cell_volume   441.07592668
_cell_formula_units_Z   1
loop_
 _symmetry_equiv_pos_site_id
 _symmetry_equiv_pos_as_xyz
  1  'x, y, z'
loop_
 _atom_site_type_symbol
 _atom_site_label
 _atom_site_symmetry_multiplicity
 _atom_site_fract_x
 _atom_site_fract_y
 _atom_site_fract_z
 _atom_site_occupancy
  P  P0  1  0.00000000  0.00000000  0.00000000  1
  P  P1  1  0.50000000  0.50000000  0.50000000  1
  P  P2  1  0.25000000  0.25000000  0.25000000  1
  P  P3  1  0.75000000  0.25000000  0.00000000  1
  Lu  Lu4  1  0.25000000  0.75000000  0.50000000  1
  Li  Li5  1  0.13001535  0.09732240  0.01126732  1
  Li  Li6  1  0.86350810  0.25452880  0.64527199  1
  Li  Li7  1  0.86526006  0.91448120  0.43417975  1
  Cu  Cu8  1  0.38783070  0.78189579  0.22748620  1
  Cu  Cu9  1  0.09002443  0.90788672  0.91833321  1
