# generated using pymatgen
data_Li3TiNi2O5
_symmetry_space_group_name_H-M   'P 1'
_cell_length_a   8.51880090
_cell_length_b   8.38444564
_cell_length_c   8.75985889
_cell_angle_alpha   90.00000000
_cell_angle_beta   90.00000000
_cell_angle_gamma   90.00000000
_symmetry_Int_Tables_number   1
_chemical_formula_structural   Li3TiNi2O5
_chemical_formula_sum   'Li3 Ti1 Ni2 O5'
_cell_volume   625.67662739
_cell_formula_units_Z   1
loop_
 _symmetry_equiv_pos_site_id
 _symmetry_equiv_pos_as_xyz
  1  'x, y, z'
loop_
 _atom_site_type_symbol
 _atom_site_label
 _atom_site_symmetry_multiplicity
 _atom_site_fract_x
 _atom_site_fract_y
 _atom_site_fract_z
 _atom_site_occupancy
  Li  Li0  1  0.00000000  0.00000000  0.00000000  1
  Li  Li1  1  0.50000000  0.50000000  0.50000000  1
  Li  Li2  1  0.25000000  0.25000000  0.25000000  1
  Ni  Ni3  1  0.75000000  0.25000000  0.00000000  1
  Ni  Ni4  1  0.25000000  0.75000000  0.50000000  1
  Ti  Ti5  1  0.94914945  0.99927368  0.03682178  1
  O  O6  1  0.11004506  0.68040391  0.20470906  1
  O  O7  1  0.89831553  0.95065988  0.74347053  1
  O  O8  1  0.61942971  0.19533828  0.94246953  1
  O  O9  1  0.47106690  0.17314749  0.25108350  1
  O  O10  1  0.11263071  0.46003636  0.55771774  1
