# generated using pymatgen
data_LiMn2(NiP)3
_symmetry_space_group_name_H-M   'P 1'
_cell_length_a   5.37714916
_cell_length_b   5.58446196
_cell_length_c   6.78075939
_cell_angle_alpha   94.25794444
_cell_angle_beta   94.64594811
_cell_angle_gamma   94.82726084
_symmetry_Int_Tables_number   1
_chemical_formula_structural   LiMn2(NiP)3
_chemical_formula_sum   'Li1 Mn2 Ni3 P3'
_cell_volume   201.55231203
_cell_formula_units_Z   1
loop_
 _symmetry_equiv_pos_site_id
 _symmetry_equiv_pos_as_xyz
  1  'x, y, z'
loop_
 _atom_site_type_symbol
 _atom_site_label
 _atom_site_symmetry_multiplicity
 _atom_site_fract_x
 _atom_site_fract_y
 _atom_site_fract_z
 _atom_site_occupancy
  Mn  Mn0  1  0.00000000  0.00000000  0.00000000  1
  Mn  Mn1  1  0.33300000  0.66700000  0.25000000  1
  P  P2  1  0.66700000  0.33300000  0.50000000  1
  P  P3  1  0.00000000  0.00000000  0.75000000  1
  P  P4  1  0.10054864  0.49333058  0.01835113  1
  Li  Li5  1  0.63332127  0.87520761  0.75873804  1
  Ni  Ni6  1  0.28064234  0.25657211  0.41138533  1
  Ni  Ni7  1  0.97162475  0.53339453  0.65039104  1
  Ni  Ni8  1  0.83780090  0.21176451  0.26351079  1
