# generated using pymatgen
data_Li2Cu2As6P5
_symmetry_space_group_name_H-M   'P 1'
_cell_length_a   7.54437671
_cell_length_b   7.59995762
_cell_length_c   7.94305685
_cell_angle_alpha   90.42262930
_cell_angle_beta   92.01074187
_cell_angle_gamma   90.48317814
_symmetry_Int_Tables_number   1
_chemical_formula_structural   Li2Cu2As6P5
_chemical_formula_sum   'Li2 Cu2 As6 P5'
_cell_volume   455.12057911
_cell_formula_units_Z   1
loop_
 _symmetry_equiv_pos_site_id
 _symmetry_equiv_pos_as_xyz
  1  'x, y, z'
loop_
 _atom_site_type_symbol
 _atom_site_label
 _atom_site_symmetry_multiplicity
 _atom_site_fract_x
 _atom_site_fract_y
 _atom_site_fract_z
 _atom_site_occupancy
  P  P0  1  0.00000000  0.00000000  0.00000000  1
  P  P1  1  0.50000000  0.50000000  0.50000000  1
  P  P2  1  0.25000000  0.25000000  0.25000000  1
  P  P3  1  0.75000000  0.25000000  0.00000000  1
  P  P4  1  0.25000000  0.75000000  0.50000000  1
  Li  Li5  1  0.44050250  0.88237495  0.58036241  1
  Li  Li6  1  0.31289025  0.94168908  0.51412600  1
  Cu  Cu7  1  0.90075572  0.78705240  0.12644135  1
  Cu  Cu8  1  0.37385309  0.17453556  0.54607824  1
  As  As9  1  0.83189484  0.73582924  0.65017796  1
  As  As10  1  0.45453543  0.28762481  0.27531752  1
  As  As11  1  0.69204818  0.03777124  0.76117501  1
  As  As12  1  0.70564134  0.94048829  0.54571469  1
  As  As13  1  0.72293945  0.90374258  0.60429425  1
  As  As14  1  0.46773727  0.58236624  0.96601414  1
