# generated using pymatgen
data_LiTiCu2(OF)2
_symmetry_space_group_name_H-M   'P 1'
_cell_length_a   5.81575389
_cell_length_b   5.91868421
_cell_length_c   6.99286494
_cell_angle_alpha   95.64975641
_cell_angle_beta   99.62885007
_cell_angle_gamma   96.90634671
_symmetry_Int_Tables_number   1
_chemical_formula_structural   LiTiCu2(OF)2
_chemical_formula_sum   'Li1 Ti1 Cu2 O2 F2'
_cell_volume   233.85780437
_cell_formula_units_Z   1
loop_
 _symmetry_equiv_pos_site_id
 _symmetry_equiv_pos_as_xyz
  1  'x, y, z'
loop_
 _atom_site_type_symbol
 _atom_site_label
 _atom_site_symmetry_multiplicity
 _atom_site_fract_x
 _atom_site_fract_y
 _atom_site_fract_z
 _atom_site_occupancy
  Li  Li0  1  0.00000000  0.00000000  0.00000000  1
  Cu  Cu1  1  0.50000000  0.50000000  0.50000000  1
  Cu  Cu2  1  0.50000000  0.50000000  0.00000000  1
  F  F3  1  0.50000000  0.00000000  0.50000000  1
  F  F4  1  0.00000000  0.50000000  0.50000000  1
  Ti  Ti5  1  0.65288631  0.89713556  0.95098705  1
  O  O6  1  0.28929333  0.00358862  0.22529320  1
  O  O7  1  0.16096481  0.27005165  0.24574083  1
