# generated using pymatgen
data_LiZn2ClO4F3
_symmetry_space_group_name_H-M   'P 1'
_cell_length_a   6.49246799
_cell_length_b   6.14775962
_cell_length_c   7.32315191
_cell_angle_alpha   91.06347626
_cell_angle_beta   95.05969707
_cell_angle_gamma   91.21583734
_symmetry_Int_Tables_number   1
_chemical_formula_structural   LiZn2ClO4F3
_chemical_formula_sum   'Li1 Zn2 Cl1 O4 F3'
_cell_volume   291.03145533
_cell_formula_units_Z   1
loop_
 _symmetry_equiv_pos_site_id
 _symmetry_equiv_pos_as_xyz
  1  'x, y, z'
loop_
 _atom_site_type_symbol
 _atom_site_label
 _atom_site_symmetry_multiplicity
 _atom_site_fract_x
 _atom_site_fract_y
 _atom_site_fract_z
 _atom_site_occupancy
  Li  Li0  1  0.12500000  0.00000000  0.25000000  1
  Zn  Zn1  1  0.00000000  0.00000000  0.00000000  1
  Zn  Zn2  1  0.37500000  0.00000000  0.25000000  1
  F  F3  1  0.25000000  0.25000000  0.25000000  1
  F  F4  1  0.00000000  0.25000000  0.12500000  1
  F  F5  1  0.31427812  0.71481201  0.54856215  1
  Cl  Cl6  1  0.62225884  0.29699348  0.36649719  1
  O  O7  1  0.77420847  0.02291584  0.56434805  1
  O  O8  1  0.15672072  0.82128149  0.05622550  1
  O  O9  1  0.65100197  0.90982240  0.35472949  1
  O  O10  1  0.58150147  0.00726144  0.66853860  1
