# generated using pymatgen
data_LiCuP3F
_symmetry_space_group_name_H-M   'P 1'
_cell_length_a   7.11730141
_cell_length_b   6.94247881
_cell_length_c   7.92001317
_cell_angle_alpha   93.19689665
_cell_angle_beta   95.24522166
_cell_angle_gamma   93.02626182
_symmetry_Int_Tables_number   1
_chemical_formula_structural   LiCuP3F
_chemical_formula_sum   'Li2 Cu2 P6 F2'
_cell_volume   388.43611832
_cell_formula_units_Z   2
loop_
 _symmetry_equiv_pos_site_id
 _symmetry_equiv_pos_as_xyz
  1  'x, y, z'
loop_
 _atom_site_type_symbol
 _atom_site_label
 _atom_site_symmetry_multiplicity
 _atom_site_fract_x
 _atom_site_fract_y
 _atom_site_fract_z
 _atom_site_occupancy
  P  P0  1  0.00000000  0.00000000  0.00000000  1
  P  P1  1  0.50000000  0.50000000  0.50000000  1
  P  P2  1  0.25000000  0.25000000  0.25000000  1
  P  P3  1  0.75000000  0.25000000  0.00000000  1
  P  P4  1  0.25000000  0.75000000  0.50000000  1
  P  P5  1  0.50088947  0.46849420  0.68531999  1
  Li  Li6  1  0.54478322  0.63028231  0.23444750  1
  Li  Li7  1  0.82982263  0.32026864  0.51443563  1
  Cu  Cu8  1  0.81336500  0.93929335  0.66934456  1
  Cu  Cu9  1  0.58396598  0.22096416  0.58959826  1
  F  F10  1  0.53397228  0.10095471  0.13643025  1
  F  F11  1  0.54961818  0.06253164  0.02860768  1
