# generated using pymatgen
data_Li3Ti2SeF2
_symmetry_space_group_name_H-M   'P 1'
_cell_length_a   7.11954341
_cell_length_b   6.79566996
_cell_length_c   7.53430233
_cell_angle_alpha   95.65834602
_cell_angle_beta   97.72047434
_cell_angle_gamma   95.33197472
_symmetry_Int_Tables_number   1
_chemical_formula_structural   Li3Ti2SeF2
_chemical_formula_sum   'Li3 Ti2 Se1 F2'
_cell_volume   357.37119080
_cell_formula_units_Z   1
loop_
 _symmetry_equiv_pos_site_id
 _symmetry_equiv_pos_as_xyz
  1  'x, y, z'
loop_
 _atom_site_type_symbol
 _atom_site_label
 _atom_site_symmetry_multiplicity
 _atom_site_fract_x
 _atom_site_fract_y
 _atom_site_fract_z
 _atom_site_occupancy
  Li  Li0  1  0.12500000  0.00000000  0.25000000  1
  Li  Li1  1  0.00000000  0.00000000  0.00000000  1
  Li  Li2  1  0.37500000  0.00000000  0.25000000  1
  Se  Se3  1  0.25000000  0.25000000  0.25000000  1
  F  F4  1  0.00000000  0.25000000  0.12500000  1
  F  F5  1  0.94936593  0.67766939  0.24650070  1
  Ti  Ti6  1  0.41136867  0.43001923  0.60871634  1
  Ti  Ti7  1  0.82941710  0.60847186  0.29122441  1
