# generated using pymatgen
data_Li3LuTi(NiO2)2
_symmetry_space_group_name_H-M   'P 1'
_cell_length_a   8.35869501
_cell_length_b   8.20376323
_cell_length_c   7.72426942
_cell_angle_alpha   90.70374643
_cell_angle_beta   90.53715082
_cell_angle_gamma   90.81517305
_symmetry_Int_Tables_number   1
_chemical_formula_structural   Li3LuTi(NiO2)2
_chemical_formula_sum   'Li3 Lu1 Ti1 Ni2 O4'
_cell_volume   529.55671813
_cell_formula_units_Z   1
loop_
 _symmetry_equiv_pos_site_id
 _symmetry_equiv_pos_as_xyz
  1  'x, y, z'
loop_
 _atom_site_type_symbol
 _atom_site_label
 _atom_site_symmetry_multiplicity
 _atom_site_fract_x
 _atom_site_fract_y
 _atom_site_fract_z
 _atom_site_occupancy
  Lu  Lu0  1  0.00000000  0.00000000  0.00000000  1
  Li  Li1  1  0.50000000  0.50000000  0.50000000  1
  Li  Li2  1  0.25000000  0.25000000  0.25000000  1
  Li  Li3  1  0.75000000  0.25000000  0.00000000  1
  Ni  Ni4  1  0.25000000  0.75000000  0.50000000  1
  Ni  Ni5  1  0.92771364  0.59874287  0.83601923  1
  Ti  Ti6  1  0.32074153  0.93881743  0.41505060  1
  O  O7  1  0.79173136  0.46591935  0.72058591  1
  O  O8  1  0.27960744  0.49025187  0.26099419  1
  O  O9  1  0.67105969  0.37587993  0.52185770  1
  O  O10  1  0.91090834  0.15583550  0.02739300  1
