# generated using pymatgen
data_LiMn3Sb4P4O
_symmetry_space_group_name_H-M   'P 1'
_cell_length_a   7.70216629
_cell_length_b   8.53215937
_cell_length_c   7.43568405
_cell_angle_alpha   90.00000000
_cell_angle_beta   90.00000000
_cell_angle_gamma   90.00000000
_symmetry_Int_Tables_number   1
_chemical_formula_structural   LiMn3Sb4P4O
_chemical_formula_sum   'Li1 Mn3 Sb4 P4 O1'
_cell_volume   488.64423257
_cell_formula_units_Z   1
loop_
 _symmetry_equiv_pos_site_id
 _symmetry_equiv_pos_as_xyz
  1  'x, y, z'
loop_
 _atom_site_type_symbol
 _atom_site_label
 _atom_site_symmetry_multiplicity
 _atom_site_fract_x
 _atom_site_fract_y
 _atom_site_fract_z
 _atom_site_occupancy
  O  O0  1  0.12500000  0.00000000  0.25000000  1
  Mn  Mn1  1  0.00000000  0.00000000  0.00000000  1
  Mn  Mn2  1  0.37500000  0.00000000  0.25000000  1
  Mn  Mn3  1  0.25000000  0.25000000  0.25000000  1
  Sb  Sb4  1  0.00000000  0.25000000  0.12500000  1
  Sb  Sb5  1  0.67263436  0.79363322  0.68169125  1
  Sb  Sb6  1  0.55331876  0.57700611  0.77385937  1
  Sb  Sb7  1  0.95942847  0.80694170  0.91754833  1
  P  P8  1  0.44493657  0.03846137  0.46380516  1
  P  P9  1  0.57061731  0.10512138  0.58750696  1
  P  P10  1  0.93897794  0.36096171  0.87365631  1
  P  P11  1  0.58617181  0.09012033  0.72829557  1
  Li  Li12  1  0.37891040  0.07414875  0.71659114  1
