# generated using pymatgen
data_Li3LuCu2(NiO2)2
_symmetry_space_group_name_H-M   'P 1'
_cell_length_a   7.98096834
_cell_length_b   7.79186012
_cell_length_c   8.01830778
_cell_angle_alpha   91.08063565
_cell_angle_beta   90.91709895
_cell_angle_gamma   91.25138840
_symmetry_Int_Tables_number   1
_chemical_formula_structural   Li3LuCu2(NiO2)2
_chemical_formula_sum   'Li3 Lu1 Cu2 Ni2 O4'
_cell_volume   498.35638947
_cell_formula_units_Z   1
loop_
 _symmetry_equiv_pos_site_id
 _symmetry_equiv_pos_as_xyz
  1  'x, y, z'
loop_
 _atom_site_type_symbol
 _atom_site_label
 _atom_site_symmetry_multiplicity
 _atom_site_fract_x
 _atom_site_fract_y
 _atom_site_fract_z
 _atom_site_occupancy
  Lu  Lu0  1  0.00000000  0.00000000  0.00000000  1
  Li  Li1  1  0.50000000  0.50000000  0.50000000  1
  Li  Li2  1  0.50000000  0.50000000  0.00000000  1
  Li  Li3  1  0.50000000  0.00000000  0.50000000  1
  Cu  Cu4  1  0.00000000  0.50000000  0.50000000  1
  Cu  Cu5  1  0.23817389  0.94859689  0.55406884  1
  Ni  Ni6  1  0.61518771  0.23087242  0.20539162  1
  Ni  Ni7  1  0.62607496  0.70704175  0.24416395  1
  O  O8  1  0.05407032  0.78293247  0.03345431  1
  O  O9  1  0.86995294  0.40569268  0.93220832  1
  O  O10  1  0.97616326  0.36210696  0.00744881  1
  O  O11  1  0.26448107  0.00773847  0.27405925  1
