# generated using pymatgen
data_Li3Ni2As6N5
_symmetry_space_group_name_H-M   'P 1'
_cell_length_a   8.24128703
_cell_length_b   8.05639414
_cell_length_c   9.07022698
_cell_angle_alpha   90.67869456
_cell_angle_beta   90.23994703
_cell_angle_gamma   90.78720353
_symmetry_Int_Tables_number   1
_chemical_formula_structural   Li3Ni2As6N5
_chemical_formula_sum   'Li3 Ni2 As6 N5'
_cell_volume   602.11344790
_cell_formula_units_Z   1
loop_
 _symmetry_equiv_pos_site_id
 _symmetry_equiv_pos_as_xyz
  1  'x, y, z'
loop_
 _atom_site_type_symbol
 _atom_site_label
 _atom_site_symmetry_multiplicity
 _atom_site_fract_x
 _atom_site_fract_y
 _atom_site_fract_z
 _atom_site_occupancy
  Li  Li0  1  0.00000000  0.00000000  0.00000000  1
  Li  Li1  1  0.50000000  0.50000000  0.50000000  1
  Li  Li2  1  0.25000000  0.25000000  0.25000000  1
  Ni  Ni3  1  0.75000000  0.25000000  0.00000000  1
  Ni  Ni4  1  0.25000000  0.75000000  0.50000000  1
  As  As5  1  0.54328393  0.49040252  0.23647145  1
  As  As6  1  0.71759209  0.92931976  0.63404361  1
  As  As7  1  0.70122088  0.53026599  0.76582677  1
  As  As8  1  0.49966428  0.23750144  0.37300416  1
  As  As9  1  0.78384235  0.31102337  0.83392043  1
  As  As10  1  0.81990555  0.16695473  0.22330686  1
  N  N11  1  0.26268592  0.56043251  0.02387816  1
  N  N12  1  0.81458577  0.39085894  0.92859624  1
  N  N13  1  0.75788489  0.21720739  0.81668500  1
  N  N14  1  0.69054014  0.98188946  0.89305982  1
  N  N15  1  0.54949831  0.00352871  0.35179795  1
