# generated using pymatgen
data_LiCuAs3P2
_symmetry_space_group_name_H-M   'P 1'
_cell_length_a   7.21600054
_cell_length_b   7.25366235
_cell_length_c   7.90927402
_cell_angle_alpha   90.91357704
_cell_angle_beta   92.61911466
_cell_angle_gamma   90.74762285
_symmetry_Int_Tables_number   1
_chemical_formula_structural   LiCuAs3P2
_chemical_formula_sum   'Li2 Cu2 As6 P4'
_cell_volume   413.46626450
_cell_formula_units_Z   2
loop_
 _symmetry_equiv_pos_site_id
 _symmetry_equiv_pos_as_xyz
  1  'x, y, z'
loop_
 _atom_site_type_symbol
 _atom_site_label
 _atom_site_symmetry_multiplicity
 _atom_site_fract_x
 _atom_site_fract_y
 _atom_site_fract_z
 _atom_site_occupancy
  P  P0  1  0.12500000  0.12500000  0.12500000  1
  P  P1  1  0.50000000  0.50000000  0.50000000  1
  P  P2  1  0.25000000  0.25000000  0.25000000  1
  P  P3  1  0.75000000  0.75000000  0.75000000  1
  Li  Li4  1  0.20816074  0.76381514  0.37420533  1
  Li  Li5  1  0.81522032  0.54809632  0.84201687  1
  Cu  Cu6  1  0.87402292  0.26319607  0.03927584  1
  Cu  Cu7  1  0.70380966  0.55885252  0.71126304  1
  As  As8  1  0.81540930  0.19791372  0.02194268  1
  As  As9  1  0.04753024  0.41036855  0.24776113  1
  As  As10  1  0.03255614  0.33812051  0.43012764  1
  As  As11  1  0.21359619  0.90021868  0.31030471  1
  As  As12  1  0.24787408  0.46565682  0.28564422  1
  As  As13  1  0.60143248  0.18006664  0.12409390  1
