# generated using pymatgen
data_Li2TiCuP4S
_symmetry_space_group_name_H-M   'P 1'
_cell_length_a   4.49757017
_cell_length_b   4.33908163
_cell_length_c   7.05722810
_cell_angle_alpha   102.34077222
_cell_angle_beta   104.52499262
_cell_angle_gamma   102.27344128
_symmetry_Int_Tables_number   1
_chemical_formula_structural   Li2TiCuP4S
_chemical_formula_sum   'Li4 Ti2 Cu2 P8 S2'
_cell_volume   124.97585967
_cell_formula_units_Z   2
loop_
 _symmetry_equiv_pos_site_id
 _symmetry_equiv_pos_as_xyz
  1  'x, y, z'
loop_
 _atom_site_type_symbol
 _atom_site_label
 _atom_site_symmetry_multiplicity
 _atom_site_fract_x
 _atom_site_fract_y
 _atom_site_fract_z
 _atom_site_occupancy
  S  S0  1  0.00000000  0.00000000  0.00000000  1
  S  S1  1  0.50000000  0.50000000  0.50000000  1
  Ti  Ti2  1  0.50000000  0.50000000  0.00000000  1
  Ti  Ti3  1  0.50000000  0.00000000  0.50000000  1
  P  P4  1  0.00000000  0.50000000  0.50000000  1
  P  P5  1  0.54803665  0.02480623  0.68419894  1
  P  P6  1  0.99544620  0.98236354  0.25243543  1
  P  P7  1  0.76885928  0.72708202  0.05489550  1
  P  P8  1  0.29014375  0.76161812  0.36671524  1
  P  P9  1  0.26993412  0.31263225  0.65511762  1
  P  P10  1  0.58722464  0.16900230  0.45788285  1
  P  P11  1  0.95795155  0.83619541  0.72044694  1
  Li  Li12  1  0.34463562  0.31712419  0.06625911  1
  Li  Li13  1  0.41629736  0.30965095  0.81347078  1
  Li  Li14  1  0.13825133  0.14901592  0.75123188  1
  Li  Li15  1  0.68747383  0.03955089  0.71530988  1
  Cu  Cu16  1  0.35883539  0.25942307  0.58740659  1
  Cu  Cu17  1  0.05761255  0.28735799  0.02089793  1
