# generated using pymatgen
data_Li3LuCu2P4N5
_symmetry_space_group_name_H-M   'P 1'
_cell_length_a   7.11059632
_cell_length_b   6.93045530
_cell_length_c   7.96523819
_cell_angle_alpha   92.02081385
_cell_angle_beta   91.55166373
_cell_angle_gamma   91.88898511
_symmetry_Int_Tables_number   1
_chemical_formula_structural   Li3LuCu2P4N5
_chemical_formula_sum   'Li3 Lu1 Cu2 P4 N5'
_cell_volume   391.91027502
_cell_formula_units_Z   1
loop_
 _symmetry_equiv_pos_site_id
 _symmetry_equiv_pos_as_xyz
  1  'x, y, z'
loop_
 _atom_site_type_symbol
 _atom_site_label
 _atom_site_symmetry_multiplicity
 _atom_site_fract_x
 _atom_site_fract_y
 _atom_site_fract_z
 _atom_site_occupancy
  P  P0  1  0.00000000  0.00000000  0.00000000  1
  P  P1  1  0.50000000  0.50000000  0.50000000  1
  P  P2  1  0.50000000  0.50000000  0.00000000  1
  P  P3  1  0.50000000  0.00000000  0.50000000  1
  Lu  Lu4  1  0.00000000  0.50000000  0.50000000  1
  Li  Li5  1  0.64793416  0.86043103  0.84046066  1
  Li  Li6  1  0.87687296  0.91358119  0.86034537  1
  Li  Li7  1  0.55258431  0.14091354  0.06118515  1
  Cu  Cu8  1  0.50353761  0.23504299  0.34551056  1
  Cu  Cu9  1  0.73991718  0.19755158  0.39145075  1
  N  N10  1  0.13403102  0.73892159  0.15670762  1
  N  N11  1  0.17720262  0.06675160  0.83928437  1
  N  N12  1  0.43480561  0.45875203  0.70942907  1
  N  N13  1  0.01232137  0.78026376  0.69194411  1
  N  N14  1  0.63596340  0.24605772  0.87079743  1
