# generated using pymatgen
data_Li2MnP3N
_symmetry_space_group_name_H-M   'P 1'
_cell_length_a   5.25529183
_cell_length_b   5.31702040
_cell_length_c   6.63459303
_cell_angle_alpha   98.49110438
_cell_angle_beta   95.72566368
_cell_angle_gamma   98.46807511
_symmetry_Int_Tables_number   1
_chemical_formula_structural   Li2MnP3N
_chemical_formula_sum   'Li2 Mn1 P3 N1'
_cell_volume   179.95166187
_cell_formula_units_Z   1
loop_
 _symmetry_equiv_pos_site_id
 _symmetry_equiv_pos_as_xyz
  1  'x, y, z'
loop_
 _atom_site_type_symbol
 _atom_site_label
 _atom_site_symmetry_multiplicity
 _atom_site_fract_x
 _atom_site_fract_y
 _atom_site_fract_z
 _atom_site_occupancy
  Mn  Mn0  1  0.00000000  0.00000000  0.00000000  1
  P  P1  1  0.50000000  0.50000000  0.50000000  1
  P  P2  1  0.25000000  0.25000000  0.25000000  1
  P  P3  1  0.75000000  0.25000000  0.00000000  1
  Li  Li4  1  0.25000000  0.75000000  0.50000000  1
  Li  Li5  1  0.13723524  0.10737491  0.61748213  1
  N  N6  1  0.20944615  0.31846521  0.99122759  1
