# generated using pymatgen
data_LiMn3Sb4Mo2P3
_symmetry_space_group_name_H-M   'P 1'
_cell_length_a   6.62683048
_cell_length_b   7.09487508
_cell_length_c   6.89383122
_cell_angle_alpha   92.88296311
_cell_angle_beta   89.69889118
_cell_angle_gamma   92.61940075
_symmetry_Int_Tables_number   1
_chemical_formula_structural   LiMn3Sb4Mo2P3
_chemical_formula_sum   'Li1 Mn3 Sb4 Mo2 P3'
_cell_volume   323.37417566
_cell_formula_units_Z   1
loop_
 _symmetry_equiv_pos_site_id
 _symmetry_equiv_pos_as_xyz
  1  'x, y, z'
loop_
 _atom_site_type_symbol
 _atom_site_label
 _atom_site_symmetry_multiplicity
 _atom_site_fract_x
 _atom_site_fract_y
 _atom_site_fract_z
 _atom_site_occupancy
  Mn  Mn0  1  0.12500000  0.00000000  0.25000000  1
  Mn  Mn1  1  0.00000000  0.00000000  0.00000000  1
  Mn  Mn2  1  0.37500000  0.00000000  0.25000000  1
  Sb  Sb3  1  0.25000000  0.25000000  0.25000000  1
  Sb  Sb4  1  0.00000000  0.25000000  0.12500000  1
  Sb  Sb5  1  0.24957279  0.47644534  0.06318663  1
  Sb  Sb6  1  0.63351320  0.95091988  0.07493613  1
  P  P7  1  0.21753196  0.85992365  0.47703500  1
  P  P8  1  0.61581776  0.49114565  0.20970283  1
  P  P9  1  0.76448023  0.01735069  0.06617534  1
  Mo  Mo10  1  0.21875605  0.79647447  0.34457048  1
  Mo  Mo11  1  0.74579533  0.80215418  0.97864026  1
  Li  Li12  1  0.16450620  0.53463915  0.63809268  1
