# generated using pymatgen
data_LiTiS3N5F2
_symmetry_space_group_name_H-M   'P 1'
_cell_length_a   6.54020807
_cell_length_b   6.45580953
_cell_length_c   7.54562534
_cell_angle_alpha   91.70773636
_cell_angle_beta   95.46859512
_cell_angle_gamma   91.96241788
_symmetry_Int_Tables_number   1
_chemical_formula_structural   LiTiS3N5F2
_chemical_formula_sum   'Li1 Ti1 S3 N5 F2'
_cell_volume   316.78278070
_cell_formula_units_Z   1
loop_
 _symmetry_equiv_pos_site_id
 _symmetry_equiv_pos_as_xyz
  1  'x, y, z'
loop_
 _atom_site_type_symbol
 _atom_site_label
 _atom_site_symmetry_multiplicity
 _atom_site_fract_x
 _atom_site_fract_y
 _atom_site_fract_z
 _atom_site_occupancy
  Li  Li0  1  0.12500000  0.00000000  0.25000000  1
  F  F1  1  0.00000000  0.00000000  0.00000000  1
  F  F2  1  0.37500000  0.00000000  0.25000000  1
  S  S3  1  0.25000000  0.25000000  0.25000000  1
  S  S4  1  0.00000000  0.25000000  0.12500000  1
  S  S5  1  0.91904874  0.94547942  0.58302309  1
  Ti  Ti6  1  0.28976039  0.42783013  0.44460956  1
  N  N7  1  0.65065600  0.78655084  0.23153642  1
  N  N8  1  0.99647729  0.43404851  0.28059817  1
  N  N9  1  0.69395560  0.26638677  0.20053864  1
  N  N10  1  0.41361427  0.90180721  0.70645997  1
  N  N11  1  0.96718964  0.85719601  0.49452382  1
