# generated using pymatgen
data_Li2TiP4F2
_symmetry_space_group_name_H-M   'P 1'
_cell_length_a   6.88401862
_cell_length_b   6.63157604
_cell_length_c   7.21482117
_cell_angle_alpha   91.85162378
_cell_angle_beta   93.55610720
_cell_angle_gamma   91.47761067
_symmetry_Int_Tables_number   1
_chemical_formula_structural   Li2TiP4F2
_chemical_formula_sum   'Li2 Ti1 P4 F2'
_cell_volume   328.43688062
_cell_formula_units_Z   1
loop_
 _symmetry_equiv_pos_site_id
 _symmetry_equiv_pos_as_xyz
  1  'x, y, z'
loop_
 _atom_site_type_symbol
 _atom_site_label
 _atom_site_symmetry_multiplicity
 _atom_site_fract_x
 _atom_site_fract_y
 _atom_site_fract_z
 _atom_site_occupancy
  P  P0  1  0.12500000  0.00000000  0.25000000  1
  P  P1  1  0.00000000  0.00000000  0.00000000  1
  P  P2  1  0.37500000  0.00000000  0.25000000  1
  P  P3  1  0.25000000  0.25000000  0.25000000  1
  Li  Li4  1  0.00000000  0.25000000  0.12500000  1
  Li  Li5  1  0.10206216  0.56393085  0.05158116  1
  F  F6  1  0.06456955  0.22194823  0.69009154  1
  F  F7  1  0.76263868  0.33719256  0.75074148  1
  Ti  Ti8  1  0.90775905  0.90487822  0.55680302  1
