# generated using pymatgen
data_Li4Ni2As6O7
_symmetry_space_group_name_H-M   'P 1'
_cell_length_a   8.31382661
_cell_length_b   8.17082894
_cell_length_c   9.64881384
_cell_angle_alpha   90.00000000
_cell_angle_beta   90.00000000
_cell_angle_gamma   90.00000000
_symmetry_Int_Tables_number   1
_chemical_formula_structural   Li4Ni2As6O7
_chemical_formula_sum   'Li4 Ni2 As6 O7'
_cell_volume   655.45217486
_cell_formula_units_Z   1
loop_
 _symmetry_equiv_pos_site_id
 _symmetry_equiv_pos_as_xyz
  1  'x, y, z'
loop_
 _atom_site_type_symbol
 _atom_site_label
 _atom_site_symmetry_multiplicity
 _atom_site_fract_x
 _atom_site_fract_y
 _atom_site_fract_z
 _atom_site_occupancy
  Li  Li0  1  0.00000000  0.00000000  0.00000000  1
  Li  Li1  1  0.33300000  0.66700000  0.25000000  1
  Li  Li2  1  0.66700000  0.33300000  0.50000000  1
  Li  Li3  1  0.00000000  0.00000000  0.75000000  1
  Ni  Ni4  1  0.40209521  0.22171826  0.00667973  1
  Ni  Ni5  1  0.96635244  0.76653674  0.64245877  1
  As  As6  1  0.95568376  0.24569776  0.24416114  1
  As  As7  1  0.33627810  0.74343525  0.32942095  1
  As  As8  1  0.00847996  0.73889723  0.45399858  1
  As  As9  1  0.28690855  0.94079608  0.17773155  1
  As  As10  1  0.16221710  0.76331732  0.30136476  1
  As  As11  1  0.75409245  0.76864936  0.08025894  1
  O  O12  1  0.74688118  0.62837183  0.63096718  1
  O  O13  1  0.64798672  0.31231551  0.25716334  1
  O  O14  1  0.50991633  0.55797556  0.63562482  1
  O  O15  1  0.30801154  0.06110339  0.43591721  1
  O  O16  1  0.36742562  0.29255520  0.23616949  1
  O  O17  1  0.72905665  0.44403065  0.35930207  1
  O  O18  1  0.61215629  0.63685101  0.45519802  1
