# generated using pymatgen
data_LiMn(Sb2P)2
_symmetry_space_group_name_H-M   'P 1'
_cell_length_a   7.01402353
_cell_length_b   7.59522497
_cell_length_c   7.34558615
_cell_angle_alpha   91.60650137
_cell_angle_beta   91.32064297
_cell_angle_gamma   91.72636036
_symmetry_Int_Tables_number   1
_chemical_formula_structural   LiMn(Sb2P)2
_chemical_formula_sum   'Li1 Mn1 Sb4 P2'
_cell_volume   390.87888474
_cell_formula_units_Z   1
loop_
 _symmetry_equiv_pos_site_id
 _symmetry_equiv_pos_as_xyz
  1  'x, y, z'
loop_
 _atom_site_type_symbol
 _atom_site_label
 _atom_site_symmetry_multiplicity
 _atom_site_fract_x
 _atom_site_fract_y
 _atom_site_fract_z
 _atom_site_occupancy
  Mn  Mn0  1  0.00000000  0.00000000  0.00000000  1
  Sb  Sb1  1  0.33300000  0.66700000  0.25000000  1
  Sb  Sb2  1  0.66700000  0.33300000  0.50000000  1
  Sb  Sb3  1  0.00000000  0.00000000  0.75000000  1
  Sb  Sb4  1  0.81022744  0.25103172  0.52311249  1
  P  P5  1  0.99711971  0.23954397  0.36918611  1
  P  P6  1  0.92541323  0.89462686  0.19929490  1
  Li  Li7  1  0.21417949  0.58452268  0.86375855  1
