# generated using pymatgen
data_Li2Mn2Sb4P3
_symmetry_space_group_name_H-M   'P 1'
_cell_length_a   6.10815942
_cell_length_b   6.57360684
_cell_length_c   6.88940183
_cell_angle_alpha   96.31284765
_cell_angle_beta   91.19217404
_cell_angle_gamma   96.30939207
_symmetry_Int_Tables_number   1
_chemical_formula_structural   Li2Mn2Sb4P3
_chemical_formula_sum   'Li2 Mn2 Sb4 P3'
_cell_volume   273.13340262
_cell_formula_units_Z   1
loop_
 _symmetry_equiv_pos_site_id
 _symmetry_equiv_pos_as_xyz
  1  'x, y, z'
loop_
 _atom_site_type_symbol
 _atom_site_label
 _atom_site_symmetry_multiplicity
 _atom_site_fract_x
 _atom_site_fract_y
 _atom_site_fract_z
 _atom_site_occupancy
  Mn  Mn0  1  0.12500000  0.12500000  0.12500000  1
  Mn  Mn1  1  0.50000000  0.50000000  0.50000000  1
  Sb  Sb2  1  0.25000000  0.25000000  0.25000000  1
  Sb  Sb3  1  0.75000000  0.75000000  0.75000000  1
  Sb  Sb4  1  0.92749861  0.08089726  0.27448384  1
  Sb  Sb5  1  0.51550209  0.30434561  0.35946972  1
  P  P6  1  0.47031948  0.47948870  0.30078439  1
  P  P7  1  0.69390760  0.28118760  0.67625003  1
  P  P8  1  0.45855151  0.31232410  0.71470876  1
  Li  Li9  1  0.72949145  0.45735778  0.95475676  1
  Li  Li10  1  0.64990744  0.67371011  0.87837088  1
