# generated using pymatgen
data_Li2P3
_symmetry_space_group_name_H-M   'P 1'
_cell_length_a   5.00442995
_cell_length_b   5.19522906
_cell_length_c   6.15832002
_cell_angle_alpha   97.67745360
_cell_angle_beta   95.35297063
_cell_angle_gamma   96.47339475
_symmetry_Int_Tables_number   1
_chemical_formula_structural   Li2P3
_chemical_formula_sum   'Li2 P3'
_cell_volume   156.70684268
_cell_formula_units_Z   1
loop_
 _symmetry_equiv_pos_site_id
 _symmetry_equiv_pos_as_xyz
  1  'x, y, z'
loop_
 _atom_site_type_symbol
 _atom_site_label
 _atom_site_symmetry_multiplicity
 _atom_site_fract_x
 _atom_site_fract_y
 _atom_site_fract_z
 _atom_site_occupancy
  P  P0  1  0.00000000  0.00000000  0.00000000  1
  P  P1  1  0.50000000  0.50000000  0.50000000  1
  P  P2  1  0.25000000  0.25000000  0.25000000  1
  Li  Li3  1  0.75000000  0.25000000  0.00000000  1
  Li  Li4  1  0.25000000  0.75000000  0.50000000  1
