# generated using pymatgen
data_Li2TiCu2(PN)5
_symmetry_space_group_name_H-M   'P 1'
_cell_length_a   6.22550864
_cell_length_b   6.09917039
_cell_length_c   7.26599626
_cell_angle_alpha   95.48990610
_cell_angle_beta   97.54152992
_cell_angle_gamma   96.19889162
_symmetry_Int_Tables_number   1
_chemical_formula_structural   Li2TiCu2(PN)5
_chemical_formula_sum   'Li2 Ti1 Cu2 P5 N5'
_cell_volume   270.21336259
_cell_formula_units_Z   1
loop_
 _symmetry_equiv_pos_site_id
 _symmetry_equiv_pos_as_xyz
  1  'x, y, z'
loop_
 _atom_site_type_symbol
 _atom_site_label
 _atom_site_symmetry_multiplicity
 _atom_site_fract_x
 _atom_site_fract_y
 _atom_site_fract_z
 _atom_site_occupancy
  P  P0  1  0.12500000  0.00000000  0.25000000  1
  P  P1  1  0.00000000  0.00000000  0.00000000  1
  P  P2  1  0.37500000  0.00000000  0.25000000  1
  P  P3  1  0.25000000  0.25000000  0.25000000  1
  P  P4  1  0.00000000  0.25000000  0.12500000  1
  Li  Li5  1  0.58893237  0.94760291  0.18264456  1
  Li  Li6  1  0.99481901  0.45490880  0.59425957  1
  Cu  Cu7  1  0.30612565  0.96028950  0.15209279  1
  Cu  Cu8  1  0.51071268  0.96896981  0.12490405  1
  Ti  Ti9  1  0.66209187  0.15674777  0.71057638  1
  N  N10  1  0.36251617  0.62533693  0.33347778  1
  N  N11  1  0.67012991  0.93885548  0.56104582  1
  N  N12  1  0.25387067  0.92627877  0.67714076  1
  N  N13  1  0.55918502  0.54134798  0.06811095  1
  N  N14  1  0.28197255  0.46955335  0.99202950  1
