# generated using pymatgen
data_Li4LuNi2P4N5
_symmetry_space_group_name_H-M   'P 1'
_cell_length_a   7.43249497
_cell_length_b   7.05219556
_cell_length_c   8.86811598
_cell_angle_alpha   93.49759716
_cell_angle_beta   91.23654746
_cell_angle_gamma   94.05678930
_symmetry_Int_Tables_number   1
_chemical_formula_structural   Li4LuNi2P4N5
_chemical_formula_sum   'Li4 Lu1 Ni2 P4 N5'
_cell_volume   462.64105756
_cell_formula_units_Z   1
loop_
 _symmetry_equiv_pos_site_id
 _symmetry_equiv_pos_as_xyz
  1  'x, y, z'
loop_
 _atom_site_type_symbol
 _atom_site_label
 _atom_site_symmetry_multiplicity
 _atom_site_fract_x
 _atom_site_fract_y
 _atom_site_fract_z
 _atom_site_occupancy
  P  P0  1  0.00000000  0.00000000  0.00000000  1
  P  P1  1  0.50000000  0.50000000  0.50000000  1
  P  P2  1  0.50000000  0.50000000  0.00000000  1
  P  P3  1  0.50000000  0.00000000  0.50000000  1
  Lu  Lu4  1  0.00000000  0.50000000  0.50000000  1
  Li  Li5  1  0.97416928  0.82862233  0.76059210  1
  Li  Li6  1  0.82351133  0.60271530  0.62745327  1
  Li  Li7  1  0.28628305  0.28733645  0.65756898  1
  Li  Li8  1  0.23393171  0.97163293  0.56212732  1
  Ni  Ni9  1  0.85941218  0.42316751  0.43860761  1
  Ni  Ni10  1  0.04247927  0.98118582  0.38661481  1
  N  N11  1  0.12975721  0.46460345  0.41298916  1
  N  N12  1  0.48483253  0.80818517  0.66109955  1
  N  N13  1  0.65404977  0.93252198  0.82426039  1
  N  N14  1  0.08410162  0.25263553  0.44190543  1
  N  N15  1  0.20410400  0.68063800  0.70362450  1
