# generated using pymatgen
data_Li2Mn2Sb4P3
_symmetry_space_group_name_H-M   'P 1'
_cell_length_a   4.72384901
_cell_length_b   5.01308116
_cell_length_c   6.47389333
_cell_angle_alpha   101.02382179
_cell_angle_beta   94.02438365
_cell_angle_gamma   101.28831369
_symmetry_Int_Tables_number   1
_chemical_formula_structural   Li2Mn2Sb4P3
_chemical_formula_sum   'Li2 Mn2 Sb4 P3'
_cell_volume   146.64345084
_cell_formula_units_Z   1
loop_
 _symmetry_equiv_pos_site_id
 _symmetry_equiv_pos_as_xyz
  1  'x, y, z'
loop_
 _atom_site_type_symbol
 _atom_site_label
 _atom_site_symmetry_multiplicity
 _atom_site_fract_x
 _atom_site_fract_y
 _atom_site_fract_z
 _atom_site_occupancy
  Mn  Mn0  1  0.00000000  0.00000000  0.00000000  1
  Mn  Mn1  1  0.50000000  0.50000000  0.50000000  1
  Sb  Sb2  1  0.25000000  0.25000000  0.25000000  1
  Sb  Sb3  1  0.75000000  0.25000000  0.00000000  1
  Sb  Sb4  1  0.25000000  0.75000000  0.50000000  1
  Sb  Sb5  1  0.23789981  0.31111638  0.83463143  1
  P  P6  1  0.72016050  0.06305155  0.96625016  1
  P  P7  1  0.56127792  0.82863082  0.24754489  1
  P  P8  1  0.39323681  0.19996215  0.84718531  1
  Li  Li9  1  0.21680986  0.63384389  0.41962159  1
  Li  Li10  1  0.99323114  0.61071295  0.48959769  1
