# generated using pymatgen
data_LiTi(AsP)3
_symmetry_space_group_name_H-M   'P 1'
_cell_length_a   8.21466582
_cell_length_b   8.01034844
_cell_length_c   8.04782662
_cell_angle_alpha   90.24045031
_cell_angle_beta   91.14398956
_cell_angle_gamma   90.27489891
_symmetry_Int_Tables_number   1
_chemical_formula_structural   LiTi(AsP)3
_chemical_formula_sum   'Li2 Ti2 As6 P6'
_cell_volume   529.44925959
_cell_formula_units_Z   2
loop_
 _symmetry_equiv_pos_site_id
 _symmetry_equiv_pos_as_xyz
  1  'x, y, z'
loop_
 _atom_site_type_symbol
 _atom_site_label
 _atom_site_symmetry_multiplicity
 _atom_site_fract_x
 _atom_site_fract_y
 _atom_site_fract_z
 _atom_site_occupancy
  P  P0  1  0.00000000  0.00000000  0.00000000  1
  P  P1  1  0.50000000  0.50000000  0.50000000  1
  P  P2  1  0.25000000  0.25000000  0.25000000  1
  P  P3  1  0.75000000  0.25000000  0.00000000  1
  P  P4  1  0.25000000  0.75000000  0.50000000  1
  P  P5  1  0.47441302  0.07641556  0.71162039  1
  Li  Li6  1  0.17463107  0.68161046  0.85598803  1
  Li  Li7  1  0.93613304  0.47535687  0.09430018  1
  Ti  Ti8  1  0.04266008  0.30842692  0.88272224  1
  Ti  Ti9  1  0.64053851  0.05401919  0.03360106  1
  As  As10  1  0.55907410  0.04128756  0.24474170  1
  As  As11  1  0.38858822  0.68280252  0.69039817  1
  As  As12  1  0.93681780  0.80645971  0.36821351  1
  As  As13  1  0.17735504  0.88587918  0.68893306  1
  As  As14  1  0.82063038  0.81896380  0.88834506  1
  As  As15  1  0.02146498  0.10749605  0.75248365  1
