# generated using pymatgen
data_Li4I4O4F3
_symmetry_space_group_name_H-M   'P 1'
_cell_length_a   5.72623687
_cell_length_b   5.49145655
_cell_length_c   7.28681351
_cell_angle_alpha   102.22831192
_cell_angle_beta   105.70141846
_cell_angle_gamma   101.48686746
_symmetry_Int_Tables_number   1
_chemical_formula_structural   Li4I4O4F3
_chemical_formula_sum   'Li4 I4 O4 F3'
_cell_volume   207.41763332
_cell_formula_units_Z   1
loop_
 _symmetry_equiv_pos_site_id
 _symmetry_equiv_pos_as_xyz
  1  'x, y, z'
loop_
 _atom_site_type_symbol
 _atom_site_label
 _atom_site_symmetry_multiplicity
 _atom_site_fract_x
 _atom_site_fract_y
 _atom_site_fract_z
 _atom_site_occupancy
  I  I0  1  0.00000000  0.00000000  0.00000000  1
  I  I1  1  0.50000000  0.50000000  0.50000000  1
  I  I2  1  0.50000000  0.50000000  0.00000000  1
  I  I3  1  0.50000000  0.00000000  0.50000000  1
  Li  Li4  1  0.00000000  0.50000000  0.50000000  1
  Li  Li5  1  0.01321927  0.44374230  0.18845260  1
  Li  Li6  1  0.68699112  0.89480823  0.03303456  1
  Li  Li7  1  0.33319202  0.64503842  0.55618841  1
  F  F8  1  0.61467670  0.53099919  0.30042584  1
  F  F9  1  0.40371304  0.47378425  0.30465198  1
  F  F10  1  0.25907944  0.43380840  0.30172026  1
  O  O11  1  0.86447907  0.80856113  0.87836087  1
  O  O12  1  0.30804869  0.62667010  0.08838771  1
  O  O13  1  0.74039840  0.43813693  0.96854896  1
  O  O14  1  0.15353655  0.00086088  0.56295213  1
