# generated using pymatgen
data_Li3Ni2As6O5
_symmetry_space_group_name_H-M   'P 1'
_cell_length_a   8.10098069
_cell_length_b   7.94445022
_cell_length_c   8.65398451
_cell_angle_alpha   91.02393155
_cell_angle_beta   90.64916925
_cell_angle_gamma   91.18655349
_symmetry_Int_Tables_number   1
_chemical_formula_structural   Li3Ni2As6O5
_chemical_formula_sum   'Li3 Ni2 As6 O5'
_cell_volume   556.70525334
_cell_formula_units_Z   1
loop_
 _symmetry_equiv_pos_site_id
 _symmetry_equiv_pos_as_xyz
  1  'x, y, z'
loop_
 _atom_site_type_symbol
 _atom_site_label
 _atom_site_symmetry_multiplicity
 _atom_site_fract_x
 _atom_site_fract_y
 _atom_site_fract_z
 _atom_site_occupancy
  Li  Li0  1  0.12500000  0.00000000  0.25000000  1
  Li  Li1  1  0.00000000  0.00000000  0.00000000  1
  Li  Li2  1  0.37500000  0.00000000  0.25000000  1
  Ni  Ni3  1  0.25000000  0.25000000  0.25000000  1
  Ni  Ni4  1  0.00000000  0.25000000  0.12500000  1
  As  As5  1  0.53466933  0.82664673  0.89281754  1
  As  As6  1  0.66099998  0.97336699  0.34950873  1
  As  As7  1  0.49052027  0.08307912  0.46011386  1
  As  As8  1  0.78207326  0.24009131  0.07659804  1
  As  As9  1  0.33049067  0.61934483  0.36547805  1
  As  As10  1  0.21289160  0.13456035  0.75294072  1
  O  O11  1  0.75182966  0.44789510  0.37946778  1
  O  O12  1  0.94288895  0.84451704  0.52659772  1
  O  O13  1  0.67623723  0.79060018  0.22524609  1
  O  O14  1  0.46766030  0.75178278  0.20303512  1
  O  O15  1  0.82470333  0.80757775  0.55913935  1
