# generated using pymatgen
data_LiCuNiAs3P2
_symmetry_space_group_name_H-M   'P 1'
_cell_length_a   7.46420240
_cell_length_b   7.53819217
_cell_length_c   8.52369718
_cell_angle_alpha   91.11511022
_cell_angle_beta   92.07694457
_cell_angle_gamma   91.28704590
_symmetry_Int_Tables_number   1
_chemical_formula_structural   LiCuNiAs3P2
_chemical_formula_sum   'Li2 Cu2 Ni2 As6 P4'
_cell_volume   479.06472941
_cell_formula_units_Z   2
loop_
 _symmetry_equiv_pos_site_id
 _symmetry_equiv_pos_as_xyz
  1  'x, y, z'
loop_
 _atom_site_type_symbol
 _atom_site_label
 _atom_site_symmetry_multiplicity
 _atom_site_fract_x
 _atom_site_fract_y
 _atom_site_fract_z
 _atom_site_occupancy
  Ni  Ni0  1  0.00000000  0.00000000  0.00000000  1
  Ni  Ni1  1  0.50000000  0.50000000  0.50000000  1
  P  P2  1  0.25000000  0.25000000  0.25000000  1
  P  P3  1  0.75000000  0.25000000  0.00000000  1
  P  P4  1  0.25000000  0.75000000  0.50000000  1
  P  P5  1  0.33977862  0.87788191  0.49782862  1
  As  As6  1  0.47840519  0.44649759  0.20150235  1
  As  As7  1  0.22983643  0.10936477  0.64669894  1
  As  As8  1  0.56664648  0.62052383  0.49845104  1
  As  As9  1  0.96219850  0.83059917  0.41892907  1
  As  As10  1  0.45351853  0.64553397  0.52934452  1
  As  As11  1  0.48839603  0.77958335  0.22826228  1
  Li  Li12  1  0.30936082  0.32568834  0.65562138  1
  Li  Li13  1  0.24271672  0.34839811  0.63323553  1
  Cu  Cu14  1  0.33551452  0.67365289  0.96801648  1
  Cu  Cu15  1  0.39674714  0.54325239  0.46576509  1
