# generated using pymatgen
data_Li3Ti(SI2)2
_symmetry_space_group_name_H-M   'P 1'
_cell_length_a   7.10854636
_cell_length_b   6.56153553
_cell_length_c   7.69535942
_cell_angle_alpha   93.87513843
_cell_angle_beta   93.71311032
_cell_angle_gamma   93.67334400
_symmetry_Int_Tables_number   1
_chemical_formula_structural   Li3Ti(SI2)2
_chemical_formula_sum   'Li3 Ti1 S2 I4'
_cell_volume   356.51667001
_cell_formula_units_Z   1
loop_
 _symmetry_equiv_pos_site_id
 _symmetry_equiv_pos_as_xyz
  1  'x, y, z'
loop_
 _atom_site_type_symbol
 _atom_site_label
 _atom_site_symmetry_multiplicity
 _atom_site_fract_x
 _atom_site_fract_y
 _atom_site_fract_z
 _atom_site_occupancy
  S  S0  1  0.00000000  0.00000000  0.00000000  1
  S  S1  1  0.50000000  0.50000000  0.50000000  1
  Ti  Ti2  1  0.25000000  0.25000000  0.25000000  1
  I  I3  1  0.75000000  0.25000000  0.00000000  1
  I  I4  1  0.25000000  0.75000000  0.50000000  1
  I  I5  1  0.42622109  0.58616359  0.17829050  1
  I  I6  1  0.12245105  0.69232631  0.27631532  1
  Li  Li7  1  0.03156597  0.07910385  0.09031485  1
  Li  Li8  1  0.33652624  0.28396946  0.26214249  1
  Li  Li9  1  0.03225116  0.54925708  0.54072032  1
