# generated using pymatgen
data_Li3TiI4O3
_symmetry_space_group_name_H-M   'P 1'
_cell_length_a   7.13404032
_cell_length_b   6.93874858
_cell_length_c   7.05120329
_cell_angle_alpha   95.92461781
_cell_angle_beta   97.86206626
_cell_angle_gamma   95.56975793
_symmetry_Int_Tables_number   1
_chemical_formula_structural   Li3TiI4O3
_chemical_formula_sum   'Li3 Ti1 I4 O3'
_cell_volume   341.71969657
_cell_formula_units_Z   1
loop_
 _symmetry_equiv_pos_site_id
 _symmetry_equiv_pos_as_xyz
  1  'x, y, z'
loop_
 _atom_site_type_symbol
 _atom_site_label
 _atom_site_symmetry_multiplicity
 _atom_site_fract_x
 _atom_site_fract_y
 _atom_site_fract_z
 _atom_site_occupancy
  I  I0  1  0.12500000  0.12500000  0.12500000  1
  I  I1  1  0.50000000  0.50000000  0.50000000  1
  I  I2  1  0.25000000  0.25000000  0.25000000  1
  I  I3  1  0.75000000  0.75000000  0.75000000  1
  Li  Li4  1  0.89830363  0.83463172  0.48900168  1
  Li  Li5  1  0.13642205  0.42033901  0.59856700  1
  Li  Li6  1  0.39174895  0.50691704  0.57956486  1
  Ti  Ti7  1  0.14488808  0.67951740  0.06614184  1
  O  O8  1  0.45373899  0.73580154  0.71926489  1
  O  O9  1  0.81150869  0.08900770  0.11489679  1
  O  O10  1  0.49795338  0.92182976  0.51683932  1
