# generated using pymatgen
data_Li2Ti(As3I2)2
_symmetry_space_group_name_H-M   'P 1'
_cell_length_a   6.55044631
_cell_length_b   6.46955424
_cell_length_c   7.50293536
_cell_angle_alpha   96.30825470
_cell_angle_beta   98.98970039
_cell_angle_gamma   95.96704624
_symmetry_Int_Tables_number   1
_chemical_formula_structural   Li2Ti(As3I2)2
_chemical_formula_sum   'Li2 Ti1 As6 I4'
_cell_volume   309.77063042
_cell_formula_units_Z   1
loop_
 _symmetry_equiv_pos_site_id
 _symmetry_equiv_pos_as_xyz
  1  'x, y, z'
loop_
 _atom_site_type_symbol
 _atom_site_label
 _atom_site_symmetry_multiplicity
 _atom_site_fract_x
 _atom_site_fract_y
 _atom_site_fract_z
 _atom_site_occupancy
  Ti  Ti0  1  0.12500000  0.00000000  0.25000000  1
  I  I1  1  0.00000000  0.00000000  0.00000000  1
  I  I2  1  0.37500000  0.00000000  0.25000000  1
  I  I3  1  0.25000000  0.25000000  0.25000000  1
  I  I4  1  0.00000000  0.25000000  0.12500000  1
  As  As5  1  0.86101623  0.21965461  0.38148930  1
  As  As6  1  0.92914122  0.49261801  0.42832701  1
  As  As7  1  0.83920026  0.81183808  0.01160852  1
  As  As8  1  0.96395023  0.61864377  0.36799996  1
  As  As9  1  0.19354067  0.97338118  0.95695729  1
  As  As10  1  0.50541448  0.86021299  0.25044467  1
  Li  Li11  1  0.05912855  0.16224935  0.51751495  1
  Li  Li12  1  0.12016895  0.80123617  0.72445268  1
