# generated using pymatgen
data_LiMn2Sb4P2N
_symmetry_space_group_name_H-M   'P 1'
_cell_length_a   5.12126534
_cell_length_b   5.47510903
_cell_length_c   6.60360240
_cell_angle_alpha   98.49924540
_cell_angle_beta   94.74763918
_cell_angle_gamma   98.27245708
_symmetry_Int_Tables_number   1
_chemical_formula_structural   LiMn2Sb4P2N
_chemical_formula_sum   'Li1 Mn2 Sb4 P2 N1'
_cell_volume   180.19604237
_cell_formula_units_Z   1
loop_
 _symmetry_equiv_pos_site_id
 _symmetry_equiv_pos_as_xyz
  1  'x, y, z'
loop_
 _atom_site_type_symbol
 _atom_site_label
 _atom_site_symmetry_multiplicity
 _atom_site_fract_x
 _atom_site_fract_y
 _atom_site_fract_z
 _atom_site_occupancy
  N  N0  1  0.00000000  0.00000000  0.00000000  1
  Mn  Mn1  1  0.50000000  0.50000000  0.50000000  1
  Mn  Mn2  1  0.25000000  0.25000000  0.25000000  1
  Sb  Sb3  1  0.75000000  0.25000000  0.00000000  1
  Sb  Sb4  1  0.25000000  0.75000000  0.50000000  1
  Sb  Sb5  1  0.77036340  0.11585063  0.91637319  1
  Sb  Sb6  1  0.32488961  0.23625340  0.70020740  1
  P  P7  1  0.04713962  0.65024124  0.15995342  1
  P  P8  1  0.19941882  0.80172448  0.64932183  1
  Li  Li9  1  0.95240119  0.45096410  0.80663400  1
