# generated using pymatgen
data_Li2Ti2Cu2P4O
_symmetry_space_group_name_H-M   'P 1'
_cell_length_a   7.56800250
_cell_length_b   7.37813750
_cell_length_c   7.83164378
_cell_angle_alpha   91.31507609
_cell_angle_beta   91.54060271
_cell_angle_gamma   91.52127178
_symmetry_Int_Tables_number   1
_chemical_formula_structural   Li2Ti2Cu2P4O
_chemical_formula_sum   'Li2 Ti2 Cu2 P4 O1'
_cell_volume   436.86677151
_cell_formula_units_Z   1
loop_
 _symmetry_equiv_pos_site_id
 _symmetry_equiv_pos_as_xyz
  1  'x, y, z'
loop_
 _atom_site_type_symbol
 _atom_site_label
 _atom_site_symmetry_multiplicity
 _atom_site_fract_x
 _atom_site_fract_y
 _atom_site_fract_z
 _atom_site_occupancy
  P  P0  1  0.00000000  0.00000000  0.00000000  1
  P  P1  1  0.50000000  0.50000000  0.50000000  1
  P  P2  1  0.25000000  0.25000000  0.25000000  1
  P  P3  1  0.75000000  0.25000000  0.00000000  1
  Li  Li4  1  0.25000000  0.75000000  0.50000000  1
  Li  Li5  1  0.16282267  0.25433517  0.90213832  1
  Cu  Cu6  1  0.30252857  0.92275160  0.60082870  1
  Cu  Cu7  1  0.33036030  0.53120525  0.02952638  1
  Ti  Ti8  1  0.20153133  0.11506567  0.82296727  1
  Ti  Ti9  1  0.15779091  0.00978264  0.00903494  1
  O  O10  1  0.76937533  0.88964814  0.28521023  1
