# generated using pymatgen
data_Li2Ti2P8S3F2
_symmetry_space_group_name_H-M   'P 1'
_cell_length_a   5.85431107
_cell_length_b   5.96901874
_cell_length_c   7.33210010
_cell_angle_alpha   94.97211977
_cell_angle_beta   99.77095321
_cell_angle_gamma   95.80301909
_symmetry_Int_Tables_number   1
_chemical_formula_structural   Li2Ti2P8S3F2
_chemical_formula_sum   'Li2 Ti2 P8 S3 F2'
_cell_volume   249.79327487
_cell_formula_units_Z   1
loop_
 _symmetry_equiv_pos_site_id
 _symmetry_equiv_pos_as_xyz
  1  'x, y, z'
loop_
 _atom_site_type_symbol
 _atom_site_label
 _atom_site_symmetry_multiplicity
 _atom_site_fract_x
 _atom_site_fract_y
 _atom_site_fract_z
 _atom_site_occupancy
  P  P0  1  0.12500000  0.00000000  0.25000000  1
  P  P1  1  0.00000000  0.00000000  0.00000000  1
  P  P2  1  0.37500000  0.00000000  0.25000000  1
  P  P3  1  0.25000000  0.25000000  0.25000000  1
  P  P4  1  0.00000000  0.25000000  0.12500000  1
  P  P5  1  0.32011417  0.24121226  0.87860512  1
  P  P6  1  0.88266481  0.55419286  0.23332635  1
  P  P7  1  0.47099655  0.64725217  0.00769990  1
  Li  Li8  1  0.07230429  0.19725942  0.97801436  1
  Li  Li9  1  0.08415039  0.52683573  0.57409796  1
  F  F10  1  0.31281986  0.71013722  0.00879437  1
  F  F11  1  0.88039492  0.37648987  0.52977287  1
  S  S12  1  0.03694163  0.03409308  0.92486026  1
  S  S13  1  0.45995690  0.75081100  0.05275622  1
  S  S14  1  0.95933992  0.88744446  0.41695212  1
  Ti  Ti15  1  0.20194837  0.78726426  0.67604150  1
  Ti  Ti16  1  0.53527444  0.18611652  0.61590503  1
