# generated using pymatgen
data_Li2Mn3Sb4P3
_symmetry_space_group_name_H-M   'P 1'
_cell_length_a   7.95620675
_cell_length_b   8.25505804
_cell_length_c   8.12481960
_cell_angle_alpha   90.00000000
_cell_angle_beta   90.00000000
_cell_angle_gamma   90.00000000
_symmetry_Int_Tables_number   1
_chemical_formula_structural   Li2Mn3Sb4P3
_chemical_formula_sum   'Li2 Mn3 Sb4 P3'
_cell_volume   533.62960814
_cell_formula_units_Z   1
loop_
 _symmetry_equiv_pos_site_id
 _symmetry_equiv_pos_as_xyz
  1  'x, y, z'
loop_
 _atom_site_type_symbol
 _atom_site_label
 _atom_site_symmetry_multiplicity
 _atom_site_fract_x
 _atom_site_fract_y
 _atom_site_fract_z
 _atom_site_occupancy
  Mn  Mn0  1  0.00000000  0.00000000  0.00000000  1
  Mn  Mn1  1  0.50000000  0.50000000  0.50000000  1
  Mn  Mn2  1  0.25000000  0.25000000  0.25000000  1
  Sb  Sb3  1  0.75000000  0.25000000  0.00000000  1
  Sb  Sb4  1  0.25000000  0.75000000  0.50000000  1
  Sb  Sb5  1  0.54893699  0.04176846  0.93763360  1
  Sb  Sb6  1  0.37578180  0.90850613  0.87449848  1
  P  P7  1  0.25611521  0.70025294  0.22828436  1
  P  P8  1  0.18512810  0.30762785  0.85166718  1
  P  P9  1  0.95408850  0.95881114  0.09804989  1
  Li  Li10  1  0.64692358  0.12548672  0.09602085  1
  Li  Li11  1  0.24398136  0.41861222  0.37994362  1
