# generated using pymatgen
data_LiLa2Mo2P3O
_symmetry_space_group_name_H-M   'P 1'
_cell_length_a   5.64525557
_cell_length_b   5.46008566
_cell_length_c   5.45754440
_cell_angle_alpha   90.15610738
_cell_angle_beta   87.42335017
_cell_angle_gamma   88.95568316
_symmetry_Int_Tables_number   1
_chemical_formula_structural   LiLa2Mo2P3O
_chemical_formula_sum   'Li1 La2 Mo2 P3 O1'
_cell_volume   168.02200341
_cell_formula_units_Z   1
loop_
 _symmetry_equiv_pos_site_id
 _symmetry_equiv_pos_as_xyz
  1  'x, y, z'
loop_
 _atom_site_type_symbol
 _atom_site_label
 _atom_site_symmetry_multiplicity
 _atom_site_fract_x
 _atom_site_fract_y
 _atom_site_fract_z
 _atom_site_occupancy
  O  O0  1  0.12500000  0.00000000  0.25000000  1
  La  La1  1  0.00000000  0.00000000  0.00000000  1
  La  La2  1  0.37500000  0.00000000  0.25000000  1
  P  P3  1  0.25000000  0.25000000  0.25000000  1
  P  P4  1  0.00000000  0.25000000  0.12500000  1
  P  P5  1  0.87193812  0.73402700  0.20645412  1
  Mo  Mo6  1  0.87797521  0.17179303  0.37211597  1
  Mo  Mo7  1  0.64579361  0.90779048  0.48923354  1
  Li  Li8  1  0.40360939  0.33402515  0.98574442  1
