# generated using pymatgen
data_Li2Mn2Sb4P3
_symmetry_space_group_name_H-M   'P 1'
_cell_length_a   6.70866743
_cell_length_b   7.29667392
_cell_length_c   7.39726038
_cell_angle_alpha   92.28416418
_cell_angle_beta   92.70580352
_cell_angle_gamma   92.59966086
_symmetry_Int_Tables_number   1
_chemical_formula_structural   Li2Mn2Sb4P3
_chemical_formula_sum   'Li2 Mn2 Sb4 P3'
_cell_volume   361.00687709
_cell_formula_units_Z   1
loop_
 _symmetry_equiv_pos_site_id
 _symmetry_equiv_pos_as_xyz
  1  'x, y, z'
loop_
 _atom_site_type_symbol
 _atom_site_label
 _atom_site_symmetry_multiplicity
 _atom_site_fract_x
 _atom_site_fract_y
 _atom_site_fract_z
 _atom_site_occupancy
  Mn  Mn0  1  0.00000000  0.00000000  0.00000000  1
  Mn  Mn1  1  0.33300000  0.66700000  0.25000000  1
  Sb  Sb2  1  0.66700000  0.33300000  0.50000000  1
  Sb  Sb3  1  0.00000000  0.00000000  0.75000000  1
  Sb  Sb4  1  0.27537733  0.04818650  0.40685601  1
  Sb  Sb5  1  0.72283792  0.54717189  0.26215368  1
  P  P6  1  0.92669029  0.21005368  0.19375136  1
  P  P7  1  0.18743909  0.53619096  0.53184057  1
  P  P8  1  0.34922261  0.38392089  0.40538838  1
  Li  Li9  1  0.26332070  0.93265598  0.49023530  1
  Li  Li10  1  0.34118446  0.42564944  0.18321763  1
