# generated using pymatgen
data_Li3Ni2(As3P2)2
_symmetry_space_group_name_H-M   'P 1'
_cell_length_a   7.58507368
_cell_length_b   7.35047169
_cell_length_c   8.91584802
_cell_angle_alpha   92.36246078
_cell_angle_beta   91.23014925
_cell_angle_gamma   92.73867892
_symmetry_Int_Tables_number   1
_chemical_formula_structural   Li3Ni2(As3P2)2
_chemical_formula_sum   'Li3 Ni2 As6 P4'
_cell_volume   495.96641985
_cell_formula_units_Z   1
loop_
 _symmetry_equiv_pos_site_id
 _symmetry_equiv_pos_as_xyz
  1  'x, y, z'
loop_
 _atom_site_type_symbol
 _atom_site_label
 _atom_site_symmetry_multiplicity
 _atom_site_fract_x
 _atom_site_fract_y
 _atom_site_fract_z
 _atom_site_occupancy
  P  P0  1  0.00000000  0.00000000  0.00000000  1
  P  P1  1  0.50000000  0.50000000  0.50000000  1
  P  P2  1  0.50000000  0.50000000  0.00000000  1
  P  P3  1  0.50000000  0.00000000  0.50000000  1
  Li  Li4  1  0.00000000  0.50000000  0.50000000  1
  Li  Li5  1  0.72726295  0.28992764  0.50291453  1
  Li  Li6  1  0.05598122  0.93201031  0.93845281  1
  Ni  Ni7  1  0.12380465  0.23434606  0.47409529  1
  Ni  Ni8  1  0.21537822  0.66874650  0.91418696  1
  As  As9  1  0.02629353  0.55163978  0.24264970  1
  As  As10  1  0.03673070  0.14536401  0.56616150  1
  As  As11  1  0.71302382  0.73786903  0.92499625  1
  As  As12  1  0.46422369  0.43232314  0.63845739  1
  As  As13  1  0.25914929  0.81569444  0.15949382  1
  As  As14  1  0.17792326  0.45255523  0.27410865  1
