# generated using pymatgen
data_Li2TiCu2P5F2
_symmetry_space_group_name_H-M   'P 1'
_cell_length_a   7.67857719
_cell_length_b   7.53035144
_cell_length_c   7.80913366
_cell_angle_alpha   90.68849239
_cell_angle_beta   91.91572081
_cell_angle_gamma   90.55344098
_symmetry_Int_Tables_number   1
_chemical_formula_structural   Li2TiCu2P5F2
_chemical_formula_sum   'Li2 Ti1 Cu2 P5 F2'
_cell_volume   451.23490615
_cell_formula_units_Z   1
loop_
 _symmetry_equiv_pos_site_id
 _symmetry_equiv_pos_as_xyz
  1  'x, y, z'
loop_
 _atom_site_type_symbol
 _atom_site_label
 _atom_site_symmetry_multiplicity
 _atom_site_fract_x
 _atom_site_fract_y
 _atom_site_fract_z
 _atom_site_occupancy
  P  P0  1  0.12500000  0.00000000  0.25000000  1
  P  P1  1  0.00000000  0.00000000  0.00000000  1
  P  P2  1  0.37500000  0.00000000  0.25000000  1
  P  P3  1  0.25000000  0.25000000  0.25000000  1
  P  P4  1  0.00000000  0.25000000  0.12500000  1
  Li  Li5  1  0.88365362  0.35380821  0.64139591  1
  Li  Li6  1  0.20969126  0.84728605  0.71780694  1
  Cu  Cu7  1  0.01333253  0.65331984  0.74431243  1
  Cu  Cu8  1  0.24926126  0.32567438  0.42571900  1
  F  F9  1  0.46268617  0.39649498  0.05093622  1
  F  F10  1  0.82624268  0.51888244  0.09982355  1
  Ti  Ti11  1  0.88044357  0.78827448  0.02833102  1
