# generated using pymatgen
data_Li2Mn2Sb4Mo2P3
_symmetry_space_group_name_H-M   'P 1'
_cell_length_a   6.55144284
_cell_length_b   7.09133587
_cell_length_c   7.15045320
_cell_angle_alpha   94.02873477
_cell_angle_beta   91.35662652
_cell_angle_gamma   94.10950339
_symmetry_Int_Tables_number   1
_chemical_formula_structural   Li2Mn2Sb4Mo2P3
_chemical_formula_sum   'Li2 Mn2 Sb4 Mo2 P3'
_cell_volume   330.38867793
_cell_formula_units_Z   1
loop_
 _symmetry_equiv_pos_site_id
 _symmetry_equiv_pos_as_xyz
  1  'x, y, z'
loop_
 _atom_site_type_symbol
 _atom_site_label
 _atom_site_symmetry_multiplicity
 _atom_site_fract_x
 _atom_site_fract_y
 _atom_site_fract_z
 _atom_site_occupancy
  Mn  Mn0  1  0.12500000  0.00000000  0.25000000  1
  Mn  Mn1  1  0.00000000  0.00000000  0.00000000  1
  Sb  Sb2  1  0.37500000  0.00000000  0.25000000  1
  Sb  Sb3  1  0.25000000  0.25000000  0.25000000  1
  Sb  Sb4  1  0.00000000  0.25000000  0.12500000  1
  Sb  Sb5  1  0.63922363  0.83939535  0.20986568  1
  P  P6  1  0.61816698  0.68697294  0.72711348  1
  P  P7  1  0.08322203  0.56940442  0.61756622  1
  P  P8  1  0.96401081  0.80757582  0.97120207  1
  Mo  Mo9  1  0.38826649  0.43349887  0.37660502  1
  Mo  Mo10  1  0.10966542  0.24430165  0.36970160  1
  Li  Li11  1  0.95130653  0.01382054  0.89430574  1
  Li  Li12  1  0.64890265  0.77954015  0.28464654  1
