# generated using pymatgen
data_Li2Mn2Sb4P2N
_symmetry_space_group_name_H-M   'P 1'
_cell_length_a   6.70907193
_cell_length_b   7.28780311
_cell_length_c   7.27075458
_cell_angle_alpha   92.97955263
_cell_angle_beta   92.24456586
_cell_angle_gamma   92.84374681
_symmetry_Int_Tables_number   1
_chemical_formula_structural   Li2Mn2Sb4P2N
_chemical_formula_sum   'Li2 Mn2 Sb4 P2 N1'
_cell_volume   354.27070212
_cell_formula_units_Z   1
loop_
 _symmetry_equiv_pos_site_id
 _symmetry_equiv_pos_as_xyz
  1  'x, y, z'
loop_
 _atom_site_type_symbol
 _atom_site_label
 _atom_site_symmetry_multiplicity
 _atom_site_fract_x
 _atom_site_fract_y
 _atom_site_fract_z
 _atom_site_occupancy
  N  N0  1  0.00000000  0.00000000  0.00000000  1
  Mn  Mn1  1  0.50000000  0.50000000  0.50000000  1
  Mn  Mn2  1  0.25000000  0.25000000  0.25000000  1
  Sb  Sb3  1  0.75000000  0.25000000  0.00000000  1
  Sb  Sb4  1  0.25000000  0.75000000  0.50000000  1
  Sb  Sb5  1  0.04994678  0.50797234  0.75077815  1
  Sb  Sb6  1  0.30333871  0.39718331  0.28926756  1
  P  P7  1  0.91761180  0.95904166  0.15418613  1
  P  P8  1  0.08104135  0.10459647  0.81710150  1
  Li  Li9  1  0.28550435  0.58673572  0.81661176  1
  Li  Li10  1  0.92551910  0.01842755  0.26354017  1
