# generated using pymatgen
data_Li2MnSb4Mo2P3
_symmetry_space_group_name_H-M   'P 1'
_cell_length_a   3.84408309
_cell_length_b   3.98342100
_cell_length_c   5.98542727
_cell_angle_alpha   103.93359491
_cell_angle_beta   95.57358928
_cell_angle_gamma   103.85148358
_symmetry_Int_Tables_number   1
_chemical_formula_structural   Li2MnSb4Mo2P3
_chemical_formula_sum   'Li2 Mn1 Sb4 Mo2 P3'
_cell_volume   85.19589641
_cell_formula_units_Z   1
loop_
 _symmetry_equiv_pos_site_id
 _symmetry_equiv_pos_as_xyz
  1  'x, y, z'
loop_
 _atom_site_type_symbol
 _atom_site_label
 _atom_site_symmetry_multiplicity
 _atom_site_fract_x
 _atom_site_fract_y
 _atom_site_fract_z
 _atom_site_occupancy
  Mn  Mn0  1  0.12500000  0.00000000  0.25000000  1
  Sb  Sb1  1  0.00000000  0.00000000  0.00000000  1
  Sb  Sb2  1  0.37500000  0.00000000  0.25000000  1
  Sb  Sb3  1  0.25000000  0.25000000  0.25000000  1
  Sb  Sb4  1  0.00000000  0.25000000  0.12500000  1
  P  P5  1  0.83188846  0.41173568  0.29547344  1
  P  P6  1  0.70934568  0.18480366  0.90685671  1
  P  P7  1  0.62225429  0.99804621  0.58125023  1
  Mo  Mo8  1  0.05069533  0.48423038  0.88724643  1
  Mo  Mo9  1  0.26583175  0.84899102  0.52778823  1
  Li  Li10  1  0.61187689  0.59887228  0.04871993  1
  Li  Li11  1  0.70005336  0.82732165  0.80092187  1
