# generated using pymatgen
data_LiMn2Sb4P3N
_symmetry_space_group_name_H-M   'P 1'
_cell_length_a   5.39749323
_cell_length_b   5.57897152
_cell_length_c   6.31194698
_cell_angle_alpha   97.79746550
_cell_angle_beta   93.55512125
_cell_angle_gamma   97.25153695
_symmetry_Int_Tables_number   1
_chemical_formula_structural   LiMn2Sb4P3N
_chemical_formula_sum   'Li1 Mn2 Sb4 P3 N1'
_cell_volume   186.19816042
_cell_formula_units_Z   1
loop_
 _symmetry_equiv_pos_site_id
 _symmetry_equiv_pos_as_xyz
  1  'x, y, z'
loop_
 _atom_site_type_symbol
 _atom_site_label
 _atom_site_symmetry_multiplicity
 _atom_site_fract_x
 _atom_site_fract_y
 _atom_site_fract_z
 _atom_site_occupancy
  N  N0  1  0.12500000  0.00000000  0.25000000  1
  Mn  Mn1  1  0.00000000  0.00000000  0.00000000  1
  Mn  Mn2  1  0.37500000  0.00000000  0.25000000  1
  Sb  Sb3  1  0.25000000  0.25000000  0.25000000  1
  Sb  Sb4  1  0.00000000  0.25000000  0.12500000  1
  Sb  Sb5  1  0.29997736  0.64295364  0.18067703  1
  Sb  Sb6  1  0.08791796  0.67333561  0.40412016  1
  P  P7  1  0.74332341  0.41969546  0.13112285  1
  P  P8  1  0.42305332  0.79362674  0.71428160  1
  P  P9  1  0.63926599  0.40171526  0.31587271  1
  Li  Li10  1  0.92245986  0.34473197  0.87512496  1
