# generated using pymatgen
data_Li3Cu2As6P8O5
_symmetry_space_group_name_H-M   'P 1'
_cell_length_a   7.96712059
_cell_length_b   8.20305405
_cell_length_c   8.72129072
_cell_angle_alpha   90.64373241
_cell_angle_beta   90.40812424
_cell_angle_gamma   90.74597070
_symmetry_Int_Tables_number   1
_chemical_formula_structural   Li3Cu2As6P8O5
_chemical_formula_sum   'Li3 Cu2 As6 P8 O5'
_cell_volume   569.87817921
_cell_formula_units_Z   1
loop_
 _symmetry_equiv_pos_site_id
 _symmetry_equiv_pos_as_xyz
  1  'x, y, z'
loop_
 _atom_site_type_symbol
 _atom_site_label
 _atom_site_symmetry_multiplicity
 _atom_site_fract_x
 _atom_site_fract_y
 _atom_site_fract_z
 _atom_site_occupancy
  P  P0  1  0.00000000  0.00000000  0.00000000  1
  P  P1  1  0.50000000  0.50000000  0.50000000  1
  P  P2  1  0.25000000  0.25000000  0.25000000  1
  P  P3  1  0.75000000  0.25000000  0.00000000  1
  P  P4  1  0.25000000  0.75000000  0.50000000  1
  P  P5  1  0.37163669  0.97836185  0.73652711  1
  P  P6  1  0.26966076  0.39819512  0.23209815  1
  P  P7  1  0.38843584  0.26330289  0.75356547  1
  Li  Li8  1  0.86011185  0.64975589  0.72136941  1
  Li  Li9  1  0.62363602  0.50509447  0.05348718  1
  Li  Li10  1  0.55130491  0.32715097  0.69595718  1
  Cu  Cu11  1  0.75339303  0.88041595  0.80757681  1
  Cu  Cu12  1  0.59021368  0.97723849  0.43148354  1
  As  As13  1  0.34048893  0.39802617  0.78915018  1
  As  As14  1  0.29712046  0.92003522  0.64756356  1
  As  As15  1  0.55569953  0.84106130  0.67458954  1
  As  As16  1  0.00140947  0.83946268  0.53329263  1
  As  As17  1  0.36205090  0.01032418  0.66653105  1
  As  As18  1  0.04503642  0.60367716  0.98846495  1
  O  O19  1  0.25725912  0.55772388  0.45570592  1
  O  O20  1  0.21978692  0.42338987  0.78530585  1
  O  O21  1  0.17700778  0.56327262  0.55771000  1
  O  O22  1  0.90576806  0.60074199  0.10339193  1
  O  O23  1  0.94950420  0.12786206  0.99451697  1
