# generated using pymatgen
data_Li3TiP3SeO3
_symmetry_space_group_name_H-M   'P 1'
_cell_length_a   6.30531575
_cell_length_b   6.00518046
_cell_length_c   6.88993099
_cell_angle_alpha   99.31246483
_cell_angle_beta   102.15203594
_cell_angle_gamma   98.75719202
_symmetry_Int_Tables_number   1
_chemical_formula_structural   Li3TiP3SeO3
_chemical_formula_sum   'Li3 Ti1 P3 Se1 O3'
_cell_volume   246.93901828
_cell_formula_units_Z   1
loop_
 _symmetry_equiv_pos_site_id
 _symmetry_equiv_pos_as_xyz
  1  'x, y, z'
loop_
 _atom_site_type_symbol
 _atom_site_label
 _atom_site_symmetry_multiplicity
 _atom_site_fract_x
 _atom_site_fract_y
 _atom_site_fract_z
 _atom_site_occupancy
  P  P0  1  0.00000000  0.00000000  0.00000000  1
  P  P1  1  0.50000000  0.50000000  0.50000000  1
  P  P2  1  0.50000000  0.50000000  0.00000000  1
  Li  Li3  1  0.50000000  0.00000000  0.50000000  1
  Li  Li4  1  0.00000000  0.50000000  0.50000000  1
  Li  Li5  1  0.34510217  0.39542427  0.83897491  1
  Se  Se6  1  0.28373739  0.43324890  0.73588749  1
  Ti  Ti7  1  0.17855719  0.92855707  0.90244925  1
  O  O8  1  0.36430557  0.67515575  0.91260032  1
  O  O9  1  0.27463356  0.19686412  0.41798041  1
  O  O10  1  0.30585646  0.20149049  0.92034283  1
