# generated using pymatgen
data_LiMn2Sb4P3
_symmetry_space_group_name_H-M   'P 1'
_cell_length_a   4.81726982
_cell_length_b   5.08206919
_cell_length_c   6.11409078
_cell_angle_alpha   96.55919040
_cell_angle_beta   94.39783122
_cell_angle_gamma   96.35565903
_symmetry_Int_Tables_number   1
_chemical_formula_structural   LiMn2Sb4P3
_chemical_formula_sum   'Li1 Mn2 Sb4 P3'
_cell_volume   147.18353513
_cell_formula_units_Z   1
loop_
 _symmetry_equiv_pos_site_id
 _symmetry_equiv_pos_as_xyz
  1  'x, y, z'
loop_
 _atom_site_type_symbol
 _atom_site_label
 _atom_site_symmetry_multiplicity
 _atom_site_fract_x
 _atom_site_fract_y
 _atom_site_fract_z
 _atom_site_occupancy
  Mn  Mn0  1  0.12500000  0.00000000  0.25000000  1
  Mn  Mn1  1  0.00000000  0.00000000  0.00000000  1
  Sb  Sb2  1  0.37500000  0.00000000  0.25000000  1
  Sb  Sb3  1  0.25000000  0.25000000  0.25000000  1
  Sb  Sb4  1  0.00000000  0.25000000  0.12500000  1
  Sb  Sb5  1  0.61561760  0.91278939  0.15773575  1
  P  P6  1  0.21360113  0.77583684  0.69587851  1
  P  P7  1  0.32905877  0.40032177  0.79868019  1
  P  P8  1  0.36084323  0.86704682  0.70507974  1
  Li  Li9  1  0.87052745  0.84383694  0.80674809  1
