# generated using pymatgen
data_LiTiP2F
_symmetry_space_group_name_H-M   'P 1'
_cell_length_a   7.35374918
_cell_length_b   6.97577549
_cell_length_c   7.45972931
_cell_angle_alpha   91.87392884
_cell_angle_beta   93.49739668
_cell_angle_gamma   91.78185437
_symmetry_Int_Tables_number   1
_chemical_formula_structural   LiTiP2F
_chemical_formula_sum   'Li2 Ti2 P4 F2'
_cell_volume   381.54294743
_cell_formula_units_Z   2
loop_
 _symmetry_equiv_pos_site_id
 _symmetry_equiv_pos_as_xyz
  1  'x, y, z'
loop_
 _atom_site_type_symbol
 _atom_site_label
 _atom_site_symmetry_multiplicity
 _atom_site_fract_x
 _atom_site_fract_y
 _atom_site_fract_z
 _atom_site_occupancy
  P  P0  1  0.00000000  0.00000000  0.00000000  1
  P  P1  1  0.50000000  0.50000000  0.50000000  1
  P  P2  1  0.25000000  0.25000000  0.25000000  1
  P  P3  1  0.75000000  0.25000000  0.00000000  1
  Li  Li4  1  0.25000000  0.75000000  0.50000000  1
  Li  Li5  1  0.78927369  0.15012888  0.89989463  1
  F  F6  1  0.34982346  0.14516462  0.21003533  1
  F  F7  1  0.01172422  0.37430283  0.59202023  1
  Ti  Ti8  1  0.22478048  0.30433462  0.90409627  1
  Ti  Ti9  1  0.12275581  0.48227517  0.82483951  1
