# generated using pymatgen
data_LiCuNiAs3F
_symmetry_space_group_name_H-M   'P 1'
_cell_length_a   7.70469930
_cell_length_b   7.54712723
_cell_length_c   8.61642614
_cell_angle_alpha   90.63188712
_cell_angle_beta   91.28425446
_cell_angle_gamma   90.42649280
_symmetry_Int_Tables_number   1
_chemical_formula_structural   LiCuNiAs3F
_chemical_formula_sum   'Li2 Cu2 Ni2 As6 F2'
_cell_volume   500.85978805
_cell_formula_units_Z   2
loop_
 _symmetry_equiv_pos_site_id
 _symmetry_equiv_pos_as_xyz
  1  'x, y, z'
loop_
 _atom_site_type_symbol
 _atom_site_label
 _atom_site_symmetry_multiplicity
 _atom_site_fract_x
 _atom_site_fract_y
 _atom_site_fract_z
 _atom_site_occupancy
  Li  Li0  1  0.00000000  0.00000000  0.00000000  1
  Li  Li1  1  0.50000000  0.50000000  0.50000000  1
  Cu  Cu2  1  0.25000000  0.25000000  0.25000000  1
  Cu  Cu3  1  0.75000000  0.25000000  0.00000000  1
  F  F4  1  0.25000000  0.75000000  0.50000000  1
  F  F5  1  0.79651396  0.35385126  0.96059854  1
  Ni  Ni6  1  0.42871195  0.68829032  0.68398923  1
  Ni  Ni7  1  0.02758606  0.16713062  0.96474848  1
  As  As8  1  0.10995282  0.86002696  0.57131060  1
  As  As9  1  0.29995678  0.59777797  0.17704813  1
  As  As10  1  0.91013910  0.16841222  0.92357217  1
  As  As11  1  0.78957311  0.67629934  0.35181101  1
  As  As12  1  0.83089815  0.56847179  0.55433476  1
  As  As13  1  0.95826700  0.84305298  0.23663974  1
