# generated using pymatgen
data_LiMo2P3N
_symmetry_space_group_name_H-M   'P 1'
_cell_length_a   4.94591061
_cell_length_b   5.04028963
_cell_length_c   6.03899076
_cell_angle_alpha   99.71372959
_cell_angle_beta   93.56823274
_cell_angle_gamma   99.07212348
_symmetry_Int_Tables_number   1
_chemical_formula_structural   LiMo2P3N
_chemical_formula_sum   'Li1 Mo2 P3 N1'
_cell_volume   145.91868781
_cell_formula_units_Z   1
loop_
 _symmetry_equiv_pos_site_id
 _symmetry_equiv_pos_as_xyz
  1  'x, y, z'
loop_
 _atom_site_type_symbol
 _atom_site_label
 _atom_site_symmetry_multiplicity
 _atom_site_fract_x
 _atom_site_fract_y
 _atom_site_fract_z
 _atom_site_occupancy
  P  P0  1  0.12500000  0.00000000  0.25000000  1
  P  P1  1  0.00000000  0.00000000  0.00000000  1
  P  P2  1  0.37500000  0.00000000  0.25000000  1
  Mo  Mo3  1  0.25000000  0.25000000  0.25000000  1
  Mo  Mo4  1  0.00000000  0.25000000  0.12500000  1
  Li  Li5  1  0.85555525  0.55773397  0.77711153  1
  N  N6  1  0.93868630  0.64695187  0.65240858  1
