# generated using pymatgen
data_Li2Mn2Sb4P3
_symmetry_space_group_name_H-M   'P 1'
_cell_length_a   6.14047208
_cell_length_b   6.39304479
_cell_length_c   7.02364767
_cell_angle_alpha   96.26882162
_cell_angle_beta   91.82882704
_cell_angle_gamma   96.35521062
_symmetry_Int_Tables_number   1
_chemical_formula_structural   Li2Mn2Sb4P3
_chemical_formula_sum   'Li2 Mn2 Sb4 P3'
_cell_volume   272.11927848
_cell_formula_units_Z   1
loop_
 _symmetry_equiv_pos_site_id
 _symmetry_equiv_pos_as_xyz
  1  'x, y, z'
loop_
 _atom_site_type_symbol
 _atom_site_label
 _atom_site_symmetry_multiplicity
 _atom_site_fract_x
 _atom_site_fract_y
 _atom_site_fract_z
 _atom_site_occupancy
  Mn  Mn0  1  0.00000000  0.00000000  0.00000000  1
  Mn  Mn1  1  0.50000000  0.50000000  0.50000000  1
  Sb  Sb2  1  0.50000000  0.50000000  0.00000000  1
  Sb  Sb3  1  0.50000000  0.00000000  0.50000000  1
  Sb  Sb4  1  0.00000000  0.50000000  0.50000000  1
  Sb  Sb5  1  0.01333565  0.03086006  0.84353958  1
  P  P6  1  0.57846831  0.43012663  0.65308894  1
  P  P7  1  0.15391288  0.43279691  0.11510085  1
  P  P8  1  0.33597628  0.74303452  0.10656335  1
  Li  Li9  1  0.12804677  0.39482192  0.84412149  1
  Li  Li10  1  0.29302913  0.82410690  0.22725267  1
