# generated using pymatgen
data_Li2Mn2(SbP)3
_symmetry_space_group_name_H-M   'P 1'
_cell_length_a   6.16028806
_cell_length_b   6.67845988
_cell_length_c   7.24829840
_cell_angle_alpha   93.59645381
_cell_angle_beta   94.16921703
_cell_angle_gamma   94.05289051
_symmetry_Int_Tables_number   1
_chemical_formula_structural   Li2Mn2(SbP)3
_chemical_formula_sum   'Li2 Mn2 Sb3 P3'
_cell_volume   295.97994161
_cell_formula_units_Z   1
loop_
 _symmetry_equiv_pos_site_id
 _symmetry_equiv_pos_as_xyz
  1  'x, y, z'
loop_
 _atom_site_type_symbol
 _atom_site_label
 _atom_site_symmetry_multiplicity
 _atom_site_fract_x
 _atom_site_fract_y
 _atom_site_fract_z
 _atom_site_occupancy
  Mn  Mn0  1  0.12500000  0.00000000  0.25000000  1
  Mn  Mn1  1  0.00000000  0.00000000  0.00000000  1
  Sb  Sb2  1  0.37500000  0.00000000  0.25000000  1
  Sb  Sb3  1  0.25000000  0.25000000  0.25000000  1
  Sb  Sb4  1  0.00000000  0.25000000  0.12500000  1
  P  P5  1  0.62860940  0.46527592  0.86783885  1
  P  P6  1  0.35576252  0.67053181  0.97971852  1
  P  P7  1  0.41386897  0.19249236  0.14387260  1
  Li  Li8  1  0.92104180  0.82300774  0.05077809  1
  Li  Li9  1  0.15966747  0.24677537  0.20228007  1
