# generated using pymatgen
data_LiMn2Sb4P3
_symmetry_space_group_name_H-M   'P 1'
_cell_length_a   6.21982510
_cell_length_b   6.66993612
_cell_length_c   6.91942831
_cell_angle_alpha   94.17376361
_cell_angle_beta   91.50962743
_cell_angle_gamma   94.17247507
_symmetry_Int_Tables_number   1
_chemical_formula_structural   LiMn2Sb4P3
_chemical_formula_sum   'Li1 Mn2 Sb4 P3'
_cell_volume   285.39365603
_cell_formula_units_Z   1
loop_
 _symmetry_equiv_pos_site_id
 _symmetry_equiv_pos_as_xyz
  1  'x, y, z'
loop_
 _atom_site_type_symbol
 _atom_site_label
 _atom_site_symmetry_multiplicity
 _atom_site_fract_x
 _atom_site_fract_y
 _atom_site_fract_z
 _atom_site_occupancy
  Mn  Mn0  1  0.00000000  0.00000000  0.00000000  1
  Mn  Mn1  1  0.33300000  0.66700000  0.25000000  1
  Sb  Sb2  1  0.66700000  0.33300000  0.50000000  1
  Sb  Sb3  1  0.00000000  0.00000000  0.75000000  1
  Sb  Sb4  1  0.43986876  0.44359631  0.66619985  1
  Sb  Sb5  1  0.89716632  0.11135726  0.52373286  1
  P  P6  1  0.77955126  0.81015153  0.52903215  1
  P  P7  1  0.20815930  0.70488106  0.94478633  1
  P  P8  1  0.04312908  0.65742918  0.60794503  1
  Li  Li9  1  0.60080655  0.51722741  0.63454754  1
