# generated using pymatgen
data_Li2As6I4F3
_symmetry_space_group_name_H-M   'P 1'
_cell_length_a   8.00115966
_cell_length_b   7.86003897
_cell_length_c   8.67949087
_cell_angle_alpha   90.87285560
_cell_angle_beta   91.04949897
_cell_angle_gamma   91.00528511
_symmetry_Int_Tables_number   1
_chemical_formula_structural   Li2As6I4F3
_chemical_formula_sum   'Li2 As6 I4 F3'
_cell_volume   545.60657230
_cell_formula_units_Z   1
loop_
 _symmetry_equiv_pos_site_id
 _symmetry_equiv_pos_as_xyz
  1  'x, y, z'
loop_
 _atom_site_type_symbol
 _atom_site_label
 _atom_site_symmetry_multiplicity
 _atom_site_fract_x
 _atom_site_fract_y
 _atom_site_fract_z
 _atom_site_occupancy
  I  I0  1  0.00000000  0.00000000  0.00000000  1
  I  I1  1  0.50000000  0.50000000  0.50000000  1
  I  I2  1  0.50000000  0.50000000  0.00000000  1
  I  I3  1  0.50000000  0.00000000  0.50000000  1
  Li  Li4  1  0.00000000  0.50000000  0.50000000  1
  Li  Li5  1  0.11847047  0.68903873  0.96255465  1
  F  F6  1  0.64286850  0.93747725  0.43749125  1
  F  F7  1  0.41009451  0.75437248  0.28398755  1
  F  F8  1  0.17976948  0.34554122  0.79379451  1
  As  As9  1  0.75646420  0.29032276  0.46468750  1
  As  As10  1  0.02343682  0.00527296  0.87263723  1
  As  As11  1  0.86061244  0.12701746  0.92327555  1
  As  As12  1  0.24411434  0.50954859  0.08909646  1
  As  As13  1  0.68962459  0.30995798  0.50793358  1
  As  As14  1  0.46639274  0.63308202  0.46953691  1
