# generated using pymatgen
data_Li3TiAs6O5
_symmetry_space_group_name_H-M   'P 1'
_cell_length_a   8.14323066
_cell_length_b   7.98842366
_cell_length_c   8.44637306
_cell_angle_alpha   91.03694590
_cell_angle_beta   90.65742030
_cell_angle_gamma   91.20163479
_symmetry_Int_Tables_number   1
_chemical_formula_structural   Li3TiAs6O5
_chemical_formula_sum   'Li3 Ti1 As6 O5'
_cell_volume   549.20047366
_cell_formula_units_Z   1
loop_
 _symmetry_equiv_pos_site_id
 _symmetry_equiv_pos_as_xyz
  1  'x, y, z'
loop_
 _atom_site_type_symbol
 _atom_site_label
 _atom_site_symmetry_multiplicity
 _atom_site_fract_x
 _atom_site_fract_y
 _atom_site_fract_z
 _atom_site_occupancy
  Li  Li0  1  0.00000000  0.00000000  0.00000000  1
  Li  Li1  1  0.33300000  0.66700000  0.25000000  1
  Li  Li2  1  0.66700000  0.33300000  0.50000000  1
  Ti  Ti3  1  0.00000000  0.00000000  0.75000000  1
  As  As4  1  0.12949504  0.10875009  0.30308133  1
  As  As5  1  0.20361932  0.33251275  0.01117868  1
  As  As6  1  0.01631879  0.11746371  0.14309659  1
  As  As7  1  0.96369816  0.55949532  0.48708743  1
  As  As8  1  0.81937855  0.70448011  0.59071636  1
  As  As9  1  0.52122415  0.47229658  0.78222527  1
  O  O10  1  0.82195483  0.11769386  0.41955239  1
  O  O11  1  0.52800034  0.60771884  0.99080812  1
  O  O12  1  0.14971521  0.91580388  0.20447350  1
  O  O13  1  0.35753917  0.89117476  0.25457234  1
  O  O14  1  0.94506832  0.33320340  0.68467669  1
