# generated using pymatgen
data_Li2MnSb4P3
_symmetry_space_group_name_H-M   'P 1'
_cell_length_a   6.90571941
_cell_length_b   6.89415574
_cell_length_c   7.66661673
_cell_angle_alpha   92.62909396
_cell_angle_beta   93.11440472
_cell_angle_gamma   92.99223354
_symmetry_Int_Tables_number   1
_chemical_formula_structural   Li2MnSb4P3
_chemical_formula_sum   'Li2 Mn1 Sb4 P3'
_cell_volume   363.53033377
_cell_formula_units_Z   1
loop_
 _symmetry_equiv_pos_site_id
 _symmetry_equiv_pos_as_xyz
  1  'x, y, z'
loop_
 _atom_site_type_symbol
 _atom_site_label
 _atom_site_symmetry_multiplicity
 _atom_site_fract_x
 _atom_site_fract_y
 _atom_site_fract_z
 _atom_site_occupancy
  Mn  Mn0  1  0.00000000  0.00000000  0.00000000  1
  Sb  Sb1  1  0.50000000  0.50000000  0.50000000  1
  Sb  Sb2  1  0.25000000  0.25000000  0.25000000  1
  Sb  Sb3  1  0.75000000  0.25000000  0.00000000  1
  Sb  Sb4  1  0.25000000  0.75000000  0.50000000  1
  P  P5  1  0.19410968  0.25802169  0.71485017  1
  P  P6  1  0.94590671  0.85351175  0.18455211  1
  P  P7  1  0.61568810  0.21667234  0.78925546  1
  Li  Li8  1  0.14030971  0.85946385  0.05133919  1
  Li  Li9  1  0.77963486  0.89587885  0.56063415  1
