# generated using pymatgen
data_LiMn2(Sb2P)2
_symmetry_space_group_name_H-M   'P 1'
_cell_length_a   5.18877781
_cell_length_b   5.55497510
_cell_length_c   6.45417759
_cell_angle_alpha   99.28747874
_cell_angle_beta   93.43860129
_cell_angle_gamma   98.90569273
_symmetry_Int_Tables_number   1
_chemical_formula_structural   LiMn2(Sb2P)2
_chemical_formula_sum   'Li1 Mn2 Sb4 P2'
_cell_volume   180.69019118
_cell_formula_units_Z   1
loop_
 _symmetry_equiv_pos_site_id
 _symmetry_equiv_pos_as_xyz
  1  'x, y, z'
loop_
 _atom_site_type_symbol
 _atom_site_label
 _atom_site_symmetry_multiplicity
 _atom_site_fract_x
 _atom_site_fract_y
 _atom_site_fract_z
 _atom_site_occupancy
  Mn  Mn0  1  0.00000000  0.00000000  0.00000000  1
  Mn  Mn1  1  0.33300000  0.66700000  0.25000000  1
  Sb  Sb2  1  0.66700000  0.33300000  0.50000000  1
  Sb  Sb3  1  0.00000000  0.00000000  0.75000000  1
  Sb  Sb4  1  0.25545206  0.68525212  0.63380422  1
  Sb  Sb5  1  0.07291856  0.62770218  0.21121987  1
  P  P6  1  0.63049167  0.88222187  0.92726030  1
  P  P7  1  0.63531857  0.53372748  0.32880266  1
  Li  Li8  1  0.57005851  0.96022484  0.61866756  1
