# generated using pymatgen
data_LiLuP4(OF)3
_symmetry_space_group_name_H-M   'P 1'
_cell_length_a   6.93789723
_cell_length_b   6.70884876
_cell_length_c   7.82872130
_cell_angle_alpha   91.41921909
_cell_angle_beta   93.02641126
_cell_angle_gamma   91.55981195
_symmetry_Int_Tables_number   1
_chemical_formula_structural   LiLuP4(OF)3
_chemical_formula_sum   'Li1 Lu1 P4 O3 F3'
_cell_volume   363.62180498
_cell_formula_units_Z   1
loop_
 _symmetry_equiv_pos_site_id
 _symmetry_equiv_pos_as_xyz
  1  'x, y, z'
loop_
 _atom_site_type_symbol
 _atom_site_label
 _atom_site_symmetry_multiplicity
 _atom_site_fract_x
 _atom_site_fract_y
 _atom_site_fract_z
 _atom_site_occupancy
  P  P0  1  0.12500000  0.00000000  0.25000000  1
  P  P1  1  0.00000000  0.00000000  0.00000000  1
  P  P2  1  0.37500000  0.00000000  0.25000000  1
  P  P3  1  0.25000000  0.25000000  0.25000000  1
  Lu  Lu4  1  0.00000000  0.25000000  0.12500000  1
  Li  Li5  1  0.76195319  0.17539704  0.67814212  1
  F  F6  1  0.67684911  0.37370211  0.16723059  1
  F  F7  1  0.83283724  0.21535267  0.08582179  1
  F  F8  1  0.53547469  0.10453738  0.64231753  1
  O  O9  1  0.38613553  0.15913490  0.24528419  1
  O  O10  1  0.58263391  0.63631819  0.41869954  1
  O  O11  1  0.84511319  0.34307398  0.19234462  1
