# generated using pymatgen
data_Li2TiCu2P5O2
_symmetry_space_group_name_H-M   'P 1'
_cell_length_a   6.75948833
_cell_length_b   6.65941715
_cell_length_c   7.70635366
_cell_angle_alpha   94.96523542
_cell_angle_beta   95.86769999
_cell_angle_gamma   96.02144960
_symmetry_Int_Tables_number   1
_chemical_formula_structural   Li2TiCu2P5O2
_chemical_formula_sum   'Li2 Ti1 Cu2 P5 O2'
_cell_volume   341.51124333
_cell_formula_units_Z   1
loop_
 _symmetry_equiv_pos_site_id
 _symmetry_equiv_pos_as_xyz
  1  'x, y, z'
loop_
 _atom_site_type_symbol
 _atom_site_label
 _atom_site_symmetry_multiplicity
 _atom_site_fract_x
 _atom_site_fract_y
 _atom_site_fract_z
 _atom_site_occupancy
  P  P0  1  0.00000000  0.00000000  0.00000000  1
  P  P1  1  0.50000000  0.50000000  0.50000000  1
  P  P2  1  0.50000000  0.50000000  0.00000000  1
  P  P3  1  0.50000000  0.00000000  0.50000000  1
  P  P4  1  0.00000000  0.50000000  0.50000000  1
  Li  Li5  1  0.92774255  0.58279191  0.69465501  1
  Li  Li6  1  0.98778237  0.80434071  0.76492961  1
  Cu  Cu7  1  0.11417575  0.54671472  0.26265312  1
  Cu  Cu8  1  0.12051573  0.88045801  0.56155326  1
  Ti  Ti9  1  0.96391563  0.63389533  0.40285879  1
  O  O10  1  0.16049736  0.51955359  0.43970880  1
  O  O11  1  0.10665564  0.34101078  0.72509104  1
