# generated using pymatgen
data_Li2MnSb4P3
_symmetry_space_group_name_H-M   'P 1'
_cell_length_a   5.71512586
_cell_length_b   6.08819956
_cell_length_c   7.26620137
_cell_angle_alpha   95.04431669
_cell_angle_beta   95.97545921
_cell_angle_gamma   95.74105521
_symmetry_Int_Tables_number   1
_chemical_formula_structural   Li2MnSb4P3
_chemical_formula_sum   'Li2 Mn1 Sb4 P3'
_cell_volume   248.95280855
_cell_formula_units_Z   1
loop_
 _symmetry_equiv_pos_site_id
 _symmetry_equiv_pos_as_xyz
  1  'x, y, z'
loop_
 _atom_site_type_symbol
 _atom_site_label
 _atom_site_symmetry_multiplicity
 _atom_site_fract_x
 _atom_site_fract_y
 _atom_site_fract_z
 _atom_site_occupancy
  Mn  Mn0  1  0.00000000  0.00000000  0.00000000  1
  Sb  Sb1  1  0.50000000  0.50000000  0.50000000  1
  Sb  Sb2  1  0.25000000  0.25000000  0.25000000  1
  Sb  Sb3  1  0.75000000  0.25000000  0.00000000  1
  Sb  Sb4  1  0.25000000  0.75000000  0.50000000  1
  P  P5  1  0.17167736  0.97398315  0.21756447  1
  P  P6  1  0.48229493  0.75626623  0.86615059  1
  P  P7  1  0.07752948  0.41991539  0.44333132  1
  Li  Li8  1  0.10978375  0.63418942  0.42192475  1
  Li  Li9  1  0.91897064  0.26684293  0.35350515  1
