# generated using pymatgen
data_Li2Mn2P2N
_symmetry_space_group_name_H-M   'P 1'
_cell_length_a   4.48325584
_cell_length_b   4.78674266
_cell_length_c   6.04470689
_cell_angle_alpha   103.13008222
_cell_angle_beta   99.18327706
_cell_angle_gamma   99.38523592
_symmetry_Int_Tables_number   1
_chemical_formula_structural   Li2Mn2P2N
_chemical_formula_sum   'Li2 Mn2 P2 N1'
_cell_volume   122.00017428
_cell_formula_units_Z   1
loop_
 _symmetry_equiv_pos_site_id
 _symmetry_equiv_pos_as_xyz
  1  'x, y, z'
loop_
 _atom_site_type_symbol
 _atom_site_label
 _atom_site_symmetry_multiplicity
 _atom_site_fract_x
 _atom_site_fract_y
 _atom_site_fract_z
 _atom_site_occupancy
  Mn  Mn0  1  0.00000000  0.00000000  0.00000000  1
  Mn  Mn1  1  0.33300000  0.66700000  0.25000000  1
  P  P2  1  0.66700000  0.33300000  0.50000000  1
  P  P3  1  0.00000000  0.00000000  0.75000000  1
  Li  Li4  1  0.75199896  0.70303598  0.43741419  1
  Li  Li5  1  0.83310998  0.21660644  0.15891104  1
  N  N6  1  0.68887618  0.98207577  0.58446273  1
