# generated using pymatgen
data_Li3Ni2As6O7
_symmetry_space_group_name_H-M   'P 1'
_cell_length_a   7.67244676
_cell_length_b   7.47878358
_cell_length_c   8.67532052
_cell_angle_alpha   91.67214460
_cell_angle_beta   91.19778475
_cell_angle_gamma   91.93719724
_symmetry_Int_Tables_number   1
_chemical_formula_structural   Li3Ni2As6O7
_chemical_formula_sum   'Li3 Ni2 As6 O7'
_cell_volume   497.17906928
_cell_formula_units_Z   1
loop_
 _symmetry_equiv_pos_site_id
 _symmetry_equiv_pos_as_xyz
  1  'x, y, z'
loop_
 _atom_site_type_symbol
 _atom_site_label
 _atom_site_symmetry_multiplicity
 _atom_site_fract_x
 _atom_site_fract_y
 _atom_site_fract_z
 _atom_site_occupancy
  Li  Li0  1  0.00000000  0.00000000  0.00000000  1
  Li  Li1  1  0.50000000  0.50000000  0.50000000  1
  Li  Li2  1  0.25000000  0.25000000  0.25000000  1
  Ni  Ni3  1  0.75000000  0.25000000  0.00000000  1
  Ni  Ni4  1  0.25000000  0.75000000  0.50000000  1
  As  As5  1  0.62143632  0.99118621  0.44776519  1
  As  As6  1  0.24194644  0.48881729  0.55865675  1
  As  As7  1  0.60369086  0.94364880  0.01880555  1
  As  As8  1  0.93510169  0.75917580  0.68998695  1
  As  As9  1  0.74840943  0.53647628  0.02585457  1
  As  As10  1  0.61256261  0.17958846  0.02955570  1
  O  O11  1  0.37196390  0.92745779  0.59305813  1
  O  O12  1  0.44190738  0.93081539  0.55701267  1
  O  O13  1  0.46741717  0.21939238  0.65160378  1
  O  O14  1  0.25229432  0.56727190  0.49815067  1
  O  O15  1  0.64216022  0.85765988  0.69318262  1
  O  O16  1  0.18458948  0.71114828  0.53776890  1
  O  O17  1  0.03925397  0.62923119  0.02525745  1
