# generated using pymatgen
data_LiZnCu(TeP)3
_symmetry_space_group_name_H-M   'P 1'
_cell_length_a   8.44060504
_cell_length_b   8.74321857
_cell_length_c   7.50308203
_cell_angle_alpha   90.08519203
_cell_angle_beta   90.40531782
_cell_angle_gamma   90.09739724
_symmetry_Int_Tables_number   1
_chemical_formula_structural   LiZnCu(TeP)3
_chemical_formula_sum   'Li2 Zn2 Cu2 Te6 P6'
_cell_volume   553.69758117
_cell_formula_units_Z   2
loop_
 _symmetry_equiv_pos_site_id
 _symmetry_equiv_pos_as_xyz
  1  'x, y, z'
loop_
 _atom_site_type_symbol
 _atom_site_label
 _atom_site_symmetry_multiplicity
 _atom_site_fract_x
 _atom_site_fract_y
 _atom_site_fract_z
 _atom_site_occupancy
  P  P0  1  0.00000000  0.00000000  0.00000000  1
  P  P1  1  0.50000000  0.50000000  0.50000000  1
  P  P2  1  0.50000000  0.50000000  0.00000000  1
  P  P3  1  0.50000000  0.00000000  0.50000000  1
  P  P4  1  0.00000000  0.50000000  0.50000000  1
  P  P5  1  0.26799396  0.18857832  0.40701215  1
  Li  Li6  1  0.77341369  0.24362192  0.56114067  1
  Li  Li7  1  0.62451624  0.37003960  0.15057346  1
  Cu  Cu8  1  0.77444058  0.71237726  0.28994175  1
  Cu  Cu9  1  0.52938600  0.41942520  0.29671619  1
  Zn  Zn10  1  0.58726716  0.05527702  0.36382372  1
  Zn  Zn11  1  0.31482816  0.35393306  0.86078099  1
  Te  Te12  1  0.67841327  0.29820433  0.09895236  1
  Te  Te13  1  0.96026843  0.09750908  0.25156124  1
  Te  Te14  1  0.13761884  0.39987147  0.32610325  1
  Te  Te15  1  0.16659401  0.73252766  0.19865404  1
  Te  Te16  1  0.73052728  0.15936514  0.21389546  1
  Te  Te17  1  0.81461459  0.35673049  0.21714239  1
