# generated using pymatgen
data_Li2MnSb4Mo2P3
_symmetry_space_group_name_H-M   'P 1'
_cell_length_a   5.76620004
_cell_length_b   6.06905771
_cell_length_c   6.96598242
_cell_angle_alpha   96.89550428
_cell_angle_beta   93.18292223
_cell_angle_gamma   97.15364484
_symmetry_Int_Tables_number   1
_chemical_formula_structural   Li2MnSb4Mo2P3
_chemical_formula_sum   'Li2 Mn1 Sb4 Mo2 P3'
_cell_volume   239.51478779
_cell_formula_units_Z   1
loop_
 _symmetry_equiv_pos_site_id
 _symmetry_equiv_pos_as_xyz
  1  'x, y, z'
loop_
 _atom_site_type_symbol
 _atom_site_label
 _atom_site_symmetry_multiplicity
 _atom_site_fract_x
 _atom_site_fract_y
 _atom_site_fract_z
 _atom_site_occupancy
  Mn  Mn0  1  0.12500000  0.00000000  0.25000000  1
  Sb  Sb1  1  0.00000000  0.00000000  0.00000000  1
  Sb  Sb2  1  0.37500000  0.00000000  0.25000000  1
  Sb  Sb3  1  0.25000000  0.25000000  0.25000000  1
  Sb  Sb4  1  0.00000000  0.25000000  0.12500000  1
  P  P5  1  0.03399254  0.11198413  0.87643678  1
  P  P6  1  0.48434618  0.50838583  0.67159643  1
  P  P7  1  0.24317628  0.78367040  0.98280653  1
  Mo  Mo8  1  0.04812463  0.24105571  0.63736358  1
  Mo  Mo9  1  0.13237082  0.50551430  0.91836267  1
  Li  Li10  1  0.77328223  0.98243776  0.00829088  1
  Li  Li11  1  0.70539949  0.45919844  0.94323049  1
