# generated using pymatgen
data_LiTi3Nb2(OF)3
_symmetry_space_group_name_H-M   'P 1'
_cell_length_a   6.37324433
_cell_length_b   6.12435503
_cell_length_c   7.66307865
_cell_angle_alpha   90.95280081
_cell_angle_beta   94.53313689
_cell_angle_gamma   91.08930575
_symmetry_Int_Tables_number   1
_chemical_formula_structural   LiTi3Nb2(OF)3
_chemical_formula_sum   'Li1 Ti3 Nb2 O3 F3'
_cell_volume   298.06648801
_cell_formula_units_Z   1
loop_
 _symmetry_equiv_pos_site_id
 _symmetry_equiv_pos_as_xyz
  1  'x, y, z'
loop_
 _atom_site_type_symbol
 _atom_site_label
 _atom_site_symmetry_multiplicity
 _atom_site_fract_x
 _atom_site_fract_y
 _atom_site_fract_z
 _atom_site_occupancy
  Li  Li0  1  0.00000000  0.00000000  0.00000000  1
  Nb  Nb1  1  0.50000000  0.50000000  0.50000000  1
  Nb  Nb2  1  0.50000000  0.50000000  0.00000000  1
  F  F3  1  0.50000000  0.00000000  0.50000000  1
  F  F4  1  0.00000000  0.50000000  0.50000000  1
  F  F5  1  0.83219540  0.68925538  0.38367136  1
  Ti  Ti6  1  0.78717754  0.96742233  0.73241393  1
  Ti  Ti7  1  0.98457665  0.64775616  0.82847824  1
  Ti  Ti8  1  0.38258430  0.28199472  0.83272502  1
  O  O9  1  0.11031678  0.36679735  0.16631763  1
  O  O10  1  0.38266743  0.68459744  0.02360274  1
  O  O11  1  0.80156806  0.47511014  0.18499554  1
