# generated using pymatgen
data_Li2MnSb4P3
_symmetry_space_group_name_H-M   'P 1'
_cell_length_a   3.88860367
_cell_length_b   4.12262587
_cell_length_c   6.58628378
_cell_angle_alpha   101.66618947
_cell_angle_beta   98.77246209
_cell_angle_gamma   102.57467024
_symmetry_Int_Tables_number   1
_chemical_formula_structural   Li2MnSb4P3
_chemical_formula_sum   'Li2 Mn1 Sb4 P3'
_cell_volume   98.76847498
_cell_formula_units_Z   1
loop_
 _symmetry_equiv_pos_site_id
 _symmetry_equiv_pos_as_xyz
  1  'x, y, z'
loop_
 _atom_site_type_symbol
 _atom_site_label
 _atom_site_symmetry_multiplicity
 _atom_site_fract_x
 _atom_site_fract_y
 _atom_site_fract_z
 _atom_site_occupancy
  Mn  Mn0  1  0.12500000  0.12500000  0.12500000  1
  Sb  Sb1  1  0.50000000  0.50000000  0.50000000  1
  Sb  Sb2  1  0.25000000  0.25000000  0.25000000  1
  Sb  Sb3  1  0.75000000  0.75000000  0.75000000  1
  Sb  Sb4  1  0.05074336  0.10970026  0.74229041  1
  P  P5  1  0.99397327  0.87047425  0.84231500  1
  P  P6  1  0.64812815  0.44271749  0.52128322  1
  P  P7  1  0.15165817  0.90830411  0.28807342  1
  Li  Li8  1  0.16471036  0.94093062  0.10734305  1
  Li  Li9  1  0.92953561  0.40504837  0.26690658  1
