# generated using pymatgen
data_LiNi3(Sb2P)2
_symmetry_space_group_name_H-M   'P 1'
_cell_length_a   4.80350103
_cell_length_b   4.90818022
_cell_length_c   6.76206786
_cell_angle_alpha   98.30736295
_cell_angle_beta   96.92428213
_cell_angle_gamma   98.45299758
_symmetry_Int_Tables_number   1
_chemical_formula_structural   LiNi3(Sb2P)2
_chemical_formula_sum   'Li1 Ni3 Sb4 P2'
_cell_volume   154.39284065
_cell_formula_units_Z   1
loop_
 _symmetry_equiv_pos_site_id
 _symmetry_equiv_pos_as_xyz
  1  'x, y, z'
loop_
 _atom_site_type_symbol
 _atom_site_label
 _atom_site_symmetry_multiplicity
 _atom_site_fract_x
 _atom_site_fract_y
 _atom_site_fract_z
 _atom_site_occupancy
  Sb  Sb0  1  0.00000000  0.00000000  0.00000000  1
  Sb  Sb1  1  0.50000000  0.50000000  0.50000000  1
  Sb  Sb2  1  0.25000000  0.25000000  0.25000000  1
  Sb  Sb3  1  0.75000000  0.25000000  0.00000000  1
  P  P4  1  0.25000000  0.75000000  0.50000000  1
  P  P5  1  0.51276489  0.32241837  0.65160844  1
  Li  Li6  1  0.52661308  0.38445777  0.57511624  1
  Ni  Ni7  1  0.25422473  0.55490557  0.26199202  1
  Ni  Ni8  1  0.82181811  0.65745702  0.56844773  1
  Ni  Ni9  1  0.59979725  0.72951106  0.33956191  1
