# generated using pymatgen
data_Li2Mn2Sb4Mo2P3
_symmetry_space_group_name_H-M   'P 1'
_cell_length_a   5.64620395
_cell_length_b   6.05984904
_cell_length_c   6.80048534
_cell_angle_alpha   97.58353882
_cell_angle_beta   92.55366274
_cell_angle_gamma   97.73557464
_symmetry_Int_Tables_number   1
_chemical_formula_structural   Li2Mn2Sb4Mo2P3
_chemical_formula_sum   'Li2 Mn2 Sb4 Mo2 P3'
_cell_volume   228.08508756
_cell_formula_units_Z   1
loop_
 _symmetry_equiv_pos_site_id
 _symmetry_equiv_pos_as_xyz
  1  'x, y, z'
loop_
 _atom_site_type_symbol
 _atom_site_label
 _atom_site_symmetry_multiplicity
 _atom_site_fract_x
 _atom_site_fract_y
 _atom_site_fract_z
 _atom_site_occupancy
  Mn  Mn0  1  0.12500000  0.00000000  0.25000000  1
  Mn  Mn1  1  0.00000000  0.00000000  0.00000000  1
  Sb  Sb2  1  0.37500000  0.00000000  0.25000000  1
  Sb  Sb3  1  0.25000000  0.25000000  0.25000000  1
  Sb  Sb4  1  0.00000000  0.25000000  0.12500000  1
  Sb  Sb5  1  0.83707098  0.19854714  0.63617856  1
  P  P6  1  0.33309330  0.91323894  0.72055920  1
  P  P7  1  0.09350093  0.16437049  0.37009368  1
  P  P8  1  0.30780732  0.85579902  0.17822846  1
  Mo  Mo9  1  0.01972701  0.79022244  0.56289292  1
  Mo  Mo10  1  0.75265360  0.75282679  0.21763733  1
  Li  Li11  1  0.03652827  0.13134928  0.61893026  1
  Li  Li12  1  0.51847603  0.33668583  0.18464201  1
