# generated using pymatgen
data_Li2MnSb4P3
_symmetry_space_group_name_H-M   'P 1'
_cell_length_a   5.78107599
_cell_length_b   5.90572998
_cell_length_c   7.05887284
_cell_angle_alpha   96.98281333
_cell_angle_beta   93.61370648
_cell_angle_gamma   97.29860246
_symmetry_Int_Tables_number   1
_chemical_formula_structural   Li2MnSb4P3
_chemical_formula_sum   'Li2 Mn1 Sb4 P3'
_cell_volume   236.51962140
_cell_formula_units_Z   1
loop_
 _symmetry_equiv_pos_site_id
 _symmetry_equiv_pos_as_xyz
  1  'x, y, z'
loop_
 _atom_site_type_symbol
 _atom_site_label
 _atom_site_symmetry_multiplicity
 _atom_site_fract_x
 _atom_site_fract_y
 _atom_site_fract_z
 _atom_site_occupancy
  Mn  Mn0  1  0.00000000  0.00000000  0.00000000  1
  Sb  Sb1  1  0.50000000  0.50000000  0.50000000  1
  Sb  Sb2  1  0.50000000  0.50000000  0.00000000  1
  Sb  Sb3  1  0.50000000  0.00000000  0.50000000  1
  Sb  Sb4  1  0.00000000  0.50000000  0.50000000  1
  P  P5  1  0.08224331  0.60322867  0.42593875  1
  P  P6  1  0.16371927  0.17684825  0.11837920  1
  P  P7  1  0.42953616  0.60093084  0.83575718  1
  Li  Li8  1  0.94242563  0.02693048  0.31585654  1
  Li  Li9  1  0.10875331  0.15390075  0.38882817  1
