# generated using pymatgen
data_Li2TiCu2(As3O)2
_symmetry_space_group_name_H-M   'P 1'
_cell_length_a   6.55959578
_cell_length_b   7.10122177
_cell_length_c   7.90839631
_cell_angle_alpha   92.77941781
_cell_angle_beta   95.01306905
_cell_angle_gamma   93.39044447
_symmetry_Int_Tables_number   1
_chemical_formula_structural   Li2TiCu2(As3O)2
_chemical_formula_sum   'Li2 Ti1 Cu2 As6 O2'
_cell_volume   365.79700704
_cell_formula_units_Z   1
loop_
 _symmetry_equiv_pos_site_id
 _symmetry_equiv_pos_as_xyz
  1  'x, y, z'
loop_
 _atom_site_type_symbol
 _atom_site_label
 _atom_site_symmetry_multiplicity
 _atom_site_fract_x
 _atom_site_fract_y
 _atom_site_fract_z
 _atom_site_occupancy
  Li  Li0  1  0.00000000  0.00000000  0.00000000  1
  Li  Li1  1  0.50000000  0.50000000  0.50000000  1
  Cu  Cu2  1  0.25000000  0.25000000  0.25000000  1
  Cu  Cu3  1  0.75000000  0.25000000  0.00000000  1
  Ti  Ti4  1  0.25000000  0.75000000  0.50000000  1
  As  As5  1  0.28242489  0.66297922  0.37435465  1
  As  As6  1  0.05218150  0.11713790  0.89651553  1
  As  As7  1  0.81466601  0.23397032  0.86351544  1
  As  As8  1  0.03339207  0.26116916  0.16250581  1
  As  As9  1  0.26414810  0.41696393  0.70946888  1
  As  As10  1  0.01351164  0.15859347  0.20675649  1
  O  O11  1  0.92675636  0.66351487  0.38848548  1
  O  O12  1  0.93896206  0.00748528  0.36555882  1
