# generated using pymatgen
data_LiAs3
_symmetry_space_group_name_H-M   'P 1'
_cell_length_a   7.80093866
_cell_length_b   7.81894902
_cell_length_c   8.26222708
_cell_angle_alpha   90.37589434
_cell_angle_beta   91.78839110
_cell_angle_gamma   90.42974760
_symmetry_Int_Tables_number   1
_chemical_formula_structural   LiAs3
_chemical_formula_sum   'Li2 As6'
_cell_volume   503.68442888
_cell_formula_units_Z   2
loop_
 _symmetry_equiv_pos_site_id
 _symmetry_equiv_pos_as_xyz
  1  'x, y, z'
loop_
 _atom_site_type_symbol
 _atom_site_label
 _atom_site_symmetry_multiplicity
 _atom_site_fract_x
 _atom_site_fract_y
 _atom_site_fract_z
 _atom_site_occupancy
  As  As0  1  0.12500000  0.12500000  0.12500000  1
  As  As1  1  0.50000000  0.50000000  0.50000000  1
  As  As2  1  0.25000000  0.25000000  0.25000000  1
  As  As3  1  0.75000000  0.75000000  0.75000000  1
  As  As4  1  0.57727356  0.74130901  0.70801111  1
  As  As5  1  0.91899958  0.45603010  0.93115112  1
  Li  Li6  1  0.55257873  0.44280952  0.95929507  1
  Li  Li7  1  0.67493076  0.46019072  0.21293820  1
