# generated using pymatgen
data_Li3Lu(NiI2)2
_symmetry_space_group_name_H-M   'P 1'
_cell_length_a   8.07984334
_cell_length_b   7.90615082
_cell_length_c   8.05733014
_cell_angle_alpha   91.06022327
_cell_angle_beta   90.80924006
_cell_angle_gamma   91.22809211
_symmetry_Int_Tables_number   1
_chemical_formula_structural   Li3Lu(NiI2)2
_chemical_formula_sum   'Li3 Lu1 Ni2 I4'
_cell_volume   514.44534484
_cell_formula_units_Z   1
loop_
 _symmetry_equiv_pos_site_id
 _symmetry_equiv_pos_as_xyz
  1  'x, y, z'
loop_
 _atom_site_type_symbol
 _atom_site_label
 _atom_site_symmetry_multiplicity
 _atom_site_fract_x
 _atom_site_fract_y
 _atom_site_fract_z
 _atom_site_occupancy
  I  I0  1  0.12500000  0.00000000  0.25000000  1
  I  I1  1  0.00000000  0.00000000  0.00000000  1
  I  I2  1  0.37500000  0.00000000  0.25000000  1
  I  I3  1  0.25000000  0.25000000  0.25000000  1
  Lu  Lu4  1  0.00000000  0.25000000  0.12500000  1
  Li  Li5  1  0.25064397  0.99213098  0.55118304  1
  Li  Li6  1  0.85672796  0.42340341  0.24275520  1
  Li  Li7  1  0.65467764  0.86086071  0.24850822  1
  Ni  Ni8  1  0.80352157  0.17325492  0.91952111  1
  Ni  Ni9  1  0.58686023  0.31431694  0.36847524  1
