# generated using pymatgen
data_Li2Cu2Ni2As6F3
_symmetry_space_group_name_H-M   'P 1'
_cell_length_a   7.50494778
_cell_length_b   7.45175108
_cell_length_c   8.58488692
_cell_angle_alpha   91.14364921
_cell_angle_beta   92.27185983
_cell_angle_gamma   91.31002619
_symmetry_Int_Tables_number   1
_chemical_formula_structural   Li2Cu2Ni2As6F3
_chemical_formula_sum   'Li2 Cu2 Ni2 As6 F3'
_cell_volume   479.50242717
_cell_formula_units_Z   1
loop_
 _symmetry_equiv_pos_site_id
 _symmetry_equiv_pos_as_xyz
  1  'x, y, z'
loop_
 _atom_site_type_symbol
 _atom_site_label
 _atom_site_symmetry_multiplicity
 _atom_site_fract_x
 _atom_site_fract_y
 _atom_site_fract_z
 _atom_site_occupancy
  Li  Li0  1  0.00000000  0.00000000  0.00000000  1
  Li  Li1  1  0.50000000  0.50000000  0.50000000  1
  Cu  Cu2  1  0.50000000  0.50000000  0.00000000  1
  Cu  Cu3  1  0.50000000  0.00000000  0.50000000  1
  F  F4  1  0.00000000  0.50000000  0.50000000  1
  F  F5  1  0.00320514  0.41652974  0.97766463  1
  F  F6  1  0.63763305  0.90873628  0.30349710  1
  Ni  Ni7  1  0.58032606  0.18527650  0.28638202  1
  Ni  Ni8  1  0.29307444  0.37391269  0.57028724  1
  As  As9  1  0.99826387  0.03827803  0.85652839  1
  As  As10  1  0.38527416  0.85598512  0.06760832  1
  As  As11  1  0.04575366  0.44398224  0.28206577  1
  As  As12  1  0.43793571  0.60780718  0.91066329  1
  As  As13  1  0.26862430  0.18774931  0.31771370  1
  As  As14  1  0.96570280  0.25030091  0.30354439  1
