# generated using pymatgen
data_Li2LuCu2As6P5
_symmetry_space_group_name_H-M   'P 1'
_cell_length_a   7.74583963
_cell_length_b   7.55387653
_cell_length_c   8.06602971
_cell_angle_alpha   91.19313885
_cell_angle_beta   91.43099071
_cell_angle_gamma   91.38009018
_symmetry_Int_Tables_number   1
_chemical_formula_structural   Li2LuCu2As6P5
_chemical_formula_sum   'Li2 Lu1 Cu2 As6 P5'
_cell_volume   471.55996178
_cell_formula_units_Z   1
loop_
 _symmetry_equiv_pos_site_id
 _symmetry_equiv_pos_as_xyz
  1  'x, y, z'
loop_
 _atom_site_type_symbol
 _atom_site_label
 _atom_site_symmetry_multiplicity
 _atom_site_fract_x
 _atom_site_fract_y
 _atom_site_fract_z
 _atom_site_occupancy
  P  P0  1  0.00000000  0.00000000  0.00000000  1
  P  P1  1  0.50000000  0.50000000  0.50000000  1
  P  P2  1  0.50000000  0.50000000  0.00000000  1
  P  P3  1  0.50000000  0.00000000  0.50000000  1
  P  P4  1  0.00000000  0.50000000  0.50000000  1
  Lu  Lu5  1  0.99589408  0.05955034  0.22669703  1
  Li  Li6  1  0.17926395  0.13859036  0.77355914  1
  Li  Li7  1  0.12726505  0.13419488  0.05991731  1
  Cu  Cu8  1  0.10078189  0.48459183  0.42486733  1
  Cu  Cu9  1  0.08546779  0.70794488  0.82585031  1
  As  As10  1  0.78618188  0.16090478  0.17856862  1
  As  As11  1  0.68150943  0.01760411  0.92730156  1
  As  As12  1  0.00932479  0.63856060  0.81927603  1
  As  As13  1  0.97754273  0.13106940  0.56835398  1
  As  As14  1  0.07446258  0.77289270  0.81346970  1
  As  As15  1  0.26775936  0.59252416  0.03946974  1
