# generated using pymatgen
data_Li3TiZn2(IO)4
_symmetry_space_group_name_H-M   'P 1'
_cell_length_a   8.74961706
_cell_length_b   8.90460517
_cell_length_c   7.22173452
_cell_angle_alpha   90.00000000
_cell_angle_beta   90.00000000
_cell_angle_gamma   90.00000000
_symmetry_Int_Tables_number   1
_chemical_formula_structural   Li3TiZn2(IO)4
_chemical_formula_sum   'Li3 Ti1 Zn2 I4 O4'
_cell_volume   562.65895130
_cell_formula_units_Z   1
loop_
 _symmetry_equiv_pos_site_id
 _symmetry_equiv_pos_as_xyz
  1  'x, y, z'
loop_
 _atom_site_type_symbol
 _atom_site_label
 _atom_site_symmetry_multiplicity
 _atom_site_fract_x
 _atom_site_fract_y
 _atom_site_fract_z
 _atom_site_occupancy
  I  I0  1  0.00000000  0.00000000  0.00000000  1
  I  I1  1  0.50000000  0.50000000  0.50000000  1
  I  I2  1  0.25000000  0.25000000  0.25000000  1
  I  I3  1  0.75000000  0.25000000  0.00000000  1
  Li  Li4  1  0.25000000  0.75000000  0.50000000  1
  Li  Li5  1  0.13045105  0.40801057  0.92054399  1
  Li  Li6  1  0.40825655  0.37116134  0.34304910  1
  Zn  Zn7  1  0.21379697  0.80901690  0.74878829  1
  Zn  Zn8  1  0.42087142  0.45438148  0.05456464  1
  Ti  Ti9  1  0.56661230  0.62946989  0.93392244  1
  O  O10  1  0.02422604  0.34096158  0.55915317  1
  O  O11  1  0.06994112  0.30226662  0.88357545  1
  O  O12  1  0.12762965  0.50426877  0.57069242  1
  O  O13  1  0.30880465  0.04667558  0.54556754  1
