# generated using pymatgen
data_LiTi2Nb2O3F2
_symmetry_space_group_name_H-M   'P 1'
_cell_length_a   7.60571785
_cell_length_b   7.31915584
_cell_length_c   7.83318474
_cell_angle_alpha   90.48316964
_cell_angle_beta   92.29877439
_cell_angle_gamma   90.55239191
_symmetry_Int_Tables_number   1
_chemical_formula_structural   LiTi2Nb2O3F2
_chemical_formula_sum   'Li1 Ti2 Nb2 O3 F2'
_cell_volume   435.66516100
_cell_formula_units_Z   1
loop_
 _symmetry_equiv_pos_site_id
 _symmetry_equiv_pos_as_xyz
  1  'x, y, z'
loop_
 _atom_site_type_symbol
 _atom_site_label
 _atom_site_symmetry_multiplicity
 _atom_site_fract_x
 _atom_site_fract_y
 _atom_site_fract_z
 _atom_site_occupancy
  Li  Li0  1  0.00000000  0.00000000  0.00000000  1
  Nb  Nb1  1  0.50000000  0.50000000  0.50000000  1
  Nb  Nb2  1  0.25000000  0.25000000  0.25000000  1
  F  F3  1  0.75000000  0.25000000  0.00000000  1
  F  F4  1  0.25000000  0.75000000  0.50000000  1
  Ti  Ti5  1  0.26199904  0.84248186  0.73748662  1
  Ti  Ti6  1  0.66923036  0.83235665  0.35826539  1
  O  O7  1  0.39838729  0.59879270  0.83913175  1
  O  O8  1  0.96515431  0.51284069  0.25715340  1
  O  O9  1  0.52860283  0.87436780  0.29683604  1
