# generated using pymatgen
data_Li3P6SeCl2
_symmetry_space_group_name_H-M   'P 1'
_cell_length_a   6.00590782
_cell_length_b   5.62630350
_cell_length_c   7.06217318
_cell_angle_alpha   101.71241821
_cell_angle_beta   104.95406799
_cell_angle_gamma   101.01805785
_symmetry_Int_Tables_number   1
_chemical_formula_structural   Li3P6SeCl2
_chemical_formula_sum   'Li3 P6 Se1 Cl2'
_cell_volume   218.14926605
_cell_formula_units_Z   1
loop_
 _symmetry_equiv_pos_site_id
 _symmetry_equiv_pos_as_xyz
  1  'x, y, z'
loop_
 _atom_site_type_symbol
 _atom_site_label
 _atom_site_symmetry_multiplicity
 _atom_site_fract_x
 _atom_site_fract_y
 _atom_site_fract_z
 _atom_site_occupancy
  P  P0  1  0.00000000  0.00000000  0.00000000  1
  P  P1  1  0.50000000  0.50000000  0.50000000  1
  P  P2  1  0.25000000  0.25000000  0.25000000  1
  P  P3  1  0.75000000  0.25000000  0.00000000  1
  P  P4  1  0.25000000  0.75000000  0.50000000  1
  P  P5  1  0.69854597  0.61844832  0.69495175  1
  Li  Li6  1  0.32848809  0.78907050  0.83845156  1
  Li  Li7  1  0.41250846  0.18426805  0.06604167  1
  Li  Li8  1  0.95245576  0.47288158  0.23315381  1
  Se  Se9  1  0.46103882  0.20083172  0.88847435  1
  Cl  Cl10  1  0.16966759  0.58647537  0.19682710  1
  Cl  Cl11  1  0.63026572  0.54055247  0.42293294  1
