# generated using pymatgen
data_Li3Cu2As6I4O3
_symmetry_space_group_name_H-M   'P 1'
_cell_length_a   7.16791016
_cell_length_b   7.04309638
_cell_length_c   7.56961177
_cell_angle_alpha   95.07287188
_cell_angle_beta   97.07672033
_cell_angle_gamma   94.77907615
_symmetry_Int_Tables_number   1
_chemical_formula_structural   Li3Cu2As6I4O3
_chemical_formula_sum   'Li3 Cu2 As6 I4 O3'
_cell_volume   376.03037191
_cell_formula_units_Z   1
loop_
 _symmetry_equiv_pos_site_id
 _symmetry_equiv_pos_as_xyz
  1  'x, y, z'
loop_
 _atom_site_type_symbol
 _atom_site_label
 _atom_site_symmetry_multiplicity
 _atom_site_fract_x
 _atom_site_fract_y
 _atom_site_fract_z
 _atom_site_occupancy
  I  I0  1  0.12500000  0.00000000  0.25000000  1
  I  I1  1  0.00000000  0.00000000  0.00000000  1
  I  I2  1  0.37500000  0.00000000  0.25000000  1
  I  I3  1  0.25000000  0.25000000  0.25000000  1
  Li  Li4  1  0.00000000  0.25000000  0.12500000  1
  Li  Li5  1  0.40934362  0.76830498  0.69428050  1
  Li  Li6  1  0.31214758  0.23081176  0.15672479  1
  Cu  Cu7  1  0.34861264  0.86793058  0.69555744  1
  Cu  Cu8  1  0.14214089  0.10318474  0.77366961  1
  As  As9  1  0.96582270  0.95172845  0.22089406  1
  As  As10  1  0.43038991  0.75153713  0.30486325  1
  As  As11  1  0.67180234  0.48602160  0.80107751  1
  As  As12  1  0.62324571  0.17769337  0.36420824  1
  As  As13  1  0.90123352  0.34227218  0.57527400  1
  As  As14  1  0.28559729  0.24080044  0.54095712  1
  O  O15  1  0.65208856  0.95598715  0.58076942  1
  O  O16  1  0.17671594  0.97019060  0.94710460  1
  O  O17  1  0.88584398  0.78533299  0.85797204  1
