# generated using pymatgen
data_Li2LuCu2P5
_symmetry_space_group_name_H-M   'P 1'
_cell_length_a   7.44419698
_cell_length_b   7.35656810
_cell_length_c   8.44756155
_cell_angle_alpha   91.99102382
_cell_angle_beta   92.87391196
_cell_angle_gamma   92.11581572
_symmetry_Int_Tables_number   1
_chemical_formula_structural   Li2LuCu2P5
_chemical_formula_sum   'Li2 Lu1 Cu2 P5'
_cell_volume   461.41278181
_cell_formula_units_Z   1
loop_
 _symmetry_equiv_pos_site_id
 _symmetry_equiv_pos_as_xyz
  1  'x, y, z'
loop_
 _atom_site_type_symbol
 _atom_site_label
 _atom_site_symmetry_multiplicity
 _atom_site_fract_x
 _atom_site_fract_y
 _atom_site_fract_z
 _atom_site_occupancy
  P  P0  1  0.12500000  0.00000000  0.25000000  1
  P  P1  1  0.00000000  0.00000000  0.00000000  1
  P  P2  1  0.37500000  0.00000000  0.25000000  1
  P  P3  1  0.25000000  0.25000000  0.25000000  1
  P  P4  1  0.00000000  0.25000000  0.12500000  1
  Lu  Lu5  1  0.92848836  0.68717167  0.99080283  1
  Li  Li6  1  0.61010988  0.35817507  0.90215016  1
  Li  Li7  1  0.96174222  0.40744615  0.40151696  1
  Cu  Cu8  1  0.01957879  0.37608018  0.28647104  1
  Cu  Cu9  1  0.20899026  0.19963194  0.11431464  1
