# generated using pymatgen
data_LiNiP2
_symmetry_space_group_name_H-M   'P 1'
_cell_length_a   7.93748174
_cell_length_b   7.68551078
_cell_length_c   8.32828228
_cell_angle_alpha   91.32067569
_cell_angle_beta   91.20456096
_cell_angle_gamma   91.52904161
_symmetry_Int_Tables_number   1
_chemical_formula_structural   LiNiP2
_chemical_formula_sum   'Li2 Ni2 P4'
_cell_volume   507.62038219
_cell_formula_units_Z   2
loop_
 _symmetry_equiv_pos_site_id
 _symmetry_equiv_pos_as_xyz
  1  'x, y, z'
loop_
 _atom_site_type_symbol
 _atom_site_label
 _atom_site_symmetry_multiplicity
 _atom_site_fract_x
 _atom_site_fract_y
 _atom_site_fract_z
 _atom_site_occupancy
  P  P0  1  0.12500000  0.00000000  0.25000000  1
  P  P1  1  0.00000000  0.00000000  0.00000000  1
  P  P2  1  0.37500000  0.00000000  0.25000000  1
  P  P3  1  0.25000000  0.25000000  0.25000000  1
  Li  Li4  1  0.00000000  0.25000000  0.12500000  1
  Li  Li5  1  0.35801012  0.02801573  0.45173651  1
  Ni  Ni6  1  0.09798252  0.17776639  0.01628962  1
  Ni  Ni7  1  0.94565072  0.31124711  0.57829785  1
