# generated using pymatgen
data_Li2Ni2As6O7
_symmetry_space_group_name_H-M   'P 1'
_cell_length_a   7.56743979
_cell_length_b   7.63527608
_cell_length_c   8.64351830
_cell_angle_alpha   90.87728610
_cell_angle_beta   91.86470106
_cell_angle_gamma   91.01168213
_symmetry_Int_Tables_number   1
_chemical_formula_structural   Li2Ni2As6O7
_chemical_formula_sum   'Li2 Ni2 As6 O7'
_cell_volume   499.01276037
_cell_formula_units_Z   1
loop_
 _symmetry_equiv_pos_site_id
 _symmetry_equiv_pos_as_xyz
  1  'x, y, z'
loop_
 _atom_site_type_symbol
 _atom_site_label
 _atom_site_symmetry_multiplicity
 _atom_site_fract_x
 _atom_site_fract_y
 _atom_site_fract_z
 _atom_site_occupancy
  Ni  Ni0  1  0.00000000  0.00000000  0.00000000  1
  Ni  Ni1  1  0.50000000  0.50000000  0.50000000  1
  O  O2  1  0.25000000  0.25000000  0.25000000  1
  O  O3  1  0.75000000  0.25000000  0.00000000  1
  O  O4  1  0.25000000  0.75000000  0.50000000  1
  O  O5  1  0.17642085  0.06768299  0.32322840  1
  O  O6  1  0.10314592  0.25750573  0.45269494  1
  O  O7  1  0.88189611  0.09667791  0.22073728  1
  O  O8  1  0.48119777  0.35436112  0.28532373  1
  As  As9  1  0.28484350  0.52366597  0.72180650  1
  As  As10  1  0.04064273  0.17477553  0.90299730  1
  As  As11  1  0.28610692  0.77210696  0.39241583  1
  As  As12  1  0.36128621  0.30636561  0.18590675  1
  As  As13  1  0.65773026  0.21429393  0.13933161  1
  As  As14  1  0.18308206  0.00842383  0.31185288  1
  Li  Li15  1  0.41171523  0.25295002  0.75088085  1
  Li  Li16  1  0.67976021  0.43077530  0.25280000  1
