# generated using pymatgen
data_Li3TiI4N5O4
_symmetry_space_group_name_H-M   'P 1'
_cell_length_a   8.48419207
_cell_length_b   8.29706367
_cell_length_c   7.72981274
_cell_angle_alpha   90.89674151
_cell_angle_beta   90.31703578
_cell_angle_gamma   91.04011160
_symmetry_Int_Tables_number   1
_chemical_formula_structural   Li3TiI4N5O4
_chemical_formula_sum   'Li3 Ti1 I4 N5 O4'
_cell_volume   543.96602723
_cell_formula_units_Z   1
loop_
 _symmetry_equiv_pos_site_id
 _symmetry_equiv_pos_as_xyz
  1  'x, y, z'
loop_
 _atom_site_type_symbol
 _atom_site_label
 _atom_site_symmetry_multiplicity
 _atom_site_fract_x
 _atom_site_fract_y
 _atom_site_fract_z
 _atom_site_occupancy
  I  I0  1  0.00000000  0.00000000  0.00000000  1
  I  I1  1  0.50000000  0.50000000  0.50000000  1
  I  I2  1  0.50000000  0.50000000  0.00000000  1
  I  I3  1  0.50000000  0.00000000  0.50000000  1
  Li  Li4  1  0.00000000  0.50000000  0.50000000  1
  Li  Li5  1  0.16110646  0.69355218  0.29572396  1
  Li  Li6  1  0.83607906  0.28628043  0.32887608  1
  Ti  Ti7  1  0.21574534  0.45244916  0.79984429  1
  O  O8  1  0.14321172  0.84809675  0.01641768  1
  O  O9  1  0.57832582  0.57583280  0.56163265  1
  O  O10  1  0.14252567  0.58102851  0.34385766  1
  O  O11  1  0.29889077  0.60217698  0.01364066  1
  N  N12  1  0.56138986  0.45929866  0.98657288  1
  N  N13  1  0.71074539  0.78275110  0.84020374  1
  N  N14  1  0.89832694  0.37697139  0.72101478  1
  N  N15  1  0.46720112  0.44582902  0.69180351  1
  N  N16  1  0.65749072  0.91115123  0.48616064  1
