# generated using pymatgen
data_Li2Mn3Sb2P3
_symmetry_space_group_name_H-M   'P 1'
_cell_length_a   5.18106107
_cell_length_b   5.45688353
_cell_length_c   6.16479390
_cell_angle_alpha   100.36453643
_cell_angle_beta   90.18205615
_cell_angle_gamma   100.00285274
_symmetry_Int_Tables_number   1
_chemical_formula_structural   Li2Mn3Sb2P3
_chemical_formula_sum   'Li2 Mn3 Sb2 P3'
_cell_volume   168.73700879
_cell_formula_units_Z   1
loop_
 _symmetry_equiv_pos_site_id
 _symmetry_equiv_pos_as_xyz
  1  'x, y, z'
loop_
 _atom_site_type_symbol
 _atom_site_label
 _atom_site_symmetry_multiplicity
 _atom_site_fract_x
 _atom_site_fract_y
 _atom_site_fract_z
 _atom_site_occupancy
  Mn  Mn0  1  0.12500000  0.12500000  0.12500000  1
  Mn  Mn1  1  0.50000000  0.50000000  0.50000000  1
  Mn  Mn2  1  0.25000000  0.25000000  0.25000000  1
  Sb  Sb3  1  0.75000000  0.75000000  0.75000000  1
  Sb  Sb4  1  0.86784755  0.03322862  0.79699643  1
  P  P5  1  0.23172381  0.00672301  0.80401720  1
  P  P6  1  0.55714299  0.42020347  0.64497995  1
  P  P7  1  0.01571933  0.30339453  0.51961184  1
  Li  Li8  1  0.91451591  0.30896383  0.99674250  1
  Li  Li9  1  0.72784260  0.03907894  0.92758995  1
