# generated using pymatgen
data_LiScTi2O3F2
_symmetry_space_group_name_H-M   'P 1'
_cell_length_a   7.04665478
_cell_length_b   7.84392109
_cell_length_c   8.23417845
_cell_angle_alpha   90.59233218
_cell_angle_beta   92.81813660
_cell_angle_gamma   90.67719384
_symmetry_Int_Tables_number   1
_chemical_formula_structural   LiScTi2O3F2
_chemical_formula_sum   'Li1 Sc1 Ti2 O3 F2'
_cell_volume   454.52172977
_cell_formula_units_Z   1
loop_
 _symmetry_equiv_pos_site_id
 _symmetry_equiv_pos_as_xyz
  1  'x, y, z'
loop_
 _atom_site_type_symbol
 _atom_site_label
 _atom_site_symmetry_multiplicity
 _atom_site_fract_x
 _atom_site_fract_y
 _atom_site_fract_z
 _atom_site_occupancy
  Sc  Sc0  1  0.00000000  0.00000000  0.00000000  1
  Li  Li1  1  0.50000000  0.50000000  0.50000000  1
  F  F2  1  0.50000000  0.50000000  0.00000000  1
  F  F3  1  0.50000000  0.00000000  0.50000000  1
  Ti  Ti4  1  0.00000000  0.50000000  0.50000000  1
  Ti  Ti5  1  0.61785547  0.25135986  0.58270718  1
  O  O6  1  0.81603267  0.26704787  0.48710796  1
  O  O7  1  0.21270026  0.94314688  0.10797050  1
  O  O8  1  0.55372871  0.68741000  0.19111842  1
