# generated using pymatgen
data_Li2Zn2Te6I4F3
_symmetry_space_group_name_H-M   'P 1'
_cell_length_a   7.93621136
_cell_length_b   8.07199404
_cell_length_c   8.06816855
_cell_angle_alpha   91.01926314
_cell_angle_beta   91.16493452
_cell_angle_gamma   91.17610058
_symmetry_Int_Tables_number   1
_chemical_formula_structural   Li2Zn2Te6I4F3
_chemical_formula_sum   'Li2 Zn2 Te6 I4 F3'
_cell_volume   516.55396621
_cell_formula_units_Z   1
loop_
 _symmetry_equiv_pos_site_id
 _symmetry_equiv_pos_as_xyz
  1  'x, y, z'
loop_
 _atom_site_type_symbol
 _atom_site_label
 _atom_site_symmetry_multiplicity
 _atom_site_fract_x
 _atom_site_fract_y
 _atom_site_fract_z
 _atom_site_occupancy
  I  I0  1  0.00000000  0.00000000  0.00000000  1
  I  I1  1  0.50000000  0.50000000  0.50000000  1
  I  I2  1  0.25000000  0.25000000  0.25000000  1
  I  I3  1  0.75000000  0.25000000  0.00000000  1
  Li  Li4  1  0.25000000  0.75000000  0.50000000  1
  Li  Li5  1  0.72337251  0.42372255  0.10282071  1
  Zn  Zn6  1  0.78252495  0.42758307  0.86000603  1
  Zn  Zn7  1  0.15896336  0.32391892  0.11920171  1
  F  F8  1  0.97145968  0.75087376  0.65948672  1
  F  F9  1  0.77016538  0.16243591  0.63984556  1
  F  F10  1  0.03743172  0.10098041  0.06683697  1
  Te  Te11  1  0.97284728  0.36631328  0.73436260  1
  Te  Te12  1  0.20699334  0.82726343  0.96025751  1
  Te  Te13  1  0.98350689  0.12635555  0.51044716  1
  Te  Te14  1  0.12026608  0.05631146  0.53381229  1
  Te  Te15  1  0.76651694  0.19251512  0.56697659  1
  Te  Te16  1  0.43314354  0.18260192  0.15658638  1
