# generated using pymatgen
data_Li2Mn2(SbP)3
_symmetry_space_group_name_H-M   'P 1'
_cell_length_a   5.54303679
_cell_length_b   5.98695680
_cell_length_c   7.10457822
_cell_angle_alpha   95.13063600
_cell_angle_beta   95.92416349
_cell_angle_gamma   95.77135240
_symmetry_Int_Tables_number   1
_chemical_formula_structural   Li2Mn2(SbP)3
_chemical_formula_sum   'Li2 Mn2 Sb3 P3'
_cell_volume   232.13445206
_cell_formula_units_Z   1
loop_
 _symmetry_equiv_pos_site_id
 _symmetry_equiv_pos_as_xyz
  1  'x, y, z'
loop_
 _atom_site_type_symbol
 _atom_site_label
 _atom_site_symmetry_multiplicity
 _atom_site_fract_x
 _atom_site_fract_y
 _atom_site_fract_z
 _atom_site_occupancy
  Mn  Mn0  1  0.00000000  0.00000000  0.00000000  1
  Mn  Mn1  1  0.33300000  0.66700000  0.25000000  1
  Sb  Sb2  1  0.66700000  0.33300000  0.50000000  1
  Sb  Sb3  1  0.00000000  0.00000000  0.75000000  1
  Sb  Sb4  1  0.54042133  0.85128492  0.12666454  1
  P  P5  1  0.25374519  0.38027859  0.79533338  1
  P  P6  1  0.08341352  0.75158884  0.35755997  1
  P  P7  1  0.65767930  0.94281014  0.73543703  1
  Li  Li8  1  0.29213133  0.42445729  0.42175443  1
  Li  Li9  1  0.39671361  0.67411599  0.47697083  1
