# generated using pymatgen
data_LiSb4Mo2P3
_symmetry_space_group_name_H-M   'P 1'
_cell_length_a   5.23772872
_cell_length_b   5.35317865
_cell_length_c   6.19559706
_cell_angle_alpha   94.66734157
_cell_angle_beta   91.66966185
_cell_angle_gamma   94.35950557
_symmetry_Int_Tables_number   1
_chemical_formula_structural   LiSb4Mo2P3
_chemical_formula_sum   'Li1 Sb4 Mo2 P3'
_cell_volume   172.52916212
_cell_formula_units_Z   1
loop_
 _symmetry_equiv_pos_site_id
 _symmetry_equiv_pos_as_xyz
  1  'x, y, z'
loop_
 _atom_site_type_symbol
 _atom_site_label
 _atom_site_symmetry_multiplicity
 _atom_site_fract_x
 _atom_site_fract_y
 _atom_site_fract_z
 _atom_site_occupancy
  Sb  Sb0  1  0.12500000  0.12500000  0.12500000  1
  Sb  Sb1  1  0.50000000  0.50000000  0.50000000  1
  Sb  Sb2  1  0.25000000  0.25000000  0.25000000  1
  Sb  Sb3  1  0.75000000  0.75000000  0.75000000  1
  P  P4  1  0.52041481  0.53243708  0.90251845  1
  P  P5  1  0.42393077  0.74314766  0.72738167  1
  P  P6  1  0.90269008  0.54129818  0.08082205  1
  Mo  Mo7  1  0.89964517  0.29935523  0.87255708  1
  Mo  Mo8  1  0.89460414  0.51504971  0.78505389  1
  Li  Li9  1  0.39743296  0.67434337  0.36923829  1
