# generated using pymatgen
data_LiMnSb4(MoP)2
_symmetry_space_group_name_H-M   'P 1'
_cell_length_a   5.07588195
_cell_length_b   5.36456547
_cell_length_c   6.63450661
_cell_angle_alpha   98.43724175
_cell_angle_beta   94.67879451
_cell_angle_gamma   98.81873305
_symmetry_Int_Tables_number   1
_chemical_formula_structural   LiMnSb4(MoP)2
_chemical_formula_sum   'Li1 Mn1 Sb4 Mo2 P2'
_cell_volume   175.58560099
_cell_formula_units_Z   1
loop_
 _symmetry_equiv_pos_site_id
 _symmetry_equiv_pos_as_xyz
  1  'x, y, z'
loop_
 _atom_site_type_symbol
 _atom_site_label
 _atom_site_symmetry_multiplicity
 _atom_site_fract_x
 _atom_site_fract_y
 _atom_site_fract_z
 _atom_site_occupancy
  Mn  Mn0  1  0.00000000  0.00000000  0.00000000  1
  Sb  Sb1  1  0.50000000  0.50000000  0.50000000  1
  Sb  Sb2  1  0.50000000  0.50000000  0.00000000  1
  Sb  Sb3  1  0.50000000  0.00000000  0.50000000  1
  Sb  Sb4  1  0.00000000  0.50000000  0.50000000  1
  P  P5  1  0.23593219  0.71090066  0.09596542  1
  P  P6  1  0.87023029  0.93077794  0.75013170  1
  Mo  Mo7  1  0.88418838  0.80413330  0.18674799  1
  Mo  Mo8  1  0.46275013  0.58947624  0.43047956  1
  Li  Li9  1  0.04471970  0.52117484  0.26628375  1
