# generated using pymatgen
data_LiMn2Sb4P3
_symmetry_space_group_name_H-M   'P 1'
_cell_length_a   5.94513045
_cell_length_b   6.35548439
_cell_length_c   6.70492720
_cell_angle_alpha   93.59919142
_cell_angle_beta   91.67875360
_cell_angle_gamma   93.91321502
_symmetry_Int_Tables_number   1
_chemical_formula_structural   LiMn2Sb4P3
_chemical_formula_sum   'Li1 Mn2 Sb4 P3'
_cell_volume   252.10754498
_cell_formula_units_Z   1
loop_
 _symmetry_equiv_pos_site_id
 _symmetry_equiv_pos_as_xyz
  1  'x, y, z'
loop_
 _atom_site_type_symbol
 _atom_site_label
 _atom_site_symmetry_multiplicity
 _atom_site_fract_x
 _atom_site_fract_y
 _atom_site_fract_z
 _atom_site_occupancy
  Mn  Mn0  1  0.00000000  0.00000000  0.00000000  1
  Mn  Mn1  1  0.50000000  0.50000000  0.50000000  1
  Sb  Sb2  1  0.50000000  0.50000000  0.00000000  1
  Sb  Sb3  1  0.50000000  0.00000000  0.50000000  1
  Sb  Sb4  1  0.00000000  0.50000000  0.50000000  1
  Sb  Sb5  1  0.84970554  0.53735892  0.43726152  1
  P  P6  1  0.61792412  0.34357057  0.72155859  1
  P  P7  1  0.02775856  0.22297650  0.13144763  1
  P  P8  1  0.00524778  0.83973059  0.48450537  1
  Li  Li9  1  0.45791865  0.20176638  0.42418513  1
