# generated using pymatgen
data_Li2Mn2Sb4P2N
_symmetry_space_group_name_H-M   'P 1'
_cell_length_a   5.46542786
_cell_length_b   5.92821202
_cell_length_c   6.50342679
_cell_angle_alpha   98.78784231
_cell_angle_beta   98.39204154
_cell_angle_gamma   95.11130015
_symmetry_Int_Tables_number   1
_chemical_formula_structural   Li2Mn2Sb4P2N
_chemical_formula_sum   'Li2 Mn2 Sb4 P2 N1'
_cell_volume   204.66775352
_cell_formula_units_Z   1
loop_
 _symmetry_equiv_pos_site_id
 _symmetry_equiv_pos_as_xyz
  1  'x, y, z'
loop_
 _atom_site_type_symbol
 _atom_site_label
 _atom_site_symmetry_multiplicity
 _atom_site_fract_x
 _atom_site_fract_y
 _atom_site_fract_z
 _atom_site_occupancy
  N  N0  1  0.00000000  0.00000000  0.00000000  1
  Mn  Mn1  1  0.50000000  0.50000000  0.50000000  1
  Mn  Mn2  1  0.25000000  0.25000000  0.25000000  1
  Sb  Sb3  1  0.75000000  0.25000000  0.00000000  1
  Sb  Sb4  1  0.25000000  0.75000000  0.50000000  1
  Sb  Sb5  1  0.85704829  0.89363232  0.96095308  1
  Sb  Sb6  1  0.79837655  0.82680952  0.53699338  1
  P  P7  1  0.85182974  0.47729925  0.25011601  1
  P  P8  1  0.06571727  0.98123980  0.05674106  1
  Li  Li9  1  0.24223249  0.59569547  0.76413157  1
  Li  Li10  1  0.03163680  0.53887768  0.19896866  1
