# generated using pymatgen
data_Li(MnP)3
_symmetry_space_group_name_H-M   'P 1'
_cell_length_a   6.46818518
_cell_length_b   6.54578416
_cell_length_c   6.90560227
_cell_angle_alpha   92.74368867
_cell_angle_beta   90.51133189
_cell_angle_gamma   92.51010798
_symmetry_Int_Tables_number   1
_chemical_formula_structural   Li(MnP)3
_chemical_formula_sum   'Li1 Mn3 P3'
_cell_volume   291.74550071
_cell_formula_units_Z   1
loop_
 _symmetry_equiv_pos_site_id
 _symmetry_equiv_pos_as_xyz
  1  'x, y, z'
loop_
 _atom_site_type_symbol
 _atom_site_label
 _atom_site_symmetry_multiplicity
 _atom_site_fract_x
 _atom_site_fract_y
 _atom_site_fract_z
 _atom_site_occupancy
  Mn  Mn0  1  0.00000000  0.00000000  0.00000000  1
  Mn  Mn1  1  0.33300000  0.66700000  0.25000000  1
  Mn  Mn2  1  0.66700000  0.33300000  0.50000000  1
  P  P3  1  0.00000000  0.00000000  0.75000000  1
  P  P4  1  0.56031490  0.98843947  0.35326809  1
  P  P5  1  0.60723350  0.30088717  0.45494525  1
  Li  Li6  1  0.36702990  0.52661969  0.84737060  1
