# generated using pymatgen
data_LiTiS3F2
_symmetry_space_group_name_H-M   'P 1'
_cell_length_a   6.91655490
_cell_length_b   6.79107308
_cell_length_c   7.67329925
_cell_angle_alpha   91.73918763
_cell_angle_beta   94.31873962
_cell_angle_gamma   92.00327659
_symmetry_Int_Tables_number   1
_chemical_formula_structural   LiTiS3F2
_chemical_formula_sum   'Li1 Ti1 S3 F2'
_cell_volume   358.98141312
_cell_formula_units_Z   1
loop_
 _symmetry_equiv_pos_site_id
 _symmetry_equiv_pos_as_xyz
  1  'x, y, z'
loop_
 _atom_site_type_symbol
 _atom_site_label
 _atom_site_symmetry_multiplicity
 _atom_site_fract_x
 _atom_site_fract_y
 _atom_site_fract_z
 _atom_site_occupancy
  Li  Li0  1  0.12500000  0.00000000  0.25000000  1
  F  F1  1  0.00000000  0.00000000  0.00000000  1
  F  F2  1  0.37500000  0.00000000  0.25000000  1
  S  S3  1  0.25000000  0.25000000  0.25000000  1
  S  S4  1  0.00000000  0.25000000  0.12500000  1
  S  S5  1  0.24261641  0.56967829  0.86865850  1
  Ti  Ti6  1  0.72752420  0.70411139  0.72133665  1
