# generated using pymatgen
data_Li3TiCu2SeF2
_symmetry_space_group_name_H-M   'P 1'
_cell_length_a   5.68731190
_cell_length_b   5.42810125
_cell_length_c   6.94135804
_cell_angle_alpha   98.95610889
_cell_angle_beta   102.15545925
_cell_angle_gamma   98.19149213
_symmetry_Int_Tables_number   1
_chemical_formula_structural   Li3TiCu2SeF2
_chemical_formula_sum   'Li3 Ti1 Cu2 Se1 F2'
_cell_volume   203.49363240
_cell_formula_units_Z   1
loop_
 _symmetry_equiv_pos_site_id
 _symmetry_equiv_pos_as_xyz
  1  'x, y, z'
loop_
 _atom_site_type_symbol
 _atom_site_label
 _atom_site_symmetry_multiplicity
 _atom_site_fract_x
 _atom_site_fract_y
 _atom_site_fract_z
 _atom_site_occupancy
  Li  Li0  1  0.12500000  0.00000000  0.25000000  1
  Li  Li1  1  0.00000000  0.00000000  0.00000000  1
  Li  Li2  1  0.37500000  0.00000000  0.25000000  1
  Cu  Cu3  1  0.25000000  0.25000000  0.25000000  1
  Cu  Cu4  1  0.00000000  0.25000000  0.12500000  1
  Se  Se5  1  0.43177530  0.51168900  0.79920010  1
  F  F6  1  0.48210433  0.89681063  0.47608174  1
  F  F7  1  0.56788351  0.23253308  0.60634134  1
  Ti  Ti8  1  0.57429368  0.32633912  0.12232985  1
