# generated using pymatgen
data_LiTi2Nb2(I2O)2
_symmetry_space_group_name_H-M   'P 1'
_cell_length_a   7.34120762
_cell_length_b   7.17123342
_cell_length_c   7.46451872
_cell_angle_alpha   90.53894494
_cell_angle_beta   92.56413634
_cell_angle_gamma   90.61615798
_symmetry_Int_Tables_number   1
_chemical_formula_structural   LiTi2Nb2(I2O)2
_chemical_formula_sum   'Li1 Ti2 Nb2 I4 O2'
_cell_volume   392.53803298
_cell_formula_units_Z   1
loop_
 _symmetry_equiv_pos_site_id
 _symmetry_equiv_pos_as_xyz
  1  'x, y, z'
loop_
 _atom_site_type_symbol
 _atom_site_label
 _atom_site_symmetry_multiplicity
 _atom_site_fract_x
 _atom_site_fract_y
 _atom_site_fract_z
 _atom_site_occupancy
  I  I0  1  0.00000000  0.00000000  0.00000000  1
  I  I1  1  0.50000000  0.50000000  0.50000000  1
  I  I2  1  0.25000000  0.25000000  0.25000000  1
  I  I3  1  0.75000000  0.25000000  0.00000000  1
  Li  Li4  1  0.25000000  0.75000000  0.50000000  1
  Nb  Nb5  1  0.24219079  0.78219605  0.81230673  1
  Nb  Nb6  1  0.22194231  0.70168164  0.40981316  1
  Ti  Ti7  1  0.18196600  0.62538294  0.41755435  1
  Ti  Ti8  1  0.11324139  0.86746899  0.98175085  1
  O  O9  1  0.35575833  0.42098522  0.83378095  1
  O  O10  1  0.73223749  0.37791555  0.93847385  1
