# generated using pymatgen
data_Li2MnSbMo2P3
_symmetry_space_group_name_H-M   'P 1'
_cell_length_a   3.93333829
_cell_length_b   4.09696379
_cell_length_c   6.12957823
_cell_angle_alpha   102.32200693
_cell_angle_beta   95.68160227
_cell_angle_gamma   102.65964868
_symmetry_Int_Tables_number   1
_chemical_formula_structural   Li2MnSbMo2P3
_chemical_formula_sum   'Li2 Mn1 Sb1 Mo2 P3'
_cell_volume   93.04764105
_cell_formula_units_Z   1
loop_
 _symmetry_equiv_pos_site_id
 _symmetry_equiv_pos_as_xyz
  1  'x, y, z'
loop_
 _atom_site_type_symbol
 _atom_site_label
 _atom_site_symmetry_multiplicity
 _atom_site_fract_x
 _atom_site_fract_y
 _atom_site_fract_z
 _atom_site_occupancy
  Mn  Mn0  1  0.12500000  0.00000000  0.25000000  1
  Sb  Sb1  1  0.00000000  0.00000000  0.00000000  1
  P  P2  1  0.37500000  0.00000000  0.25000000  1
  P  P3  1  0.25000000  0.25000000  0.25000000  1
  P  P4  1  0.00000000  0.25000000  0.12500000  1
  Mo  Mo5  1  0.84080390  0.88026746  0.10399093  1
  Mo  Mo6  1  0.67845545  0.32090238  0.13894324  1
  Li  Li7  1  0.75243805  0.36357920  0.69676737  1
  Li  Li8  1  0.57497813  0.01600747  0.77879646  1
