# generated using pymatgen
data_Li3TiP3SeI4
_symmetry_space_group_name_H-M   'P 1'
_cell_length_a   7.74306541
_cell_length_b   7.50574737
_cell_length_c   7.44472594
_cell_angle_alpha   94.09788058
_cell_angle_beta   95.23205231
_cell_angle_gamma   93.85494135
_symmetry_Int_Tables_number   1
_chemical_formula_structural   Li3TiP3SeI4
_chemical_formula_sum   'Li3 Ti1 P3 Se1 I4'
_cell_volume   428.57841611
_cell_formula_units_Z   1
loop_
 _symmetry_equiv_pos_site_id
 _symmetry_equiv_pos_as_xyz
  1  'x, y, z'
loop_
 _atom_site_type_symbol
 _atom_site_label
 _atom_site_symmetry_multiplicity
 _atom_site_fract_x
 _atom_site_fract_y
 _atom_site_fract_z
 _atom_site_occupancy
  I  I0  1  0.00000000  0.00000000  0.00000000  1
  I  I1  1  0.50000000  0.50000000  0.50000000  1
  I  I2  1  0.25000000  0.25000000  0.25000000  1
  I  I3  1  0.75000000  0.25000000  0.00000000  1
  P  P4  1  0.25000000  0.75000000  0.50000000  1
  P  P5  1  0.58142304  0.55401376  0.83357812  1
  P  P6  1  0.58160737  0.31684956  0.08405502  1
  Li  Li7  1  0.50998450  0.35511544  0.43391154  1
  Li  Li8  1  0.23195151  0.41084445  0.97546445  1
  Li  Li9  1  0.38591512  0.06081365  0.65379876  1
  Se  Se10  1  0.16352994  0.21985177  0.32161193  1
  Ti  Ti11  1  0.06639809  0.51379698  0.67372146  1
