# generated using pymatgen
data_Li2Lu(CuAs3)2
_symmetry_space_group_name_H-M   'P 1'
_cell_length_a   7.66812032
_cell_length_b   7.49497660
_cell_length_c   8.38212882
_cell_angle_alpha   91.24108784
_cell_angle_beta   91.42622947
_cell_angle_gamma   91.43339173
_symmetry_Int_Tables_number   1
_chemical_formula_structural   Li2Lu(CuAs3)2
_chemical_formula_sum   'Li2 Lu1 Cu2 As6'
_cell_volume   481.32129196
_cell_formula_units_Z   1
loop_
 _symmetry_equiv_pos_site_id
 _symmetry_equiv_pos_as_xyz
  1  'x, y, z'
loop_
 _atom_site_type_symbol
 _atom_site_label
 _atom_site_symmetry_multiplicity
 _atom_site_fract_x
 _atom_site_fract_y
 _atom_site_fract_z
 _atom_site_occupancy
  Lu  Lu0  1  0.00000000  0.00000000  0.00000000  1
  Li  Li1  1  0.33300000  0.66700000  0.25000000  1
  Li  Li2  1  0.66700000  0.33300000  0.50000000  1
  Cu  Cu3  1  0.00000000  0.00000000  0.75000000  1
  Cu  Cu4  1  0.65293893  0.43741919  0.85260211  1
  As  As5  1  0.79949355  0.62593818  0.17650191  1
  As  As6  1  0.92822456  0.27124241  0.15778104  1
  As  As7  1  0.76274519  0.69492027  0.57168719  1
  As  As8  1  0.18282238  0.37272296  0.61808497  1
  As  As9  1  0.33445170  0.05576276  0.98411649  1
  As  As10  1  0.77242938  0.00372604  0.82234558  1
