# generated using pymatgen
data_Li2Mn3Sb4P3
_symmetry_space_group_name_H-M   'P 1'
_cell_length_a   8.00035882
_cell_length_b   7.92915600
_cell_length_c   7.92334940
_cell_angle_alpha   90.00000000
_cell_angle_beta   90.00000000
_cell_angle_gamma   90.00000000
_symmetry_Int_Tables_number   1
_chemical_formula_structural   Li2Mn3Sb4P3
_chemical_formula_sum   'Li2 Mn3 Sb4 P3'
_cell_volume   502.62633047
_cell_formula_units_Z   1
loop_
 _symmetry_equiv_pos_site_id
 _symmetry_equiv_pos_as_xyz
  1  'x, y, z'
loop_
 _atom_site_type_symbol
 _atom_site_label
 _atom_site_symmetry_multiplicity
 _atom_site_fract_x
 _atom_site_fract_y
 _atom_site_fract_z
 _atom_site_occupancy
  Mn  Mn0  1  0.12500000  0.00000000  0.25000000  1
  Mn  Mn1  1  0.00000000  0.00000000  0.00000000  1
  Mn  Mn2  1  0.37500000  0.00000000  0.25000000  1
  Sb  Sb3  1  0.25000000  0.25000000  0.25000000  1
  Sb  Sb4  1  0.00000000  0.25000000  0.12500000  1
  Sb  Sb5  1  0.94297833  0.40683736  0.89229947  1
  Sb  Sb6  1  0.18985083  0.12006876  0.15563446  1
  P  P7  1  0.34290149  0.35599031  0.21434398  1
  P  P8  1  0.64653949  0.12617363  0.81652326  1
  P  P9  1  0.82434628  0.44284252  0.34009635  1
  Li  Li10  1  0.77520236  0.26510457  0.86402738  1
  Li  Li11  1  0.34029184  0.16730987  0.64503221  1
