# generated using pymatgen
data_Li2MnNi3Sb4P3
_symmetry_space_group_name_H-M   'P 1'
_cell_length_a   5.44671715
_cell_length_b   5.24752163
_cell_length_c   6.80857652
_cell_angle_alpha   97.58301365
_cell_angle_beta   92.94136188
_cell_angle_gamma   97.33163176
_symmetry_Int_Tables_number   1
_chemical_formula_structural   Li2MnNi3Sb4P3
_chemical_formula_sum   'Li2 Mn1 Ni3 Sb4 P3'
_cell_volume   190.86192334
_cell_formula_units_Z   1
loop_
 _symmetry_equiv_pos_site_id
 _symmetry_equiv_pos_as_xyz
  1  'x, y, z'
loop_
 _atom_site_type_symbol
 _atom_site_label
 _atom_site_symmetry_multiplicity
 _atom_site_fract_x
 _atom_site_fract_y
 _atom_site_fract_z
 _atom_site_occupancy
  Ni  Ni0  1  0.00000000  0.00000000  0.00000000  1
  Ni  Ni1  1  0.50000000  0.50000000  0.50000000  1
  Ni  Ni2  1  0.50000000  0.50000000  0.00000000  1
  Mn  Mn3  1  0.50000000  0.00000000  0.50000000  1
  Sb  Sb4  1  0.00000000  0.50000000  0.50000000  1
  Sb  Sb5  1  0.46849606  0.03535375  0.63479022  1
  Sb  Sb6  1  0.61878425  0.87041358  0.61104959  1
  Sb  Sb7  1  0.14903027  0.30635630  0.20771596  1
  P  P8  1  0.74499961  0.20493440  0.14979721  1
  P  P9  1  0.25756469  0.20951817  0.13233456  1
  P  P10  1  0.99586527  0.00339331  0.74216802  1
  Li  Li11  1  0.63203281  0.73919607  0.23274496  1
  Li  Li12  1  0.74357676  0.09029844  0.58833641  1
