# generated using pymatgen
data_Li2Ti2As6P5F2
_symmetry_space_group_name_H-M   'P 1'
_cell_length_a   7.64436432
_cell_length_b   7.40791323
_cell_length_c   7.79300066
_cell_angle_alpha   91.14642016
_cell_angle_beta   92.57105324
_cell_angle_gamma   91.11880097
_symmetry_Int_Tables_number   1
_chemical_formula_structural   Li2Ti2As6P5F2
_chemical_formula_sum   'Li2 Ti2 As6 P5 F2'
_cell_volume   440.68353770
_cell_formula_units_Z   1
loop_
 _symmetry_equiv_pos_site_id
 _symmetry_equiv_pos_as_xyz
  1  'x, y, z'
loop_
 _atom_site_type_symbol
 _atom_site_label
 _atom_site_symmetry_multiplicity
 _atom_site_fract_x
 _atom_site_fract_y
 _atom_site_fract_z
 _atom_site_occupancy
  P  P0  1  0.00000000  0.00000000  0.00000000  1
  P  P1  1  0.50000000  0.50000000  0.50000000  1
  P  P2  1  0.25000000  0.25000000  0.25000000  1
  P  P3  1  0.75000000  0.25000000  0.00000000  1
  P  P4  1  0.25000000  0.75000000  0.50000000  1
  Li  Li5  1  0.94925862  0.42225241  0.70705882  1
  Li  Li6  1  0.57799508  0.42655059  0.63509761  1
  F  F7  1  0.93856962  0.35969599  0.97276825  1
  F  F8  1  0.95033116  0.59604629  0.11935121  1
  Ti  Ti9  1  0.34126922  0.10826892  0.26771987  1
  Ti  Ti10  1  0.91954996  0.58853933  0.18195578  1
  As  As11  1  0.94536840  0.94192701  0.71614671  1
  As  As12  1  0.82603395  0.09068813  0.65116183  1
  As  As13  1  0.60314572  0.08585290  0.40867957  1
  As  As14  1  0.23985641  0.67658617  0.41160286  1
  As  As15  1  0.87622931  0.23826726  0.29857927  1
  As  As16  1  0.29256735  0.98284607  0.15578627  1
