# generated using pymatgen
data_Li2TiP6I4N5
_symmetry_space_group_name_H-M   'P 1'
_cell_length_a   8.28712357
_cell_length_b   7.99921844
_cell_length_c   8.00271844
_cell_angle_alpha   90.88570854
_cell_angle_beta   90.75562143
_cell_angle_gamma   91.02564568
_symmetry_Int_Tables_number   1
_chemical_formula_structural   Li2TiP6I4N5
_chemical_formula_sum   'Li2 Ti1 P6 I4 N5'
_cell_volume   530.30782683
_cell_formula_units_Z   1
loop_
 _symmetry_equiv_pos_site_id
 _symmetry_equiv_pos_as_xyz
  1  'x, y, z'
loop_
 _atom_site_type_symbol
 _atom_site_label
 _atom_site_symmetry_multiplicity
 _atom_site_fract_x
 _atom_site_fract_y
 _atom_site_fract_z
 _atom_site_occupancy
  I  I0  1  0.12500000  0.00000000  0.25000000  1
  I  I1  1  0.00000000  0.00000000  0.00000000  1
  I  I2  1  0.37500000  0.00000000  0.25000000  1
  I  I3  1  0.25000000  0.25000000  0.25000000  1
  P  P4  1  0.00000000  0.25000000  0.12500000  1
  P  P5  1  0.08424669  0.91853614  0.01948994  1
  P  P6  1  0.41318881  0.09236561  0.41894320  1
  P  P7  1  0.74663931  0.55364506  0.38573377  1
  P  P8  1  0.61895855  0.03244602  0.51299902  1
  P  P9  1  0.26788527  0.45817621  0.78292880  1
  Li  Li10  1  0.67837739  0.96101458  0.89810787  1
  Li  Li11  1  0.77246705  0.81670920  0.91161519  1
  Ti  Ti12  1  0.47433580  0.56929876  0.03717575  1
  N  N13  1  0.18296259  0.05233417  0.55499175  1
  N  N14  1  0.84148871  0.37842809  0.77317423  1
  N  N15  1  0.72269852  0.07255390  0.96714413  1
  N  N16  1  0.82130021  0.69514384  0.26507361  1
  N  N17  1  0.86690846  0.27664669  0.55064643  1
