# generated using pymatgen
data_LiMn2Sb4P3
_symmetry_space_group_name_H-M   'P 1'
_cell_length_a   6.40459308
_cell_length_b   6.86603474
_cell_length_c   6.97495811
_cell_angle_alpha   92.79720300
_cell_angle_beta   91.37363820
_cell_angle_gamma   92.77217450
_symmetry_Int_Tables_number   1
_chemical_formula_structural   LiMn2Sb4P3
_chemical_formula_sum   'Li1 Mn2 Sb4 P3'
_cell_volume   305.88734604
_cell_formula_units_Z   1
loop_
 _symmetry_equiv_pos_site_id
 _symmetry_equiv_pos_as_xyz
  1  'x, y, z'
loop_
 _atom_site_type_symbol
 _atom_site_label
 _atom_site_symmetry_multiplicity
 _atom_site_fract_x
 _atom_site_fract_y
 _atom_site_fract_z
 _atom_site_occupancy
  Mn  Mn0  1  0.00000000  0.00000000  0.00000000  1
  Mn  Mn1  1  0.33300000  0.66700000  0.25000000  1
  Sb  Sb2  1  0.66700000  0.33300000  0.50000000  1
  Sb  Sb3  1  0.00000000  0.00000000  0.75000000  1
  Sb  Sb4  1  0.71879831  0.86711424  0.55474451  1
  Sb  Sb5  1  0.82705201  0.34833649  0.77047234  1
  P  P6  1  0.99484703  0.48716944  0.17432261  1
  P  P7  1  0.66671514  0.53181981  0.69162916  1
  P  P8  1  0.01427236  0.08066334  0.29719608  1
  Li  Li9  1  0.53371061  0.55455770  0.65182576  1
