# generated using pymatgen
data_Li(Sb2P)2
_symmetry_space_group_name_H-M   'P 1'
_cell_length_a   5.83682771
_cell_length_b   6.29154435
_cell_length_c   6.80030078
_cell_angle_alpha   96.58982523
_cell_angle_beta   92.73465325
_cell_angle_gamma   96.41531828
_symmetry_Int_Tables_number   1
_chemical_formula_structural   Li(Sb2P)2
_chemical_formula_sum   'Li1 Sb4 P2'
_cell_volume   246.05790160
_cell_formula_units_Z   1
loop_
 _symmetry_equiv_pos_site_id
 _symmetry_equiv_pos_as_xyz
  1  'x, y, z'
loop_
 _atom_site_type_symbol
 _atom_site_label
 _atom_site_symmetry_multiplicity
 _atom_site_fract_x
 _atom_site_fract_y
 _atom_site_fract_z
 _atom_site_occupancy
  Sb  Sb0  1  0.00000000  0.00000000  0.00000000  1
  Sb  Sb1  1  0.33300000  0.66700000  0.25000000  1
  Sb  Sb2  1  0.66700000  0.33300000  0.50000000  1
  Sb  Sb3  1  0.00000000  0.00000000  0.75000000  1
  P  P4  1  0.05205328  0.98516783  0.32869829  1
  P  P5  1  0.01901779  0.88147432  0.48250451  1
  Li  Li6  1  0.60203522  0.09180673  0.12160530  1
