# generated using pymatgen
data_Li3Ti2Cu2S2O
_symmetry_space_group_name_H-M   'P 1'
_cell_length_a   6.02087641
_cell_length_b   5.76243168
_cell_length_c   7.15209540
_cell_angle_alpha   95.71411306
_cell_angle_beta   97.08122756
_cell_angle_gamma   95.19490856
_symmetry_Int_Tables_number   1
_chemical_formula_structural   Li3Ti2Cu2S2O
_chemical_formula_sum   'Li3 Ti2 Cu2 S2 O1'
_cell_volume   243.69291878
_cell_formula_units_Z   1
loop_
 _symmetry_equiv_pos_site_id
 _symmetry_equiv_pos_as_xyz
  1  'x, y, z'
loop_
 _atom_site_type_symbol
 _atom_site_label
 _atom_site_symmetry_multiplicity
 _atom_site_fract_x
 _atom_site_fract_y
 _atom_site_fract_z
 _atom_site_occupancy
  S  S0  1  0.00000000  0.00000000  0.00000000  1
  S  S1  1  0.50000000  0.50000000  0.50000000  1
  Ti  Ti2  1  0.25000000  0.25000000  0.25000000  1
  Ti  Ti3  1  0.75000000  0.25000000  0.00000000  1
  O  O4  1  0.25000000  0.75000000  0.50000000  1
  Li  Li5  1  0.22068149  0.21196527  0.05072754  1
  Li  Li6  1  0.52148762  0.98206692  0.93585975  1
  Li  Li7  1  0.62827637  0.25149032  0.70413053  1
  Cu  Cu8  1  0.51544102  0.96935584  0.85773519  1
  Cu  Cu9  1  0.91217648  0.51678782  0.91877801  1
