# generated using pymatgen
data_Li3Ti2N
_symmetry_space_group_name_H-M   'P 1'
_cell_length_a   3.51488043
_cell_length_b   3.33044549
_cell_length_c   6.11791658
_cell_angle_alpha   98.03252232
_cell_angle_beta   108.48656047
_cell_angle_gamma   97.49612091
_symmetry_Int_Tables_number   1
_chemical_formula_structural   Li3Ti2N
_chemical_formula_sum   'Li3 Ti2 N1'
_cell_volume   66.08017855
_cell_formula_units_Z   1
loop_
 _symmetry_equiv_pos_site_id
 _symmetry_equiv_pos_as_xyz
  1  'x, y, z'
loop_
 _atom_site_type_symbol
 _atom_site_label
 _atom_site_symmetry_multiplicity
 _atom_site_fract_x
 _atom_site_fract_y
 _atom_site_fract_z
 _atom_site_occupancy
  Ti  Ti0  1  0.12500000  0.12500000  0.12500000  1
  Ti  Ti1  1  0.50000000  0.50000000  0.50000000  1
  Li  Li2  1  0.25000000  0.25000000  0.25000000  1
  Li  Li3  1  0.75000000  0.75000000  0.75000000  1
  Li  Li4  1  0.30938890  0.98458690  0.17837432  1
  N  N5  1  0.66332811  0.29115375  0.33071013  1
