# generated using pymatgen
data_LiSb2PN
_symmetry_space_group_name_H-M   'P 1'
_cell_length_a   6.64840838
_cell_length_b   7.27222219
_cell_length_c   7.55110918
_cell_angle_alpha   93.79234155
_cell_angle_beta   93.89083047
_cell_angle_gamma   92.85835974
_symmetry_Int_Tables_number   1
_chemical_formula_structural   LiSb2PN
_chemical_formula_sum   'Li2 Sb4 P2 N2'
_cell_volume   362.90512956
_cell_formula_units_Z   2
loop_
 _symmetry_equiv_pos_site_id
 _symmetry_equiv_pos_as_xyz
  1  'x, y, z'
loop_
 _atom_site_type_symbol
 _atom_site_label
 _atom_site_symmetry_multiplicity
 _atom_site_fract_x
 _atom_site_fract_y
 _atom_site_fract_z
 _atom_site_occupancy
  N  N0  1  0.00000000  0.00000000  0.00000000  1
  N  N1  1  0.33300000  0.66700000  0.25000000  1
  Sb  Sb2  1  0.66700000  0.33300000  0.50000000  1
  Sb  Sb3  1  0.00000000  0.00000000  0.75000000  1
  Sb  Sb4  1  0.20656084  0.98445367  0.79733877  1
  Sb  Sb5  1  0.16417819  0.14532747  0.95034870  1
  P  P6  1  0.80875447  0.60303568  0.76228227  1
  P  P7  1  0.43914334  0.96999003  0.10065503  1
  Li  Li8  1  0.87314103  0.33021269  0.61838021  1
  Li  Li9  1  0.66176010  0.46802979  0.31268389  1
