# generated using pymatgen
data_Li3TiP2O3
_symmetry_space_group_name_H-M   'P 1'
_cell_length_a   7.35755852
_cell_length_b   6.97722220
_cell_length_c   8.56570212
_cell_angle_alpha   90.50972663
_cell_angle_beta   92.42512449
_cell_angle_gamma   90.58275365
_symmetry_Int_Tables_number   1
_chemical_formula_structural   Li3TiP2O3
_chemical_formula_sum   'Li3 Ti1 P2 O3'
_cell_volume   439.28736882
_cell_formula_units_Z   1
loop_
 _symmetry_equiv_pos_site_id
 _symmetry_equiv_pos_as_xyz
  1  'x, y, z'
loop_
 _atom_site_type_symbol
 _atom_site_label
 _atom_site_symmetry_multiplicity
 _atom_site_fract_x
 _atom_site_fract_y
 _atom_site_fract_z
 _atom_site_occupancy
  P  P0  1  0.12500000  0.00000000  0.25000000  1
  P  P1  1  0.00000000  0.00000000  0.00000000  1
  Li  Li2  1  0.37500000  0.00000000  0.25000000  1
  Li  Li3  1  0.25000000  0.25000000  0.25000000  1
  Li  Li4  1  0.00000000  0.25000000  0.12500000  1
  Ti  Ti5  1  0.83013272  0.89516737  0.90866204  1
  O  O6  1  0.80254651  0.92121760  0.79023189  1
  O  O7  1  0.56159273  0.00890500  0.64380956  1
  O  O8  1  0.56270033  0.68537490  0.23476219  1
