# generated using pymatgen
data_Li3Ni2As6O7
_symmetry_space_group_name_H-M   'P 1'
_cell_length_a   7.74863574
_cell_length_b   7.57455129
_cell_length_c   9.04696371
_cell_angle_alpha   91.62993816
_cell_angle_beta   91.03337545
_cell_angle_gamma   91.88880674
_symmetry_Int_Tables_number   1
_chemical_formula_structural   Li3Ni2As6O7
_chemical_formula_sum   'Li3 Ni2 As6 O7'
_cell_volume   530.38947357
_cell_formula_units_Z   1
loop_
 _symmetry_equiv_pos_site_id
 _symmetry_equiv_pos_as_xyz
  1  'x, y, z'
loop_
 _atom_site_type_symbol
 _atom_site_label
 _atom_site_symmetry_multiplicity
 _atom_site_fract_x
 _atom_site_fract_y
 _atom_site_fract_z
 _atom_site_occupancy
  Li  Li0  1  0.00000000  0.00000000  0.00000000  1
  Li  Li1  1  0.50000000  0.50000000  0.50000000  1
  Li  Li2  1  0.50000000  0.50000000  0.00000000  1
  Ni  Ni3  1  0.50000000  0.00000000  0.50000000  1
  Ni  Ni4  1  0.00000000  0.50000000  0.50000000  1
  As  As5  1  0.84928133  0.36899008  0.54946579  1
  As  As6  1  0.04534655  0.23804973  0.54497603  1
  As  As7  1  0.88239327  0.82128412  0.46269015  1
  As  As8  1  0.60051797  0.83537782  0.18557365  1
  As  As9  1  0.09505314  0.16128956  0.27569792  1
  As  As10  1  0.41632653  0.84598092  0.25609866  1
  O  O11  1  0.90339417  0.49602818  0.36310109  1
  O  O12  1  0.86621406  0.87276557  0.14235710  1
  O  O13  1  0.40978281  0.91574385  0.74434730  1
  O  O14  1  0.70869307  0.57243172  0.96901899  1
  O  O15  1  0.24981799  0.81711811  0.90951498  1
  O  O16  1  0.67565195  0.00758972  0.89887156  1
  O  O17  1  0.65304465  0.57108115  0.58041619  1
