# generated using pymatgen
data_Li3TiNi2(IO)4
_symmetry_space_group_name_H-M   'P 1'
_cell_length_a   8.84466659
_cell_length_b   8.72405096
_cell_length_c   7.34660880
_cell_angle_alpha   90.00000000
_cell_angle_beta   90.00000000
_cell_angle_gamma   90.00000000
_symmetry_Int_Tables_number   1
_chemical_formula_structural   Li3TiNi2(IO)4
_chemical_formula_sum   'Li3 Ti1 Ni2 I4 O4'
_cell_volume   566.87404796
_cell_formula_units_Z   1
loop_
 _symmetry_equiv_pos_site_id
 _symmetry_equiv_pos_as_xyz
  1  'x, y, z'
loop_
 _atom_site_type_symbol
 _atom_site_label
 _atom_site_symmetry_multiplicity
 _atom_site_fract_x
 _atom_site_fract_y
 _atom_site_fract_z
 _atom_site_occupancy
  I  I0  1  0.12500000  0.00000000  0.25000000  1
  I  I1  1  0.00000000  0.00000000  0.00000000  1
  I  I2  1  0.37500000  0.00000000  0.25000000  1
  I  I3  1  0.25000000  0.25000000  0.25000000  1
  Li  Li4  1  0.00000000  0.25000000  0.12500000  1
  Li  Li5  1  0.36919959  0.31447750  0.36973656  1
  Li  Li6  1  0.01028070  0.64506703  0.97628161  1
  Ni  Ni7  1  0.22005915  0.50286317  0.66845378  1
  Ni  Ni8  1  0.15234963  0.95762577  0.87810221  1
  Ti  Ti9  1  0.40220296  0.34487413  0.04451812  1
  O  O10  1  0.88472788  0.80540464  0.47384005  1
  O  O11  1  0.08138977  0.67710411  0.87714374  1
  O  O12  1  0.04034668  0.89087997  0.65864467  1
  O  O13  1  0.92137277  0.10884932  0.66574471  1
