# generated using pymatgen
data_LiMn3Sb4Mo2P3
_symmetry_space_group_name_H-M   'P 1'
_cell_length_a   6.49326427
_cell_length_b   6.98962452
_cell_length_c   7.04657403
_cell_angle_alpha   93.28238263
_cell_angle_beta   91.22656955
_cell_angle_gamma   93.28305339
_symmetry_Int_Tables_number   1
_chemical_formula_structural   LiMn3Sb4Mo2P3
_chemical_formula_sum   'Li1 Mn3 Sb4 Mo2 P3'
_cell_volume   318.66568706
_cell_formula_units_Z   1
loop_
 _symmetry_equiv_pos_site_id
 _symmetry_equiv_pos_as_xyz
  1  'x, y, z'
loop_
 _atom_site_type_symbol
 _atom_site_label
 _atom_site_symmetry_multiplicity
 _atom_site_fract_x
 _atom_site_fract_y
 _atom_site_fract_z
 _atom_site_occupancy
  Mn  Mn0  1  0.12500000  0.00000000  0.25000000  1
  Mn  Mn1  1  0.00000000  0.00000000  0.00000000  1
  Mn  Mn2  1  0.37500000  0.00000000  0.25000000  1
  Sb  Sb3  1  0.25000000  0.25000000  0.25000000  1
  Sb  Sb4  1  0.00000000  0.25000000  0.12500000  1
  Sb  Sb5  1  0.96896272  0.74403916  0.28669058  1
  Sb  Sb6  1  0.69914107  0.70327236  0.08324902  1
  P  P7  1  0.15838429  0.77619201  0.83189455  1
  P  P8  1  0.10347236  0.71767064  0.05268943  1
  P  P9  1  0.76309178  0.77591250  0.86522068  1
  Mo  Mo10  1  0.57176154  0.00924989  0.29955457  1
  Mo  Mo11  1  0.15893072  0.20014223  0.75002306  1
  Li  Li12  1  0.61483198  0.11676773  0.24370057  1
