# generated using pymatgen
data_LiSb4Mo2P3
_symmetry_space_group_name_H-M   'P 1'
_cell_length_a   5.17017263
_cell_length_b   5.27091874
_cell_length_c   6.39213475
_cell_angle_alpha   99.17412563
_cell_angle_beta   93.13775329
_cell_angle_gamma   99.31242959
_symmetry_Int_Tables_number   1
_chemical_formula_structural   LiSb4Mo2P3
_chemical_formula_sum   'Li1 Sb4 Mo2 P3'
_cell_volume   169.12009344
_cell_formula_units_Z   1
loop_
 _symmetry_equiv_pos_site_id
 _symmetry_equiv_pos_as_xyz
  1  'x, y, z'
loop_
 _atom_site_type_symbol
 _atom_site_label
 _atom_site_symmetry_multiplicity
 _atom_site_fract_x
 _atom_site_fract_y
 _atom_site_fract_z
 _atom_site_occupancy
  Sb  Sb0  1  0.00000000  0.00000000  0.00000000  1
  Sb  Sb1  1  0.50000000  0.50000000  0.50000000  1
  Sb  Sb2  1  0.25000000  0.25000000  0.25000000  1
  Sb  Sb3  1  0.75000000  0.25000000  0.00000000  1
  P  P4  1  0.25000000  0.75000000  0.50000000  1
  P  P5  1  0.35364187  0.41392850  0.35433270  1
  P  P6  1  0.38344169  0.51032491  0.29982407  1
  Mo  Mo7  1  0.77861531  0.82696846  0.37316429  1
  Mo  Mo8  1  0.70848970  0.45982601  0.04160722  1
  Li  Li9  1  0.37517234  0.05444603  0.14252781  1
