# generated using pymatgen
data_Li2Ti(I2O)2
_symmetry_space_group_name_H-M   'P 1'
_cell_length_a   6.85737745
_cell_length_b   6.96107371
_cell_length_c   7.35979955
_cell_angle_alpha   95.40574833
_cell_angle_beta   97.51463689
_cell_angle_gamma   96.33565419
_symmetry_Int_Tables_number   1
_chemical_formula_structural   Li2Ti(I2O)2
_chemical_formula_sum   'Li2 Ti1 I4 O2'
_cell_volume   344.06285465
_cell_formula_units_Z   1
loop_
 _symmetry_equiv_pos_site_id
 _symmetry_equiv_pos_as_xyz
  1  'x, y, z'
loop_
 _atom_site_type_symbol
 _atom_site_label
 _atom_site_symmetry_multiplicity
 _atom_site_fract_x
 _atom_site_fract_y
 _atom_site_fract_z
 _atom_site_occupancy
  I  I0  1  0.12500000  0.00000000  0.25000000  1
  I  I1  1  0.00000000  0.00000000  0.00000000  1
  I  I2  1  0.37500000  0.00000000  0.25000000  1
  I  I3  1  0.25000000  0.25000000  0.25000000  1
  Li  Li4  1  0.00000000  0.25000000  0.12500000  1
  Li  Li5  1  0.09749441  0.29375821  0.56963206  1
  Ti  Ti6  1  0.43735058  0.76952151  0.46137210  1
  O  O7  1  0.30825730  0.26268791  0.23137698  1
  O  O8  1  0.64947231  0.31302332  0.36225878  1
