# generated using pymatgen
data_Li3TiNi2(IO)4
_symmetry_space_group_name_H-M   'P 1'
_cell_length_a   8.11470478
_cell_length_b   7.97871917
_cell_length_c   7.33826441
_cell_angle_alpha   92.98925956
_cell_angle_beta   93.81659790
_cell_angle_gamma   92.81204395
_symmetry_Int_Tables_number   1
_chemical_formula_structural   Li3TiNi2(IO)4
_chemical_formula_sum   'Li3 Ti1 Ni2 I4 O4'
_cell_volume   472.75847579
_cell_formula_units_Z   1
loop_
 _symmetry_equiv_pos_site_id
 _symmetry_equiv_pos_as_xyz
  1  'x, y, z'
loop_
 _atom_site_type_symbol
 _atom_site_label
 _atom_site_symmetry_multiplicity
 _atom_site_fract_x
 _atom_site_fract_y
 _atom_site_fract_z
 _atom_site_occupancy
  I  I0  1  0.00000000  0.00000000  0.00000000  1
  I  I1  1  0.50000000  0.50000000  0.50000000  1
  I  I2  1  0.25000000  0.25000000  0.25000000  1
  I  I3  1  0.75000000  0.25000000  0.00000000  1
  Li  Li4  1  0.25000000  0.75000000  0.50000000  1
  Li  Li5  1  0.67248196  0.67435292  0.06172637  1
  Li  Li6  1  0.12020015  0.12474889  0.78557462  1
  Ni  Ni7  1  0.93928349  0.71158292  0.54308608  1
  Ni  Ni8  1  0.56610576  0.36026064  0.07484721  1
  Ti  Ti9  1  0.41632026  0.94123940  0.38335258  1
  O  O10  1  0.42077827  0.88561039  0.56888891  1
  O  O11  1  0.09890667  0.46336507  0.64163772  1
  O  O12  1  0.77894337  0.16268438  0.80449247  1
  O  O13  1  0.89632449  0.31651633  0.42593043  1
