# generated using pymatgen
data_LiTiTe3I2
_symmetry_space_group_name_H-M   'P 1'
_cell_length_a   6.55702578
_cell_length_b   6.90768933
_cell_length_c   7.28141078
_cell_angle_alpha   91.13221847
_cell_angle_beta   95.38675163
_cell_angle_gamma   91.29442804
_symmetry_Int_Tables_number   1
_chemical_formula_structural   LiTiTe3I2
_chemical_formula_sum   'Li2 Ti2 Te6 I4'
_cell_volume   328.18384105
_cell_formula_units_Z   2
loop_
 _symmetry_equiv_pos_site_id
 _symmetry_equiv_pos_as_xyz
  1  'x, y, z'
loop_
 _atom_site_type_symbol
 _atom_site_label
 _atom_site_symmetry_multiplicity
 _atom_site_fract_x
 _atom_site_fract_y
 _atom_site_fract_z
 _atom_site_occupancy
  I  I0  1  0.00000000  0.00000000  0.00000000  1
  I  I1  1  0.33300000  0.66700000  0.25000000  1
  I  I2  1  0.66700000  0.33300000  0.50000000  1
  I  I3  1  0.00000000  0.00000000  0.75000000  1
  Li  Li4  1  0.00544362  0.66288718  0.96942198  1
  Li  Li5  1  0.99718636  0.00532339  0.41193655  1
  Te  Te6  1  0.27173428  0.90783674  0.49240442  1
  Te  Te7  1  0.84146569  0.38488710  0.63355281  1
  Te  Te8  1  0.21513671  0.18468468  0.87864581  1
  Te  Te9  1  0.99256581  0.48499616  0.28614540  1
  Te  Te10  1  0.06312271  0.05578372  0.80801269  1
  Te  Te11  1  0.06128820  0.46654533  0.97481886  1
  Ti  Ti12  1  0.98358476  0.39815472  0.19980468  1
  Ti  Ti13  1  0.41746159  0.32459893  0.71282094  1
