# generated using pymatgen
data_Li2Ti(SO)2
_symmetry_space_group_name_H-M   'P 1'
_cell_length_a   5.72886990
_cell_length_b   5.59686830
_cell_length_c   6.77591417
_cell_angle_alpha   96.17352912
_cell_angle_beta   99.30611510
_cell_angle_gamma   96.99408885
_symmetry_Int_Tables_number   1
_chemical_formula_structural   Li2Ti(SO)2
_chemical_formula_sum   'Li2 Ti1 S2 O2'
_cell_volume   211.00324469
_cell_formula_units_Z   1
loop_
 _symmetry_equiv_pos_site_id
 _symmetry_equiv_pos_as_xyz
  1  'x, y, z'
loop_
 _atom_site_type_symbol
 _atom_site_label
 _atom_site_symmetry_multiplicity
 _atom_site_fract_x
 _atom_site_fract_y
 _atom_site_fract_z
 _atom_site_occupancy
  Li  Li0  1  0.12500000  0.12500000  0.12500000  1
  Li  Li1  1  0.50000000  0.50000000  0.50000000  1
  S  S2  1  0.25000000  0.25000000  0.25000000  1
  S  S3  1  0.75000000  0.75000000  0.75000000  1
  Ti  Ti4  1  0.91487084  0.52348200  0.50187304  1
  O  O5  1  0.00238349  0.15072848  0.90576461  1
  O  O6  1  0.36726523  0.13050493  0.16990639  1
