# generated using pymatgen
data_Li2Mn2Sb4P3
_symmetry_space_group_name_H-M   'P 1'
_cell_length_a   5.91815430
_cell_length_b   6.36026187
_cell_length_c   6.83838614
_cell_angle_alpha   96.92300906
_cell_angle_beta   91.63126323
_cell_angle_gamma   96.96432153
_symmetry_Int_Tables_number   1
_chemical_formula_structural   Li2Mn2Sb4P3
_chemical_formula_sum   'Li2 Mn2 Sb4 P3'
_cell_volume   253.39918622
_cell_formula_units_Z   1
loop_
 _symmetry_equiv_pos_site_id
 _symmetry_equiv_pos_as_xyz
  1  'x, y, z'
loop_
 _atom_site_type_symbol
 _atom_site_label
 _atom_site_symmetry_multiplicity
 _atom_site_fract_x
 _atom_site_fract_y
 _atom_site_fract_z
 _atom_site_occupancy
  Mn  Mn0  1  0.00000000  0.00000000  0.00000000  1
  Mn  Mn1  1  0.33300000  0.66700000  0.25000000  1
  Sb  Sb2  1  0.66700000  0.33300000  0.50000000  1
  Sb  Sb3  1  0.00000000  0.00000000  0.75000000  1
  Sb  Sb4  1  0.88630112  0.92291031  0.52158536  1
  Sb  Sb5  1  0.99631782  0.11200480  0.74567756  1
  P  P6  1  0.14829020  0.39080859  0.05980555  1
  P  P7  1  0.14396424  0.67836541  0.61894011  1
  P  P8  1  0.47704670  0.11867741  0.52742137  1
  Li  Li9  1  0.30365629  0.47688158  0.53415367  1
  Li  Li10  1  0.35457871  0.18019018  0.31040216  1
