# generated using pymatgen
data_LiCuAs3F
_symmetry_space_group_name_H-M   'P 1'
_cell_length_a   6.49994223
_cell_length_b   6.66572869
_cell_length_c   7.50511958
_cell_angle_alpha   94.54655509
_cell_angle_beta   97.10134296
_cell_angle_gamma   95.57455643
_symmetry_Int_Tables_number   1
_chemical_formula_structural   LiCuAs3F
_chemical_formula_sum   'Li2 Cu2 As6 F2'
_cell_volume   319.77822257
_cell_formula_units_Z   2
loop_
 _symmetry_equiv_pos_site_id
 _symmetry_equiv_pos_as_xyz
  1  'x, y, z'
loop_
 _atom_site_type_symbol
 _atom_site_label
 _atom_site_symmetry_multiplicity
 _atom_site_fract_x
 _atom_site_fract_y
 _atom_site_fract_z
 _atom_site_occupancy
  Li  Li0  1  0.00000000  0.00000000  0.00000000  1
  Li  Li1  1  0.50000000  0.50000000  0.50000000  1
  Cu  Cu2  1  0.25000000  0.25000000  0.25000000  1
  Cu  Cu3  1  0.75000000  0.25000000  0.00000000  1
  F  F4  1  0.25000000  0.75000000  0.50000000  1
  F  F5  1  0.22244572  0.33199704  0.97224540  1
  As  As6  1  0.45656451  0.27401074  0.64620076  1
  As  As7  1  0.86605239  0.32841761  0.10152854  1
  As  As8  1  0.68379710  0.13314792  0.16873404  1
  As  As9  1  0.96512864  0.56430792  0.28268206  1
  As  As10  1  0.68812717  0.83856520  0.58858206  1
  As  As11  1  0.28062899  0.77932175  0.88720667  1
