# generated using pymatgen
data_LiPO
_symmetry_space_group_name_H-M   'P 1'
_cell_length_a   6.81460494
_cell_length_b   6.53238099
_cell_length_c   7.79318766
_cell_angle_alpha   94.20686720
_cell_angle_beta   94.49659686
_cell_angle_gamma   93.96351956
_symmetry_Int_Tables_number   1
_chemical_formula_structural   LiPO
_chemical_formula_sum   'Li3 P3 O3'
_cell_volume   343.93932350
_cell_formula_units_Z   3
loop_
 _symmetry_equiv_pos_site_id
 _symmetry_equiv_pos_as_xyz
  1  'x, y, z'
loop_
 _atom_site_type_symbol
 _atom_site_label
 _atom_site_symmetry_multiplicity
 _atom_site_fract_x
 _atom_site_fract_y
 _atom_site_fract_z
 _atom_site_occupancy
  P  P0  1  0.00000000  0.00000000  0.00000000  1
  P  P1  1  0.33300000  0.66700000  0.25000000  1
  P  P2  1  0.66700000  0.33300000  0.50000000  1
  Li  Li3  1  0.00000000  0.00000000  0.75000000  1
  Li  Li4  1  0.04120144  0.48193268  0.46107438  1
  Li  Li5  1  0.15757200  0.39043413  0.23336951  1
  O  O6  1  0.65791138  0.70400862  0.27148065  1
  O  O7  1  0.03519386  0.55908080  0.30998499  1
  O  O8  1  0.67102772  0.01539687  0.87783072  1
