# generated using pymatgen
data_LiTiS3(I2F)2
_symmetry_space_group_name_H-M   'P 1'
_cell_length_a   5.89975245
_cell_length_b   5.76307323
_cell_length_c   7.09798921
_cell_angle_alpha   96.17857783
_cell_angle_beta   100.69206360
_cell_angle_gamma   95.95614011
_symmetry_Int_Tables_number   1
_chemical_formula_structural   LiTiS3(I2F)2
_chemical_formula_sum   'Li1 Ti1 S3 I4 F2'
_cell_volume   233.87039855
_cell_formula_units_Z   1
loop_
 _symmetry_equiv_pos_site_id
 _symmetry_equiv_pos_as_xyz
  1  'x, y, z'
loop_
 _atom_site_type_symbol
 _atom_site_label
 _atom_site_symmetry_multiplicity
 _atom_site_fract_x
 _atom_site_fract_y
 _atom_site_fract_z
 _atom_site_occupancy
  I  I0  1  0.00000000  0.00000000  0.00000000  1
  I  I1  1  0.50000000  0.50000000  0.50000000  1
  I  I2  1  0.25000000  0.25000000  0.25000000  1
  I  I3  1  0.75000000  0.25000000  0.00000000  1
  Li  Li4  1  0.25000000  0.75000000  0.50000000  1
  F  F5  1  0.62651398  0.26030071  0.31339629  1
  F  F6  1  0.13000977  0.99377098  0.55086331  1
  S  S7  1  0.92255485  0.30442412  0.83787475  1
  S  S8  1  0.77648700  0.24973308  0.67569504  1
  S  S9  1  0.75290248  0.80713412  0.35057553  1
  Ti  Ti10  1  0.97497950  0.04452720  0.77235558  1
