# generated using pymatgen
data_LiMn2Sb4P3
_symmetry_space_group_name_H-M   'P 1'
_cell_length_a   5.29463534
_cell_length_b   5.62219180
_cell_length_c   6.48977008
_cell_angle_alpha   96.68640935
_cell_angle_beta   92.60596652
_cell_angle_gamma   97.01411825
_symmetry_Int_Tables_number   1
_chemical_formula_structural   LiMn2Sb4P3
_chemical_formula_sum   'Li1 Mn2 Sb4 P3'
_cell_volume   190.08464141
_cell_formula_units_Z   1
loop_
 _symmetry_equiv_pos_site_id
 _symmetry_equiv_pos_as_xyz
  1  'x, y, z'
loop_
 _atom_site_type_symbol
 _atom_site_label
 _atom_site_symmetry_multiplicity
 _atom_site_fract_x
 _atom_site_fract_y
 _atom_site_fract_z
 _atom_site_occupancy
  Mn  Mn0  1  0.00000000  0.00000000  0.00000000  1
  Mn  Mn1  1  0.33300000  0.66700000  0.25000000  1
  Sb  Sb2  1  0.66700000  0.33300000  0.50000000  1
  Sb  Sb3  1  0.00000000  0.00000000  0.75000000  1
  Sb  Sb4  1  0.78621430  0.32634662  0.50928280  1
  Sb  Sb5  1  0.17818490  0.55957933  0.87113997  1
  P  P6  1  0.86859045  0.32218524  0.03186559  1
  P  P7  1  0.98678799  0.34802222  0.04494923  1
  P  P8  1  0.48728919  0.73774118  0.86278378  1
  Li  Li9  1  0.35304833  0.12563296  0.23835007  1
