# generated using pymatgen
data_Li2Mn(SbP)3
_symmetry_space_group_name_H-M   'P 1'
_cell_length_a   5.97310653
_cell_length_b   6.24432751
_cell_length_c   7.13151344
_cell_angle_alpha   94.94956650
_cell_angle_beta   93.91809601
_cell_angle_gamma   95.31092129
_symmetry_Int_Tables_number   1
_chemical_formula_structural   Li2Mn(SbP)3
_chemical_formula_sum   'Li2 Mn1 Sb3 P3'
_cell_volume   263.07992612
_cell_formula_units_Z   1
loop_
 _symmetry_equiv_pos_site_id
 _symmetry_equiv_pos_as_xyz
  1  'x, y, z'
loop_
 _atom_site_type_symbol
 _atom_site_label
 _atom_site_symmetry_multiplicity
 _atom_site_fract_x
 _atom_site_fract_y
 _atom_site_fract_z
 _atom_site_occupancy
  Mn  Mn0  1  0.00000000  0.00000000  0.00000000  1
  Sb  Sb1  1  0.33300000  0.66700000  0.25000000  1
  Sb  Sb2  1  0.66700000  0.33300000  0.50000000  1
  Sb  Sb3  1  0.00000000  0.00000000  0.75000000  1
  P  P4  1  0.76724712  0.45160990  0.09995290  1
  P  P5  1  0.99479747  0.91038181  0.78874510  1
  P  P6  1  0.06723707  0.82327913  0.33228244  1
  Li  Li7  1  0.41027820  0.05758795  0.70334443  1
  Li  Li8  1  0.95722103  0.82130352  0.19083196  1
