# generated using pymatgen
data_Li2MnMo2P3
_symmetry_space_group_name_H-M   'P 1'
_cell_length_a   3.47141374
_cell_length_b   3.60308309
_cell_length_c   5.82568947
_cell_angle_alpha   103.92514519
_cell_angle_beta   97.39137380
_cell_angle_gamma   103.59691896
_symmetry_Int_Tables_number   1
_chemical_formula_structural   Li2MnMo2P3
_chemical_formula_sum   'Li2 Mn1 Mo2 P3'
_cell_volume   67.40495579
_cell_formula_units_Z   1
loop_
 _symmetry_equiv_pos_site_id
 _symmetry_equiv_pos_as_xyz
  1  'x, y, z'
loop_
 _atom_site_type_symbol
 _atom_site_label
 _atom_site_symmetry_multiplicity
 _atom_site_fract_x
 _atom_site_fract_y
 _atom_site_fract_z
 _atom_site_occupancy
  Mn  Mn0  1  0.12500000  0.12500000  0.12500000  1
  P  P1  1  0.50000000  0.50000000  0.50000000  1
  P  P2  1  0.25000000  0.25000000  0.25000000  1
  P  P3  1  0.75000000  0.75000000  0.75000000  1
  Mo  Mo4  1  0.74963455  0.57323909  0.41258871  1
  Mo  Mo5  1  0.77990146  0.93776556  0.58670305  1
  Li  Li6  1  0.49608610  0.75064753  0.83441977  1
  Li  Li7  1  0.22880129  0.96107113  0.58771968  1
