# generated using pymatgen
data_Li3TiP3(I2Cl)2
_symmetry_space_group_name_H-M   'P 1'
_cell_length_a   6.00882622
_cell_length_b   5.74473686
_cell_length_c   6.91363232
_cell_angle_alpha   96.60830490
_cell_angle_beta   98.34696214
_cell_angle_gamma   96.05842309
_symmetry_Int_Tables_number   1
_chemical_formula_structural   Li3TiP3(I2Cl)2
_chemical_formula_sum   'Li3 Ti1 P3 I4 Cl2'
_cell_volume   232.73422368
_cell_formula_units_Z   1
loop_
 _symmetry_equiv_pos_site_id
 _symmetry_equiv_pos_as_xyz
  1  'x, y, z'
loop_
 _atom_site_type_symbol
 _atom_site_label
 _atom_site_symmetry_multiplicity
 _atom_site_fract_x
 _atom_site_fract_y
 _atom_site_fract_z
 _atom_site_occupancy
  P  P0  1  0.00000000  0.00000000  0.00000000  1
  P  P1  1  0.50000000  0.50000000  0.50000000  1
  P  P2  1  0.25000000  0.25000000  0.25000000  1
  I  I3  1  0.75000000  0.25000000  0.00000000  1
  I  I4  1  0.25000000  0.75000000  0.50000000  1
  I  I5  1  0.30798080  0.75483974  0.37609534  1
  I  I6  1  0.44031052  0.66273115  0.56924260  1
  Li  Li7  1  0.79064143  0.29343895  0.59151264  1
  Li  Li8  1  0.30119060  0.53905964  0.26595736  1
  Li  Li9  1  0.18389956  0.41428378  0.91665145  1
  Cl  Cl10  1  0.08726346  0.26216368  0.03867090  1
  Cl  Cl11  1  0.26897607  0.51066053  0.83007606  1
  Ti  Ti12  1  0.00013121  0.59665261  0.06644685  1
