# generated using pymatgen
data_Li2Mn2Sb4P3
_symmetry_space_group_name_H-M   'P 1'
_cell_length_a   7.56993892
_cell_length_b   7.52218664
_cell_length_c   7.82240031
_cell_angle_alpha   91.03377820
_cell_angle_beta   91.22460579
_cell_angle_gamma   91.17656723
_symmetry_Int_Tables_number   1
_chemical_formula_structural   Li2Mn2Sb4P3
_chemical_formula_sum   'Li2 Mn2 Sb4 P3'
_cell_volume   445.15524667
_cell_formula_units_Z   1
loop_
 _symmetry_equiv_pos_site_id
 _symmetry_equiv_pos_as_xyz
  1  'x, y, z'
loop_
 _atom_site_type_symbol
 _atom_site_label
 _atom_site_symmetry_multiplicity
 _atom_site_fract_x
 _atom_site_fract_y
 _atom_site_fract_z
 _atom_site_occupancy
  Mn  Mn0  1  0.12500000  0.12500000  0.12500000  1
  Mn  Mn1  1  0.50000000  0.50000000  0.50000000  1
  Sb  Sb2  1  0.25000000  0.25000000  0.25000000  1
  Sb  Sb3  1  0.75000000  0.75000000  0.75000000  1
  Sb  Sb4  1  0.06378771  0.58787758  0.81851284  1
  Sb  Sb5  1  0.78798942  0.56086919  0.02231708  1
  P  P6  1  0.06594681  0.10690688  0.44943632  1
  P  P7  1  0.30375608  0.57946655  0.60698490  1
  P  P8  1  0.74109315  0.57526333  0.90990083  1
  Li  Li9  1  0.49244052  0.90876550  0.06401225  1
  Li  Li10  1  0.35346656  0.93275319  0.18062803  1
