# generated using pymatgen
data_Li2Mn2Sb4P2N
_symmetry_space_group_name_H-M   'P 1'
_cell_length_a   5.35166993
_cell_length_b   5.73653069
_cell_length_c   6.67621593
_cell_angle_alpha   98.68905757
_cell_angle_beta   93.82651580
_cell_angle_gamma   98.39232913
_symmetry_Int_Tables_number   1
_chemical_formula_structural   Li2Mn2Sb4P2N
_chemical_formula_sum   'Li2 Mn2 Sb4 P2 N1'
_cell_volume   199.61027821
_cell_formula_units_Z   1
loop_
 _symmetry_equiv_pos_site_id
 _symmetry_equiv_pos_as_xyz
  1  'x, y, z'
loop_
 _atom_site_type_symbol
 _atom_site_label
 _atom_site_symmetry_multiplicity
 _atom_site_fract_x
 _atom_site_fract_y
 _atom_site_fract_z
 _atom_site_occupancy
  N  N0  1  0.12500000  0.00000000  0.25000000  1
  Mn  Mn1  1  0.00000000  0.00000000  0.00000000  1
  Mn  Mn2  1  0.37500000  0.00000000  0.25000000  1
  Sb  Sb3  1  0.25000000  0.25000000  0.25000000  1
  Sb  Sb4  1  0.00000000  0.25000000  0.12500000  1
  Sb  Sb5  1  0.18102675  0.60692553  0.70792787  1
  Sb  Sb6  1  0.61177298  0.29939522  0.88177143  1
  P  P7  1  0.71177189  0.95760420  0.56932728  1
  P  P8  1  0.91177431  0.54739593  0.17056984  1
  Li  Li9  1  0.88365239  0.63885382  0.59713929  1
  Li  Li10  1  0.16229493  0.27774055  0.29294147  1
