# generated using pymatgen
data_LiMn3(SbP)4
_symmetry_space_group_name_H-M   'P 1'
_cell_length_a   6.56763599
_cell_length_b   7.04902558
_cell_length_c   6.87100159
_cell_angle_alpha   90.19119629
_cell_angle_beta   90.67686825
_cell_angle_gamma   90.51839869
_symmetry_Int_Tables_number   1
_chemical_formula_structural   LiMn3(SbP)4
_chemical_formula_sum   'Li1 Mn3 Sb4 P4'
_cell_volume   318.05889909
_cell_formula_units_Z   1
loop_
 _symmetry_equiv_pos_site_id
 _symmetry_equiv_pos_as_xyz
  1  'x, y, z'
loop_
 _atom_site_type_symbol
 _atom_site_label
 _atom_site_symmetry_multiplicity
 _atom_site_fract_x
 _atom_site_fract_y
 _atom_site_fract_z
 _atom_site_occupancy
  Mn  Mn0  1  0.12500000  0.12500000  0.12500000  1
  Mn  Mn1  1  0.50000000  0.50000000  0.50000000  1
  Mn  Mn2  1  0.25000000  0.25000000  0.25000000  1
  Sb  Sb3  1  0.75000000  0.75000000  0.75000000  1
  Sb  Sb4  1  0.69853355  0.71185153  0.03247057  1
  Sb  Sb5  1  0.08818461  0.39880183  0.01276627  1
  Sb  Sb6  1  0.11310598  0.36756922  0.97760576  1
  P  P7  1  0.46581898  0.70726886  0.30955247  1
  P  P8  1  0.18109701  0.41848356  0.20666371  1
  P  P9  1  0.20117123  0.53859107  0.98865814  1
  P  P10  1  0.30810386  0.85347683  0.15395027  1
  Li  Li11  1  0.27377558  0.21734683  0.67455996  1
