# generated using pymatgen
data_Li2MnSb4Mo2P3
_symmetry_space_group_name_H-M   'P 1'
_cell_length_a   6.25177701
_cell_length_b   6.41952724
_cell_length_c   7.17089499
_cell_angle_alpha   95.60270926
_cell_angle_beta   92.38735353
_cell_angle_gamma   95.78476391
_symmetry_Int_Tables_number   1
_chemical_formula_structural   Li2MnSb4Mo2P3
_chemical_formula_sum   'Li2 Mn1 Sb4 Mo2 P3'
_cell_volume   284.57372115
_cell_formula_units_Z   1
loop_
 _symmetry_equiv_pos_site_id
 _symmetry_equiv_pos_as_xyz
  1  'x, y, z'
loop_
 _atom_site_type_symbol
 _atom_site_label
 _atom_site_symmetry_multiplicity
 _atom_site_fract_x
 _atom_site_fract_y
 _atom_site_fract_z
 _atom_site_occupancy
  Mn  Mn0  1  0.00000000  0.00000000  0.00000000  1
  Sb  Sb1  1  0.50000000  0.50000000  0.50000000  1
  Sb  Sb2  1  0.25000000  0.25000000  0.25000000  1
  Sb  Sb3  1  0.75000000  0.25000000  0.00000000  1
  Sb  Sb4  1  0.25000000  0.75000000  0.50000000  1
  P  P5  1  0.91858064  0.28377490  0.77825749  1
  P  P6  1  0.26979789  0.80178677  0.27595047  1
  P  P7  1  0.15089438  0.17326322  0.51641081  1
  Mo  Mo8  1  0.86084834  0.13302455  0.16103989  1
  Mo  Mo9  1  0.81594239  0.35284873  0.99622195  1
  Li  Li10  1  0.07626690  0.07604341  0.54564379  1
  Li  Li11  1  0.98901075  0.66024386  0.35514075  1
