# generated using pymatgen
data_Li2MnSb4Mo2P3
_symmetry_space_group_name_H-M   'P 1'
_cell_length_a   5.91598678
_cell_length_b   6.34695769
_cell_length_c   6.88181763
_cell_angle_alpha   96.68820207
_cell_angle_beta   92.07637588
_cell_angle_gamma   96.79780644
_symmetry_Int_Tables_number   1
_chemical_formula_structural   Li2MnSb4Mo2P3
_chemical_formula_sum   'Li2 Mn1 Sb4 Mo2 P3'
_cell_volume   254.51138600
_cell_formula_units_Z   1
loop_
 _symmetry_equiv_pos_site_id
 _symmetry_equiv_pos_as_xyz
  1  'x, y, z'
loop_
 _atom_site_type_symbol
 _atom_site_label
 _atom_site_symmetry_multiplicity
 _atom_site_fract_x
 _atom_site_fract_y
 _atom_site_fract_z
 _atom_site_occupancy
  Mn  Mn0  1  0.12500000  0.00000000  0.25000000  1
  Sb  Sb1  1  0.00000000  0.00000000  0.00000000  1
  Sb  Sb2  1  0.37500000  0.00000000  0.25000000  1
  Sb  Sb3  1  0.25000000  0.25000000  0.25000000  1
  Sb  Sb4  1  0.00000000  0.25000000  0.12500000  1
  P  P5  1  0.87017288  0.98881661  0.99203056  1
  P  P6  1  0.57255895  0.10151272  0.14283824  1
  P  P7  1  0.90451499  0.80733433  0.40559891  1
  Mo  Mo8  1  0.40133745  0.36577308  0.32014489  1
  Mo  Mo9  1  0.90832073  0.64308439  0.92122998  1
  Li  Li10  1  0.73360697  0.57908842  0.14879279  1
  Li  Li11  1  0.25409941  0.29402441  0.00668610  1
