# generated using pymatgen
data_Li2TiCu2P5O3
_symmetry_space_group_name_H-M   'P 1'
_cell_length_a   8.45205412
_cell_length_b   8.33736201
_cell_length_c   7.26385450
_cell_angle_alpha   90.11972166
_cell_angle_beta   90.56959929
_cell_angle_gamma   90.13687382
_symmetry_Int_Tables_number   1
_chemical_formula_structural   Li2TiCu2P5O3
_chemical_formula_sum   'Li2 Ti1 Cu2 P5 O3'
_cell_volume   511.84020181
_cell_formula_units_Z   1
loop_
 _symmetry_equiv_pos_site_id
 _symmetry_equiv_pos_as_xyz
  1  'x, y, z'
loop_
 _atom_site_type_symbol
 _atom_site_label
 _atom_site_symmetry_multiplicity
 _atom_site_fract_x
 _atom_site_fract_y
 _atom_site_fract_z
 _atom_site_occupancy
  P  P0  1  0.00000000  0.00000000  0.00000000  1
  P  P1  1  0.50000000  0.50000000  0.50000000  1
  P  P2  1  0.25000000  0.25000000  0.25000000  1
  P  P3  1  0.75000000  0.25000000  0.00000000  1
  P  P4  1  0.25000000  0.75000000  0.50000000  1
  Li  Li5  1  0.15560968  0.95540975  0.51822959  1
  Li  Li6  1  0.60360834  0.06402191  0.84141238  1
  Cu  Cu7  1  0.16381279  0.88003651  0.06743834  1
  Cu  Cu8  1  0.23309392  0.28850333  0.69096214  1
  Ti  Ti9  1  0.51283394  0.34253728  0.77233559  1
  O  O10  1  0.44779082  0.08601028  0.22736117  1
  O  O11  1  0.18550437  0.17013449  0.90249742  1
  O  O12  1  0.73906424  0.29415133  0.48197147  1
