# generated using pymatgen
data_Li2LuCu2(PN)5
_symmetry_space_group_name_H-M   'P 1'
_cell_length_a   7.42587072
_cell_length_b   7.47262951
_cell_length_c   8.41179696
_cell_angle_alpha   91.66175693
_cell_angle_beta   92.61669312
_cell_angle_gamma   91.78209738
_symmetry_Int_Tables_number   1
_chemical_formula_structural   Li2LuCu2(PN)5
_chemical_formula_sum   'Li2 Lu1 Cu2 P5 N5'
_cell_volume   465.84860816
_cell_formula_units_Z   1
loop_
 _symmetry_equiv_pos_site_id
 _symmetry_equiv_pos_as_xyz
  1  'x, y, z'
loop_
 _atom_site_type_symbol
 _atom_site_label
 _atom_site_symmetry_multiplicity
 _atom_site_fract_x
 _atom_site_fract_y
 _atom_site_fract_z
 _atom_site_occupancy
  P  P0  1  0.00000000  0.00000000  0.00000000  1
  P  P1  1  0.50000000  0.50000000  0.50000000  1
  P  P2  1  0.25000000  0.25000000  0.25000000  1
  P  P3  1  0.75000000  0.25000000  0.00000000  1
  P  P4  1  0.25000000  0.75000000  0.50000000  1
  Lu  Lu5  1  0.09932690  0.04305446  0.95926874  1
  Li  Li6  1  0.78368014  0.99095836  0.21610600  1
  Li  Li7  1  0.17304717  0.63201244  0.18594231  1
  Cu  Cu8  1  0.95699668  0.33068175  0.43776706  1
  Cu  Cu9  1  0.10545548  0.09481608  0.35562154  1
  N  N10  1  0.09894904  0.87358067  0.39602090  1
  N  N11  1  0.32144102  0.58744486  0.86159816  1
  N  N12  1  0.18484124  0.09094480  0.95105157  1
  N  N13  1  0.89344132  0.32332971  0.41939620  1
  N  N14  1  0.70081900  0.09507810  0.15127359  1
