# generated using pymatgen
data_Li2Mn3(Sb2P)2
_symmetry_space_group_name_H-M   'P 1'
_cell_length_a   5.13822293
_cell_length_b   5.50125838
_cell_length_c   6.25724139
_cell_angle_alpha   101.10711884
_cell_angle_beta   95.19393557
_cell_angle_gamma   98.53845055
_symmetry_Int_Tables_number   1
_chemical_formula_structural   Li2Mn3(Sb2P)2
_chemical_formula_sum   'Li2 Mn3 Sb4 P2'
_cell_volume   170.33657207
_cell_formula_units_Z   1
loop_
 _symmetry_equiv_pos_site_id
 _symmetry_equiv_pos_as_xyz
  1  'x, y, z'
loop_
 _atom_site_type_symbol
 _atom_site_label
 _atom_site_symmetry_multiplicity
 _atom_site_fract_x
 _atom_site_fract_y
 _atom_site_fract_z
 _atom_site_occupancy
  Mn  Mn0  1  0.12500000  0.00000000  0.25000000  1
  Mn  Mn1  1  0.00000000  0.00000000  0.00000000  1
  Mn  Mn2  1  0.37500000  0.00000000  0.25000000  1
  Sb  Sb3  1  0.25000000  0.25000000  0.25000000  1
  Sb  Sb4  1  0.00000000  0.25000000  0.12500000  1
  Sb  Sb5  1  0.05938606  0.02257066  0.18857139  1
  Sb  Sb6  1  0.95402945  0.02077974  0.98072015  1
  P  P7  1  0.62865636  0.87929507  0.78371524  1
  P  P8  1  0.00856254  0.26533282  0.57697257  1
  Li  Li9  1  0.84401770  0.70252594  0.33560529  1
  Li  Li10  1  0.78112027  0.40876314  0.43347719  1
