# generated using pymatgen
data_Li2P3WOF4
_symmetry_space_group_name_H-M   'P 1'
_cell_length_a   4.22639872
_cell_length_b   3.91083863
_cell_length_c   4.72431141
_cell_angle_alpha   94.68032687
_cell_angle_beta   87.79933575
_cell_angle_gamma   92.50559931
_symmetry_Int_Tables_number   1
_chemical_formula_structural   Li2P3WOF4
_chemical_formula_sum   'Li2 P3 W1 O1 F4'
_cell_volume   77.70464599
_cell_formula_units_Z   1
loop_
 _symmetry_equiv_pos_site_id
 _symmetry_equiv_pos_as_xyz
  1  'x, y, z'
loop_
 _atom_site_type_symbol
 _atom_site_label
 _atom_site_symmetry_multiplicity
 _atom_site_fract_x
 _atom_site_fract_y
 _atom_site_fract_z
 _atom_site_occupancy
  F  F0  1  0.00000000  0.00000000  0.00000000  1
  F  F1  1  0.50000000  0.50000000  0.50000000  1
  F  F2  1  0.50000000  0.50000000  0.00000000  1
  F  F3  1  0.50000000  0.00000000  0.50000000  1
  O  O4  1  0.00000000  0.50000000  0.50000000  1
  W  W5  1  0.66622156  0.04908998  0.52902067  1
  P  P6  1  0.47013889  0.15532384  0.69929020  1
  P  P7  1  0.75944544  0.96069968  0.38116889  1
  P  P8  1  0.00108255  0.40810092  0.73098440  1
  Li  Li9  1  0.03588306  0.55671129  0.37253931  1
  Li  Li10  1  0.22229782  0.62694528  0.03777437  1
