# generated using pymatgen
data_Li2Mn3Sb4P3N
_symmetry_space_group_name_H-M   'P 1'
_cell_length_a   6.80322345
_cell_length_b   7.27551999
_cell_length_c   7.02230721
_cell_angle_alpha   93.34076477
_cell_angle_beta   91.21321236
_cell_angle_gamma   92.97407519
_symmetry_Int_Tables_number   1
_chemical_formula_structural   Li2Mn3Sb4P3N
_chemical_formula_sum   'Li2 Mn3 Sb4 P3 N1'
_cell_volume   346.42294283
_cell_formula_units_Z   1
loop_
 _symmetry_equiv_pos_site_id
 _symmetry_equiv_pos_as_xyz
  1  'x, y, z'
loop_
 _atom_site_type_symbol
 _atom_site_label
 _atom_site_symmetry_multiplicity
 _atom_site_fract_x
 _atom_site_fract_y
 _atom_site_fract_z
 _atom_site_occupancy
  N  N0  1  0.12500000  0.00000000  0.25000000  1
  Mn  Mn1  1  0.00000000  0.00000000  0.00000000  1
  Mn  Mn2  1  0.37500000  0.00000000  0.25000000  1
  Mn  Mn3  1  0.25000000  0.25000000  0.25000000  1
  Sb  Sb4  1  0.00000000  0.25000000  0.12500000  1
  Sb  Sb5  1  0.86047360  0.61747011  0.79006819  1
  Sb  Sb6  1  0.45662304  0.98183596  0.06497137  1
  Sb  Sb7  1  0.18106390  0.26250717  0.22853691  1
  P  P8  1  0.42340783  0.13148929  0.63294756  1
  P  P9  1  0.27676112  0.38686755  0.32966797  1
  P  P10  1  0.77656314  0.09324078  0.48161082  1
  Li  Li11  1  0.83264295  0.23839452  0.39908996  1
  Li  Li12  1  0.22661599  0.65957933  0.40934139  1
