# generated using pymatgen
data_Li(SbP)3
_symmetry_space_group_name_H-M   'P 1'
_cell_length_a   4.59285666
_cell_length_b   4.79577799
_cell_length_c   6.08178809
_cell_angle_alpha   98.46062614
_cell_angle_beta   93.05811418
_cell_angle_gamma   98.81116135
_symmetry_Int_Tables_number   1
_chemical_formula_structural   Li(SbP)3
_chemical_formula_sum   'Li1 Sb3 P3'
_cell_volume   130.54264272
_cell_formula_units_Z   1
loop_
 _symmetry_equiv_pos_site_id
 _symmetry_equiv_pos_as_xyz
  1  'x, y, z'
loop_
 _atom_site_type_symbol
 _atom_site_label
 _atom_site_symmetry_multiplicity
 _atom_site_fract_x
 _atom_site_fract_y
 _atom_site_fract_z
 _atom_site_occupancy
  Sb  Sb0  1  0.12500000  0.12500000  0.12500000  1
  Sb  Sb1  1  0.50000000  0.50000000  0.50000000  1
  Sb  Sb2  1  0.25000000  0.25000000  0.25000000  1
  P  P3  1  0.75000000  0.75000000  0.75000000  1
  P  P4  1  0.90187694  0.07626494  0.26531668  1
  P  P5  1  0.84423837  0.00137655  0.27904124  1
  Li  Li6  1  0.22559110  0.20661873  0.95076245  1
