# generated using pymatgen
data_Li2TiP3(SO)2
_symmetry_space_group_name_H-M   'P 1'
_cell_length_a   5.72673425
_cell_length_b   5.58910927
_cell_length_c   6.77399680
_cell_angle_alpha   96.15022666
_cell_angle_beta   99.28428122
_cell_angle_gamma   96.95333401
_symmetry_Int_Tables_number   1
_chemical_formula_structural   Li2TiP3(SO)2
_chemical_formula_sum   'Li2 Ti1 P3 S2 O2'
_cell_volume   210.62055488
_cell_formula_units_Z   1
loop_
 _symmetry_equiv_pos_site_id
 _symmetry_equiv_pos_as_xyz
  1  'x, y, z'
loop_
 _atom_site_type_symbol
 _atom_site_label
 _atom_site_symmetry_multiplicity
 _atom_site_fract_x
 _atom_site_fract_y
 _atom_site_fract_z
 _atom_site_occupancy
  P  P0  1  0.00000000  0.00000000  0.00000000  1
  P  P1  1  0.50000000  0.50000000  0.50000000  1
  P  P2  1  0.25000000  0.25000000  0.25000000  1
  Li  Li3  1  0.75000000  0.25000000  0.00000000  1
  Li  Li4  1  0.25000000  0.75000000  0.50000000  1
  S  S5  1  0.38274698  0.72814065  0.69914936  1
  S  S6  1  0.43844856  0.48444183  0.82114552  1
  Ti  Ti7  1  0.67361510  0.51409236  0.84270024  1
  O  O8  1  0.73808964  0.78104072  0.10233196  1
  O  O9  1  0.79072347  0.14798837  0.88540281  1
