# generated using pymatgen
data_Li2Mn2Sb4P3
_symmetry_space_group_name_H-M   'P 1'
_cell_length_a   6.77865391
_cell_length_b   7.37431129
_cell_length_c   7.40933045
_cell_angle_alpha   92.10014177
_cell_angle_beta   92.48781197
_cell_angle_gamma   92.39022063
_symmetry_Int_Tables_number   1
_chemical_formula_structural   Li2Mn2Sb4P3
_chemical_formula_sum   'Li2 Mn2 Sb4 P3'
_cell_volume   369.43139887
_cell_formula_units_Z   1
loop_
 _symmetry_equiv_pos_site_id
 _symmetry_equiv_pos_as_xyz
  1  'x, y, z'
loop_
 _atom_site_type_symbol
 _atom_site_label
 _atom_site_symmetry_multiplicity
 _atom_site_fract_x
 _atom_site_fract_y
 _atom_site_fract_z
 _atom_site_occupancy
  Mn  Mn0  1  0.12500000  0.00000000  0.25000000  1
  Mn  Mn1  1  0.00000000  0.00000000  0.00000000  1
  Sb  Sb2  1  0.37500000  0.00000000  0.25000000  1
  Sb  Sb3  1  0.25000000  0.25000000  0.25000000  1
  Sb  Sb4  1  0.00000000  0.25000000  0.12500000  1
  Sb  Sb5  1  0.11156046  0.17194044  0.24867032  1
  P  P6  1  0.46048726  0.20140079  0.73514680  1
  P  P7  1  0.90895857  0.54409881  0.78683665  1
  P  P8  1  0.35245631  0.34771403  0.74843699  1
  Li  Li9  1  0.85987406  0.33489988  0.91925701  1
  Li  Li10  1  0.07953265  0.12400889  0.41831437  1
