# generated using pymatgen
data_Li2Mn2Sb4Mo2P3
_symmetry_space_group_name_H-M   'P 1'
_cell_length_a   5.64620395
_cell_length_b   6.05984904
_cell_length_c   6.80048534
_cell_angle_alpha   97.58353882
_cell_angle_beta   92.55366274
_cell_angle_gamma   97.73557464
_symmetry_Int_Tables_number   1
_chemical_formula_structural   Li2Mn2Sb4Mo2P3
_chemical_formula_sum   'Li2 Mn2 Sb4 Mo2 P3'
_cell_volume   228.08508756
_cell_formula_units_Z   1
loop_
 _symmetry_equiv_pos_site_id
 _symmetry_equiv_pos_as_xyz
  1  'x, y, z'
loop_
 _atom_site_type_symbol
 _atom_site_label
 _atom_site_symmetry_multiplicity
 _atom_site_fract_x
 _atom_site_fract_y
 _atom_site_fract_z
 _atom_site_occupancy
  Mn  Mn0  1  0.00000000  0.00000000  0.00000000  1
  Mn  Mn1  1  0.50000000  0.50000000  0.50000000  1
  Sb  Sb2  1  0.50000000  0.50000000  0.00000000  1
  Sb  Sb3  1  0.50000000  0.00000000  0.50000000  1
  Sb  Sb4  1  0.00000000  0.50000000  0.50000000  1
  Sb  Sb5  1  0.83236438  0.97980757  0.70529771  1
  P  P6  1  0.86552008  0.75850320  0.01162444  1
  P  P7  1  0.81910459  0.41221615  0.46181465  1
  P  P8  1  0.56461911  0.52185690  0.27081190  1
  Mo  Mo9  1  0.18046767  0.84406700  0.94156934  1
  Mo  Mo10  1  0.10467668  0.15949081  0.48962466  1
  Li  Li11  1  0.86679105  0.30659880  0.36431439  1
  Li  Li12  1  0.83051635  0.38787888  0.87316764  1
