# generated using pymatgen
data_Li2Mn2Sb4P3
_symmetry_space_group_name_H-M   'P 1'
_cell_length_a   7.22271607
_cell_length_b   7.31167198
_cell_length_c   7.55243621
_cell_angle_alpha   92.50505354
_cell_angle_beta   90.84354574
_cell_angle_gamma   92.55527519
_symmetry_Int_Tables_number   1
_chemical_formula_structural   Li2Mn2Sb4P3
_chemical_formula_sum   'Li2 Mn2 Sb4 P3'
_cell_volume   398.01225834
_cell_formula_units_Z   1
loop_
 _symmetry_equiv_pos_site_id
 _symmetry_equiv_pos_as_xyz
  1  'x, y, z'
loop_
 _atom_site_type_symbol
 _atom_site_label
 _atom_site_symmetry_multiplicity
 _atom_site_fract_x
 _atom_site_fract_y
 _atom_site_fract_z
 _atom_site_occupancy
  Mn  Mn0  1  0.12500000  0.12500000  0.12500000  1
  Mn  Mn1  1  0.50000000  0.50000000  0.50000000  1
  Sb  Sb2  1  0.25000000  0.25000000  0.25000000  1
  Sb  Sb3  1  0.75000000  0.75000000  0.75000000  1
  Sb  Sb4  1  0.18564657  0.83990319  0.65304202  1
  Sb  Sb5  1  0.05087838  0.08880745  0.05097899  1
  P  P6  1  0.10870676  0.53282478  0.44073029  1
  P  P7  1  0.72643782  0.98337405  0.13709042  1
  P  P8  1  0.31955634  0.44506635  0.99720769  1
  Li  Li9  1  0.58567877  0.27902699  0.25912678  1
  Li  Li10  1  0.69941862  0.91109394  0.61950122  1
