# generated using pymatgen
data_Li2TiCu2O3F2
_symmetry_space_group_name_H-M   'P 1'
_cell_length_a   7.16769376
_cell_length_b   7.09081048
_cell_length_c   8.38647904
_cell_angle_alpha   93.35879542
_cell_angle_beta   93.87199378
_cell_angle_gamma   94.05016751
_symmetry_Int_Tables_number   1
_chemical_formula_structural   Li2TiCu2O3F2
_chemical_formula_sum   'Li2 Ti1 Cu2 O3 F2'
_cell_volume   423.34527413
_cell_formula_units_Z   1
loop_
 _symmetry_equiv_pos_site_id
 _symmetry_equiv_pos_as_xyz
  1  'x, y, z'
loop_
 _atom_site_type_symbol
 _atom_site_label
 _atom_site_symmetry_multiplicity
 _atom_site_fract_x
 _atom_site_fract_y
 _atom_site_fract_z
 _atom_site_occupancy
  Li  Li0  1  0.00000000  0.00000000  0.00000000  1
  Li  Li1  1  0.50000000  0.50000000  0.50000000  1
  Cu  Cu2  1  0.25000000  0.25000000  0.25000000  1
  Cu  Cu3  1  0.75000000  0.25000000  0.00000000  1
  F  F4  1  0.25000000  0.75000000  0.50000000  1
  F  F5  1  0.92225880  0.46587846  0.12004778  1
  Ti  Ti6  1  0.46637005  0.33786367  0.05979587  1
  O  O7  1  0.17971817  0.77523263  0.21911315  1
  O  O8  1  0.64141216  0.45086282  0.70152595  1
  O  O9  1  0.90521411  0.60544654  0.73090305  1
