# generated using pymatgen
data_Li2TiCu2I4O3
_symmetry_space_group_name_H-M   'P 1'
_cell_length_a   7.90219748
_cell_length_b   7.78959440
_cell_length_c   7.07655333
_cell_angle_alpha   91.96332969
_cell_angle_beta   92.93447064
_cell_angle_gamma   92.25138914
_symmetry_Int_Tables_number   1
_chemical_formula_structural   Li2TiCu2I4O3
_chemical_formula_sum   'Li2 Ti1 Cu2 I4 O3'
_cell_volume   434.40241763
_cell_formula_units_Z   1
loop_
 _symmetry_equiv_pos_site_id
 _symmetry_equiv_pos_as_xyz
  1  'x, y, z'
loop_
 _atom_site_type_symbol
 _atom_site_label
 _atom_site_symmetry_multiplicity
 _atom_site_fract_x
 _atom_site_fract_y
 _atom_site_fract_z
 _atom_site_occupancy
  I  I0  1  0.00000000  0.00000000  0.00000000  1
  I  I1  1  0.50000000  0.50000000  0.50000000  1
  I  I2  1  0.25000000  0.25000000  0.25000000  1
  I  I3  1  0.75000000  0.25000000  0.00000000  1
  Li  Li4  1  0.25000000  0.75000000  0.50000000  1
  Li  Li5  1  0.08628279  0.31192666  0.71445324  1
  Cu  Cu6  1  0.96519319  0.52774362  0.68803077  1
  Cu  Cu7  1  0.53238781  0.96343763  0.34574544  1
  Ti  Ti8  1  0.36840112  0.35225883  0.34102210  1
  O  O9  1  0.67627255  0.54832064  0.16314981  1
  O  O10  1  0.57263948  0.95397138  0.50889507  1
  O  O11  1  0.36474604  0.32493857  0.55440978  1
