# generated using pymatgen
data_LiMn2Sb3Mo2P3
_symmetry_space_group_name_H-M   'P 1'
_cell_length_a   5.03177284
_cell_length_b   5.24676628
_cell_length_c   6.15754917
_cell_angle_alpha   98.10850551
_cell_angle_beta   91.55387856
_cell_angle_gamma   97.85884812
_symmetry_Int_Tables_number   1
_chemical_formula_structural   LiMn2Sb3Mo2P3
_chemical_formula_sum   'Li1 Mn2 Sb3 Mo2 P3'
_cell_volume   159.24731974
_cell_formula_units_Z   1
loop_
 _symmetry_equiv_pos_site_id
 _symmetry_equiv_pos_as_xyz
  1  'x, y, z'
loop_
 _atom_site_type_symbol
 _atom_site_label
 _atom_site_symmetry_multiplicity
 _atom_site_fract_x
 _atom_site_fract_y
 _atom_site_fract_z
 _atom_site_occupancy
  Mn  Mn0  1  0.12500000  0.00000000  0.25000000  1
  Mn  Mn1  1  0.00000000  0.00000000  0.00000000  1
  Sb  Sb2  1  0.37500000  0.00000000  0.25000000  1
  Sb  Sb3  1  0.25000000  0.25000000  0.25000000  1
  Sb  Sb4  1  0.00000000  0.25000000  0.12500000  1
  P  P5  1  0.79457334  0.94238270  0.52456781  1
  P  P6  1  0.97991270  0.59650077  0.44296621  1
  P  P7  1  0.86704133  0.62826196  0.25656684  1
  Mo  Mo8  1  0.67844426  0.95684015  0.98910574  1
  Mo  Mo9  1  0.05698054  0.88851494  0.38384788  1
  Li  Li10  1  0.28660096  0.26495717  0.32098887  1
