# generated using pymatgen
data_Li2MnSb4Mo2P3
_symmetry_space_group_name_H-M   'P 1'
_cell_length_a   5.71724044
_cell_length_b   6.16904162
_cell_length_c   7.02862538
_cell_angle_alpha   96.08863379
_cell_angle_beta   94.13946413
_cell_angle_gamma   96.50164802
_symmetry_Int_Tables_number   1
_chemical_formula_structural   Li2MnSb4Mo2P3
_chemical_formula_sum   'Li2 Mn1 Sb4 Mo2 P3'
_cell_volume   244.02416524
_cell_formula_units_Z   1
loop_
 _symmetry_equiv_pos_site_id
 _symmetry_equiv_pos_as_xyz
  1  'x, y, z'
loop_
 _atom_site_type_symbol
 _atom_site_label
 _atom_site_symmetry_multiplicity
 _atom_site_fract_x
 _atom_site_fract_y
 _atom_site_fract_z
 _atom_site_occupancy
  Mn  Mn0  1  0.00000000  0.00000000  0.00000000  1
  Sb  Sb1  1  0.50000000  0.50000000  0.50000000  1
  Sb  Sb2  1  0.25000000  0.25000000  0.25000000  1
  Sb  Sb3  1  0.75000000  0.25000000  0.00000000  1
  Sb  Sb4  1  0.25000000  0.75000000  0.50000000  1
  P  P5  1  0.87897553  0.64882729  0.32947300  1
  P  P6  1  0.73728399  0.97196414  0.82402246  1
  P  P7  1  0.35273198  0.69079071  0.23331618  1
  Mo  Mo8  1  0.26259406  0.29346511  0.34061973  1
  Mo  Mo9  1  0.10438787  0.50549305  0.05320099  1
  Li  Li10  1  0.56555971  0.50217036  0.67607439  1
  Li  Li11  1  0.67062912  0.81154513  0.29759066  1
