# generated using pymatgen
data_LiMn3Mo2P3
_symmetry_space_group_name_H-M   'P 1'
_cell_length_a   5.56234629
_cell_length_b   5.69054347
_cell_length_c   5.95671179
_cell_angle_alpha   93.05541574
_cell_angle_beta   89.03077575
_cell_angle_gamma   92.29230242
_symmetry_Int_Tables_number   1
_chemical_formula_structural   LiMn3Mo2P3
_chemical_formula_sum   'Li1 Mn3 Mo2 P3'
_cell_volume   188.10710499
_cell_formula_units_Z   1
loop_
 _symmetry_equiv_pos_site_id
 _symmetry_equiv_pos_as_xyz
  1  'x, y, z'
loop_
 _atom_site_type_symbol
 _atom_site_label
 _atom_site_symmetry_multiplicity
 _atom_site_fract_x
 _atom_site_fract_y
 _atom_site_fract_z
 _atom_site_occupancy
  Mn  Mn0  1  0.00000000  0.00000000  0.00000000  1
  Mn  Mn1  1  0.50000000  0.50000000  0.50000000  1
  Mn  Mn2  1  0.50000000  0.50000000  0.00000000  1
  P  P3  1  0.50000000  0.00000000  0.50000000  1
  P  P4  1  0.00000000  0.50000000  0.50000000  1
  P  P5  1  0.58512457  0.37928957  0.39089638  1
  Mo  Mo6  1  0.11775662  0.67666557  0.01532249  1
  Mo  Mo7  1  0.34319068  0.94030519  0.63805602  1
  Li  Li8  1  0.98232597  0.60645885  0.52214684  1
