# generated using pymatgen
data_Li2Ti3Cu2(As3P4)2
_symmetry_space_group_name_H-M   'P 1'
_cell_length_a   6.47456456
_cell_length_b   6.71369316
_cell_length_c   7.74598987
_cell_angle_alpha   96.26143652
_cell_angle_beta   98.88317127
_cell_angle_gamma   97.33701065
_symmetry_Int_Tables_number   1
_chemical_formula_structural   Li2Ti3Cu2(As3P4)2
_chemical_formula_sum   'Li2 Ti3 Cu2 As6 P8'
_cell_volume   327.08016130
_cell_formula_units_Z   1
loop_
 _symmetry_equiv_pos_site_id
 _symmetry_equiv_pos_as_xyz
  1  'x, y, z'
loop_
 _atom_site_type_symbol
 _atom_site_label
 _atom_site_symmetry_multiplicity
 _atom_site_fract_x
 _atom_site_fract_y
 _atom_site_fract_z
 _atom_site_occupancy
  Ti  Ti0  1  0.00000000  0.00000000  0.00000000  1
  Ti  Ti1  1  0.50000000  0.50000000  0.50000000  1
  Ti  Ti2  1  0.25000000  0.25000000  0.25000000  1
  P  P3  1  0.75000000  0.25000000  0.00000000  1
  P  P4  1  0.25000000  0.75000000  0.50000000  1
  P  P5  1  0.87801757  0.67293075  0.00337624  1
  P  P6  1  0.69375815  0.98570928  0.03360898  1
  P  P7  1  0.46864469  0.07518401  0.31141623  1
  P  P8  1  0.34703355  0.55977851  0.85929521  1
  P  P9  1  0.80213676  0.56192023  0.20022230  1
  P  P10  1  0.53334705  0.33537612  0.07404211  1
  As  As11  1  0.27987779  0.23118374  0.94285466  1
  As  As12  1  0.47154401  0.53998150  0.77641013  1
  As  As13  1  0.62402388  0.61071155  0.56433128  1
  As  As14  1  0.76050560  0.36409363  0.37215922  1
  As  As15  1  0.18484892  0.13334901  0.47098384  1
  As  As16  1  0.11743014  0.53672177  0.73312152  1
  Li  Li17  1  0.60983278  0.60600424  0.15481665  1
  Li  Li18  1  0.88856593  0.10899855  0.11810158  1
  Cu  Cu19  1  0.72350205  0.47117596  0.05735425  1
  Cu  Cu20  1  0.72344311  0.15722076  0.59615129  1
