# generated using pymatgen
data_Li2LuP5F2
_symmetry_space_group_name_H-M   'P 1'
_cell_length_a   7.91547642
_cell_length_b   7.65981440
_cell_length_c   8.14788251
_cell_angle_alpha   91.76610226
_cell_angle_beta   91.90964923
_cell_angle_gamma   91.87460426
_symmetry_Int_Tables_number   1
_chemical_formula_structural   Li2LuP5F2
_chemical_formula_sum   'Li2 Lu1 P5 F2'
_cell_volume   493.22446249
_cell_formula_units_Z   1
loop_
 _symmetry_equiv_pos_site_id
 _symmetry_equiv_pos_as_xyz
  1  'x, y, z'
loop_
 _atom_site_type_symbol
 _atom_site_label
 _atom_site_symmetry_multiplicity
 _atom_site_fract_x
 _atom_site_fract_y
 _atom_site_fract_z
 _atom_site_occupancy
  P  P0  1  0.00000000  0.00000000  0.00000000  1
  P  P1  1  0.50000000  0.50000000  0.50000000  1
  P  P2  1  0.50000000  0.50000000  0.00000000  1
  P  P3  1  0.50000000  0.00000000  0.50000000  1
  P  P4  1  0.00000000  0.50000000  0.50000000  1
  Lu  Lu5  1  0.54670196  0.25055335  0.93662489  1
  Li  Li6  1  0.79589567  0.66231140  0.63767680  1
  Li  Li7  1  0.09788394  0.27660532  0.60697354  1
  F  F8  1  0.84278296  0.39102517  0.62899857  1
  F  F9  1  0.36326236  0.66196323  0.32508422  1
