# generated using pymatgen
data_Li3TiCu2(SF)2
_symmetry_space_group_name_H-M   'P 1'
_cell_length_a   4.57787640
_cell_length_b   4.18265543
_cell_length_c   6.92363328
_cell_angle_alpha   100.00980081
_cell_angle_beta   101.49456195
_cell_angle_gamma   98.87927840
_symmetry_Int_Tables_number   1
_chemical_formula_structural   Li3TiCu2(SF)2
_chemical_formula_sum   'Li3 Ti1 Cu2 S2 F2'
_cell_volume   125.45774316
_cell_formula_units_Z   1
loop_
 _symmetry_equiv_pos_site_id
 _symmetry_equiv_pos_as_xyz
  1  'x, y, z'
loop_
 _atom_site_type_symbol
 _atom_site_label
 _atom_site_symmetry_multiplicity
 _atom_site_fract_x
 _atom_site_fract_y
 _atom_site_fract_z
 _atom_site_occupancy
  F  F0  1  0.12500000  0.00000000  0.25000000  1
  F  F1  1  0.00000000  0.00000000  0.00000000  1
  S  S2  1  0.37500000  0.00000000  0.25000000  1
  S  S3  1  0.25000000  0.25000000  0.25000000  1
  Ti  Ti4  1  0.00000000  0.25000000  0.12500000  1
  Li  Li5  1  0.70487756  0.32629431  0.75309358  1
  Li  Li6  1  0.58796716  0.40594414  0.42246078  1
  Li  Li7  1  0.52449193  0.31656737  0.54891813  1
  Cu  Cu8  1  0.20551466  0.26226526  0.08668945  1
  Cu  Cu9  1  0.88101278  0.99883839  0.52438077  1
