# generated using pymatgen
data_Li2TiCu2P5F2
_symmetry_space_group_name_H-M   'P 1'
_cell_length_a   7.60531854
_cell_length_b   7.36370714
_cell_length_c   7.55153594
_cell_angle_alpha   90.86843255
_cell_angle_beta   91.99362840
_cell_angle_gamma   90.62543506
_symmetry_Int_Tables_number   1
_chemical_formula_structural   Li2TiCu2P5F2
_chemical_formula_sum   'Li2 Ti1 Cu2 P5 F2'
_cell_volume   422.57897837
_cell_formula_units_Z   1
loop_
 _symmetry_equiv_pos_site_id
 _symmetry_equiv_pos_as_xyz
  1  'x, y, z'
loop_
 _atom_site_type_symbol
 _atom_site_label
 _atom_site_symmetry_multiplicity
 _atom_site_fract_x
 _atom_site_fract_y
 _atom_site_fract_z
 _atom_site_occupancy
  P  P0  1  0.00000000  0.00000000  0.00000000  1
  P  P1  1  0.50000000  0.50000000  0.50000000  1
  P  P2  1  0.50000000  0.50000000  0.00000000  1
  P  P3  1  0.50000000  0.00000000  0.50000000  1
  P  P4  1  0.00000000  0.50000000  0.50000000  1
  Li  Li5  1  0.94226238  0.75375191  0.70080493  1
  Li  Li6  1  0.95330788  0.73861735  0.57851909  1
  Cu  Cu7  1  0.27746531  0.60996592  0.09582403  1
  Cu  Cu8  1  0.48301951  0.47787426  0.84567648  1
  F  F9  1  0.71483590  0.37197584  0.86241244  1
  F  F10  1  0.73508211  0.49276037  0.20009849  1
  Ti  Ti11  1  0.54937209  0.96904437  0.59311386  1
