# generated using pymatgen
data_Li2Mn2Sb4P3
_symmetry_space_group_name_H-M   'P 1'
_cell_length_a   7.46953698
_cell_length_b   7.95414983
_cell_length_c   7.59918397
_cell_angle_alpha   90.54278224
_cell_angle_beta   90.64297571
_cell_angle_gamma   90.61775320
_symmetry_Int_Tables_number   1
_chemical_formula_structural   Li2Mn2Sb4P3
_chemical_formula_sum   'Li2 Mn2 Sb4 P3'
_cell_volume   451.42106738
_cell_formula_units_Z   1
loop_
 _symmetry_equiv_pos_site_id
 _symmetry_equiv_pos_as_xyz
  1  'x, y, z'
loop_
 _atom_site_type_symbol
 _atom_site_label
 _atom_site_symmetry_multiplicity
 _atom_site_fract_x
 _atom_site_fract_y
 _atom_site_fract_z
 _atom_site_occupancy
  Mn  Mn0  1  0.00000000  0.00000000  0.00000000  1
  Mn  Mn1  1  0.33300000  0.66700000  0.25000000  1
  Sb  Sb2  1  0.66700000  0.33300000  0.50000000  1
  Sb  Sb3  1  0.00000000  0.00000000  0.75000000  1
  Sb  Sb4  1  0.39595224  0.37764319  0.32884437  1
  Sb  Sb5  1  0.04608121  0.56932888  0.66769674  1
  P  P6  1  0.98818177  0.45468092  0.44397841  1
  P  P7  1  0.55723420  0.65337288  0.25382415  1
  P  P8  1  0.63900284  0.68315499  0.94854061  1
  Li  Li9  1  0.27015863  0.81660622  0.25767710  1
  Li  Li10  1  0.17015039  0.04980043  0.96558630  1
