# generated using pymatgen
data_Li2TiP3(OF)2
_symmetry_space_group_name_H-M   'P 1'
_cell_length_a   5.99576571
_cell_length_b   5.92491967
_cell_length_c   6.91619633
_cell_angle_alpha   96.70071055
_cell_angle_beta   98.80722140
_cell_angle_gamma   97.40382238
_symmetry_Int_Tables_number   1
_chemical_formula_structural   Li2TiP3(OF)2
_chemical_formula_sum   'Li2 Ti1 P3 O2 F2'
_cell_volume   238.42853690
_cell_formula_units_Z   1
loop_
 _symmetry_equiv_pos_site_id
 _symmetry_equiv_pos_as_xyz
  1  'x, y, z'
loop_
 _atom_site_type_symbol
 _atom_site_label
 _atom_site_symmetry_multiplicity
 _atom_site_fract_x
 _atom_site_fract_y
 _atom_site_fract_z
 _atom_site_occupancy
  P  P0  1  0.00000000  0.00000000  0.00000000  1
  P  P1  1  0.50000000  0.50000000  0.50000000  1
  P  P2  1  0.25000000  0.25000000  0.25000000  1
  Li  Li3  1  0.75000000  0.25000000  0.00000000  1
  Li  Li4  1  0.25000000  0.75000000  0.50000000  1
  F  F5  1  0.15120442  0.69994900  0.63150360  1
  F  F6  1  0.62667106  0.49410643  0.23264948  1
  Ti  Ti7  1  0.39077874  0.37114935  0.04934053  1
  O  O8  1  0.68406619  0.24781794  0.03113040  1
  O  O9  1  0.30258256  0.65089931  0.28619443  1
