# generated using pymatgen
data_Li2Mn2Sb4P3
_symmetry_space_group_name_H-M   'P 1'
_cell_length_a   5.29164813
_cell_length_b   5.53666372
_cell_length_c   6.56988189
_cell_angle_alpha   99.91353355
_cell_angle_beta   92.08603946
_cell_angle_gamma   99.93789271
_symmetry_Int_Tables_number   1
_chemical_formula_structural   Li2Mn2Sb4P3
_chemical_formula_sum   'Li2 Mn2 Sb4 P3'
_cell_volume   186.33177288
_cell_formula_units_Z   1
loop_
 _symmetry_equiv_pos_site_id
 _symmetry_equiv_pos_as_xyz
  1  'x, y, z'
loop_
 _atom_site_type_symbol
 _atom_site_label
 _atom_site_symmetry_multiplicity
 _atom_site_fract_x
 _atom_site_fract_y
 _atom_site_fract_z
 _atom_site_occupancy
  Mn  Mn0  1  0.00000000  0.00000000  0.00000000  1
  Mn  Mn1  1  0.50000000  0.50000000  0.50000000  1
  Sb  Sb2  1  0.50000000  0.50000000  0.00000000  1
  Sb  Sb3  1  0.50000000  0.00000000  0.50000000  1
  Sb  Sb4  1  0.00000000  0.50000000  0.50000000  1
  Sb  Sb5  1  0.66196686  0.85912797  0.49454198  1
  P  P6  1  0.40280517  0.21507761  0.87944558  1
  P  P7  1  0.19855958  0.62343757  0.45486023  1
  P  P8  1  0.52502016  0.26802040  0.24596945  1
  Li  Li9  1  0.84293617  0.41887439  0.91994107  1
  Li  Li10  1  0.18948839  0.53812126  0.40342216  1
