# generated using pymatgen
data_Li3LuTiP3N5
_symmetry_space_group_name_H-M   'P 1'
_cell_length_a   7.27723423
_cell_length_b   7.01411312
_cell_length_c   7.40802594
_cell_angle_alpha   94.51881456
_cell_angle_beta   95.51735737
_cell_angle_gamma   94.42696625
_symmetry_Int_Tables_number   1
_chemical_formula_structural   Li3LuTiP3N5
_chemical_formula_sum   'Li3 Lu1 Ti1 P3 N5'
_cell_volume   373.83712995
_cell_formula_units_Z   1
loop_
 _symmetry_equiv_pos_site_id
 _symmetry_equiv_pos_as_xyz
  1  'x, y, z'
loop_
 _atom_site_type_symbol
 _atom_site_label
 _atom_site_symmetry_multiplicity
 _atom_site_fract_x
 _atom_site_fract_y
 _atom_site_fract_z
 _atom_site_occupancy
  P  P0  1  0.12500000  0.00000000  0.25000000  1
  P  P1  1  0.00000000  0.00000000  0.00000000  1
  P  P2  1  0.37500000  0.00000000  0.25000000  1
  Lu  Lu3  1  0.25000000  0.25000000  0.25000000  1
  Li  Li4  1  0.00000000  0.25000000  0.12500000  1
  Li  Li5  1  0.05457020  0.51788713  0.41493298  1
  Li  Li6  1  0.33166331  0.99057955  0.70600784  1
  Ti  Ti7  1  0.13827754  0.16188122  0.71301177  1
  N  N8  1  0.32147036  0.71742749  0.51714898  1
  N  N9  1  0.55571758  0.55553985  0.04449862  1
  N  N10  1  0.97680865  0.50876867  0.61632705  1
  N  N11  1  0.78261968  0.85403884  0.85522897  1
  N  N12  1  0.12414321  0.63787879  0.47925703  1
