# generated using pymatgen
data_LiMn2P3O
_symmetry_space_group_name_H-M   'P 1'
_cell_length_a   5.01604378
_cell_length_b   4.95877290
_cell_length_c   5.52253680
_cell_angle_alpha   91.78003416
_cell_angle_beta   89.42840050
_cell_angle_gamma   90.83991341
_symmetry_Int_Tables_number   1
_chemical_formula_structural   LiMn2P3O
_chemical_formula_sum   'Li1 Mn2 P3 O1'
_cell_volume   137.27712078
_cell_formula_units_Z   1
loop_
 _symmetry_equiv_pos_site_id
 _symmetry_equiv_pos_as_xyz
  1  'x, y, z'
loop_
 _atom_site_type_symbol
 _atom_site_label
 _atom_site_symmetry_multiplicity
 _atom_site_fract_x
 _atom_site_fract_y
 _atom_site_fract_z
 _atom_site_occupancy
  O  O0  1  0.00000000  0.00000000  0.00000000  1
  Mn  Mn1  1  0.33300000  0.66700000  0.25000000  1
  Mn  Mn2  1  0.66700000  0.33300000  0.50000000  1
  P  P3  1  0.00000000  0.00000000  0.75000000  1
  P  P4  1  0.23734847  0.36697543  0.97064776  1
  P  P5  1  0.25956460  0.06162458  0.61119092  1
  Li  Li6  1  0.38580621  0.65265857  0.15250542  1
