# generated using pymatgen
data_Li3Ti2Cu2(P2S)2
_symmetry_space_group_name_H-M   'P 1'
_cell_length_a   6.43607541
_cell_length_b   6.08938537
_cell_length_c   7.48134536
_cell_angle_alpha   94.15603650
_cell_angle_beta   95.62284545
_cell_angle_gamma   94.10429901
_symmetry_Int_Tables_number   1
_chemical_formula_structural   Li3Ti2Cu2(P2S)2
_chemical_formula_sum   'Li3 Ti2 Cu2 P4 S2'
_cell_volume   290.11323450
_cell_formula_units_Z   1
loop_
 _symmetry_equiv_pos_site_id
 _symmetry_equiv_pos_as_xyz
  1  'x, y, z'
loop_
 _atom_site_type_symbol
 _atom_site_label
 _atom_site_symmetry_multiplicity
 _atom_site_fract_x
 _atom_site_fract_y
 _atom_site_fract_z
 _atom_site_occupancy
  P  P0  1  0.12500000  0.00000000  0.25000000  1
  P  P1  1  0.00000000  0.00000000  0.00000000  1
  P  P2  1  0.37500000  0.00000000  0.25000000  1
  P  P3  1  0.25000000  0.25000000  0.25000000  1
  Li  Li4  1  0.00000000  0.25000000  0.12500000  1
  Li  Li5  1  0.21893833  0.66217449  0.74620345  1
  Li  Li6  1  0.09291097  0.94081295  0.06692593  1
  Cu  Cu7  1  0.11270058  0.26969093  0.24730731  1
  Cu  Cu8  1  0.97513229  0.88549404  0.39991720  1
  S  S9  1  0.18420080  0.54531417  0.77988199  1
  S  S10  1  0.95841396  0.41796296  0.70944162  1
  Ti  Ti11  1  0.46645519  0.11542184  0.31868497  1
  Ti  Ti12  1  0.81285605  0.81980626  0.39752158  1
