# generated using pymatgen
data_LiMn2Sb4P2N
_symmetry_space_group_name_H-M   'P 1'
_cell_length_a   6.20329648
_cell_length_b   6.70099149
_cell_length_c   7.05527598
_cell_angle_alpha   93.86569266
_cell_angle_beta   92.92417003
_cell_angle_gamma   93.98647764
_symmetry_Int_Tables_number   1
_chemical_formula_structural   LiMn2Sb4P2N
_chemical_formula_sum   'Li1 Mn2 Sb4 P2 N1'
_cell_volume   291.44269789
_cell_formula_units_Z   1
loop_
 _symmetry_equiv_pos_site_id
 _symmetry_equiv_pos_as_xyz
  1  'x, y, z'
loop_
 _atom_site_type_symbol
 _atom_site_label
 _atom_site_symmetry_multiplicity
 _atom_site_fract_x
 _atom_site_fract_y
 _atom_site_fract_z
 _atom_site_occupancy
  N  N0  1  0.12500000  0.00000000  0.25000000  1
  Mn  Mn1  1  0.00000000  0.00000000  0.00000000  1
  Mn  Mn2  1  0.37500000  0.00000000  0.25000000  1
  Sb  Sb3  1  0.25000000  0.25000000  0.25000000  1
  Sb  Sb4  1  0.00000000  0.25000000  0.12500000  1
  Sb  Sb5  1  0.16974646  0.23351084  0.65112218  1
  Sb  Sb6  1  0.39093583  0.10632285  0.61056015  1
  P  P7  1  0.71037610  0.10670647  0.86047686  1
  P  P8  1  0.88390687  0.53013521  0.78103842  1
  Li  Li9  1  0.94085204  0.26705143  0.72321010  1
