# generated using pymatgen
data_Li2Mn2Sb4P3
_symmetry_space_group_name_H-M   'P 1'
_cell_length_a   6.92931355
_cell_length_b   7.35539759
_cell_length_c   7.50581534
_cell_angle_alpha   91.96251163
_cell_angle_beta   92.32477636
_cell_angle_gamma   92.23358055
_symmetry_Int_Tables_number   1
_chemical_formula_structural   Li2Mn2Sb4P3
_chemical_formula_sum   'Li2 Mn2 Sb4 P3'
_cell_volume   381.70406448
_cell_formula_units_Z   1
loop_
 _symmetry_equiv_pos_site_id
 _symmetry_equiv_pos_as_xyz
  1  'x, y, z'
loop_
 _atom_site_type_symbol
 _atom_site_label
 _atom_site_symmetry_multiplicity
 _atom_site_fract_x
 _atom_site_fract_y
 _atom_site_fract_z
 _atom_site_occupancy
  Mn  Mn0  1  0.00000000  0.00000000  0.00000000  1
  Mn  Mn1  1  0.33300000  0.66700000  0.25000000  1
  Sb  Sb2  1  0.66700000  0.33300000  0.50000000  1
  Sb  Sb3  1  0.00000000  0.00000000  0.75000000  1
  Sb  Sb4  1  0.64215557  0.12259253  0.80726576  1
  Sb  Sb5  1  0.20553488  0.32294250  0.40421147  1
  P  P6  1  0.36938825  0.00848316  0.38312721  1
  P  P7  1  0.31046629  0.46262804  0.50846389  1
  P  P8  1  0.75391344  0.28320107  0.27708192  1
  Li  Li9  1  0.18156835  0.23841262  0.66860672  1
  Li  Li10  1  0.80469913  0.11383009  0.54181346  1
