# generated using pymatgen
data_Li2MnSb4P2N
_symmetry_space_group_name_H-M   'P 1'
_cell_length_a   6.19110579
_cell_length_b   6.38581381
_cell_length_c   7.05621572
_cell_angle_alpha   96.18831707
_cell_angle_beta   92.30002838
_cell_angle_gamma   96.01241334
_symmetry_Int_Tables_number   1
_chemical_formula_structural   Li2MnSb4P2N
_chemical_formula_sum   'Li2 Mn1 Sb4 P2 N1'
_cell_volume   275.44476185
_cell_formula_units_Z   1
loop_
 _symmetry_equiv_pos_site_id
 _symmetry_equiv_pos_as_xyz
  1  'x, y, z'
loop_
 _atom_site_type_symbol
 _atom_site_label
 _atom_site_symmetry_multiplicity
 _atom_site_fract_x
 _atom_site_fract_y
 _atom_site_fract_z
 _atom_site_occupancy
  N  N0  1  0.00000000  0.00000000  0.00000000  1
  Mn  Mn1  1  0.50000000  0.50000000  0.50000000  1
  Sb  Sb2  1  0.25000000  0.25000000  0.25000000  1
  Sb  Sb3  1  0.75000000  0.25000000  0.00000000  1
  Sb  Sb4  1  0.25000000  0.75000000  0.50000000  1
  Sb  Sb5  1  0.91297321  0.83328117  0.37055856  1
  P  P6  1  0.59200775  0.81512849  0.86651155  1
  P  P7  1  0.60370026  0.70253266  0.57046392  1
  Li  Li8  1  0.39436200  0.99368482  0.21454844  1
  Li  Li9  1  0.61951432  0.46437524  0.85394873  1
