# generated using pymatgen
data_Li2P8S3F2
_symmetry_space_group_name_H-M   'P 1'
_cell_length_a   6.36615496
_cell_length_b   6.36036243
_cell_length_c   7.72475006
_cell_angle_alpha   92.44737611
_cell_angle_beta   96.97341786
_cell_angle_gamma   92.51075468
_symmetry_Int_Tables_number   1
_chemical_formula_structural   Li2P8S3F2
_chemical_formula_sum   'Li2 P8 S3 F2'
_cell_volume   309.80754840
_cell_formula_units_Z   1
loop_
 _symmetry_equiv_pos_site_id
 _symmetry_equiv_pos_as_xyz
  1  'x, y, z'
loop_
 _atom_site_type_symbol
 _atom_site_label
 _atom_site_symmetry_multiplicity
 _atom_site_fract_x
 _atom_site_fract_y
 _atom_site_fract_z
 _atom_site_occupancy
  P  P0  1  0.12500000  0.12500000  0.12500000  1
  P  P1  1  0.50000000  0.50000000  0.50000000  1
  P  P2  1  0.25000000  0.25000000  0.25000000  1
  P  P3  1  0.75000000  0.75000000  0.75000000  1
  P  P4  1  0.19565948  0.28473421  0.86406369  1
  P  P5  1  0.73056807  0.42982169  0.50063900  1
  P  P6  1  0.62401482  0.05343811  0.20479198  1
  P  P7  1  0.69405471  0.32767139  0.82561882  1
  Li  Li8  1  0.97024106  0.11125184  0.61415473  1
  Li  Li9  1  0.53521144  0.63511063  0.92689866  1
  F  F10  1  0.39639566  0.06771204  0.45266845  1
  F  F11  1  0.91445211  0.27290770  0.32357953  1
  S  S12  1  0.54697026  0.09570846  0.68807481  1
  S  S13  1  0.19680669  0.20235735  0.43191561  1
  S  S14  1  0.66237205  0.14528814  0.60349358  1
