# generated using pymatgen
data_Li2Ti(As3I2)2
_symmetry_space_group_name_H-M   'P 1'
_cell_length_a   8.27747813
_cell_length_b   8.26058487
_cell_length_c   8.14140567
_cell_angle_alpha   90.16544681
_cell_angle_beta   90.78714568
_cell_angle_gamma   90.18914988
_symmetry_Int_Tables_number   1
_chemical_formula_structural   Li2Ti(As3I2)2
_chemical_formula_sum   'Li2 Ti1 As6 I4'
_cell_volume   556.62539193
_cell_formula_units_Z   1
loop_
 _symmetry_equiv_pos_site_id
 _symmetry_equiv_pos_as_xyz
  1  'x, y, z'
loop_
 _atom_site_type_symbol
 _atom_site_label
 _atom_site_symmetry_multiplicity
 _atom_site_fract_x
 _atom_site_fract_y
 _atom_site_fract_z
 _atom_site_occupancy
  I  I0  1  0.12500000  0.00000000  0.25000000  1
  I  I1  1  0.00000000  0.00000000  0.00000000  1
  I  I2  1  0.37500000  0.00000000  0.25000000  1
  I  I3  1  0.25000000  0.25000000  0.25000000  1
  Li  Li4  1  0.00000000  0.25000000  0.12500000  1
  Li  Li5  1  0.34288288  0.15830374  0.52075249  1
  Ti  Ti6  1  0.24419586  0.04128794  0.56208787  1
  As  As7  1  0.68841459  0.84752583  0.04696666  1
  As  As8  1  0.60975272  0.64149528  0.59601473  1
  As  As9  1  0.19335325  0.10310900  0.92735227  1
  As  As10  1  0.10838518  0.64833639  0.18674437  1
  As  As11  1  0.77515760  0.93414601  0.88427880  1
  As  As12  1  0.71187765  0.32720055  0.77839052  1
