# generated using pymatgen
data_Li3LuNi2P4N5
_symmetry_space_group_name_H-M   'P 1'
_cell_length_a   7.43732158
_cell_length_b   7.12617549
_cell_length_c   8.81568747
_cell_angle_alpha   93.13492752
_cell_angle_beta   91.36447535
_cell_angle_gamma   93.63517027
_symmetry_Int_Tables_number   1
_chemical_formula_structural   Li3LuNi2P4N5
_chemical_formula_sum   'Li3 Lu1 Ni2 P4 N5'
_cell_volume   465.41607519
_cell_formula_units_Z   1
loop_
 _symmetry_equiv_pos_site_id
 _symmetry_equiv_pos_as_xyz
  1  'x, y, z'
loop_
 _atom_site_type_symbol
 _atom_site_label
 _atom_site_symmetry_multiplicity
 _atom_site_fract_x
 _atom_site_fract_y
 _atom_site_fract_z
 _atom_site_occupancy
  P  P0  1  0.12500000  0.00000000  0.25000000  1
  P  P1  1  0.00000000  0.00000000  0.00000000  1
  P  P2  1  0.37500000  0.00000000  0.25000000  1
  P  P3  1  0.25000000  0.25000000  0.25000000  1
  Lu  Lu4  1  0.00000000  0.25000000  0.12500000  1
  Li  Li5  1  0.01990128  0.96931793  0.87013103  1
  Li  Li6  1  0.06675850  0.90135576  0.54743954  1
  Li  Li7  1  0.47507875  0.12614828  0.50025853  1
  Ni  Ni8  1  0.87026024  0.24108332  0.51004440  1
  Ni  Ni9  1  0.78658622  0.00987528  0.73444810  1
  N  N10  1  0.66056336  0.86823086  0.91481812  1
  N  N11  1  0.46481213  0.04645650  0.39503607  1
  N  N12  1  0.18046723  0.12008112  0.06891056  1
  N  N13  1  0.14513522  0.37108623  0.07683127  1
  N  N14  1  0.97298866  0.16647204  0.33253555  1
