# generated using pymatgen
data_Li2Lu(As3P2)2
_symmetry_space_group_name_H-M   'P 1'
_cell_length_a   7.39752771
_cell_length_b   7.18462978
_cell_length_c   7.96355530
_cell_angle_alpha   91.79888605
_cell_angle_beta   91.79992856
_cell_angle_gamma   91.94280651
_symmetry_Int_Tables_number   1
_chemical_formula_structural   Li2Lu(As3P2)2
_chemical_formula_sum   'Li2 Lu1 As6 P4'
_cell_volume   422.57576643
_cell_formula_units_Z   1
loop_
 _symmetry_equiv_pos_site_id
 _symmetry_equiv_pos_as_xyz
  1  'x, y, z'
loop_
 _atom_site_type_symbol
 _atom_site_label
 _atom_site_symmetry_multiplicity
 _atom_site_fract_x
 _atom_site_fract_y
 _atom_site_fract_z
 _atom_site_occupancy
  P  P0  1  0.00000000  0.00000000  0.00000000  1
  P  P1  1  0.33300000  0.66700000  0.25000000  1
  P  P2  1  0.66700000  0.33300000  0.50000000  1
  P  P3  1  0.00000000  0.00000000  0.75000000  1
  Lu  Lu4  1  0.07714953  0.84826395  0.71155586  1
  Li  Li5  1  0.32318824  0.76188341  0.96883155  1
  Li  Li6  1  0.62099616  0.62678264  0.72652990  1
  As  As7  1  0.61469060  0.68717984  0.92602692  1
  As  As8  1  0.56193681  0.83321629  0.62235274  1
  As  As9  1  0.85546177  0.55055032  0.14930634  1
  As  As10  1  0.60804529  0.22000648  0.60304734  1
  As  As11  1  0.15855676  0.68049553  0.56480719  1
  As  As12  1  0.04658823  0.74631892  0.79584507  1
