# generated using pymatgen
data_LiMn2Sb4P3
_symmetry_space_group_name_H-M   'P 1'
_cell_length_a   5.98047004
_cell_length_b   6.43896524
_cell_length_c   6.99700948
_cell_angle_alpha   92.85067517
_cell_angle_beta   93.62333928
_cell_angle_gamma   93.40901729
_symmetry_Int_Tables_number   1
_chemical_formula_structural   LiMn2Sb4P3
_chemical_formula_sum   'Li1 Mn2 Sb4 P3'
_cell_volume   268.03947818
_cell_formula_units_Z   1
loop_
 _symmetry_equiv_pos_site_id
 _symmetry_equiv_pos_as_xyz
  1  'x, y, z'
loop_
 _atom_site_type_symbol
 _atom_site_label
 _atom_site_symmetry_multiplicity
 _atom_site_fract_x
 _atom_site_fract_y
 _atom_site_fract_z
 _atom_site_occupancy
  Mn  Mn0  1  0.00000000  0.00000000  0.00000000  1
  Mn  Mn1  1  0.50000000  0.50000000  0.50000000  1
  Sb  Sb2  1  0.50000000  0.50000000  0.00000000  1
  Sb  Sb3  1  0.50000000  0.00000000  0.50000000  1
  Sb  Sb4  1  0.00000000  0.50000000  0.50000000  1
  Sb  Sb5  1  0.78349832  0.40030429  0.21546297  1
  P  P6  1  0.75383907  0.74343947  0.74060503  1
  P  P7  1  0.66437965  0.54218520  0.10838250  1
  P  P8  1  0.95933900  0.66989218  0.10623274  1
  Li  Li9  1  0.49778981  0.08823768  0.52638643  1
