# generated using pymatgen
data_LiMn3Sb4P3
_symmetry_space_group_name_H-M   'P 1'
_cell_length_a   5.05250033
_cell_length_b   5.30107548
_cell_length_c   6.20678083
_cell_angle_alpha   93.81260600
_cell_angle_beta   92.90634157
_cell_angle_gamma   94.47432210
_symmetry_Int_Tables_number   1
_chemical_formula_structural   LiMn3Sb4P3
_chemical_formula_sum   'Li1 Mn3 Sb4 P3'
_cell_volume   165.10581252
_cell_formula_units_Z   1
loop_
 _symmetry_equiv_pos_site_id
 _symmetry_equiv_pos_as_xyz
  1  'x, y, z'
loop_
 _atom_site_type_symbol
 _atom_site_label
 _atom_site_symmetry_multiplicity
 _atom_site_fract_x
 _atom_site_fract_y
 _atom_site_fract_z
 _atom_site_occupancy
  Mn  Mn0  1  0.00000000  0.00000000  0.00000000  1
  Mn  Mn1  1  0.50000000  0.50000000  0.50000000  1
  Mn  Mn2  1  0.50000000  0.50000000  0.00000000  1
  Sb  Sb3  1  0.50000000  0.00000000  0.50000000  1
  Sb  Sb4  1  0.00000000  0.50000000  0.50000000  1
  Sb  Sb5  1  0.95594471  0.56369965  0.93771167  1
  Sb  Sb6  1  0.46404907  0.10326624  0.90880713  1
  P  P7  1  0.92576031  0.18891490  0.83308288  1
  P  P8  1  0.72254365  0.89136843  0.64105360  1
  P  P9  1  0.20118517  0.02158420  0.90246511  1
  Li  Li10  1  0.79716797  0.08510776  0.11719065  1
