# generated using pymatgen
data_Li2Mn2Sb4P3
_symmetry_space_group_name_H-M   'P 1'
_cell_length_a   6.49004378
_cell_length_b   7.05415044
_cell_length_c   7.35955591
_cell_angle_alpha   92.85901313
_cell_angle_beta   93.38676522
_cell_angle_gamma   93.25390994
_symmetry_Int_Tables_number   1
_chemical_formula_structural   Li2Mn2Sb4P3
_chemical_formula_sum   'Li2 Mn2 Sb4 P3'
_cell_volume   335.32328564
_cell_formula_units_Z   1
loop_
 _symmetry_equiv_pos_site_id
 _symmetry_equiv_pos_as_xyz
  1  'x, y, z'
loop_
 _atom_site_type_symbol
 _atom_site_label
 _atom_site_symmetry_multiplicity
 _atom_site_fract_x
 _atom_site_fract_y
 _atom_site_fract_z
 _atom_site_occupancy
  Mn  Mn0  1  0.12500000  0.12500000  0.12500000  1
  Mn  Mn1  1  0.50000000  0.50000000  0.50000000  1
  Sb  Sb2  1  0.25000000  0.25000000  0.25000000  1
  Sb  Sb3  1  0.75000000  0.75000000  0.75000000  1
  Sb  Sb4  1  0.10512475  0.03953212  0.40585059  1
  Sb  Sb5  1  0.47339454  0.18085729  0.85708953  1
  P  P6  1  0.29999922  0.89979612  0.73771541  1
  P  P7  1  0.36383604  0.83254089  0.27023906  1
  P  P8  1  0.42758483  0.74133280  0.57214657  1
  Li  Li9  1  0.59451102  0.77146594  0.15090424  1
  Li  Li10  1  0.38147175  0.11411115  0.85720959  1
