# generated using pymatgen
data_Li2MnSb4P3N5
_symmetry_space_group_name_H-M   'P 1'
_cell_length_a   5.52562811
_cell_length_b   5.89858829
_cell_length_c   7.52116110
_cell_angle_alpha   95.85456005
_cell_angle_beta   96.93526733
_cell_angle_gamma   96.66321219
_symmetry_Int_Tables_number   1
_chemical_formula_structural   Li2MnSb4P3N5
_chemical_formula_sum   'Li2 Mn1 Sb4 P3 N5'
_cell_volume   240.02388572
_cell_formula_units_Z   1
loop_
 _symmetry_equiv_pos_site_id
 _symmetry_equiv_pos_as_xyz
  1  'x, y, z'
loop_
 _atom_site_type_symbol
 _atom_site_label
 _atom_site_symmetry_multiplicity
 _atom_site_fract_x
 _atom_site_fract_y
 _atom_site_fract_z
 _atom_site_occupancy
  Mn  Mn0  1  0.12500000  0.00000000  0.25000000  1
  Sb  Sb1  1  0.00000000  0.00000000  0.00000000  1
  Sb  Sb2  1  0.37500000  0.00000000  0.25000000  1
  Sb  Sb3  1  0.25000000  0.25000000  0.25000000  1
  Sb  Sb4  1  0.00000000  0.25000000  0.12500000  1
  P  P5  1  0.58243189  0.08016754  0.66160932  1
  P  P6  1  0.45184454  0.53368464  0.32169823  1
  P  P7  1  0.54794534  0.89474000  0.40207308  1
  Li  Li8  1  0.99950168  0.65145846  0.24871512  1
  Li  Li9  1  0.17221509  0.59774311  0.67399706  1
  N  N10  1  0.97984560  0.43919628  0.51401613  1
  N  N11  1  0.05824395  0.90419048  0.91856525  1
  N  N12  1  0.22040881  0.47765466  0.61078812  1
  N  N13  1  0.71115313  0.82020586  0.87659748  1
  N  N14  1  0.22566536  0.82244486  0.89547371  1
