# generated using pymatgen
data_Li3Ni2Te6I4O5
_symmetry_space_group_name_H-M   'P 1'
_cell_length_a   6.45833780
_cell_length_b   6.28599865
_cell_length_c   7.62366830
_cell_angle_alpha   99.48561853
_cell_angle_beta   102.11095623
_cell_angle_gamma   98.92327201
_symmetry_Int_Tables_number   1
_chemical_formula_structural   Li3Ni2Te6I4O5
_chemical_formula_sum   'Li3 Ni2 Te6 I4 O5'
_cell_volume   292.64203171
_cell_formula_units_Z   1
loop_
 _symmetry_equiv_pos_site_id
 _symmetry_equiv_pos_as_xyz
  1  'x, y, z'
loop_
 _atom_site_type_symbol
 _atom_site_label
 _atom_site_symmetry_multiplicity
 _atom_site_fract_x
 _atom_site_fract_y
 _atom_site_fract_z
 _atom_site_occupancy
  I  I0  1  0.00000000  0.00000000  0.00000000  1
  I  I1  1  0.50000000  0.50000000  0.50000000  1
  I  I2  1  0.25000000  0.25000000  0.25000000  1
  I  I3  1  0.75000000  0.25000000  0.00000000  1
  Li  Li4  1  0.25000000  0.75000000  0.50000000  1
  Li  Li5  1  0.25020531  0.15376238  0.61387231  1
  Li  Li6  1  0.51252814  0.04564077  0.97814191  1
  Ni  Ni7  1  0.80338267  0.25448274  0.24215438  1
  Ni  Ni8  1  0.07236866  0.70409961  0.90542889  1
  Te  Te9  1  0.12803168  0.72413289  0.78280113  1
  Te  Te10  1  0.95272167  0.16663887  0.79688696  1
  Te  Te11  1  0.82229503  0.49801352  0.53227423  1
  Te  Te12  1  0.15413229  0.31082683  0.66843935  1
  Te  Te13  1  0.03785928  0.59967530  0.00101503  1
  Te  Te14  1  0.13432557  0.43275434  0.65682129  1
  O  O15  1  0.38180905  0.82856082  0.05676194  1
  O  O16  1  0.44427363  0.35674590  0.81134404  1
  O  O17  1  0.27602398  0.38714471  0.46674880  1
  O  O18  1  0.30295219  0.50258753  0.48980099  1
  O  O19  1  0.90753570  0.17315811  0.41711924  1
