# generated using pymatgen
data_Li3Ti(IO)4
_symmetry_space_group_name_H-M   'P 1'
_cell_length_a   8.85881412
_cell_length_b   8.73879500
_cell_length_c   7.28525225
_cell_angle_alpha   90.00000000
_cell_angle_beta   90.00000000
_cell_angle_gamma   90.00000000
_symmetry_Int_Tables_number   1
_chemical_formula_structural   Li3Ti(IO)4
_chemical_formula_sum   'Li3 Ti1 I4 O4'
_cell_volume   563.99042924
_cell_formula_units_Z   1
loop_
 _symmetry_equiv_pos_site_id
 _symmetry_equiv_pos_as_xyz
  1  'x, y, z'
loop_
 _atom_site_type_symbol
 _atom_site_label
 _atom_site_symmetry_multiplicity
 _atom_site_fract_x
 _atom_site_fract_y
 _atom_site_fract_z
 _atom_site_occupancy
  I  I0  1  0.00000000  0.00000000  0.00000000  1
  I  I1  1  0.50000000  0.50000000  0.50000000  1
  I  I2  1  0.25000000  0.25000000  0.25000000  1
  I  I3  1  0.75000000  0.25000000  0.00000000  1
  Li  Li4  1  0.25000000  0.75000000  0.50000000  1
  Li  Li5  1  0.94680327  0.47405149  0.35182402  1
  Li  Li6  1  0.61071601  0.78242247  0.64549718  1
  Ti  Ti7  1  0.10743006  0.57990956  0.31997137  1
  O  O8  1  0.85871450  0.24828299  0.52974774  1
  O  O9  1  0.10202511  0.52879805  0.55416740  1
  O  O10  1  0.76091678  0.62546615  0.01925423  1
  O  O11  1  0.19473154  0.53000373  0.66952492  1
