# generated using pymatgen
data_Li2Ti2Ni2(As2S)3
_symmetry_space_group_name_H-M   'P 1'
_cell_length_a   6.90212245
_cell_length_b   6.77685430
_cell_length_c   7.99759733
_cell_angle_alpha   91.67621202
_cell_angle_beta   93.84358014
_cell_angle_gamma   91.93194078
_symmetry_Int_Tables_number   1
_chemical_formula_structural   Li2Ti2Ni2(As2S)3
_chemical_formula_sum   'Li2 Ti2 Ni2 As6 S3'
_cell_volume   372.84518400
_cell_formula_units_Z   1
loop_
 _symmetry_equiv_pos_site_id
 _symmetry_equiv_pos_as_xyz
  1  'x, y, z'
loop_
 _atom_site_type_symbol
 _atom_site_label
 _atom_site_symmetry_multiplicity
 _atom_site_fract_x
 _atom_site_fract_y
 _atom_site_fract_z
 _atom_site_occupancy
  Li  Li0  1  0.00000000  0.00000000  0.00000000  1
  Li  Li1  1  0.50000000  0.50000000  0.50000000  1
  Ni  Ni2  1  0.50000000  0.50000000  0.00000000  1
  Ni  Ni3  1  0.50000000  0.00000000  0.50000000  1
  S  S4  1  0.00000000  0.50000000  0.50000000  1
  S  S5  1  0.38319028  0.84450966  0.80995959  1
  S  S6  1  0.04445524  0.85268372  0.65567120  1
  Ti  Ti7  1  0.62382070  0.40994565  0.69005300  1
  Ti  Ti8  1  0.76062744  0.01858315  0.34074747  1
  As  As9  1  0.36228204  0.61150441  0.21526259  1
  As  As10  1  0.05708801  0.98186199  0.71470446  1
  As  As11  1  0.75305994  0.00570157  0.05202396  1
  As  As12  1  0.32003263  0.50963400  0.48891365  1
  As  As13  1  0.52314644  0.65871987  0.88317660  1
  As  As14  1  0.78703817  0.04956971  0.04828389  1
