# generated using pymatgen
data_Li2Mn3Sb4P3
_symmetry_space_group_name_H-M   'P 1'
_cell_length_a   4.30138795
_cell_length_b   4.46760044
_cell_length_c   5.85520008
_cell_angle_alpha   105.44198022
_cell_angle_beta   90.77143135
_cell_angle_gamma   105.13483917
_symmetry_Int_Tables_number   1
_chemical_formula_structural   Li2Mn3Sb4P3
_chemical_formula_sum   'Li2 Mn3 Sb4 P3'
_cell_volume   104.27771597
_cell_formula_units_Z   1
loop_
 _symmetry_equiv_pos_site_id
 _symmetry_equiv_pos_as_xyz
  1  'x, y, z'
loop_
 _atom_site_type_symbol
 _atom_site_label
 _atom_site_symmetry_multiplicity
 _atom_site_fract_x
 _atom_site_fract_y
 _atom_site_fract_z
 _atom_site_occupancy
  Mn  Mn0  1  0.00000000  0.00000000  0.00000000  1
  Mn  Mn1  1  0.50000000  0.50000000  0.50000000  1
  Mn  Mn2  1  0.50000000  0.50000000  0.00000000  1
  Sb  Sb3  1  0.50000000  0.00000000  0.50000000  1
  Sb  Sb4  1  0.00000000  0.50000000  0.50000000  1
  Sb  Sb5  1  0.60822892  0.09832890  0.87201750  1
  Sb  Sb6  1  0.52745218  0.49636157  0.23244507  1
  P  P7  1  0.76145681  0.72297857  0.38049832  1
  P  P8  1  0.49058170  0.83080387  0.37402356  1
  P  P9  1  0.56918300  0.82112445  0.47984877  1
  Li  Li10  1  0.76121909  0.80888810  0.45532583  1
  Li  Li11  1  0.34420526  0.96075605  0.05044184  1
