# generated using pymatgen
data_Li3Ni2As6O7F3
_symmetry_space_group_name_H-M   'P 1'
_cell_length_a   7.87309306
_cell_length_b   7.74729836
_cell_length_c   9.11838121
_cell_angle_alpha   90.91199236
_cell_angle_beta   91.04233278
_cell_angle_gamma   91.05232368
_symmetry_Int_Tables_number   1
_chemical_formula_structural   Li3Ni2As6O7F3
_chemical_formula_sum   'Li3 Ni2 As6 O7 F3'
_cell_volume   555.91820430
_cell_formula_units_Z   1
loop_
 _symmetry_equiv_pos_site_id
 _symmetry_equiv_pos_as_xyz
  1  'x, y, z'
loop_
 _atom_site_type_symbol
 _atom_site_label
 _atom_site_symmetry_multiplicity
 _atom_site_fract_x
 _atom_site_fract_y
 _atom_site_fract_z
 _atom_site_occupancy
  Li  Li0  1  0.00000000  0.00000000  0.00000000  1
  Li  Li1  1  0.50000000  0.50000000  0.50000000  1
  Li  Li2  1  0.25000000  0.25000000  0.25000000  1
  F  F3  1  0.75000000  0.25000000  0.00000000  1
  F  F4  1  0.25000000  0.75000000  0.50000000  1
  F  F5  1  0.81809363  0.09513364  0.95539669  1
  Ni  Ni6  1  0.57862721  0.12106973  0.30501642  1
  Ni  Ni7  1  0.87970233  0.30273604  0.27796343  1
  As  As8  1  0.93323758  0.49811505  0.83137288  1
  As  As9  1  0.02687153  0.26845593  0.17614935  1
  As  As10  1  0.26243424  0.25972694  0.68172667  1
  As  As11  1  0.67512051  0.59260331  0.71763238  1
  As  As12  1  0.45046207  0.86228209  0.65879959  1
  As  As13  1  0.60589739  0.07636512  0.98092030  1
  O  O14  1  0.51876054  0.82607765  0.70408027  1
  O  O15  1  0.85799187  0.02212889  0.64245297  1
  O  O16  1  0.48888734  0.89026344  0.91732049  1
  O  O17  1  0.76884607  0.42440493  0.21686138  1
  O  O18  1  0.19364445  0.98407184  0.71623226  1
  O  O19  1  0.02128017  0.97187116  0.79278995  1
  O  O20  1  0.53429597  0.42468915  0.65265190  1
