# generated using pymatgen
data_Li2Mn2Sb4Mo2P3
_symmetry_space_group_name_H-M   'P 1'
_cell_length_a   4.63598131
_cell_length_b   4.90605238
_cell_length_c   6.39085909
_cell_angle_alpha   101.66616402
_cell_angle_beta   93.72988954
_cell_angle_gamma   101.87239854
_symmetry_Int_Tables_number   1
_chemical_formula_structural   Li2Mn2Sb4Mo2P3
_chemical_formula_sum   'Li2 Mn2 Sb4 Mo2 P3'
_cell_volume   138.44284996
_cell_formula_units_Z   1
loop_
 _symmetry_equiv_pos_site_id
 _symmetry_equiv_pos_as_xyz
  1  'x, y, z'
loop_
 _atom_site_type_symbol
 _atom_site_label
 _atom_site_symmetry_multiplicity
 _atom_site_fract_x
 _atom_site_fract_y
 _atom_site_fract_z
 _atom_site_occupancy
  Mn  Mn0  1  0.12500000  0.00000000  0.25000000  1
  Mn  Mn1  1  0.00000000  0.00000000  0.00000000  1
  Sb  Sb2  1  0.37500000  0.00000000  0.25000000  1
  Sb  Sb3  1  0.25000000  0.25000000  0.25000000  1
  Sb  Sb4  1  0.00000000  0.25000000  0.12500000  1
  Sb  Sb5  1  0.56554444  0.13985584  0.19330497  1
  P  P6  1  0.08210524  0.10891119  0.51330700  1
  P  P7  1  0.32469541  0.19358242  0.75544942  1
  P  P8  1  0.74381095  0.28738330  0.37343334  1
  Mo  Mo9  1  0.83485678  0.85937890  0.14197792  1
  Mo  Mo10  1  0.66659842  0.01921190  0.83064049  1
  Li  Li11  1  0.49683014  0.46233322  0.40695620  1
  Li  Li12  1  0.41357270  0.85930769  0.39614599  1
