# generated using pymatgen
data_LiCuNiAs3P2
_symmetry_space_group_name_H-M   'P 1'
_cell_length_a   7.46152286
_cell_length_b   7.49712133
_cell_length_c   8.55280349
_cell_angle_alpha   91.31645060
_cell_angle_beta   92.00592388
_cell_angle_gamma   91.52111274
_symmetry_Int_Tables_number   1
_chemical_formula_structural   LiCuNiAs3P2
_chemical_formula_sum   'Li2 Cu2 Ni2 As6 P4'
_cell_volume   477.84481654
_cell_formula_units_Z   2
loop_
 _symmetry_equiv_pos_site_id
 _symmetry_equiv_pos_as_xyz
  1  'x, y, z'
loop_
 _atom_site_type_symbol
 _atom_site_label
 _atom_site_symmetry_multiplicity
 _atom_site_fract_x
 _atom_site_fract_y
 _atom_site_fract_z
 _atom_site_occupancy
  Ni  Ni0  1  0.00000000  0.00000000  0.00000000  1
  Ni  Ni1  1  0.50000000  0.50000000  0.50000000  1
  P  P2  1  0.25000000  0.25000000  0.25000000  1
  P  P3  1  0.75000000  0.25000000  0.00000000  1
  P  P4  1  0.25000000  0.75000000  0.50000000  1
  P  P5  1  0.56012915  0.60687189  0.66104768  1
  As  As6  1  0.80624573  0.05006179  0.82967283  1
  As  As7  1  0.99544450  0.92251252  0.29161256  1
  As  As8  1  0.90139947  0.95372302  0.91381949  1
  As  As9  1  0.06400400  0.55733482  0.73046064  1
  As  As10  1  0.50320124  0.05317532  0.59726609  1
  As  As11  1  0.43196432  0.32401320  0.96578897  1
  Li  Li12  1  0.91352810  0.14996162  0.40444345  1
  Li  Li13  1  0.93744455  0.14434604  0.36064653  1
  Cu  Cu14  1  0.76652504  0.22348644  0.75666118  1
  Cu  Cu15  1  0.66429217  0.51041988  0.40222860  1
