# generated using pymatgen
data_Li2MnSb4P3
_symmetry_space_group_name_H-M   'P 1'
_cell_length_a   5.36368250
_cell_length_b   5.72469466
_cell_length_c   7.47121133
_cell_angle_alpha   96.24951063
_cell_angle_beta   97.40312279
_cell_angle_gamma   97.11271472
_symmetry_Int_Tables_number   1
_chemical_formula_structural   Li2MnSb4P3
_chemical_formula_sum   'Li2 Mn1 Sb4 P3'
_cell_volume   223.92064113
_cell_formula_units_Z   1
loop_
 _symmetry_equiv_pos_site_id
 _symmetry_equiv_pos_as_xyz
  1  'x, y, z'
loop_
 _atom_site_type_symbol
 _atom_site_label
 _atom_site_symmetry_multiplicity
 _atom_site_fract_x
 _atom_site_fract_y
 _atom_site_fract_z
 _atom_site_occupancy
  Mn  Mn0  1  0.00000000  0.00000000  0.00000000  1
  Sb  Sb1  1  0.50000000  0.50000000  0.50000000  1
  Sb  Sb2  1  0.25000000  0.25000000  0.25000000  1
  Sb  Sb3  1  0.75000000  0.25000000  0.00000000  1
  Sb  Sb4  1  0.25000000  0.75000000  0.50000000  1
  P  P5  1  0.75487748  0.25125444  0.20867045  1
  P  P6  1  0.46450426  0.97337390  0.44597112  1
  P  P7  1  0.90425079  0.11468853  0.19454612  1
  Li  Li8  1  0.38007767  0.58840726  0.32416331  1
  Li  Li9  1  0.79280189  0.20357621  0.18998704  1
