# generated using pymatgen
data_Li2Ti(As3P2)2
_symmetry_space_group_name_H-M   'P 1'
_cell_length_a   7.43367207
_cell_length_b   7.25830152
_cell_length_c   8.38643701
_cell_angle_alpha   91.58529992
_cell_angle_beta   91.75374047
_cell_angle_gamma   91.57803069
_symmetry_Int_Tables_number   1
_chemical_formula_structural   Li2Ti(As3P2)2
_chemical_formula_sum   'Li2 Ti1 As6 P4'
_cell_volume   451.92964921
_cell_formula_units_Z   1
loop_
 _symmetry_equiv_pos_site_id
 _symmetry_equiv_pos_as_xyz
  1  'x, y, z'
loop_
 _atom_site_type_symbol
 _atom_site_label
 _atom_site_symmetry_multiplicity
 _atom_site_fract_x
 _atom_site_fract_y
 _atom_site_fract_z
 _atom_site_occupancy
  P  P0  1  0.00000000  0.00000000  0.00000000  1
  P  P1  1  0.50000000  0.50000000  0.50000000  1
  P  P2  1  0.50000000  0.50000000  0.00000000  1
  P  P3  1  0.50000000  0.00000000  0.50000000  1
  Li  Li4  1  0.00000000  0.50000000  0.50000000  1
  Li  Li5  1  0.93272644  0.82909641  0.23848016  1
  Ti  Ti6  1  0.91337602  0.63685890  0.48855343  1
  As  As7  1  0.54354340  0.56101146  0.03599951  1
  As  As8  1  0.35386549  0.51878986  0.52080780  1
  As  As9  1  0.27494864  0.23185526  0.17546446  1
  As  As10  1  0.79969478  0.00532033  0.92168903  1
  As  As11  1  0.64599659  0.67315700  0.07246698  1
  As  As12  1  0.47253058  0.22110982  0.80668996  1
