# generated using pymatgen
data_Li2MnSb4P3
_symmetry_space_group_name_H-M   'P 1'
_cell_length_a   5.07075379
_cell_length_b   5.43180882
_cell_length_c   6.77453800
_cell_angle_alpha   98.65250671
_cell_angle_beta   94.95957202
_cell_angle_gamma   99.11089942
_symmetry_Int_Tables_number   1
_chemical_formula_structural   Li2MnSb4P3
_chemical_formula_sum   'Li2 Mn1 Sb4 P3'
_cell_volume   180.97662125
_cell_formula_units_Z   1
loop_
 _symmetry_equiv_pos_site_id
 _symmetry_equiv_pos_as_xyz
  1  'x, y, z'
loop_
 _atom_site_type_symbol
 _atom_site_label
 _atom_site_symmetry_multiplicity
 _atom_site_fract_x
 _atom_site_fract_y
 _atom_site_fract_z
 _atom_site_occupancy
  Mn  Mn0  1  0.12500000  0.00000000  0.25000000  1
  Sb  Sb1  1  0.00000000  0.00000000  0.00000000  1
  Sb  Sb2  1  0.37500000  0.00000000  0.25000000  1
  Sb  Sb3  1  0.25000000  0.25000000  0.25000000  1
  Sb  Sb4  1  0.00000000  0.25000000  0.12500000  1
  P  P5  1  0.08526499  0.30282603  0.44723754  1
  P  P6  1  0.59850865  0.70654780  0.96762038  1
  P  P7  1  0.25302356  0.65840599  0.65331240  1
  Li  Li8  1  0.56780786  0.39585536  0.57749044  1
  Li  Li9  1  0.55987994  0.54872151  0.85820092  1
