# generated using pymatgen
data_Li2Mn2Sb4P3
_symmetry_space_group_name_H-M   'P 1'
_cell_length_a   6.87191210
_cell_length_b   7.47776441
_cell_length_c   7.42541402
_cell_angle_alpha   91.85492874
_cell_angle_beta   92.19733448
_cell_angle_gamma   92.11113793
_symmetry_Int_Tables_number   1
_chemical_formula_structural   Li2Mn2Sb4P3
_chemical_formula_sum   'Li2 Mn2 Sb4 P3'
_cell_volume   380.80888127
_cell_formula_units_Z   1
loop_
 _symmetry_equiv_pos_site_id
 _symmetry_equiv_pos_as_xyz
  1  'x, y, z'
loop_
 _atom_site_type_symbol
 _atom_site_label
 _atom_site_symmetry_multiplicity
 _atom_site_fract_x
 _atom_site_fract_y
 _atom_site_fract_z
 _atom_site_occupancy
  Mn  Mn0  1  0.12500000  0.12500000  0.12500000  1
  Mn  Mn1  1  0.50000000  0.50000000  0.50000000  1
  Sb  Sb2  1  0.25000000  0.25000000  0.25000000  1
  Sb  Sb3  1  0.75000000  0.75000000  0.75000000  1
  Sb  Sb4  1  0.13562063  0.20797809  0.61747610  1
  Sb  Sb5  1  0.04743701  0.97601318  0.52483237  1
  P  P6  1  0.15232721  0.71176587  0.35988140  1
  P  P7  1  0.62450474  0.68738263  0.05010361  1
  P  P8  1  0.25538303  0.12036192  0.96547854  1
  Li  Li9  1  0.31600089  0.22483195  0.47011104  1
  Li  Li10  1  0.37138020  0.23423156  0.79437328  1
