# generated using pymatgen
data_Li3TiNi2(IO)4
_symmetry_space_group_name_H-M   'P 1'
_cell_length_a   8.80674605
_cell_length_b   8.68453156
_cell_length_c   7.51106677
_cell_angle_alpha   90.00000000
_cell_angle_beta   90.00000000
_cell_angle_gamma   90.00000000
_symmetry_Int_Tables_number   1
_chemical_formula_structural   Li3TiNi2(IO)4
_chemical_formula_sum   'Li3 Ti1 Ni2 I4 O4'
_cell_volume   574.46489372
_cell_formula_units_Z   1
loop_
 _symmetry_equiv_pos_site_id
 _symmetry_equiv_pos_as_xyz
  1  'x, y, z'
loop_
 _atom_site_type_symbol
 _atom_site_label
 _atom_site_symmetry_multiplicity
 _atom_site_fract_x
 _atom_site_fract_y
 _atom_site_fract_z
 _atom_site_occupancy
  I  I0  1  0.12500000  0.00000000  0.25000000  1
  I  I1  1  0.00000000  0.00000000  0.00000000  1
  I  I2  1  0.37500000  0.00000000  0.25000000  1
  I  I3  1  0.25000000  0.25000000  0.25000000  1
  Li  Li4  1  0.00000000  0.25000000  0.12500000  1
  Li  Li5  1  0.50712635  0.80515191  0.16422448  1
  Li  Li6  1  0.53827677  0.36796618  0.56744909  1
  Ni  Ni7  1  0.28364154  0.67280765  0.39260998  1
  Ni  Ni8  1  0.02430523  0.27725560  0.60605634  1
  Ti  Ti9  1  0.05222682  0.88069422  0.08357540  1
  O  O10  1  0.95015779  0.14786570  0.81780517  1
  O  O11  1  0.11064727  0.31460164  0.50495448  1
  O  O12  1  0.71940806  0.91994522  0.93239877  1
  O  O13  1  0.47429100  0.75542813  0.49287171  1
