# generated using pymatgen
data_Li2Mn3Sb4P2N
_symmetry_space_group_name_H-M   'P 1'
_cell_length_a   5.26505707
_cell_length_b   5.54985110
_cell_length_c   6.29668347
_cell_angle_alpha   100.98439008
_cell_angle_beta   98.48215967
_cell_angle_gamma   97.25504491
_symmetry_Int_Tables_number   1
_chemical_formula_structural   Li2Mn3Sb4P2N
_chemical_formula_sum   'Li2 Mn3 Sb4 P2 N1'
_cell_volume   176.37138974
_cell_formula_units_Z   1
loop_
 _symmetry_equiv_pos_site_id
 _symmetry_equiv_pos_as_xyz
  1  'x, y, z'
loop_
 _atom_site_type_symbol
 _atom_site_label
 _atom_site_symmetry_multiplicity
 _atom_site_fract_x
 _atom_site_fract_y
 _atom_site_fract_z
 _atom_site_occupancy
  N  N0  1  0.00000000  0.00000000  0.00000000  1
  Mn  Mn1  1  0.50000000  0.50000000  0.50000000  1
  Mn  Mn2  1  0.25000000  0.25000000  0.25000000  1
  Mn  Mn3  1  0.75000000  0.25000000  0.00000000  1
  Sb  Sb4  1  0.25000000  0.75000000  0.50000000  1
  Sb  Sb5  1  0.58221066  0.39793237  0.96972072  1
  Sb  Sb6  1  0.21757206  0.20174228  0.91911441  1
  Sb  Sb7  1  0.53047448  0.51343010  0.27585180  1
  P  P8  1  0.61972111  0.56025983  0.56584720  1
  P  P9  1  0.73542400  0.91442840  0.14445046  1
  Li  Li10  1  0.59019335  0.85486781  0.67223665  1
  Li  Li11  1  0.21600522  0.10943875  0.77322390  1
