# generated using pymatgen
data_LiTi3As6P8O3
_symmetry_space_group_name_H-M   'P 1'
_cell_length_a   6.94731416
_cell_length_b   6.85213460
_cell_length_c   8.13127693
_cell_angle_alpha   92.71152972
_cell_angle_beta   95.30644276
_cell_angle_gamma   92.63293242
_symmetry_Int_Tables_number   1
_chemical_formula_structural   LiTi3As6P8O3
_chemical_formula_sum   'Li1 Ti3 As6 P8 O3'
_cell_volume   384.49742513
_cell_formula_units_Z   1
loop_
 _symmetry_equiv_pos_site_id
 _symmetry_equiv_pos_as_xyz
  1  'x, y, z'
loop_
 _atom_site_type_symbol
 _atom_site_label
 _atom_site_symmetry_multiplicity
 _atom_site_fract_x
 _atom_site_fract_y
 _atom_site_fract_z
 _atom_site_occupancy
  P  P0  1  0.12500000  0.00000000  0.25000000  1
  P  P1  1  0.00000000  0.00000000  0.00000000  1
  P  P2  1  0.37500000  0.00000000  0.25000000  1
  P  P3  1  0.25000000  0.25000000  0.25000000  1
  P  P4  1  0.00000000  0.25000000  0.12500000  1
  P  P5  1  0.64158994  0.25265332  0.39211936  1
  P  P6  1  0.79335372  0.69252318  0.17439866  1
  P  P7  1  0.23196204  0.68359025  0.48289778  1
  Li  Li8  1  0.68873887  0.69358513  0.74725782  1
  Ti  Ti9  1  0.63174275  0.39058130  0.82996350  1
  Ti  Ti10  1  0.46701909  0.21575124  0.68304317  1
  Ti  Ti11  1  0.35058297  0.57236853  0.75724539  1
  As  As12  1  0.60468321  0.06505348  0.17206997  1
  As  As13  1  0.91457329  0.45415565  0.66478466  1
  As  As14  1  0.32491993  0.36496169  0.95423082  1
  As  As15  1  0.05702810  0.62300469  0.41035804  1
  As  As16  1  0.48576418  0.07502453  0.57267804  1
  As  As17  1  0.48412414  0.23606607  0.87449510  1
  O  O18  1  0.73638099  0.47117634  0.48213144  1
  O  O19  1  0.99294861  0.50231289  0.67156787  1
  O  O20  1  0.32168745  0.20949054  0.80508614  1
