# generated using pymatgen
data_Li3LuP3Cl2
_symmetry_space_group_name_H-M   'P 1'
_cell_length_a   7.01428814
_cell_length_b   6.73932664
_cell_length_c   7.62839283
_cell_angle_alpha   96.08220735
_cell_angle_beta   97.02455771
_cell_angle_gamma   95.93667815
_symmetry_Int_Tables_number   1
_chemical_formula_structural   Li3LuP3Cl2
_chemical_formula_sum   'Li3 Lu1 P3 Cl2'
_cell_volume   353.40130426
_cell_formula_units_Z   1
loop_
 _symmetry_equiv_pos_site_id
 _symmetry_equiv_pos_as_xyz
  1  'x, y, z'
loop_
 _atom_site_type_symbol
 _atom_site_label
 _atom_site_symmetry_multiplicity
 _atom_site_fract_x
 _atom_site_fract_y
 _atom_site_fract_z
 _atom_site_occupancy
  P  P0  1  0.00000000  0.00000000  0.00000000  1
  P  P1  1  0.33300000  0.66700000  0.25000000  1
  P  P2  1  0.66700000  0.33300000  0.50000000  1
  Lu  Lu3  1  0.00000000  0.00000000  0.75000000  1
  Li  Li4  1  0.35875177  0.26114403  0.56837297  1
  Li  Li5  1  0.55951304  0.20670272  0.70289532  1
  Li  Li6  1  0.07154389  0.50917793  0.10120400  1
  Cl  Cl7  1  0.38285965  0.89769478  0.71969341  1
  Cl  Cl8  1  0.71200195  0.90636828  0.61385629  1
