# generated using pymatgen
data_Li2MnSb4P3N2
_symmetry_space_group_name_H-M   'P 1'
_cell_length_a   4.99940246
_cell_length_b   5.29039546
_cell_length_c   6.60411446
_cell_angle_alpha   97.61930179
_cell_angle_beta   96.30292982
_cell_angle_gamma   97.02382395
_symmetry_Int_Tables_number   1
_chemical_formula_structural   Li2MnSb4P3N2
_chemical_formula_sum   'Li2 Mn1 Sb4 P3 N2'
_cell_volume   170.41429909
_cell_formula_units_Z   1
loop_
 _symmetry_equiv_pos_site_id
 _symmetry_equiv_pos_as_xyz
  1  'x, y, z'
loop_
 _atom_site_type_symbol
 _atom_site_label
 _atom_site_symmetry_multiplicity
 _atom_site_fract_x
 _atom_site_fract_y
 _atom_site_fract_z
 _atom_site_occupancy
  N  N0  1  0.00000000  0.00000000  0.00000000  1
  N  N1  1  0.50000000  0.50000000  0.50000000  1
  Mn  Mn2  1  0.25000000  0.25000000  0.25000000  1
  Sb  Sb3  1  0.75000000  0.25000000  0.00000000  1
  Sb  Sb4  1  0.25000000  0.75000000  0.50000000  1
  Sb  Sb5  1  0.82673202  0.22901719  0.03238935  1
  Sb  Sb6  1  0.59065945  0.06187728  0.34993294  1
  P  P7  1  0.59900620  0.40788965  0.16052029  1
  P  P8  1  0.75169681  0.44310350  0.56741333  1
  P  P9  1  0.84364221  0.30423341  0.22269477  1
  Li  Li10  1  0.68273339  0.77342678  0.63685819  1
  Li  Li11  1  0.98912512  0.23844073  0.57007196  1
