# generated using pymatgen
data_Li2Ti2S2(OF)3
_symmetry_space_group_name_H-M   'P 1'
_cell_length_a   5.13137083
_cell_length_b   4.54109469
_cell_length_c   6.66339021
_cell_angle_alpha   96.27661918
_cell_angle_beta   99.32536421
_cell_angle_gamma   95.80924991
_symmetry_Int_Tables_number   1
_chemical_formula_structural   Li2Ti2S2(OF)3
_chemical_formula_sum   'Li2 Ti2 S2 O3 F3'
_cell_volume   151.17638930
_cell_formula_units_Z   1
loop_
 _symmetry_equiv_pos_site_id
 _symmetry_equiv_pos_as_xyz
  1  'x, y, z'
loop_
 _atom_site_type_symbol
 _atom_site_label
 _atom_site_symmetry_multiplicity
 _atom_site_fract_x
 _atom_site_fract_y
 _atom_site_fract_z
 _atom_site_occupancy
  Li  Li0  1  0.12500000  0.00000000  0.25000000  1
  Li  Li1  1  0.00000000  0.00000000  0.00000000  1
  F  F2  1  0.37500000  0.00000000  0.25000000  1
  F  F3  1  0.25000000  0.25000000  0.25000000  1
  F  F4  1  0.00000000  0.25000000  0.12500000  1
  S  S5  1  0.11648807  0.24501261  0.33897855  1
  S  S6  1  0.39100589  0.21631919  0.86371707  1
  Ti  Ti7  1  0.39577762  0.25257401  0.47418683  1
  Ti  Ti8  1  0.16341779  0.89927987  0.81439859  1
  O  O9  1  0.83832238  0.05931015  0.57818428  1
  O  O10  1  0.35200097  0.63600783  0.33368717  1
  O  O11  1  0.66966069  0.24389039  0.14089598  1
