# generated using pymatgen
data_Li2Sb4P3N5
_symmetry_space_group_name_H-M   'P 1'
_cell_length_a   6.54238098
_cell_length_b   6.99151652
_cell_length_c   7.43420343
_cell_angle_alpha   94.73433902
_cell_angle_beta   91.60522296
_cell_angle_gamma   94.83078461
_symmetry_Int_Tables_number   1
_chemical_formula_structural   Li2Sb4P3N5
_chemical_formula_sum   'Li2 Sb4 P3 N5'
_cell_volume   337.47572951
_cell_formula_units_Z   1
loop_
 _symmetry_equiv_pos_site_id
 _symmetry_equiv_pos_as_xyz
  1  'x, y, z'
loop_
 _atom_site_type_symbol
 _atom_site_label
 _atom_site_symmetry_multiplicity
 _atom_site_fract_x
 _atom_site_fract_y
 _atom_site_fract_z
 _atom_site_occupancy
  N  N0  1  0.00000000  0.00000000  0.00000000  1
  N  N1  1  0.50000000  0.50000000  0.50000000  1
  N  N2  1  0.50000000  0.50000000  0.00000000  1
  N  N3  1  0.50000000  0.00000000  0.50000000  1
  N  N4  1  0.00000000  0.50000000  0.50000000  1
  Sb  Sb5  1  0.04162641  0.79507648  0.28270715  1
  Sb  Sb6  1  0.16502805  0.08175592  0.42035715  1
  Sb  Sb7  1  0.44562203  0.65014002  0.69834873  1
  Sb  Sb8  1  0.82271928  0.72424421  0.19629114  1
  P  P9  1  0.88992912  0.92277526  0.68551558  1
  P  P10  1  0.53802388  0.76166875  0.79369752  1
  P  P11  1  0.92590582  0.63051960  0.50432850  1
  Li  Li12  1  0.12223619  0.44405585  0.74378146  1
  Li  Li13  1  0.77532609  0.07335599  0.64089102  1
