# generated using pymatgen
data_Li2Ti(IO)4
_symmetry_space_group_name_H-M   'P 1'
_cell_length_a   8.59826394
_cell_length_b   8.36352070
_cell_length_c   7.65068936
_cell_angle_alpha   90.10544073
_cell_angle_beta   90.50165495
_cell_angle_gamma   90.12054690
_symmetry_Int_Tables_number   1
_chemical_formula_structural   Li2Ti(IO)4
_chemical_formula_sum   'Li2 Ti1 I4 O4'
_cell_volume   550.15126943
_cell_formula_units_Z   1
loop_
 _symmetry_equiv_pos_site_id
 _symmetry_equiv_pos_as_xyz
  1  'x, y, z'
loop_
 _atom_site_type_symbol
 _atom_site_label
 _atom_site_symmetry_multiplicity
 _atom_site_fract_x
 _atom_site_fract_y
 _atom_site_fract_z
 _atom_site_occupancy
  I  I0  1  0.00000000  0.00000000  0.00000000  1
  I  I1  1  0.50000000  0.50000000  0.50000000  1
  I  I2  1  0.25000000  0.25000000  0.25000000  1
  I  I3  1  0.75000000  0.25000000  0.00000000  1
  Li  Li4  1  0.25000000  0.75000000  0.50000000  1
  Li  Li5  1  0.95509434  0.26272566  0.65452111  1
  Ti  Ti6  1  0.14240274  0.27607235  0.43723499  1
  O  O7  1  0.46746605  0.62911654  0.44213601  1
  O  O8  1  0.99400296  0.24666232  0.94310998  1
  O  O9  1  0.83771640  0.48648986  0.93922565  1
  O  O10  1  0.83648700  0.09967973  0.38214750  1
