# generated using pymatgen
data_Li2Ti2P3S2
_symmetry_space_group_name_H-M   'P 1'
_cell_length_a   5.65510957
_cell_length_b   5.33614637
_cell_length_c   6.87346583
_cell_angle_alpha   93.63396229
_cell_angle_beta   97.88544896
_cell_angle_gamma   93.52882222
_symmetry_Int_Tables_number   1
_chemical_formula_structural   Li2Ti2P3S2
_chemical_formula_sum   'Li2 Ti2 P3 S2'
_cell_volume   204.52438597
_cell_formula_units_Z   1
loop_
 _symmetry_equiv_pos_site_id
 _symmetry_equiv_pos_as_xyz
  1  'x, y, z'
loop_
 _atom_site_type_symbol
 _atom_site_label
 _atom_site_symmetry_multiplicity
 _atom_site_fract_x
 _atom_site_fract_y
 _atom_site_fract_z
 _atom_site_occupancy
  P  P0  1  0.00000000  0.00000000  0.00000000  1
  P  P1  1  0.50000000  0.50000000  0.50000000  1
  P  P2  1  0.50000000  0.50000000  0.00000000  1
  Li  Li3  1  0.50000000  0.00000000  0.50000000  1
  Li  Li4  1  0.00000000  0.50000000  0.50000000  1
  S  S5  1  0.81458890  0.41736760  0.23566846  1
  S  S6  1  0.92703342  0.67297210  0.94460803  1
  Ti  Ti7  1  0.66784652  0.45283241  0.95482735  1
  Ti  Ti8  1  0.20174273  0.96136854  0.42341448  1
