# generated using pymatgen
data_Li3TiI4N5O4
_symmetry_space_group_name_H-M   'P 1'
_cell_length_a   8.41226922
_cell_length_b   8.21153502
_cell_length_c   7.79856632
_cell_angle_alpha   91.08151599
_cell_angle_beta   90.38236132
_cell_angle_gamma   91.25442762
_symmetry_Int_Tables_number   1
_chemical_formula_structural   Li3TiI4N5O4
_chemical_formula_sum   'Li3 Ti1 I4 N5 O4'
_cell_volume   538.46799674
_cell_formula_units_Z   1
loop_
 _symmetry_equiv_pos_site_id
 _symmetry_equiv_pos_as_xyz
  1  'x, y, z'
loop_
 _atom_site_type_symbol
 _atom_site_label
 _atom_site_symmetry_multiplicity
 _atom_site_fract_x
 _atom_site_fract_y
 _atom_site_fract_z
 _atom_site_occupancy
  I  I0  1  0.00000000  0.00000000  0.00000000  1
  I  I1  1  0.50000000  0.50000000  0.50000000  1
  I  I2  1  0.25000000  0.25000000  0.25000000  1
  I  I3  1  0.75000000  0.25000000  0.00000000  1
  Li  Li4  1  0.25000000  0.75000000  0.50000000  1
  Li  Li5  1  0.06738634  0.12425223  0.96222493  1
  Li  Li6  1  0.86705601  0.83412491  0.15767001  1
  Ti  Ti7  1  0.43200334  0.02470547  0.42399072  1
  O  O8  1  0.74860777  0.91637278  0.55758936  1
  O  O9  1  0.84721814  0.61877840  0.96233648  1
  O  O10  1  0.80269040  0.48331564  0.24386072  1
  O  O11  1  0.78037779  0.54553976  0.19490593  1
  N  N12  1  0.01401476  0.82907049  0.83853984  1
  N  N13  1  0.02492812  0.56858978  0.35142538  1
  N  N14  1  0.38760166  0.32102582  0.97345729  1
  N  N15  1  0.63434801  0.75224826  0.19516020  1
  N  N16  1  0.54624964  0.54379221  0.12176753  1
