# generated using pymatgen
data_Li2TiP4F2
_symmetry_space_group_name_H-M   'P 1'
_cell_length_a   7.77927527
_cell_length_b   7.59323234
_cell_length_c   7.62250478
_cell_angle_alpha   90.36666822
_cell_angle_beta   91.23383690
_cell_angle_gamma   90.07673589
_symmetry_Int_Tables_number   1
_chemical_formula_structural   Li2TiP4F2
_chemical_formula_sum   'Li2 Ti1 P4 F2'
_cell_volume   450.14606692
_cell_formula_units_Z   1
loop_
 _symmetry_equiv_pos_site_id
 _symmetry_equiv_pos_as_xyz
  1  'x, y, z'
loop_
 _atom_site_type_symbol
 _atom_site_label
 _atom_site_symmetry_multiplicity
 _atom_site_fract_x
 _atom_site_fract_y
 _atom_site_fract_z
 _atom_site_occupancy
  P  P0  1  0.00000000  0.00000000  0.00000000  1
  P  P1  1  0.50000000  0.50000000  0.50000000  1
  P  P2  1  0.25000000  0.25000000  0.25000000  1
  P  P3  1  0.75000000  0.25000000  0.00000000  1
  Li  Li4  1  0.25000000  0.75000000  0.50000000  1
  Li  Li5  1  0.35170532  0.65572854  0.19972032  1
  F  F6  1  0.28768347  0.75914469  0.68821424  1
  F  F7  1  0.95046178  0.37204890  0.51280286  1
  Ti  Ti8  1  0.33108649  0.08910434  0.07783111  1
