# generated using pymatgen
data_Li2Mn2Sb4P3N
_symmetry_space_group_name_H-M   'P 1'
_cell_length_a   4.10601189
_cell_length_b   4.29140813
_cell_length_c   5.53936385
_cell_angle_alpha   101.65357718
_cell_angle_beta   95.17579297
_cell_angle_gamma   100.09721164
_symmetry_Int_Tables_number   1
_chemical_formula_structural   Li2Mn2Sb4P3N
_chemical_formula_sum   'Li2 Mn2 Sb4 P3 N1'
_cell_volume   93.31197608
_cell_formula_units_Z   1
loop_
 _symmetry_equiv_pos_site_id
 _symmetry_equiv_pos_as_xyz
  1  'x, y, z'
loop_
 _atom_site_type_symbol
 _atom_site_label
 _atom_site_symmetry_multiplicity
 _atom_site_fract_x
 _atom_site_fract_y
 _atom_site_fract_z
 _atom_site_occupancy
  Mn  Mn0  1  0.12500000  0.00000000  0.25000000  1
  Mn  Mn1  1  0.00000000  0.00000000  0.00000000  1
  Sb  Sb2  1  0.37500000  0.00000000  0.25000000  1
  Sb  Sb3  1  0.25000000  0.25000000  0.25000000  1
  Sb  Sb4  1  0.00000000  0.25000000  0.12500000  1
  Sb  Sb5  1  0.55849029  0.60395002  0.11556712  1
  P  P6  1  0.68625425  0.74949914  0.21636227  1
  P  P7  1  0.03625159  0.52700611  0.83521208  1
  P  P8  1  0.80192102  0.16673553  0.34406555  1
  Li  Li9  1  0.70664116  0.92797046  0.67337762  1
  Li  Li10  1  0.53577533  0.23919751  0.60447879  1
  N  N11  1  0.37783421  0.56468274  0.86367660  1
