# generated using pymatgen
data_Li2Ti2Cu2N5
_symmetry_space_group_name_H-M   'P 1'
_cell_length_a   7.49555836
_cell_length_b   7.37522365
_cell_length_c   7.69136063
_cell_angle_alpha   93.64304936
_cell_angle_beta   94.37702023
_cell_angle_gamma   94.58203099
_symmetry_Int_Tables_number   1
_chemical_formula_structural   Li2Ti2Cu2N5
_chemical_formula_sum   'Li2 Ti2 Cu2 N5'
_cell_volume   421.55574108
_cell_formula_units_Z   1
loop_
 _symmetry_equiv_pos_site_id
 _symmetry_equiv_pos_as_xyz
  1  'x, y, z'
loop_
 _atom_site_type_symbol
 _atom_site_label
 _atom_site_symmetry_multiplicity
 _atom_site_fract_x
 _atom_site_fract_y
 _atom_site_fract_z
 _atom_site_occupancy
  Li  Li0  1  0.00000000  0.00000000  0.00000000  1
  Li  Li1  1  0.50000000  0.50000000  0.50000000  1
  Cu  Cu2  1  0.50000000  0.50000000  0.00000000  1
  Cu  Cu3  1  0.50000000  0.00000000  0.50000000  1
  Ti  Ti4  1  0.00000000  0.50000000  0.50000000  1
  Ti  Ti5  1  0.55343169  0.94197924  0.32980022  1
  N  N6  1  0.03952869  0.42507679  0.41918837  1
  N  N7  1  0.95387897  0.98101894  0.45130211  1
  N  N8  1  0.52649727  0.72872960  0.32403886  1
  N  N9  1  0.17557324  0.76298658  0.05151805  1
  N  N10  1  0.50061194  0.81889562  0.12230492  1
