# generated using pymatgen
data_LiTi2P5S3
_symmetry_space_group_name_H-M   'P 1'
_cell_length_a   7.01765411
_cell_length_b   6.94645782
_cell_length_c   7.34483330
_cell_angle_alpha   90.77635830
_cell_angle_beta   93.69367699
_cell_angle_gamma   90.88758484
_symmetry_Int_Tables_number   1
_chemical_formula_structural   LiTi2P5S3
_chemical_formula_sum   'Li1 Ti2 P5 S3'
_cell_volume   357.22014763
_cell_formula_units_Z   1
loop_
 _symmetry_equiv_pos_site_id
 _symmetry_equiv_pos_as_xyz
  1  'x, y, z'
loop_
 _atom_site_type_symbol
 _atom_site_label
 _atom_site_symmetry_multiplicity
 _atom_site_fract_x
 _atom_site_fract_y
 _atom_site_fract_z
 _atom_site_occupancy
  P  P0  1  0.00000000  0.00000000  0.00000000  1
  P  P1  1  0.50000000  0.50000000  0.50000000  1
  P  P2  1  0.25000000  0.25000000  0.25000000  1
  P  P3  1  0.75000000  0.25000000  0.00000000  1
  P  P4  1  0.25000000  0.75000000  0.50000000  1
  Li  Li5  1  0.06217225  0.65160396  0.81737567  1
  S  S6  1  0.99648025  0.38457026  0.69714066  1
  S  S7  1  0.54521931  0.86629743  0.58664926  1
  S  S8  1  0.99388854  0.19688302  0.28366870  1
  Ti  Ti9  1  0.76409146  0.10929595  0.69785099  1
  Ti  Ti10  1  0.27185471  0.42436712  0.86163206  1
