# generated using pymatgen
data_Li2TiNi3P4O3
_symmetry_space_group_name_H-M   'P 1'
_cell_length_a   5.41181019
_cell_length_b   5.14312711
_cell_length_c   7.26383556
_cell_angle_alpha   99.56397007
_cell_angle_beta   94.83799474
_cell_angle_gamma   100.15295182
_symmetry_Int_Tables_number   1
_chemical_formula_structural   Li2TiNi3P4O3
_chemical_formula_sum   'Li2 Ti1 Ni3 P4 O3'
_cell_volume   194.89751446
_cell_formula_units_Z   1
loop_
 _symmetry_equiv_pos_site_id
 _symmetry_equiv_pos_as_xyz
  1  'x, y, z'
loop_
 _atom_site_type_symbol
 _atom_site_label
 _atom_site_symmetry_multiplicity
 _atom_site_fract_x
 _atom_site_fract_y
 _atom_site_fract_z
 _atom_site_occupancy
  O  O0  1  0.12500000  0.00000000  0.25000000  1
  O  O1  1  0.00000000  0.00000000  0.00000000  1
  O  O2  1  0.37500000  0.00000000  0.25000000  1
  Ni  Ni3  1  0.25000000  0.25000000  0.25000000  1
  Ni  Ni4  1  0.00000000  0.25000000  0.12500000  1
  Ni  Ni5  1  0.44980889  0.81322532  0.19935729  1
  Ti  Ti6  1  0.04060885  0.03355916  0.62787805  1
  P  P7  1  0.37286056  0.16530132  0.50913387  1
  P  P8  1  0.41837390  0.76564142  0.20747316  1
  P  P9  1  0.36140217  0.70766972  0.54830701  1
  P  P10  1  0.49473685  0.71338559  0.98757342  1
  Li  Li11  1  0.03548846  0.15624361  0.85728436  1
  Li  Li12  1  0.20017758  0.66062126  0.33329808  1
