# generated using pymatgen
data_Li2Ti(CuO)2
_symmetry_space_group_name_H-M   'P 1'
_cell_length_a   6.98452224
_cell_length_b   7.03835428
_cell_length_c   7.46938250
_cell_angle_alpha   90.61268767
_cell_angle_beta   91.96110715
_cell_angle_gamma   90.06076775
_symmetry_Int_Tables_number   1
_chemical_formula_structural   Li2Ti(CuO)2
_chemical_formula_sum   'Li2 Ti1 Cu2 O2'
_cell_volume   366.95499846
_cell_formula_units_Z   1
loop_
 _symmetry_equiv_pos_site_id
 _symmetry_equiv_pos_as_xyz
  1  'x, y, z'
loop_
 _atom_site_type_symbol
 _atom_site_label
 _atom_site_symmetry_multiplicity
 _atom_site_fract_x
 _atom_site_fract_y
 _atom_site_fract_z
 _atom_site_occupancy
  Li  Li0  1  0.12500000  0.12500000  0.12500000  1
  Li  Li1  1  0.50000000  0.50000000  0.50000000  1
  Ti  Ti2  1  0.25000000  0.25000000  0.25000000  1
  O  O3  1  0.75000000  0.75000000  0.75000000  1
  O  O4  1  0.28531717  0.60479540  0.20244130  1
  Cu  Cu5  1  0.43024242  0.43557967  0.40598225  1
  Cu  Cu6  1  0.80897825  0.34623217  0.34697697  1
