# generated using pymatgen
data_Li2Mn2Sb4P3
_symmetry_space_group_name_H-M   'P 1'
_cell_length_a   5.85752401
_cell_length_b   6.14281762
_cell_length_c   6.73399048
_cell_angle_alpha   98.13086722
_cell_angle_beta   90.83539888
_cell_angle_gamma   98.02891717
_symmetry_Int_Tables_number   1
_chemical_formula_structural   Li2Mn2Sb4P3
_chemical_formula_sum   'Li2 Mn2 Sb4 P3'
_cell_volume   237.36776934
_cell_formula_units_Z   1
loop_
 _symmetry_equiv_pos_site_id
 _symmetry_equiv_pos_as_xyz
  1  'x, y, z'
loop_
 _atom_site_type_symbol
 _atom_site_label
 _atom_site_symmetry_multiplicity
 _atom_site_fract_x
 _atom_site_fract_y
 _atom_site_fract_z
 _atom_site_occupancy
  Mn  Mn0  1  0.00000000  0.00000000  0.00000000  1
  Mn  Mn1  1  0.50000000  0.50000000  0.50000000  1
  Sb  Sb2  1  0.25000000  0.25000000  0.25000000  1
  Sb  Sb3  1  0.75000000  0.25000000  0.00000000  1
  Sb  Sb4  1  0.25000000  0.75000000  0.50000000  1
  Sb  Sb5  1  0.11207935  0.46267312  0.25061836  1
  P  P6  1  0.36140226  0.38419087  0.57754017  1
  P  P7  1  0.81822291  0.84476282  0.08671261  1
  P  P8  1  0.32226537  0.15984001  0.93321904  1
  Li  Li9  1  0.68981754  0.15923333  0.68884648  1
  Li  Li10  1  0.25884640  0.66204024  0.75484357  1
