# generated using pymatgen
data_Li3As6I4O7
_symmetry_space_group_name_H-M   'P 1'
_cell_length_a   7.92742575
_cell_length_b   7.71333910
_cell_length_c   8.57821118
_cell_angle_alpha   91.73160486
_cell_angle_beta   90.84757841
_cell_angle_gamma   92.00756417
_symmetry_Int_Tables_number   1
_chemical_formula_structural   Li3As6I4O7
_chemical_formula_sum   'Li3 As6 I4 O7'
_cell_volume   523.90391282
_cell_formula_units_Z   1
loop_
 _symmetry_equiv_pos_site_id
 _symmetry_equiv_pos_as_xyz
  1  'x, y, z'
loop_
 _atom_site_type_symbol
 _atom_site_label
 _atom_site_symmetry_multiplicity
 _atom_site_fract_x
 _atom_site_fract_y
 _atom_site_fract_z
 _atom_site_occupancy
  I  I0  1  0.00000000  0.00000000  0.00000000  1
  I  I1  1  0.50000000  0.50000000  0.50000000  1
  I  I2  1  0.25000000  0.25000000  0.25000000  1
  I  I3  1  0.75000000  0.25000000  0.00000000  1
  Li  Li4  1  0.25000000  0.75000000  0.50000000  1
  Li  Li5  1  0.14671563  0.04895490  0.15294915  1
  Li  Li6  1  0.37348489  0.37217808  0.02800367  1
  As  As7  1  0.88491274  0.67767692  0.39791625  1
  As  As8  1  0.93863972  0.81961507  0.91317788  1
  As  As9  1  0.80291043  0.97178026  0.16342995  1
  As  As10  1  0.13130055  0.16142469  0.85295922  1
  As  As11  1  0.54976543  0.63842500  0.98938126  1
  As  As12  1  0.28413385  0.21364917  0.03948439  1
  O  O13  1  0.22413900  0.34767291  0.57019120  1
  O  O14  1  0.21241790  0.51983168  0.85381428  1
  O  O15  1  0.72357663  0.97143422  0.52459241  1
  O  O16  1  0.50315207  0.17292878  0.82994876  1
  O  O17  1  0.06942570  0.24562295  0.05917657  1
  O  O18  1  0.47293254  0.48301337  0.87903957  1
  O  O19  1  0.94943318  0.17083822  0.89850831  1
