# generated using pymatgen
data_Li3(TiP2)2
_symmetry_space_group_name_H-M   'P 1'
_cell_length_a   6.54464553
_cell_length_b   6.32840460
_cell_length_c   7.64398369
_cell_angle_alpha   94.09136767
_cell_angle_beta   96.65575717
_cell_angle_gamma   93.85870950
_symmetry_Int_Tables_number   1
_chemical_formula_structural   Li3(TiP2)2
_chemical_formula_sum   'Li3 Ti2 P4'
_cell_volume   312.74337160
_cell_formula_units_Z   1
loop_
 _symmetry_equiv_pos_site_id
 _symmetry_equiv_pos_as_xyz
  1  'x, y, z'
loop_
 _atom_site_type_symbol
 _atom_site_label
 _atom_site_symmetry_multiplicity
 _atom_site_fract_x
 _atom_site_fract_y
 _atom_site_fract_z
 _atom_site_occupancy
  P  P0  1  0.12500000  0.00000000  0.25000000  1
  P  P1  1  0.00000000  0.00000000  0.00000000  1
  P  P2  1  0.37500000  0.00000000  0.25000000  1
  P  P3  1  0.25000000  0.25000000  0.25000000  1
  Li  Li4  1  0.00000000  0.25000000  0.12500000  1
  Li  Li5  1  0.05346946  0.67862930  0.49459893  1
  Li  Li6  1  0.83878012  0.68709185  0.22188168  1
  Ti  Ti7  1  0.54184912  0.28633204  0.81323194  1
  Ti  Ti8  1  0.30048559  0.68496300  0.80537937  1
