# generated using pymatgen
data_LiMn2(Sb2P)2
_symmetry_space_group_name_H-M   'P 1'
_cell_length_a   5.35507349
_cell_length_b   5.68992557
_cell_length_c   6.51621680
_cell_angle_alpha   96.36336181
_cell_angle_beta   93.55095657
_cell_angle_gamma   96.10692480
_symmetry_Int_Tables_number   1
_chemical_formula_structural   LiMn2(Sb2P)2
_chemical_formula_sum   'Li1 Mn2 Sb4 P2'
_cell_volume   195.65903067
_cell_formula_units_Z   1
loop_
 _symmetry_equiv_pos_site_id
 _symmetry_equiv_pos_as_xyz
  1  'x, y, z'
loop_
 _atom_site_type_symbol
 _atom_site_label
 _atom_site_symmetry_multiplicity
 _atom_site_fract_x
 _atom_site_fract_y
 _atom_site_fract_z
 _atom_site_occupancy
  Mn  Mn0  1  0.12500000  0.12500000  0.12500000  1
  Mn  Mn1  1  0.50000000  0.50000000  0.50000000  1
  Sb  Sb2  1  0.25000000  0.25000000  0.25000000  1
  Sb  Sb3  1  0.75000000  0.75000000  0.75000000  1
  Sb  Sb4  1  0.82727788  0.99122205  0.74070726  1
  Sb  Sb5  1  0.64099583  0.13567236  0.18078203  1
  P  P6  1  0.97401544  0.44004623  0.30408127  1
  P  P7  1  0.85320371  0.83048871  0.16110133  1
  Li  Li8  1  0.11699243  0.32515315  0.81734873  1
