# generated using pymatgen
data_Li3(P2O)2
_symmetry_space_group_name_H-M   'P 1'
_cell_length_a   7.85536505
_cell_length_b   7.65405963
_cell_length_c   7.83746532
_cell_angle_alpha   91.32742403
_cell_angle_beta   91.13416244
_cell_angle_gamma   91.53714341
_symmetry_Int_Tables_number   1
_chemical_formula_structural   Li3(P2O)2
_chemical_formula_sum   'Li3 P4 O2'
_cell_volume   470.83673174
_cell_formula_units_Z   1
loop_
 _symmetry_equiv_pos_site_id
 _symmetry_equiv_pos_as_xyz
  1  'x, y, z'
loop_
 _atom_site_type_symbol
 _atom_site_label
 _atom_site_symmetry_multiplicity
 _atom_site_fract_x
 _atom_site_fract_y
 _atom_site_fract_z
 _atom_site_occupancy
  P  P0  1  0.12500000  0.00000000  0.25000000  1
  P  P1  1  0.00000000  0.00000000  0.00000000  1
  P  P2  1  0.37500000  0.00000000  0.25000000  1
  P  P3  1  0.25000000  0.25000000  0.25000000  1
  Li  Li4  1  0.00000000  0.25000000  0.12500000  1
  Li  Li5  1  0.70953012  0.12742381  0.77942252  1
  Li  Li6  1  0.58650105  0.60037330  0.27644068  1
  O  O7  1  0.54542033  0.89557135  0.12006318  1
  O  O8  1  0.75082069  0.49161772  0.93459762  1
