# generated using pymatgen
data_Li2TiAs3S
_symmetry_space_group_name_H-M   'P 1'
_cell_length_a   5.02533224
_cell_length_b   4.63170495
_cell_length_c   7.45608780
_cell_angle_alpha   99.58520920
_cell_angle_beta   100.27482087
_cell_angle_gamma   98.80241916
_symmetry_Int_Tables_number   1
_chemical_formula_structural   Li2TiAs3S
_chemical_formula_sum   'Li4 Ti2 As6 S2'
_cell_volume   165.36650688
_cell_formula_units_Z   2
loop_
 _symmetry_equiv_pos_site_id
 _symmetry_equiv_pos_as_xyz
  1  'x, y, z'
loop_
 _atom_site_type_symbol
 _atom_site_label
 _atom_site_symmetry_multiplicity
 _atom_site_fract_x
 _atom_site_fract_y
 _atom_site_fract_z
 _atom_site_occupancy
  S  S0  1  0.00000000  0.00000000  0.00000000  1
  S  S1  1  0.50000000  0.50000000  0.50000000  1
  Ti  Ti2  1  0.50000000  0.50000000  0.00000000  1
  Ti  Ti3  1  0.50000000  0.00000000  0.50000000  1
  As  As4  1  0.00000000  0.50000000  0.50000000  1
  As  As5  1  0.80189617  0.40345149  0.39913776  1
  As  As6  1  0.38928554  0.99452462  0.21442502  1
  As  As7  1  0.48554631  0.28470613  0.25644089  1
  As  As8  1  0.93527844  0.02034224  0.03608978  1
  As  As9  1  0.77867018  0.53931528  0.65647765  1
  Li  Li10  1  0.03011352  0.27401377  0.11949982  1
  Li  Li11  1  0.71805561  0.14187219  0.98856999  1
  Li  Li12  1  0.86766615  0.53667767  0.79509573  1
  Li  Li13  1  0.05609972  0.42309439  0.34197190  1
