# generated using pymatgen
data_Li2TiTe6P4F2
_symmetry_space_group_name_H-M   'P 1'
_cell_length_a   7.95996043
_cell_length_b   8.20526127
_cell_length_c   7.22182870
_cell_angle_alpha   90.55133739
_cell_angle_beta   91.12054430
_cell_angle_gamma   90.37212569
_symmetry_Int_Tables_number   1
_chemical_formula_structural   Li2TiTe6P4F2
_chemical_formula_sum   'Li2 Ti1 Te6 P4 F2'
_cell_volume   471.56073451
_cell_formula_units_Z   1
loop_
 _symmetry_equiv_pos_site_id
 _symmetry_equiv_pos_as_xyz
  1  'x, y, z'
loop_
 _atom_site_type_symbol
 _atom_site_label
 _atom_site_symmetry_multiplicity
 _atom_site_fract_x
 _atom_site_fract_y
 _atom_site_fract_z
 _atom_site_occupancy
  P  P0  1  0.12500000  0.00000000  0.25000000  1
  P  P1  1  0.00000000  0.00000000  0.00000000  1
  P  P2  1  0.37500000  0.00000000  0.25000000  1
  P  P3  1  0.25000000  0.25000000  0.25000000  1
  Li  Li4  1  0.00000000  0.25000000  0.12500000  1
  Li  Li5  1  0.32962338  0.62391152  0.98315522  1
  F  F6  1  0.53135544  0.81688034  0.64715235  1
  F  F7  1  0.24923884  0.64538970  0.70438016  1
  Te  Te8  1  0.00617816  0.37324656  0.09537922  1
  Te  Te9  1  0.15201109  0.52831896  0.25542122  1
  Te  Te10  1  0.25840328  0.23012837  0.25915660  1
  Te  Te11  1  0.61483067  0.17762544  0.03575725  1
  Te  Te12  1  0.43173500  0.06518380  0.88109752  1
  Te  Te13  1  0.42639041  0.27152075  0.77137625  1
  Ti  Ti14  1  0.58480733  0.45199049  0.75938885  1
