# generated using pymatgen
data_Li4LuNi2P4N5
_symmetry_space_group_name_H-M   'P 1'
_cell_length_a   7.96840910
_cell_length_b   7.73240651
_cell_length_c   9.34283741
_cell_angle_alpha   91.37080216
_cell_angle_beta   90.48463612
_cell_angle_gamma   91.58996456
_symmetry_Int_Tables_number   1
_chemical_formula_structural   Li4LuNi2P4N5
_chemical_formula_sum   'Li4 Lu1 Ni2 P4 N5'
_cell_volume   575.24843866
_cell_formula_units_Z   1
loop_
 _symmetry_equiv_pos_site_id
 _symmetry_equiv_pos_as_xyz
  1  'x, y, z'
loop_
 _atom_site_type_symbol
 _atom_site_label
 _atom_site_symmetry_multiplicity
 _atom_site_fract_x
 _atom_site_fract_y
 _atom_site_fract_z
 _atom_site_occupancy
  P  P0  1  0.12500000  0.00000000  0.25000000  1
  P  P1  1  0.00000000  0.00000000  0.00000000  1
  P  P2  1  0.37500000  0.00000000  0.25000000  1
  P  P3  1  0.25000000  0.25000000  0.25000000  1
  Lu  Lu4  1  0.00000000  0.25000000  0.12500000  1
  Li  Li5  1  0.89995709  0.14589363  0.06827190  1
  Li  Li6  1  0.61916358  0.00336842  0.76294783  1
  Li  Li7  1  0.72243417  0.65289758  0.84692848  1
  Li  Li8  1  0.36373723  0.32528236  0.48250223  1
  Ni  Ni9  1  0.02955022  0.51184671  0.66104146  1
  Ni  Ni10  1  0.48519483  0.59811382  0.87979209  1
  N  N11  1  0.29426302  0.06176832  0.57482668  1
  N  N12  1  0.33736772  0.00666686  0.74940929  1
  N  N13  1  0.85299686  0.04082833  0.54685267  1
  N  N14  1  0.50840504  0.95670812  0.30032884  1
  N  N15  1  0.22806138  0.93191456  0.85728121  1
