# generated using pymatgen
data_Li2Cu2O3F2
_symmetry_space_group_name_H-M   'P 1'
_cell_length_a   6.05839131
_cell_length_b   6.09026195
_cell_length_c   7.14096290
_cell_angle_alpha   98.10120715
_cell_angle_beta   101.00517703
_cell_angle_gamma   98.97898640
_symmetry_Int_Tables_number   1
_chemical_formula_structural   Li2Cu2O3F2
_chemical_formula_sum   'Li2 Cu2 O3 F2'
_cell_volume   251.47553425
_cell_formula_units_Z   1
loop_
 _symmetry_equiv_pos_site_id
 _symmetry_equiv_pos_as_xyz
  1  'x, y, z'
loop_
 _atom_site_type_symbol
 _atom_site_label
 _atom_site_symmetry_multiplicity
 _atom_site_fract_x
 _atom_site_fract_y
 _atom_site_fract_z
 _atom_site_occupancy
  Li  Li0  1  0.12500000  0.00000000  0.25000000  1
  Li  Li1  1  0.00000000  0.00000000  0.00000000  1
  Cu  Cu2  1  0.37500000  0.00000000  0.25000000  1
  Cu  Cu3  1  0.25000000  0.25000000  0.25000000  1
  F  F4  1  0.00000000  0.25000000  0.12500000  1
  F  F5  1  0.24426708  0.35513597  0.61260997  1
  O  O6  1  0.54913970  0.05994961  0.26100853  1
  O  O7  1  0.55429646  0.32408131  0.67262909  1
  O  O8  1  0.37762809  0.95568462  0.00317544  1
