# generated using pymatgen
data_Li2Mn2(NiP)3
_symmetry_space_group_name_H-M   'P 1'
_cell_length_a   5.22285060
_cell_length_b   5.35129406
_cell_length_c   7.07081755
_cell_angle_alpha   96.48755625
_cell_angle_beta   96.46265610
_cell_angle_gamma   96.99330747
_symmetry_Int_Tables_number   1
_chemical_formula_structural   Li2Mn2(NiP)3
_chemical_formula_sum   'Li2 Mn2 Ni3 P3'
_cell_volume   193.29086144
_cell_formula_units_Z   1
loop_
 _symmetry_equiv_pos_site_id
 _symmetry_equiv_pos_as_xyz
  1  'x, y, z'
loop_
 _atom_site_type_symbol
 _atom_site_label
 _atom_site_symmetry_multiplicity
 _atom_site_fract_x
 _atom_site_fract_y
 _atom_site_fract_z
 _atom_site_occupancy
  Mn  Mn0  1  0.12500000  0.12500000  0.12500000  1
  Mn  Mn1  1  0.50000000  0.50000000  0.50000000  1
  P  P2  1  0.25000000  0.25000000  0.25000000  1
  P  P3  1  0.75000000  0.75000000  0.75000000  1
  P  P4  1  0.59461267  0.34763248  0.05970418  1
  Li  Li5  1  0.49488855  0.86809651  0.59684334  1
  Li  Li6  1  0.52880283  0.85844384  0.53334213  1
  Ni  Ni7  1  0.89549532  0.54817401  0.06672547  1
  Ni  Ni8  1  0.57662467  0.07488706  0.13860588  1
  Ni  Ni9  1  0.29568331  0.55063314  0.94734307  1
