# generated using pymatgen
data_Li3TiI4N5
_symmetry_space_group_name_H-M   'P 1'
_cell_length_a   8.11721607
_cell_length_b   7.86066603
_cell_length_c   8.08061798
_cell_angle_alpha   91.83952674
_cell_angle_beta   90.65034995
_cell_angle_gamma   92.13362833
_symmetry_Int_Tables_number   1
_chemical_formula_structural   Li3TiI4N5
_chemical_formula_sum   'Li3 Ti1 I4 N5'
_cell_volume   514.93415579
_cell_formula_units_Z   1
loop_
 _symmetry_equiv_pos_site_id
 _symmetry_equiv_pos_as_xyz
  1  'x, y, z'
loop_
 _atom_site_type_symbol
 _atom_site_label
 _atom_site_symmetry_multiplicity
 _atom_site_fract_x
 _atom_site_fract_y
 _atom_site_fract_z
 _atom_site_occupancy
  I  I0  1  0.12500000  0.00000000  0.25000000  1
  I  I1  1  0.00000000  0.00000000  0.00000000  1
  I  I2  1  0.37500000  0.00000000  0.25000000  1
  I  I3  1  0.25000000  0.25000000  0.25000000  1
  Li  Li4  1  0.00000000  0.25000000  0.12500000  1
  Li  Li5  1  0.10835289  0.16503205  0.18739569  1
  Li  Li6  1  0.02943294  0.55460026  0.77348862  1
  Ti  Ti7  1  0.86260907  0.91954417  0.35968177  1
  N  N8  1  0.17365662  0.93977079  0.76568684  1
  N  N9  1  0.65136762  0.67064217  0.83734987  1
  N  N10  1  0.52419273  0.66888979  0.26970692  1
  N  N11  1  0.44947395  0.30409425  0.29406169  1
  N  N12  1  0.91386868  0.50172826  0.22510641  1
