# generated using pymatgen
data_Li2MnSb4P3
_symmetry_space_group_name_H-M   'P 1'
_cell_length_a   6.43024948
_cell_length_b   6.62615424
_cell_length_c   7.48629775
_cell_angle_alpha   93.51878366
_cell_angle_beta   94.16832437
_cell_angle_gamma   94.00481026
_symmetry_Int_Tables_number   1
_chemical_formula_structural   Li2MnSb4P3
_chemical_formula_sum   'Li2 Mn1 Sb4 P3'
_cell_volume   316.64563215
_cell_formula_units_Z   1
loop_
 _symmetry_equiv_pos_site_id
 _symmetry_equiv_pos_as_xyz
  1  'x, y, z'
loop_
 _atom_site_type_symbol
 _atom_site_label
 _atom_site_symmetry_multiplicity
 _atom_site_fract_x
 _atom_site_fract_y
 _atom_site_fract_z
 _atom_site_occupancy
  Mn  Mn0  1  0.00000000  0.00000000  0.00000000  1
  Sb  Sb1  1  0.50000000  0.50000000  0.50000000  1
  Sb  Sb2  1  0.25000000  0.25000000  0.25000000  1
  Sb  Sb3  1  0.75000000  0.25000000  0.00000000  1
  Sb  Sb4  1  0.25000000  0.75000000  0.50000000  1
  P  P5  1  0.18783720  0.04318729  0.24713049  1
  P  P6  1  0.40204182  0.02428802  0.14459854  1
  P  P7  1  0.26244856  0.89478043  0.66232567  1
  Li  Li8  1  0.70623216  0.28111882  0.49849777  1
  Li  Li9  1  0.05369539  0.68978727  0.32662430  1
