# generated using pymatgen
data_Li2Mn2Sb4P2N
_symmetry_space_group_name_H-M   'P 1'
_cell_length_a   6.12848963
_cell_length_b   6.65613195
_cell_length_c   7.10264515
_cell_angle_alpha   94.73595974
_cell_angle_beta   95.03232467
_cell_angle_gamma   93.98972718
_symmetry_Int_Tables_number   1
_chemical_formula_structural   Li2Mn2Sb4P2N
_chemical_formula_sum   'Li2 Mn2 Sb4 P2 N1'
_cell_volume   286.76671061
_cell_formula_units_Z   1
loop_
 _symmetry_equiv_pos_site_id
 _symmetry_equiv_pos_as_xyz
  1  'x, y, z'
loop_
 _atom_site_type_symbol
 _atom_site_label
 _atom_site_symmetry_multiplicity
 _atom_site_fract_x
 _atom_site_fract_y
 _atom_site_fract_z
 _atom_site_occupancy
  N  N0  1  0.12500000  0.00000000  0.25000000  1
  Mn  Mn1  1  0.00000000  0.00000000  0.00000000  1
  Mn  Mn2  1  0.37500000  0.00000000  0.25000000  1
  Sb  Sb3  1  0.25000000  0.25000000  0.25000000  1
  Sb  Sb4  1  0.00000000  0.25000000  0.12500000  1
  Sb  Sb5  1  0.00411422  0.79079243  0.97279138  1
  Sb  Sb6  1  0.22992205  0.98435366  0.35639581  1
  P  P7  1  0.95117913  0.19849465  0.68870853  1
  P  P8  1  0.55467174  0.23176814  0.99448837  1
  Li  Li9  1  0.97059850  0.37619039  0.57531891  1
  Li  Li10  1  0.93804948  0.10454037  0.97342664  1
