# generated using pymatgen
data_Li5Ti2SeO4F3
_symmetry_space_group_name_H-M   'P 1'
_cell_length_a   4.36707186
_cell_length_b   4.01636783
_cell_length_c   6.66143356
_cell_angle_alpha   107.32019578
_cell_angle_beta   112.36720788
_cell_angle_gamma   106.24625117
_symmetry_Int_Tables_number   1
_chemical_formula_structural   Li5Ti2SeO4F3
_chemical_formula_sum   'Li5 Ti2 Se1 O4 F3'
_cell_volume   92.36251186
_cell_formula_units_Z   1
loop_
 _symmetry_equiv_pos_site_id
 _symmetry_equiv_pos_as_xyz
  1  'x, y, z'
loop_
 _atom_site_type_symbol
 _atom_site_label
 _atom_site_symmetry_multiplicity
 _atom_site_fract_x
 _atom_site_fract_y
 _atom_site_fract_z
 _atom_site_occupancy
  Li  Li0  1  0.12500000  0.00000000  0.25000000  1
  Li  Li1  1  0.00000000  0.00000000  0.00000000  1
  Li  Li2  1  0.37500000  0.00000000  0.25000000  1
  Li  Li3  1  0.25000000  0.25000000  0.25000000  1
  Li  Li4  1  0.00000000  0.25000000  0.12500000  1
  Se  Se5  1  0.72744354  0.68596707  0.22683120  1
  F  F6  1  0.23516781  0.99964471  0.68209745  1
  F  F7  1  0.42785377  0.09369850  0.99588205  1
  F  F8  1  0.85009399  0.38095576  0.67678116  1
  Ti  Ti9  1  0.31958558  0.18426534  0.63589958  1
  Ti  Ti10  1  0.37677299  0.18205856  0.56511324  1
  O  O11  1  0.04844711  0.92443953  0.23890873  1
  O  O12  1  0.76328692  0.37380917  0.04760352  1
  O  O13  1  0.24745960  0.92036692  0.38923521  1
  O  O14  1  0.18941089  0.86720344  0.30332205  1
