# generated using pymatgen
data_Li3TiP3(I2O)2
_symmetry_space_group_name_H-M   'P 1'
_cell_length_a   6.92695448
_cell_length_b   7.03120749
_cell_length_c   6.25549730
_cell_angle_alpha   90.50085641
_cell_angle_beta   90.66877668
_cell_angle_gamma   89.42305333
_symmetry_Int_Tables_number   1
_chemical_formula_structural   Li3TiP3(I2O)2
_chemical_formula_sum   'Li3 Ti1 P3 I4 O2'
_cell_volume   304.62555280
_cell_formula_units_Z   1
loop_
 _symmetry_equiv_pos_site_id
 _symmetry_equiv_pos_as_xyz
  1  'x, y, z'
loop_
 _atom_site_type_symbol
 _atom_site_label
 _atom_site_symmetry_multiplicity
 _atom_site_fract_x
 _atom_site_fract_y
 _atom_site_fract_z
 _atom_site_occupancy
  I  I0  1  0.00000000  0.00000000  0.00000000  1
  I  I1  1  0.50000000  0.50000000  0.50000000  1
  I  I2  1  0.25000000  0.25000000  0.25000000  1
  I  I3  1  0.75000000  0.25000000  0.00000000  1
  P  P4  1  0.25000000  0.75000000  0.50000000  1
  P  P5  1  0.67965048  0.38353213  0.25922489  1
  P  P6  1  0.90244474  0.11038827  0.74548560  1
  Li  Li7  1  0.10009323  0.28943357  0.93382740  1
  Li  Li8  1  0.81831797  0.51772313  0.62435528  1
  Li  Li9  1  0.22608767  0.97076809  0.88963386  1
  Ti  Ti10  1  0.58133346  0.32272742  0.55979983  1
  O  O11  1  0.45273628  0.93399782  0.51107168  1
  O  O12  1  0.39256029  0.47751896  0.30451317  1
