# generated using pymatgen
data_Li3Ti(IO)4
_symmetry_space_group_name_H-M   'P 1'
_cell_length_a   8.87687184
_cell_length_b   8.75761409
_cell_length_c   7.20693757
_cell_angle_alpha   90.00000000
_cell_angle_beta   90.00000000
_cell_angle_gamma   90.00000000
_symmetry_Int_Tables_number   1
_chemical_formula_structural   Li3Ti(IO)4
_chemical_formula_sum   'Li3 Ti1 I4 O4'
_cell_volume   560.26889682
_cell_formula_units_Z   1
loop_
 _symmetry_equiv_pos_site_id
 _symmetry_equiv_pos_as_xyz
  1  'x, y, z'
loop_
 _atom_site_type_symbol
 _atom_site_label
 _atom_site_symmetry_multiplicity
 _atom_site_fract_x
 _atom_site_fract_y
 _atom_site_fract_z
 _atom_site_occupancy
  I  I0  1  0.00000000  0.00000000  0.00000000  1
  I  I1  1  0.33300000  0.66700000  0.25000000  1
  I  I2  1  0.66700000  0.33300000  0.50000000  1
  I  I3  1  0.00000000  0.00000000  0.75000000  1
  Li  Li4  1  0.06542828  0.08898806  0.47697033  1
  Li  Li5  1  0.22295357  0.03432074  0.89193622  1
  Li  Li6  1  0.26895717  0.27854650  0.99583522  1
  Ti  Ti7  1  0.90946166  0.23256324  0.21913510  1
  O  O8  1  0.14760623  0.68961396  0.98212276  1
  O  O9  1  0.64923692  0.76274158  0.36359840  1
  O  O10  1  0.35852919  0.91276324  0.65082274  1
  O  O11  1  0.35267717  0.99616858  0.33982949  1
