# generated using pymatgen
data_Li2MnSb4P3N
_symmetry_space_group_name_H-M   'P 1'
_cell_length_a   5.11010732
_cell_length_b   5.44108258
_cell_length_c   6.32493507
_cell_angle_alpha   99.07751227
_cell_angle_beta   93.30797815
_cell_angle_gamma   98.56358988
_symmetry_Int_Tables_number   1
_chemical_formula_structural   Li2MnSb4P3N
_chemical_formula_sum   'Li2 Mn1 Sb4 P3 N1'
_cell_volume   171.12842688
_cell_formula_units_Z   1
loop_
 _symmetry_equiv_pos_site_id
 _symmetry_equiv_pos_as_xyz
  1  'x, y, z'
loop_
 _atom_site_type_symbol
 _atom_site_label
 _atom_site_symmetry_multiplicity
 _atom_site_fract_x
 _atom_site_fract_y
 _atom_site_fract_z
 _atom_site_occupancy
  N  N0  1  0.12500000  0.00000000  0.25000000  1
  Mn  Mn1  1  0.00000000  0.00000000  0.00000000  1
  Sb  Sb2  1  0.37500000  0.00000000  0.25000000  1
  Sb  Sb3  1  0.25000000  0.25000000  0.25000000  1
  Sb  Sb4  1  0.00000000  0.25000000  0.12500000  1
  Sb  Sb5  1  0.30169577  0.22465769  0.14545374  1
  P  P6  1  0.19130054  0.26830820  0.88431437  1
  P  P7  1  0.94246244  0.89287211  0.14210415  1
  P  P8  1  0.30973188  0.61754855  0.52952703  1
  Li  Li9  1  0.01839685  0.61031015  0.12957386  1
  Li  Li10  1  0.40234238  0.18745414  0.65024187  1
