# generated using pymatgen
data_LiCuO2
_symmetry_space_group_name_H-M   'P 1'
_cell_length_a   8.15495185
_cell_length_b   8.19115734
_cell_length_c   7.91271490
_cell_angle_alpha   90.24097146
_cell_angle_beta   91.14646901
_cell_angle_gamma   90.27549472
_symmetry_Int_Tables_number   1
_chemical_formula_structural   LiCuO2
_chemical_formula_sum   'Li2 Cu2 O4'
_cell_volume   528.44062530
_cell_formula_units_Z   2
loop_
 _symmetry_equiv_pos_site_id
 _symmetry_equiv_pos_as_xyz
  1  'x, y, z'
loop_
 _atom_site_type_symbol
 _atom_site_label
 _atom_site_symmetry_multiplicity
 _atom_site_fract_x
 _atom_site_fract_y
 _atom_site_fract_z
 _atom_site_occupancy
  Li  Li0  1  0.00000000  0.00000000  0.00000000  1
  Li  Li1  1  0.50000000  0.50000000  0.50000000  1
  O  O2  1  0.50000000  0.50000000  0.00000000  1
  O  O3  1  0.50000000  0.00000000  0.50000000  1
  O  O4  1  0.00000000  0.50000000  0.50000000  1
  O  O5  1  0.46363456  0.25699408  0.22974415  1
  Cu  Cu6  1  0.55317075  0.72303010  0.55192282  1
  Cu  Cu7  1  0.53887795  0.23213443  0.57753209  1
