# generated using pymatgen
data_Li3TiNi2As6O5
_symmetry_space_group_name_H-M   'P 1'
_cell_length_a   8.18932624
_cell_length_b   8.06285931
_cell_length_c   8.45867243
_cell_angle_alpha   90.11600754
_cell_angle_beta   90.55192862
_cell_angle_gamma   90.13262759
_symmetry_Int_Tables_number   1
_chemical_formula_structural   Li3TiNi2As6O5
_chemical_formula_sum   'Li3 Ti1 Ni2 As6 O5'
_cell_volume   558.49236155
_cell_formula_units_Z   1
loop_
 _symmetry_equiv_pos_site_id
 _symmetry_equiv_pos_as_xyz
  1  'x, y, z'
loop_
 _atom_site_type_symbol
 _atom_site_label
 _atom_site_symmetry_multiplicity
 _atom_site_fract_x
 _atom_site_fract_y
 _atom_site_fract_z
 _atom_site_occupancy
  Li  Li0  1  0.00000000  0.00000000  0.00000000  1
  Li  Li1  1  0.50000000  0.50000000  0.50000000  1
  Li  Li2  1  0.25000000  0.25000000  0.25000000  1
  Ni  Ni3  1  0.75000000  0.25000000  0.00000000  1
  Ni  Ni4  1  0.25000000  0.75000000  0.50000000  1
  Ti  Ti5  1  0.64106697  0.85898479  0.93019518  1
  As  As6  1  0.41352315  0.11799469  0.46188825  1
  As  As7  1  0.09727997  0.37763755  0.72645599  1
  As  As8  1  0.78180977  0.44548515  0.93176714  1
  As  As9  1  0.72040047  0.03044595  0.65693974  1
  As  As10  1  0.88850715  0.81869522  0.21596447  1
  As  As11  1  0.00681877  0.78317830  0.02656676  1
  O  O12  1  0.42568436  0.47305816  0.97482656  1
  O  O13  1  0.16165638  0.79417501  0.63209360  1
  O  O14  1  0.30863878  0.12732086  0.66383990  1
  O  O15  1  0.99267199  0.99363963  0.23116636  1
  O  O16  1  0.90314931  0.08785424  0.14700502  1
