# generated using pymatgen
data_Li2Mn2Sb4P2N
_symmetry_space_group_name_H-M   'P 1'
_cell_length_a   5.29227332
_cell_length_b   5.68725401
_cell_length_c   6.71705581
_cell_angle_alpha   98.45754470
_cell_angle_beta   95.10378119
_cell_angle_gamma   97.93646177
_symmetry_Int_Tables_number   1
_chemical_formula_structural   Li2Mn2Sb4P2N
_chemical_formula_sum   'Li2 Mn2 Sb4 P2 N1'
_cell_volume   196.82347208
_cell_formula_units_Z   1
loop_
 _symmetry_equiv_pos_site_id
 _symmetry_equiv_pos_as_xyz
  1  'x, y, z'
loop_
 _atom_site_type_symbol
 _atom_site_label
 _atom_site_symmetry_multiplicity
 _atom_site_fract_x
 _atom_site_fract_y
 _atom_site_fract_z
 _atom_site_occupancy
  N  N0  1  0.00000000  0.00000000  0.00000000  1
  Mn  Mn1  1  0.50000000  0.50000000  0.50000000  1
  Mn  Mn2  1  0.50000000  0.50000000  0.00000000  1
  Sb  Sb3  1  0.50000000  0.00000000  0.50000000  1
  Sb  Sb4  1  0.00000000  0.50000000  0.50000000  1
  Sb  Sb5  1  0.61926417  0.98424381  0.62292532  1
  Sb  Sb6  1  0.31772150  0.19817860  0.79597334  1
  P  P7  1  0.76423046  0.55139694  0.00932056  1
  P  P8  1  0.96513823  0.93320420  0.29503777  1
  Li  Li9  1  0.44460237  0.08576266  0.60192510  1
  Li  Li10  1  0.33597131  0.48627294  0.11475033  1
