# generated using pymatgen
data_LiMn2Sb4P3
_symmetry_space_group_name_H-M   'P 1'
_cell_length_a   5.81807853
_cell_length_b   6.19467594
_cell_length_c   6.59823067
_cell_angle_alpha   92.32125049
_cell_angle_beta   92.03405131
_cell_angle_gamma   92.81099185
_symmetry_Int_Tables_number   1
_chemical_formula_structural   LiMn2Sb4P3
_chemical_formula_sum   'Li1 Mn2 Sb4 P3'
_cell_volume   237.15909692
_cell_formula_units_Z   1
loop_
 _symmetry_equiv_pos_site_id
 _symmetry_equiv_pos_as_xyz
  1  'x, y, z'
loop_
 _atom_site_type_symbol
 _atom_site_label
 _atom_site_symmetry_multiplicity
 _atom_site_fract_x
 _atom_site_fract_y
 _atom_site_fract_z
 _atom_site_occupancy
  Mn  Mn0  1  0.12500000  0.00000000  0.25000000  1
  Mn  Mn1  1  0.00000000  0.00000000  0.00000000  1
  Sb  Sb2  1  0.37500000  0.00000000  0.25000000  1
  Sb  Sb3  1  0.25000000  0.25000000  0.25000000  1
  Sb  Sb4  1  0.00000000  0.25000000  0.12500000  1
  Sb  Sb5  1  0.37291828  0.21046602  0.23608219  1
  P  P6  1  0.67122089  0.80068764  0.69003705  1
  P  P7  1  0.91474957  0.20114923  0.60303412  1
  P  P8  1  0.50226851  0.62378769  0.50880783  1
  Li  Li9  1  0.54305228  0.49695810  0.61538615  1
