# generated using pymatgen
data_LiMn2Sb4P3
_symmetry_space_group_name_H-M   'P 1'
_cell_length_a   6.09284816
_cell_length_b   6.54905797
_cell_length_c   6.75310028
_cell_angle_alpha   93.05145391
_cell_angle_beta   92.22221154
_cell_angle_gamma   93.06147378
_symmetry_Int_Tables_number   1
_chemical_formula_structural   LiMn2Sb4P3
_chemical_formula_sum   'Li1 Mn2 Sb4 P3'
_cell_volume   268.46478240
_cell_formula_units_Z   1
loop_
 _symmetry_equiv_pos_site_id
 _symmetry_equiv_pos_as_xyz
  1  'x, y, z'
loop_
 _atom_site_type_symbol
 _atom_site_label
 _atom_site_symmetry_multiplicity
 _atom_site_fract_x
 _atom_site_fract_y
 _atom_site_fract_z
 _atom_site_occupancy
  Mn  Mn0  1  0.00000000  0.00000000  0.00000000  1
  Mn  Mn1  1  0.33300000  0.66700000  0.25000000  1
  Sb  Sb2  1  0.66700000  0.33300000  0.50000000  1
  Sb  Sb3  1  0.00000000  0.00000000  0.75000000  1
  Sb  Sb4  1  0.09609275  0.19437787  0.90394292  1
  Sb  Sb5  1  0.50216712  0.72922024  0.19006303  1
  P  P6  1  0.07408469  0.64049780  0.04083970  1
  P  P7  1  0.76133770  0.19060763  0.85080402  1
  P  P8  1  0.82232765  0.35213878  0.43099082  1
  Li  Li9  1  0.15932898  0.68354840  0.84147522  1
