# generated using pymatgen
data_Li3Ni2As6P4N5
_symmetry_space_group_name_H-M   'P 1'
_cell_length_a   7.43752147
_cell_length_b   7.12923936
_cell_length_c   8.81351616
_cell_angle_alpha   93.11990762
_cell_angle_beta   91.36977346
_cell_angle_gamma   93.61770899
_symmetry_Int_Tables_number   1
_chemical_formula_structural   Li3Ni2As6P4N5
_chemical_formula_sum   'Li3 Ni2 As6 P4 N5'
_cell_volume   465.52891928
_cell_formula_units_Z   1
loop_
 _symmetry_equiv_pos_site_id
 _symmetry_equiv_pos_as_xyz
  1  'x, y, z'
loop_
 _atom_site_type_symbol
 _atom_site_label
 _atom_site_symmetry_multiplicity
 _atom_site_fract_x
 _atom_site_fract_y
 _atom_site_fract_z
 _atom_site_occupancy
  P  P0  1  0.00000000  0.00000000  0.00000000  1
  P  P1  1  0.50000000  0.50000000  0.50000000  1
  P  P2  1  0.50000000  0.50000000  0.00000000  1
  P  P3  1  0.50000000  0.00000000  0.50000000  1
  Li  Li4  1  0.00000000  0.50000000  0.50000000  1
  Li  Li5  1  0.18026710  0.03336738  0.68001307  1
  Li  Li6  1  0.21594363  0.42327980  0.40102916  1
  Ni  Ni7  1  0.51485715  0.80370014  0.73606443  1
  Ni  Ni8  1  0.98670883  0.05600899  0.48419652  1
  As  As9  1  0.73419741  0.96877509  0.23066740  1
  As  As10  1  0.75445902  0.79707895  0.97127976  1
  As  As11  1  0.21240834  0.47939003  0.57358714  1
  As  As12  1  0.77449979  0.65991346  0.77948453  1
  As  As13  1  0.79415140  0.82475235  0.75351221  1
  As  As14  1  0.42651295  0.24139710  0.92415305  1
  N  N15  1  0.80184696  0.98760653  0.09962849  1
  N  N16  1  0.03682651  0.58654600  0.02727702  1
  N  N17  1  0.33484580  0.22394813  0.40340030  1
  N  N18  1  0.21635805  0.05254801  0.38043719  1
  N  N19  1  0.02477986  0.65235444  0.63937771  1
