# generated using pymatgen
data_Li3TiI4(OF)3
_symmetry_space_group_name_H-M   'P 1'
_cell_length_a   7.41951150
_cell_length_b   7.23667392
_cell_length_c   7.07671215
_cell_angle_alpha   94.95418114
_cell_angle_beta   96.57428068
_cell_angle_gamma   94.65744637
_symmetry_Int_Tables_number   1
_chemical_formula_structural   Li3TiI4(OF)3
_chemical_formula_sum   'Li3 Ti1 I4 O3 F3'
_cell_volume   374.46222861
_cell_formula_units_Z   1
loop_
 _symmetry_equiv_pos_site_id
 _symmetry_equiv_pos_as_xyz
  1  'x, y, z'
loop_
 _atom_site_type_symbol
 _atom_site_label
 _atom_site_symmetry_multiplicity
 _atom_site_fract_x
 _atom_site_fract_y
 _atom_site_fract_z
 _atom_site_occupancy
  I  I0  1  0.12500000  0.00000000  0.25000000  1
  I  I1  1  0.00000000  0.00000000  0.00000000  1
  I  I2  1  0.37500000  0.00000000  0.25000000  1
  I  I3  1  0.25000000  0.25000000  0.25000000  1
  Li  Li4  1  0.00000000  0.25000000  0.12500000  1
  Li  Li5  1  0.72063728  0.95962783  0.70217157  1
  Li  Li6  1  0.47498029  0.79131362  0.21789906  1
  F  F7  1  0.05627253  0.26026517  0.87586217  1
  F  F8  1  0.35456399  0.35028223  0.80830365  1
  F  F9  1  0.61873453  0.88233245  0.97747990  1
  Ti  Ti10  1  0.91377345  0.55797911  0.11339156  1
  O  O11  1  0.44962535  0.43220057  0.99304727  1
  O  O12  1  0.89778582  0.36732742  0.32125172  1
  O  O13  1  0.73582701  0.52871765  0.23222855  1
