# generated using pymatgen
data_LiMn3Sb4P3
_symmetry_space_group_name_H-M   'P 1'
_cell_length_a   6.81066120
_cell_length_b   7.35771507
_cell_length_c   7.11054733
_cell_angle_alpha   91.37660957
_cell_angle_beta   90.62277574
_cell_angle_gamma   91.53376930
_symmetry_Int_Tables_number   1
_chemical_formula_structural   LiMn3Sb4P3
_chemical_formula_sum   'Li1 Mn3 Sb4 P3'
_cell_volume   356.06186783
_cell_formula_units_Z   1
loop_
 _symmetry_equiv_pos_site_id
 _symmetry_equiv_pos_as_xyz
  1  'x, y, z'
loop_
 _atom_site_type_symbol
 _atom_site_label
 _atom_site_symmetry_multiplicity
 _atom_site_fract_x
 _atom_site_fract_y
 _atom_site_fract_z
 _atom_site_occupancy
  Mn  Mn0  1  0.00000000  0.00000000  0.00000000  1
  Mn  Mn1  1  0.50000000  0.50000000  0.50000000  1
  Mn  Mn2  1  0.50000000  0.50000000  0.00000000  1
  Sb  Sb3  1  0.50000000  0.00000000  0.50000000  1
  Sb  Sb4  1  0.00000000  0.50000000  0.50000000  1
  Sb  Sb5  1  0.38652016  0.94753048  0.87675736  1
  Sb  Sb6  1  0.63991340  0.44337858  0.52271926  1
  P  P7  1  0.30192116  0.59002722  0.53234321  1
  P  P8  1  0.32660326  0.53709981  0.73906621  1
  P  P9  1  0.16929960  0.47060179  0.43664986  1
  Li  Li10  1  0.71024601  0.28038643  0.14474883  1
