# generated using pymatgen
data_Li3Ni2As6(P4Cl)2
_symmetry_space_group_name_H-M   'P 1'
_cell_length_a   7.36405981
_cell_length_b   7.14001093
_cell_length_c   8.89743144
_cell_angle_alpha   94.70482526
_cell_angle_beta   96.00698127
_cell_angle_gamma   94.42590386
_symmetry_Int_Tables_number   1
_chemical_formula_structural   Li3Ni2As6(P4Cl)2
_chemical_formula_sum   'Li3 Ni2 As6 P8 Cl2'
_cell_volume   461.94708292
_cell_formula_units_Z   1
loop_
 _symmetry_equiv_pos_site_id
 _symmetry_equiv_pos_as_xyz
  1  'x, y, z'
loop_
 _atom_site_type_symbol
 _atom_site_label
 _atom_site_symmetry_multiplicity
 _atom_site_fract_x
 _atom_site_fract_y
 _atom_site_fract_z
 _atom_site_occupancy
  Cl  Cl0  1  0.00000000  0.00000000  0.00000000  1
  Cl  Cl1  1  0.50000000  0.50000000  0.50000000  1
  Ni  Ni2  1  0.25000000  0.25000000  0.25000000  1
  Ni  Ni3  1  0.75000000  0.25000000  0.00000000  1
  P  P4  1  0.25000000  0.75000000  0.50000000  1
  P  P5  1  0.20472283  0.70349076  0.24789242  1
  P  P6  1  0.44091782  0.01516423  0.76113583  1
  P  P7  1  0.08336832  0.61394742  0.70120711  1
  P  P8  1  0.25588934  0.74583361  0.18938474  1
  P  P9  1  0.13366550  0.94982445  0.74126900  1
  P  P10  1  0.06471634  0.32766084  0.79428821  1
  P  P11  1  0.79999759  0.41708755  0.36689837  1
  As  As12  1  0.26748949  0.06234559  0.80076037  1
  As  As13  1  0.10181209  0.32270229  0.90173065  1
  As  As14  1  0.03259785  0.56898841  0.33745840  1
  As  As15  1  0.80432527  0.27709730  0.66831295  1
  As  As16  1  0.74918059  0.46549417  0.29700647  1
  As  As17  1  0.14423279  0.32834546  0.66598336  1
  Li  Li18  1  0.21473199  0.78425920  0.56389790  1
  Li  Li19  1  0.16608784  0.81860245  0.94563296  1
  Li  Li20  1  0.33613783  0.54793990  0.65569213  1
