# generated using pymatgen
data_Li3(NiAs3)2
_symmetry_space_group_name_H-M   'P 1'
_cell_length_a   8.32511240
_cell_length_b   8.15432026
_cell_length_c   8.39302888
_cell_angle_alpha   90.78395668
_cell_angle_beta   90.36532941
_cell_angle_gamma   90.90896229
_symmetry_Int_Tables_number   1
_chemical_formula_structural   Li3(NiAs3)2
_chemical_formula_sum   'Li3 Ni2 As6'
_cell_volume   569.62866498
_cell_formula_units_Z   1
loop_
 _symmetry_equiv_pos_site_id
 _symmetry_equiv_pos_as_xyz
  1  'x, y, z'
loop_
 _atom_site_type_symbol
 _atom_site_label
 _atom_site_symmetry_multiplicity
 _atom_site_fract_x
 _atom_site_fract_y
 _atom_site_fract_z
 _atom_site_occupancy
  Li  Li0  1  0.00000000  0.00000000  0.00000000  1
  Li  Li1  1  0.50000000  0.50000000  0.50000000  1
  Li  Li2  1  0.25000000  0.25000000  0.25000000  1
  Ni  Ni3  1  0.75000000  0.25000000  0.00000000  1
  Ni  Ni4  1  0.25000000  0.75000000  0.50000000  1
  As  As5  1  0.22255621  0.38048838  0.35238493  1
  As  As6  1  0.15075527  0.45682327  0.18324928  1
  As  As7  1  0.11511649  0.73972826  0.14074061  1
  As  As8  1  0.55326967  0.72872465  0.03288069  1
  As  As9  1  0.21277975  0.10182819  0.16915434  1
  As  As10  1  0.87958594  0.76693923  0.14638068  1
