# generated using pymatgen
data_LiMnSb2Mo2P3
_symmetry_space_group_name_H-M   'P 1'
_cell_length_a   4.45130131
_cell_length_b   4.66901365
_cell_length_c   6.22599728
_cell_angle_alpha   99.49334568
_cell_angle_beta   94.34867857
_cell_angle_gamma   99.94626773
_symmetry_Int_Tables_number   1
_chemical_formula_structural   LiMnSb2Mo2P3
_chemical_formula_sum   'Li1 Mn1 Sb2 Mo2 P3'
_cell_volume   124.97901452
_cell_formula_units_Z   1
loop_
 _symmetry_equiv_pos_site_id
 _symmetry_equiv_pos_as_xyz
  1  'x, y, z'
loop_
 _atom_site_type_symbol
 _atom_site_label
 _atom_site_symmetry_multiplicity
 _atom_site_fract_x
 _atom_site_fract_y
 _atom_site_fract_z
 _atom_site_occupancy
  Mn  Mn0  1  0.00000000  0.00000000  0.00000000  1
  Sb  Sb1  1  0.50000000  0.50000000  0.50000000  1
  Sb  Sb2  1  0.25000000  0.25000000  0.25000000  1
  P  P3  1  0.75000000  0.25000000  0.00000000  1
  P  P4  1  0.25000000  0.75000000  0.50000000  1
  P  P5  1  0.96811905  0.52289233  0.85125870  1
  Mo  Mo6  1  0.00761668  0.69478371  0.92140439  1
  Mo  Mo7  1  0.15230308  0.60637809  0.22021544  1
  Li  Li8  1  0.77083901  0.23689016  0.36364731  1
