# generated using pymatgen
data_Li2TiP5(O2F)2
_symmetry_space_group_name_H-M   'P 1'
_cell_length_a   8.01898427
_cell_length_b   7.77412382
_cell_length_c   7.23199932
_cell_angle_alpha   91.12552386
_cell_angle_beta   92.01063713
_cell_angle_gamma   91.06423439
_symmetry_Int_Tables_number   1
_chemical_formula_structural   Li2TiP5(O2F)2
_chemical_formula_sum   'Li2 Ti1 P5 O4 F2'
_cell_volume   450.39878510
_cell_formula_units_Z   1
loop_
 _symmetry_equiv_pos_site_id
 _symmetry_equiv_pos_as_xyz
  1  'x, y, z'
loop_
 _atom_site_type_symbol
 _atom_site_label
 _atom_site_symmetry_multiplicity
 _atom_site_fract_x
 _atom_site_fract_y
 _atom_site_fract_z
 _atom_site_occupancy
  P  P0  1  0.00000000  0.00000000  0.00000000  1
  P  P1  1  0.50000000  0.50000000  0.50000000  1
  P  P2  1  0.50000000  0.50000000  0.00000000  1
  P  P3  1  0.50000000  0.00000000  0.50000000  1
  P  P4  1  0.00000000  0.50000000  0.50000000  1
  Li  Li5  1  0.23396399  0.33850771  0.55884978  1
  Li  Li6  1  0.70016577  0.79924361  0.81722191  1
  F  F7  1  0.77976260  0.61979173  0.58424475  1
  F  F8  1  0.93139472  0.39047724  0.65672154  1
  Ti  Ti9  1  0.13480124  0.26060056  0.82834319  1
  O  O10  1  0.50337748  0.09821543  0.73946834  1
  O  O11  1  0.76758027  0.90510197  0.47777685  1
  O  O12  1  0.02589220  0.61730206  0.47927632  1
  O  O13  1  0.71760197  0.22791805  0.53798355  1
