# generated using pymatgen
data_Li2TiCu2F2
_symmetry_space_group_name_H-M   'P 1'
_cell_length_a   6.85932417
_cell_length_b   7.03570014
_cell_length_c   7.84772176
_cell_angle_alpha   93.04529050
_cell_angle_beta   95.32725799
_cell_angle_gamma   93.71905262
_symmetry_Int_Tables_number   1
_chemical_formula_structural   Li2TiCu2F2
_chemical_formula_sum   'Li2 Ti1 Cu2 F2'
_cell_volume   375.63485250
_cell_formula_units_Z   1
loop_
 _symmetry_equiv_pos_site_id
 _symmetry_equiv_pos_as_xyz
  1  'x, y, z'
loop_
 _atom_site_type_symbol
 _atom_site_label
 _atom_site_symmetry_multiplicity
 _atom_site_fract_x
 _atom_site_fract_y
 _atom_site_fract_z
 _atom_site_occupancy
  Li  Li0  1  0.12500000  0.12500000  0.12500000  1
  Li  Li1  1  0.50000000  0.50000000  0.50000000  1
  Cu  Cu2  1  0.25000000  0.25000000  0.25000000  1
  Cu  Cu3  1  0.75000000  0.75000000  0.75000000  1
  F  F4  1  0.11783885  0.97691647  0.34256408  1
  F  F5  1  0.20079649  0.46404243  0.29000854  1
  Ti  Ti6  1  0.41976084  0.99322012  0.88335485  1
