# generated using pymatgen
data_LiAs3P2
_symmetry_space_group_name_H-M   'P 1'
_cell_length_a   7.10026932
_cell_length_b   6.91726539
_cell_length_c   7.81439406
_cell_angle_alpha   91.91072913
_cell_angle_beta   92.45976860
_cell_angle_gamma   91.78223958
_symmetry_Int_Tables_number   1
_chemical_formula_structural   LiAs3P2
_chemical_formula_sum   'Li2 As6 P4'
_cell_volume   383.02936666
_cell_formula_units_Z   2
loop_
 _symmetry_equiv_pos_site_id
 _symmetry_equiv_pos_as_xyz
  1  'x, y, z'
loop_
 _atom_site_type_symbol
 _atom_site_label
 _atom_site_symmetry_multiplicity
 _atom_site_fract_x
 _atom_site_fract_y
 _atom_site_fract_z
 _atom_site_occupancy
  P  P0  1  0.00000000  0.00000000  0.00000000  1
  P  P1  1  0.33300000  0.66700000  0.25000000  1
  P  P2  1  0.66700000  0.33300000  0.50000000  1
  P  P3  1  0.00000000  0.00000000  0.75000000  1
  Li  Li4  1  0.89015154  0.44524452  0.45812194  1
  Li  Li5  1  0.44628280  0.78615496  0.14838357  1
  As  As6  1  0.19159261  0.43113652  0.98075303  1
  As  As7  1  0.90186464  0.09189909  0.09631760  1
  As  As8  1  0.08249444  0.21786728  0.51451575  1
  As  As9  1  0.43483623  0.25654401  0.83466202  1
  As  As10  1  0.49416434  0.87530530  0.79596367  1
  As  As11  1  0.10828306  0.01300736  0.33847195  1
