# generated using pymatgen
data_LiMnSb4P2N
_symmetry_space_group_name_H-M   'P 1'
_cell_length_a   5.91979865
_cell_length_b   6.26184651
_cell_length_c   6.73669353
_cell_angle_alpha   94.95235958
_cell_angle_beta   92.78266922
_cell_angle_gamma   95.01350371
_symmetry_Int_Tables_number   1
_chemical_formula_structural   LiMnSb4P2N
_chemical_formula_sum   'Li1 Mn1 Sb4 P2 N1'
_cell_volume   247.44137683
_cell_formula_units_Z   1
loop_
 _symmetry_equiv_pos_site_id
 _symmetry_equiv_pos_as_xyz
  1  'x, y, z'
loop_
 _atom_site_type_symbol
 _atom_site_label
 _atom_site_symmetry_multiplicity
 _atom_site_fract_x
 _atom_site_fract_y
 _atom_site_fract_z
 _atom_site_occupancy
  N  N0  1  0.00000000  0.00000000  0.00000000  1
  Mn  Mn1  1  0.50000000  0.50000000  0.50000000  1
  Sb  Sb2  1  0.25000000  0.25000000  0.25000000  1
  Sb  Sb3  1  0.75000000  0.25000000  0.00000000  1
  Sb  Sb4  1  0.25000000  0.75000000  0.50000000  1
  Sb  Sb5  1  0.89413296  0.64897043  0.12028985  1
  P  P6  1  0.64236657  0.85664745  0.57185929  1
  P  P7  1  0.55967280  0.99120566  0.54554162  1
  Li  Li8  1  0.64197874  0.28821125  0.62829507  1
