# generated using pymatgen
data_Li3TiNi2(PI)4
_symmetry_space_group_name_H-M   'P 1'
_cell_length_a   7.92657772
_cell_length_b   7.76039231
_cell_length_c   8.44202339
_cell_angle_alpha   91.54089953
_cell_angle_beta   90.97692525
_cell_angle_gamma   91.78562689
_symmetry_Int_Tables_number   1
_chemical_formula_structural   Li3TiNi2(PI)4
_chemical_formula_sum   'Li3 Ti1 Ni2 P4 I4'
_cell_volume   518.77414561
_cell_formula_units_Z   1
loop_
 _symmetry_equiv_pos_site_id
 _symmetry_equiv_pos_as_xyz
  1  'x, y, z'
loop_
 _atom_site_type_symbol
 _atom_site_label
 _atom_site_symmetry_multiplicity
 _atom_site_fract_x
 _atom_site_fract_y
 _atom_site_fract_z
 _atom_site_occupancy
  I  I0  1  0.12500000  0.00000000  0.25000000  1
  I  I1  1  0.00000000  0.00000000  0.00000000  1
  I  I2  1  0.37500000  0.00000000  0.25000000  1
  I  I3  1  0.25000000  0.25000000  0.25000000  1
  P  P4  1  0.00000000  0.25000000  0.12500000  1
  P  P5  1  0.51644758  0.08210961  0.25152335  1
  P  P6  1  0.97181785  0.79664139  0.67427449  1
  P  P7  1  0.67517830  0.99749771  0.90337980  1
  Li  Li8  1  0.42511329  0.97138079  0.48568530  1
  Li  Li9  1  0.49439214  0.32472115  0.19489277  1
  Li  Li10  1  0.67374423  0.17088667  0.44391851  1
  Ni  Ni11  1  0.10991479  0.68582751  0.90777844  1
  Ni  Ni12  1  0.22849735  0.88982203  0.06424123  1
  Ti  Ti13  1  0.19203392  0.13076255  0.41124201  1
