# generated using pymatgen
data_Li3TiI4N5F3
_symmetry_space_group_name_H-M   'P 1'
_cell_length_a   7.15085415
_cell_length_b   6.89972474
_cell_length_c   7.56412882
_cell_angle_alpha   95.46396330
_cell_angle_beta   96.27810658
_cell_angle_gamma   95.35628635
_symmetry_Int_Tables_number   1
_chemical_formula_structural   Li3TiI4N5F3
_chemical_formula_sum   'Li3 Ti1 I4 N5 F3'
_cell_volume   367.24622087
_cell_formula_units_Z   1
loop_
 _symmetry_equiv_pos_site_id
 _symmetry_equiv_pos_as_xyz
  1  'x, y, z'
loop_
 _atom_site_type_symbol
 _atom_site_label
 _atom_site_symmetry_multiplicity
 _atom_site_fract_x
 _atom_site_fract_y
 _atom_site_fract_z
 _atom_site_occupancy
  I  I0  1  0.00000000  0.00000000  0.00000000  1
  I  I1  1  0.50000000  0.50000000  0.50000000  1
  I  I2  1  0.50000000  0.50000000  0.00000000  1
  I  I3  1  0.50000000  0.00000000  0.50000000  1
  Li  Li4  1  0.00000000  0.50000000  0.50000000  1
  Li  Li5  1  0.73774633  0.65701317  0.61648047  1
  Li  Li6  1  0.47646300  0.63293177  0.75992205  1
  F  F7  1  0.11356367  0.87510800  0.16580718  1
  F  F8  1  0.28355941  0.95105211  0.29116686  1
  F  F9  1  0.74660518  0.44952987  0.52150377  1
  Ti  Ti10  1  0.80407738  0.71605594  0.28889325  1
  N  N11  1  0.29772960  0.53412768  0.39352264  1
  N  N12  1  0.82105681  0.64125471  0.90026569  1
  N  N13  1  0.39299784  0.20333854  0.52648628  1
  N  N14  1  0.97315589  0.31933195  0.43577033  1
  N  N15  1  0.72629441  0.72395723  0.57814683  1
