# generated using pymatgen
data_Li2Sb
_symmetry_space_group_name_H-M   'P 1'
_cell_length_a   4.18475450
_cell_length_b   4.41554988
_cell_length_c   6.51473003
_cell_angle_alpha   97.85462280
_cell_angle_beta   98.55524647
_cell_angle_gamma   98.60797684
_symmetry_Int_Tables_number   1
_chemical_formula_structural   Li2Sb
_chemical_formula_sum   'Li2 Sb1'
_cell_volume   116.13347975
_cell_formula_units_Z   1
loop_
 _symmetry_equiv_pos_site_id
 _symmetry_equiv_pos_as_xyz
  1  'x, y, z'
loop_
 _atom_site_type_symbol
 _atom_site_label
 _atom_site_symmetry_multiplicity
 _atom_site_fract_x
 _atom_site_fract_y
 _atom_site_fract_z
 _atom_site_occupancy
  Sb  Sb0  1  0.12500000  0.12500000  0.12500000  1
  Li  Li1  1  0.50000000  0.50000000  0.50000000  1
  Li  Li2  1  0.25000000  0.25000000  0.25000000  1
