# generated using pymatgen
data_Li(NiP)3
_symmetry_space_group_name_H-M   'P 1'
_cell_length_a   4.64107861
_cell_length_b   4.59319075
_cell_length_c   6.42438266
_cell_angle_alpha   97.56278141
_cell_angle_beta   94.94869655
_cell_angle_gamma   97.63763572
_symmetry_Int_Tables_number   1
_chemical_formula_structural   Li(NiP)3
_chemical_formula_sum   'Li1 Ni3 P3'
_cell_volume   133.80278657
_cell_formula_units_Z   1
loop_
 _symmetry_equiv_pos_site_id
 _symmetry_equiv_pos_as_xyz
  1  'x, y, z'
loop_
 _atom_site_type_symbol
 _atom_site_label
 _atom_site_symmetry_multiplicity
 _atom_site_fract_x
 _atom_site_fract_y
 _atom_site_fract_z
 _atom_site_occupancy
  P  P0  1  0.00000000  0.00000000  0.00000000  1
  P  P1  1  0.50000000  0.50000000  0.50000000  1
  P  P2  1  0.25000000  0.25000000  0.25000000  1
  Li  Li3  1  0.75000000  0.25000000  0.00000000  1
  Ni  Ni4  1  0.25000000  0.75000000  0.50000000  1
  Ni  Ni5  1  0.90051614  0.26165345  0.63690471  1
  Ni  Ni6  1  0.81850455  0.27568444  0.27494187  1
