# generated using pymatgen
data_LiMnSb2P
_symmetry_space_group_name_H-M   'P 1'
_cell_length_a   5.78296718
_cell_length_b   6.24146159
_cell_length_c   6.93740683
_cell_angle_alpha   96.42153291
_cell_angle_beta   94.06001604
_cell_angle_gamma   96.21006133
_symmetry_Int_Tables_number   1
_chemical_formula_structural   LiMnSb2P
_chemical_formula_sum   'Li2 Mn2 Sb4 P2'
_cell_volume   246.49626924
_cell_formula_units_Z   2
loop_
 _symmetry_equiv_pos_site_id
 _symmetry_equiv_pos_as_xyz
  1  'x, y, z'
loop_
 _atom_site_type_symbol
 _atom_site_label
 _atom_site_symmetry_multiplicity
 _atom_site_fract_x
 _atom_site_fract_y
 _atom_site_fract_z
 _atom_site_occupancy
  Mn  Mn0  1  0.00000000  0.00000000  0.00000000  1
  Mn  Mn1  1  0.33300000  0.66700000  0.25000000  1
  Sb  Sb2  1  0.66700000  0.33300000  0.50000000  1
  Sb  Sb3  1  0.00000000  0.00000000  0.75000000  1
  Sb  Sb4  1  0.73045350  0.76950855  0.87457154  1
  Sb  Sb5  1  0.41721517  0.34105292  0.34742502  1
  P  P6  1  0.40150282  0.46692376  0.38584131  1
  P  P7  1  0.30110560  0.31910787  0.23215079  1
  Li  Li8  1  0.83388314  0.04077143  0.93321171  1
  Li  Li9  1  0.26018517  0.23391819  0.50612919  1
