# generated using pymatgen
data_Li3Ni2As6O7
_symmetry_space_group_name_H-M   'P 1'
_cell_length_a   7.74863574
_cell_length_b   7.57455129
_cell_length_c   9.04696371
_cell_angle_alpha   91.62993816
_cell_angle_beta   91.03337545
_cell_angle_gamma   91.88880674
_symmetry_Int_Tables_number   1
_chemical_formula_structural   Li3Ni2As6O7
_chemical_formula_sum   'Li3 Ni2 As6 O7'
_cell_volume   530.38947357
_cell_formula_units_Z   1
loop_
 _symmetry_equiv_pos_site_id
 _symmetry_equiv_pos_as_xyz
  1  'x, y, z'
loop_
 _atom_site_type_symbol
 _atom_site_label
 _atom_site_symmetry_multiplicity
 _atom_site_fract_x
 _atom_site_fract_y
 _atom_site_fract_z
 _atom_site_occupancy
  Li  Li0  1  0.00000000  0.00000000  0.00000000  1
  Li  Li1  1  0.33300000  0.66700000  0.25000000  1
  Li  Li2  1  0.66700000  0.33300000  0.50000000  1
  Ni  Ni3  1  0.00000000  0.00000000  0.75000000  1
  Ni  Ni4  1  0.86329093  0.82428042  0.41363054  1
  As  As5  1  0.76087049  0.23524408  0.89706617  1
  As  As6  1  0.75424897  0.90903835  0.31040942  1
  As  As7  1  0.72460343  0.89310743  0.60575731  1
  As  As8  1  0.00747187  0.94531540  0.38704699  1
  As  As9  1  0.28815206  0.93468125  0.01200980  1
  As  As10  1  0.91933274  0.00388666  0.25197665  1
  O  O11  1  0.19951144  0.04015660  0.86526003  1
  O  O12  1  0.63747263  0.08216731  0.66731878  1
  O  O13  1  0.18940989  0.27515304  0.42873540  1
  O  O14  1  0.39276597  0.98077672  0.52197497  1
  O  O15  1  0.21570517  0.57406491  0.79356409  1
  O  O16  1  0.09314140  0.72813592  0.85598756  1
  O  O17  1  0.04923589  0.26808471  0.13714976  1
