# generated using pymatgen
data_Li2Mn2(SbP)3
_symmetry_space_group_name_H-M   'P 1'
_cell_length_a   6.59155277
_cell_length_b   7.15074530
_cell_length_c   7.28898031
_cell_angle_alpha   92.38218157
_cell_angle_beta   92.67434945
_cell_angle_gamma   92.64591989
_symmetry_Int_Tables_number   1
_chemical_formula_structural   Li2Mn2(SbP)3
_chemical_formula_sum   'Li2 Mn2 Sb3 P3'
_cell_volume   342.49329033
_cell_formula_units_Z   1
loop_
 _symmetry_equiv_pos_site_id
 _symmetry_equiv_pos_as_xyz
  1  'x, y, z'
loop_
 _atom_site_type_symbol
 _atom_site_label
 _atom_site_symmetry_multiplicity
 _atom_site_fract_x
 _atom_site_fract_y
 _atom_site_fract_z
 _atom_site_occupancy
  Mn  Mn0  1  0.12500000  0.00000000  0.25000000  1
  Mn  Mn1  1  0.00000000  0.00000000  0.00000000  1
  Sb  Sb2  1  0.37500000  0.00000000  0.25000000  1
  Sb  Sb3  1  0.25000000  0.25000000  0.25000000  1
  Sb  Sb4  1  0.00000000  0.25000000  0.12500000  1
  P  P5  1  0.06531463  0.87560273  0.22312990  1
  P  P6  1  0.60994563  0.73512745  0.00465377  1
  P  P7  1  0.75809573  0.80692071  0.96871759  1
  Li  Li8  1  0.48812806  0.39410825  0.46282210  1
  Li  Li9  1  0.23610071  0.42507917  0.19502721  1
