# generated using pymatgen
data_LiMn(Sb2P)2
_symmetry_space_group_name_H-M   'P 1'
_cell_length_a   5.73851578
_cell_length_b   5.97733254
_cell_length_c   7.07861714
_cell_angle_alpha   95.70651061
_cell_angle_beta   94.79594304
_cell_angle_gamma   96.19236231
_symmetry_Int_Tables_number   1
_chemical_formula_structural   LiMn(Sb2P)2
_chemical_formula_sum   'Li1 Mn1 Sb4 P2'
_cell_volume   239.09628335
_cell_formula_units_Z   1
loop_
 _symmetry_equiv_pos_site_id
 _symmetry_equiv_pos_as_xyz
  1  'x, y, z'
loop_
 _atom_site_type_symbol
 _atom_site_label
 _atom_site_symmetry_multiplicity
 _atom_site_fract_x
 _atom_site_fract_y
 _atom_site_fract_z
 _atom_site_occupancy
  Mn  Mn0  1  0.00000000  0.00000000  0.00000000  1
  Sb  Sb1  1  0.33300000  0.66700000  0.25000000  1
  Sb  Sb2  1  0.66700000  0.33300000  0.50000000  1
  Sb  Sb3  1  0.00000000  0.00000000  0.75000000  1
  Sb  Sb4  1  0.99778358  0.79302699  0.21908427  1
  P  P5  1  0.71161075  0.04087517  0.76916041  1
  P  P6  1  0.62171556  0.75727104  0.92631829  1
  Li  Li7  1  0.43136199  0.29932857  0.19498127  1
