# generated using pymatgen
data_LiSb4P3
_symmetry_space_group_name_H-M   'P 1'
_cell_length_a   5.59350342
_cell_length_b   5.96541192
_cell_length_c   6.53796486
_cell_angle_alpha   97.04049110
_cell_angle_beta   91.61523826
_cell_angle_gamma   96.95851581
_symmetry_Int_Tables_number   1
_chemical_formula_structural   LiSb4P3
_chemical_formula_sum   'Li1 Sb4 P3'
_cell_volume   214.71097117
_cell_formula_units_Z   1
loop_
 _symmetry_equiv_pos_site_id
 _symmetry_equiv_pos_as_xyz
  1  'x, y, z'
loop_
 _atom_site_type_symbol
 _atom_site_label
 _atom_site_symmetry_multiplicity
 _atom_site_fract_x
 _atom_site_fract_y
 _atom_site_fract_z
 _atom_site_occupancy
  Sb  Sb0  1  0.00000000  0.00000000  0.00000000  1
  Sb  Sb1  1  0.33300000  0.66700000  0.25000000  1
  Sb  Sb2  1  0.66700000  0.33300000  0.50000000  1
  Sb  Sb3  1  0.00000000  0.00000000  0.75000000  1
  P  P4  1  0.15449135  0.43343244  0.10525232  1
  P  P5  1  0.90256704  0.04344904  0.09360013  1
  P  P6  1  0.13804008  0.80275515  0.15770611  1
  Li  Li7  1  0.53543948  0.67586038  0.52649387  1
