# generated using pymatgen
data_Li2TiP4O3
_symmetry_space_group_name_H-M   'P 1'
_cell_length_a   6.32809011
_cell_length_b   6.18358460
_cell_length_c   7.02318174
_cell_angle_alpha   96.10977408
_cell_angle_beta   98.49734607
_cell_angle_gamma   95.45038247
_symmetry_Int_Tables_number   1
_chemical_formula_structural   Li2TiP4O3
_chemical_formula_sum   'Li2 Ti1 P4 O3'
_cell_volume   268.54031888
_cell_formula_units_Z   1
loop_
 _symmetry_equiv_pos_site_id
 _symmetry_equiv_pos_as_xyz
  1  'x, y, z'
loop_
 _atom_site_type_symbol
 _atom_site_label
 _atom_site_symmetry_multiplicity
 _atom_site_fract_x
 _atom_site_fract_y
 _atom_site_fract_z
 _atom_site_occupancy
  P  P0  1  0.00000000  0.00000000  0.00000000  1
  P  P1  1  0.50000000  0.50000000  0.50000000  1
  P  P2  1  0.25000000  0.25000000  0.25000000  1
  P  P3  1  0.75000000  0.25000000  0.00000000  1
  Li  Li4  1  0.25000000  0.75000000  0.50000000  1
  Li  Li5  1  0.66987319  0.77438762  0.91313316  1
  Ti  Ti6  1  0.83386395  0.58233496  0.53812454  1
  O  O7  1  0.43007557  0.63689499  0.38706355  1
  O  O8  1  0.23492382  0.87921817  0.66083294  1
  O  O9  1  0.39447703  0.10426998  0.01757175  1
