# generated using pymatgen
data_Li3Ni2As6(I2O3)2
_symmetry_space_group_name_H-M   'P 1'
_cell_length_a   8.29995844
_cell_length_b   8.15266555
_cell_length_c   8.14781842
_cell_angle_alpha   90.83345424
_cell_angle_beta   90.52840726
_cell_angle_gamma   90.96582436
_symmetry_Int_Tables_number   1
_chemical_formula_structural   Li3Ni2As6(I2O3)2
_chemical_formula_sum   'Li3 Ni2 As6 I4 O6'
_cell_volume   551.17531055
_cell_formula_units_Z   1
loop_
 _symmetry_equiv_pos_site_id
 _symmetry_equiv_pos_as_xyz
  1  'x, y, z'
loop_
 _atom_site_type_symbol
 _atom_site_label
 _atom_site_symmetry_multiplicity
 _atom_site_fract_x
 _atom_site_fract_y
 _atom_site_fract_z
 _atom_site_occupancy
  I  I0  1  0.12500000  0.00000000  0.25000000  1
  I  I1  1  0.00000000  0.00000000  0.00000000  1
  I  I2  1  0.37500000  0.00000000  0.25000000  1
  I  I3  1  0.25000000  0.25000000  0.25000000  1
  Li  Li4  1  0.00000000  0.25000000  0.12500000  1
  Li  Li5  1  0.53931599  0.16909204  0.14682010  1
  Li  Li6  1  0.95068531  0.22945284  0.11579876  1
  Ni  Ni7  1  0.21360376  0.16738802  0.89949006  1
  Ni  Ni8  1  0.47780200  0.40934874  0.23973286  1
  As  As9  1  0.49218462  0.23377571  0.88852465  1
  As  As10  1  0.05751791  0.05390536  0.97567336  1
  As  As11  1  0.88732817  0.65329596  0.73144391  1
  As  As12  1  0.29814352  0.90187798  0.16374655  1
  As  As13  1  0.95944539  0.55391228  0.63764178  1
  As  As14  1  0.37609415  0.43214035  0.34539711  1
  O  O15  1  0.29465719  0.33919547  0.57061491  1
  O  O16  1  0.75716261  0.14199055  0.42556362  1
  O  O17  1  0.55890071  0.85243378  0.54528244  1
  O  O18  1  0.34356671  0.77190515  0.18877410  1
  O  O19  1  0.45781024  0.80020722  0.67412453  1
  O  O20  1  0.72302022  0.36765003  0.45512966  1
