# generated using pymatgen
data_Li2SbMo2P3F4
_symmetry_space_group_name_H-M   'P 1'
_cell_length_a   5.10329446
_cell_length_b   5.36477052
_cell_length_c   6.28951603
_cell_angle_alpha   94.52512353
_cell_angle_beta   93.96845174
_cell_angle_gamma   94.53420527
_symmetry_Int_Tables_number   1
_chemical_formula_structural   Li2SbMo2P3F4
_chemical_formula_sum   'Li2 Sb1 Mo2 P3 F4'
_cell_volume   170.62656117
_cell_formula_units_Z   1
loop_
 _symmetry_equiv_pos_site_id
 _symmetry_equiv_pos_as_xyz
  1  'x, y, z'
loop_
 _atom_site_type_symbol
 _atom_site_label
 _atom_site_symmetry_multiplicity
 _atom_site_fract_x
 _atom_site_fract_y
 _atom_site_fract_z
 _atom_site_occupancy
  Sb  Sb0  1  0.00000000  0.00000000  0.00000000  1
  F  F1  1  0.50000000  0.50000000  0.50000000  1
  F  F2  1  0.50000000  0.50000000  0.00000000  1
  F  F3  1  0.50000000  0.00000000  0.50000000  1
  F  F4  1  0.00000000  0.50000000  0.50000000  1
  P  P5  1  0.48213291  0.44530157  0.05129077  1
  P  P6  1  0.48617811  0.35662007  0.19878958  1
  P  P7  1  0.98232876  0.23855007  0.81308461  1
  Mo  Mo8  1  0.03465444  0.57066073  0.02782802  1
  Mo  Mo9  1  0.08288289  0.56191274  0.35340202  1
  Li  Li10  1  0.63444870  0.83238022  0.52831774  1
  Li  Li11  1  0.00365067  0.41180673  0.91407076  1
