# generated using pymatgen
data_Li3TiI4O3
_symmetry_space_group_name_H-M   'P 1'
_cell_length_a   7.19681115
_cell_length_b   7.00428483
_cell_length_c   7.13830756
_cell_angle_alpha   95.64864412
_cell_angle_beta   97.49584460
_cell_angle_gamma   95.31031392
_symmetry_Int_Tables_number   1
_chemical_formula_structural   Li3TiI4O3
_chemical_formula_sum   'Li3 Ti1 I4 O3'
_cell_volume   352.99293188
_cell_formula_units_Z   1
loop_
 _symmetry_equiv_pos_site_id
 _symmetry_equiv_pos_as_xyz
  1  'x, y, z'
loop_
 _atom_site_type_symbol
 _atom_site_label
 _atom_site_symmetry_multiplicity
 _atom_site_fract_x
 _atom_site_fract_y
 _atom_site_fract_z
 _atom_site_occupancy
  I  I0  1  0.00000000  0.00000000  0.00000000  1
  I  I1  1  0.50000000  0.50000000  0.50000000  1
  I  I2  1  0.25000000  0.25000000  0.25000000  1
  I  I3  1  0.75000000  0.25000000  0.00000000  1
  Li  Li4  1  0.25000000  0.75000000  0.50000000  1
  Li  Li5  1  0.40544628  0.14098868  0.42194260  1
  Li  Li6  1  0.56198083  0.76233436  0.20785590  1
  Ti  Ti7  1  0.25648742  0.08389735  0.40944794  1
  O  O8  1  0.66449589  0.80084518  0.11947109  1
  O  O9  1  0.99707986  0.68698454  0.58265278  1
  O  O10  1  0.41662542  0.11399496  0.31470604  1
