# generated using pymatgen
data_Li2Mn2Sb4Mo2P3
_symmetry_space_group_name_H-M   'P 1'
_cell_length_a   5.31597091
_cell_length_b   5.50994552
_cell_length_c   6.63014137
_cell_angle_alpha   99.72538366
_cell_angle_beta   92.39033484
_cell_angle_gamma   99.79717138
_symmetry_Int_Tables_number   1
_chemical_formula_structural   Li2Mn2Sb4Mo2P3
_chemical_formula_sum   'Li2 Mn2 Sb4 Mo2 P3'
_cell_volume   188.12227714
_cell_formula_units_Z   1
loop_
 _symmetry_equiv_pos_site_id
 _symmetry_equiv_pos_as_xyz
  1  'x, y, z'
loop_
 _atom_site_type_symbol
 _atom_site_label
 _atom_site_symmetry_multiplicity
 _atom_site_fract_x
 _atom_site_fract_y
 _atom_site_fract_z
 _atom_site_occupancy
  Mn  Mn0  1  0.00000000  0.00000000  0.00000000  1
  Mn  Mn1  1  0.50000000  0.50000000  0.50000000  1
  Sb  Sb2  1  0.50000000  0.50000000  0.00000000  1
  Sb  Sb3  1  0.50000000  0.00000000  0.50000000  1
  Sb  Sb4  1  0.00000000  0.50000000  0.50000000  1
  Sb  Sb5  1  0.05355325  0.90409158  0.09116158  1
  P  P6  1  0.24101875  0.44184024  0.03345691  1
  P  P7  1  0.16254241  0.10012458  0.93535447  1
  P  P8  1  0.15196928  0.52216782  0.92836278  1
  Mo  Mo9  1  0.83498615  0.93407349  0.35860483  1
  Mo  Mo10  1  0.31816728  0.23770521  0.55942693  1
  Li  Li11  1  0.74873661  0.80362213  0.21530888  1
  Li  Li12  1  0.69177603  0.57453338  0.61359536  1
