# generated using pymatgen
data_LiMnSb4P2N
_symmetry_space_group_name_H-M   'P 1'
_cell_length_a   5.47345612
_cell_length_b   5.84822615
_cell_length_c   6.84134121
_cell_angle_alpha   96.68742250
_cell_angle_beta   95.21770449
_cell_angle_gamma   96.69719229
_symmetry_Int_Tables_number   1
_chemical_formula_structural   LiMnSb4P2N
_chemical_formula_sum   'Li1 Mn1 Sb4 P2 N1'
_cell_volume   214.80117966
_cell_formula_units_Z   1
loop_
 _symmetry_equiv_pos_site_id
 _symmetry_equiv_pos_as_xyz
  1  'x, y, z'
loop_
 _atom_site_type_symbol
 _atom_site_label
 _atom_site_symmetry_multiplicity
 _atom_site_fract_x
 _atom_site_fract_y
 _atom_site_fract_z
 _atom_site_occupancy
  N  N0  1  0.00000000  0.00000000  0.00000000  1
  Mn  Mn1  1  0.50000000  0.50000000  0.50000000  1
  Sb  Sb2  1  0.25000000  0.25000000  0.25000000  1
  Sb  Sb3  1  0.75000000  0.25000000  0.00000000  1
  Sb  Sb4  1  0.25000000  0.75000000  0.50000000  1
  Sb  Sb5  1  0.08382295  0.39510847  0.73506464  1
  P  P6  1  0.47806965  0.24013646  0.19382999  1
  P  P7  1  0.46222018  0.66387186  0.13968714  1
  Li  Li8  1  0.74454046  0.82193195  0.48603891  1
