# generated using pymatgen
data_LiMn3Sb4Mo2P3
_symmetry_space_group_name_H-M   'P 1'
_cell_length_a   4.94745455
_cell_length_b   5.17391045
_cell_length_c   6.25296552
_cell_angle_alpha   97.04783982
_cell_angle_beta   92.73858300
_cell_angle_gamma   97.20118797
_symmetry_Int_Tables_number   1
_chemical_formula_structural   LiMn3Sb4Mo2P3
_chemical_formula_sum   'Li1 Mn3 Sb4 Mo2 P3'
_cell_volume   157.27445043
_cell_formula_units_Z   1
loop_
 _symmetry_equiv_pos_site_id
 _symmetry_equiv_pos_as_xyz
  1  'x, y, z'
loop_
 _atom_site_type_symbol
 _atom_site_label
 _atom_site_symmetry_multiplicity
 _atom_site_fract_x
 _atom_site_fract_y
 _atom_site_fract_z
 _atom_site_occupancy
  Mn  Mn0  1  0.00000000  0.00000000  0.00000000  1
  Mn  Mn1  1  0.50000000  0.50000000  0.50000000  1
  Mn  Mn2  1  0.25000000  0.25000000  0.25000000  1
  Sb  Sb3  1  0.75000000  0.25000000  0.00000000  1
  Sb  Sb4  1  0.25000000  0.75000000  0.50000000  1
  Sb  Sb5  1  0.45461848  0.85547974  0.61173799  1
  Sb  Sb6  1  0.33024143  0.56381644  0.94443333  1
  P  P7  1  0.15760735  0.19601626  0.76387552  1
  P  P8  1  0.02867562  0.00510732  0.22738757  1
  P  P9  1  0.35744476  0.30049706  0.25616676  1
  Mo  Mo10  1  0.44762776  0.63763311  0.54103109  1
  Mo  Mo11  1  0.58329609  0.15002810  0.67677119  1
  Li  Li12  1  0.80553982  0.20053525  0.48909249  1
