# generated using pymatgen
data_LiMnSb4Mo2P3
_symmetry_space_group_name_H-M   'P 1'
_cell_length_a   5.59218965
_cell_length_b   6.00511071
_cell_length_c   6.83104405
_cell_angle_alpha   94.29075509
_cell_angle_beta   94.52282869
_cell_angle_gamma   94.63562561
_symmetry_Int_Tables_number   1
_chemical_formula_structural   LiMnSb4Mo2P3
_chemical_formula_sum   'Li1 Mn1 Sb4 Mo2 P3'
_cell_volume   227.17356373
_cell_formula_units_Z   1
loop_
 _symmetry_equiv_pos_site_id
 _symmetry_equiv_pos_as_xyz
  1  'x, y, z'
loop_
 _atom_site_type_symbol
 _atom_site_label
 _atom_site_symmetry_multiplicity
 _atom_site_fract_x
 _atom_site_fract_y
 _atom_site_fract_z
 _atom_site_occupancy
  Mn  Mn0  1  0.00000000  0.00000000  0.00000000  1
  Sb  Sb1  1  0.50000000  0.50000000  0.50000000  1
  Sb  Sb2  1  0.50000000  0.50000000  0.00000000  1
  Sb  Sb3  1  0.50000000  0.00000000  0.50000000  1
  Sb  Sb4  1  0.00000000  0.50000000  0.50000000  1
  P  P5  1  0.91252698  0.90610542  0.95907189  1
  P  P6  1  0.38725997  0.55872943  0.64989483  1
  P  P7  1  0.95033929  0.43649593  0.85334103  1
  Mo  Mo8  1  0.41651833  0.01246755  0.25997888  1
  Mo  Mo9  1  0.78068916  0.67434796  0.19425086  1
  Li  Li10  1  0.39138482  0.84700708  0.19677680  1
