# generated using pymatgen
data_Li2TiNiAs3S
_symmetry_space_group_name_H-M   'P 1'
_cell_length_a   6.04852399
_cell_length_b   5.72896019
_cell_length_c   7.84874796
_cell_angle_alpha   96.48322500
_cell_angle_beta   96.74364437
_cell_angle_gamma   96.11394754
_symmetry_Int_Tables_number   1
_chemical_formula_structural   Li2TiNiAs3S
_chemical_formula_sum   'Li4 Ti2 Ni2 As6 S2'
_cell_volume   266.37987313
_cell_formula_units_Z   2
loop_
 _symmetry_equiv_pos_site_id
 _symmetry_equiv_pos_as_xyz
  1  'x, y, z'
loop_
 _atom_site_type_symbol
 _atom_site_label
 _atom_site_symmetry_multiplicity
 _atom_site_fract_x
 _atom_site_fract_y
 _atom_site_fract_z
 _atom_site_occupancy
  S  S0  1  0.00000000  0.00000000  0.00000000  1
  S  S1  1  0.50000000  0.50000000  0.50000000  1
  Ti  Ti2  1  0.50000000  0.50000000  0.00000000  1
  Ti  Ti3  1  0.50000000  0.00000000  0.50000000  1
  Ni  Ni4  1  0.00000000  0.50000000  0.50000000  1
  Ni  Ni5  1  0.50857949  0.04381593  0.47886224  1
  As  As6  1  0.46110668  0.83185075  0.53889105  1
  As  As7  1  0.81248227  0.19059137  0.29189227  1
  As  As8  1  0.39656849  0.43945116  0.16860155  1
  As  As9  1  0.37078744  0.59695002  0.51800139  1
  As  As10  1  0.36894769  0.68666638  0.58837345  1
  As  As11  1  0.83892495  0.85695145  0.20597541  1
  Li  Li12  1  0.70043277  0.83572804  0.93623769  1
  Li  Li13  1  0.59425520  0.80659404  0.71437597  1
  Li  Li14  1  0.61183523  0.47265488  0.72089021  1
  Li  Li15  1  0.61656488  0.79788356  0.55247538  1
