# generated using pymatgen
data_Li2Ni2As6P5O3
_symmetry_space_group_name_H-M   'P 1'
_cell_length_a   7.67578060
_cell_length_b   7.54284536
_cell_length_c   8.03848904
_cell_angle_alpha   90.85946284
_cell_angle_beta   91.42007976
_cell_angle_gamma   90.99266259
_symmetry_Int_Tables_number   1
_chemical_formula_structural   Li2Ni2As6P5O3
_chemical_formula_sum   'Li2 Ni2 As6 P5 O3'
_cell_volume   465.13802290
_cell_formula_units_Z   1
loop_
 _symmetry_equiv_pos_site_id
 _symmetry_equiv_pos_as_xyz
  1  'x, y, z'
loop_
 _atom_site_type_symbol
 _atom_site_label
 _atom_site_symmetry_multiplicity
 _atom_site_fract_x
 _atom_site_fract_y
 _atom_site_fract_z
 _atom_site_occupancy
  P  P0  1  0.12500000  0.00000000  0.25000000  1
  P  P1  1  0.00000000  0.00000000  0.00000000  1
  P  P2  1  0.37500000  0.00000000  0.25000000  1
  P  P3  1  0.25000000  0.25000000  0.25000000  1
  P  P4  1  0.00000000  0.25000000  0.12500000  1
  Li  Li5  1  0.56654913  0.16464586  0.17793406  1
  Li  Li6  1  0.28239080  0.19116724  0.42477014  1
  Ni  Ni7  1  0.64545969  0.73991542  0.72374952  1
  Ni  Ni8  1  0.08552426  0.85459693  0.01381279  1
  As  As9  1  0.75324047  0.44405675  0.34279087  1
  As  As10  1  0.83371233  0.45690002  0.94636035  1
  As  As11  1  0.58763878  0.93336771  0.02889157  1
  As  As12  1  0.20226802  0.48124093  0.49369795  1
  As  As13  1  0.45051881  0.48865654  0.16935115  1
  As  As14  1  0.42842024  0.75506379  0.51559284  1
  O  O15  1  0.53169002  0.27253073  0.44426197  1
  O  O16  1  0.11954753  0.50835244  0.57291541  1
  O  O17  1  0.55701494  0.16610134  0.43013690  1
