# generated using pymatgen
data_LiMnSb2P
_symmetry_space_group_name_H-M   'P 1'
_cell_length_a   6.63769934
_cell_length_b   7.22073112
_cell_length_c   7.20807788
_cell_angle_alpha   93.31318913
_cell_angle_beta   93.39923423
_cell_angle_gamma   92.49721347
_symmetry_Int_Tables_number   1
_chemical_formula_structural   LiMnSb2P
_chemical_formula_sum   'Li2 Mn2 Sb4 P2'
_cell_volume   343.90894642
_cell_formula_units_Z   2
loop_
 _symmetry_equiv_pos_site_id
 _symmetry_equiv_pos_as_xyz
  1  'x, y, z'
loop_
 _atom_site_type_symbol
 _atom_site_label
 _atom_site_symmetry_multiplicity
 _atom_site_fract_x
 _atom_site_fract_y
 _atom_site_fract_z
 _atom_site_occupancy
  Mn  Mn0  1  0.12500000  0.00000000  0.25000000  1
  Mn  Mn1  1  0.00000000  0.00000000  0.00000000  1
  Sb  Sb2  1  0.37500000  0.00000000  0.25000000  1
  Sb  Sb3  1  0.25000000  0.25000000  0.25000000  1
  Sb  Sb4  1  0.00000000  0.25000000  0.12500000  1
  Sb  Sb5  1  0.31781407  0.44477970  0.78499822  1
  P  P6  1  0.38664239  0.95687268  0.13363405  1
  P  P7  1  0.36784121  0.64916697  0.56228449  1
  Li  Li8  1  0.13096280  0.79356804  0.43566250  1
  Li  Li9  1  0.24712601  0.63439621  0.54475067  1
