# generated using pymatgen
data_Li5Ti2(PO)3
_symmetry_space_group_name_H-M   'P 1'
_cell_length_a   8.09037448
_cell_length_b   7.65019411
_cell_length_c   6.80556501
_cell_angle_alpha   90.00000000
_cell_angle_beta   90.00000000
_cell_angle_gamma   90.00000000
_symmetry_Int_Tables_number   1
_chemical_formula_structural   Li5Ti2(PO)3
_chemical_formula_sum   'Li5 Ti2 P3 O3'
_cell_volume   421.21639370
_cell_formula_units_Z   1
loop_
 _symmetry_equiv_pos_site_id
 _symmetry_equiv_pos_as_xyz
  1  'x, y, z'
loop_
 _atom_site_type_symbol
 _atom_site_label
 _atom_site_symmetry_multiplicity
 _atom_site_fract_x
 _atom_site_fract_y
 _atom_site_fract_z
 _atom_site_occupancy
  P  P0  1  0.00000000  0.00000000  0.00000000  1
  P  P1  1  0.50000000  0.50000000  0.50000000  1
  P  P2  1  0.25000000  0.25000000  0.25000000  1
  Li  Li3  1  0.75000000  0.25000000  0.00000000  1
  Li  Li4  1  0.25000000  0.75000000  0.50000000  1
  Li  Li5  1  0.79157556  0.07421078  0.02062321  1
  Li  Li6  1  0.75842265  0.28167558  0.67449327  1
  Li  Li7  1  0.32210880  0.22337129  0.28966625  1
  Ti  Ti8  1  0.03556999  0.92859715  0.98393756  1
  Ti  Ti9  1  0.42375822  0.26909516  0.11352220  1
  O  O10  1  0.04130209  0.41960651  0.89151965  1
  O  O11  1  0.54857005  0.54647000  0.51909892  1
  O  O12  1  0.47206904  0.37437553  0.42831469  1
