# generated using pymatgen
data_Li2TiCu2(NiP2)2
_symmetry_space_group_name_H-M   'P 1'
_cell_length_a   7.20253567
_cell_length_b   7.08314168
_cell_length_c   7.61504384
_cell_angle_alpha   91.23887482
_cell_angle_beta   91.64912327
_cell_angle_gamma   91.02801507
_symmetry_Int_Tables_number   1
_chemical_formula_structural   Li2TiCu2(NiP2)2
_chemical_formula_sum   'Li2 Ti1 Cu2 Ni2 P4'
_cell_volume   388.17482470
_cell_formula_units_Z   1
loop_
 _symmetry_equiv_pos_site_id
 _symmetry_equiv_pos_as_xyz
  1  'x, y, z'
loop_
 _atom_site_type_symbol
 _atom_site_label
 _atom_site_symmetry_multiplicity
 _atom_site_fract_x
 _atom_site_fract_y
 _atom_site_fract_z
 _atom_site_occupancy
  P  P0  1  0.12500000  0.00000000  0.25000000  1
  P  P1  1  0.00000000  0.00000000  0.00000000  1
  P  P2  1  0.37500000  0.00000000  0.25000000  1
  P  P3  1  0.25000000  0.25000000  0.25000000  1
  Li  Li4  1  0.00000000  0.25000000  0.12500000  1
  Li  Li5  1  0.52104270  0.66092495  0.69998991  1
  Cu  Cu6  1  0.58969508  0.34695154  0.09978024  1
  Cu  Cu7  1  0.71441313  0.74199368  0.19240490  1
  Ni  Ni8  1  0.55158645  0.36864648  0.82834249  1
  Ni  Ni9  1  0.89213775  0.46224008  0.93592815  1
  Ti  Ti10  1  0.14424649  0.04744329  0.20142803  1
