# generated using pymatgen
data_Li2Ni3P3W
_symmetry_space_group_name_H-M   'P 1'
_cell_length_a   5.68272232
_cell_length_b   5.56680593
_cell_length_c   6.86948888
_cell_angle_alpha   96.86448887
_cell_angle_beta   92.42936063
_cell_angle_gamma   96.60295412
_symmetry_Int_Tables_number   1
_chemical_formula_structural   Li2Ni3P3W
_chemical_formula_sum   'Li2 Ni3 P3 W1'
_cell_volume   213.97728289
_cell_formula_units_Z   1
loop_
 _symmetry_equiv_pos_site_id
 _symmetry_equiv_pos_as_xyz
  1  'x, y, z'
loop_
 _atom_site_type_symbol
 _atom_site_label
 _atom_site_symmetry_multiplicity
 _atom_site_fract_x
 _atom_site_fract_y
 _atom_site_fract_z
 _atom_site_occupancy
  Ni  Ni0  1  0.00000000  0.00000000  0.00000000  1
  Ni  Ni1  1  0.50000000  0.50000000  0.50000000  1
  Ni  Ni2  1  0.50000000  0.50000000  0.00000000  1
  W  W3  1  0.50000000  0.00000000  0.50000000  1
  P  P4  1  0.00000000  0.50000000  0.50000000  1
  P  P5  1  0.40442381  0.44942189  0.87276946  1
  P  P6  1  0.28237177  0.02615257  0.61897257  1
  Li  Li7  1  0.07705512  0.32058035  0.69838870  1
  Li  Li8  1  0.83385051  0.52938364  0.20183924  1
