# generated using pymatgen
data_LiMn2Sb4P3
_symmetry_space_group_name_H-M   'P 1'
_cell_length_a   4.84109982
_cell_length_b   5.12867363
_cell_length_c   6.46061860
_cell_angle_alpha   98.30267050
_cell_angle_beta   94.20232557
_cell_angle_gamma   98.77812040
_symmetry_Int_Tables_number   1
_chemical_formula_structural   LiMn2Sb4P3
_chemical_formula_sum   'Li1 Mn2 Sb4 P3'
_cell_volume   156.11966676
_cell_formula_units_Z   1
loop_
 _symmetry_equiv_pos_site_id
 _symmetry_equiv_pos_as_xyz
  1  'x, y, z'
loop_
 _atom_site_type_symbol
 _atom_site_label
 _atom_site_symmetry_multiplicity
 _atom_site_fract_x
 _atom_site_fract_y
 _atom_site_fract_z
 _atom_site_occupancy
  Mn  Mn0  1  0.00000000  0.00000000  0.00000000  1
  Mn  Mn1  1  0.33300000  0.66700000  0.25000000  1
  Sb  Sb2  1  0.66700000  0.33300000  0.50000000  1
  Sb  Sb3  1  0.00000000  0.00000000  0.75000000  1
  Sb  Sb4  1  0.49536498  0.48885066  0.17503215  1
  Sb  Sb5  1  0.70834525  0.50109872  0.42601544  1
  P  P6  1  0.35282701  0.87877546  0.63457807  1
  P  P7  1  0.13076266  0.85001206  0.00425026  1
  P  P8  1  0.08988332  0.87382013  0.96866945  1
  Li  Li9  1  0.35936365  0.95204960  0.11448521  1
