# generated using pymatgen
data_Li2Mn2Sb4Mo2P3
_symmetry_space_group_name_H-M   'P 1'
_cell_length_a   5.90525414
_cell_length_b   6.36935402
_cell_length_c   7.00240956
_cell_angle_alpha   95.94959158
_cell_angle_beta   93.06299844
_cell_angle_gamma   96.21642618
_symmetry_Int_Tables_number   1
_chemical_formula_structural   Li2Mn2Sb4Mo2P3
_chemical_formula_sum   'Li2 Mn2 Sb4 Mo2 P3'
_cell_volume   259.86277070
_cell_formula_units_Z   1
loop_
 _symmetry_equiv_pos_site_id
 _symmetry_equiv_pos_as_xyz
  1  'x, y, z'
loop_
 _atom_site_type_symbol
 _atom_site_label
 _atom_site_symmetry_multiplicity
 _atom_site_fract_x
 _atom_site_fract_y
 _atom_site_fract_z
 _atom_site_occupancy
  Mn  Mn0  1  0.00000000  0.00000000  0.00000000  1
  Mn  Mn1  1  0.50000000  0.50000000  0.50000000  1
  Sb  Sb2  1  0.25000000  0.25000000  0.25000000  1
  Sb  Sb3  1  0.75000000  0.25000000  0.00000000  1
  Sb  Sb4  1  0.25000000  0.75000000  0.50000000  1
  Sb  Sb5  1  0.91869838  0.93114227  0.12425005  1
  P  P6  1  0.40890479  0.14901095  0.86778785  1
  P  P7  1  0.41367298  0.88477245  0.49193186  1
  P  P8  1  0.05886562  0.82186422  0.17049350  1
  Mo  Mo9  1  0.73122145  0.44310967  0.55773981  1
  Mo  Mo10  1  0.82587012  0.40924494  0.45071276  1
  Li  Li11  1  0.42622496  0.74343894  0.14130719  1
  Li  Li12  1  0.84927795  0.31295149  0.34756972  1
