# generated using pymatgen
data_LiMn2Sb4P3
_symmetry_space_group_name_H-M   'P 1'
_cell_length_a   5.17937851
_cell_length_b   5.39764634
_cell_length_c   6.17874875
_cell_angle_alpha   93.32095348
_cell_angle_beta   92.26151149
_cell_angle_gamma   93.64706159
_symmetry_Int_Tables_number   1
_chemical_formula_structural   LiMn2Sb4P3
_chemical_formula_sum   'Li1 Mn2 Sb4 P3'
_cell_volume   171.93514239
_cell_formula_units_Z   1
loop_
 _symmetry_equiv_pos_site_id
 _symmetry_equiv_pos_as_xyz
  1  'x, y, z'
loop_
 _atom_site_type_symbol
 _atom_site_label
 _atom_site_symmetry_multiplicity
 _atom_site_fract_x
 _atom_site_fract_y
 _atom_site_fract_z
 _atom_site_occupancy
  Mn  Mn0  1  0.12500000  0.12500000  0.12500000  1
  Mn  Mn1  1  0.50000000  0.50000000  0.50000000  1
  Sb  Sb2  1  0.25000000  0.25000000  0.25000000  1
  Sb  Sb3  1  0.75000000  0.75000000  0.75000000  1
  Sb  Sb4  1  0.93785644  0.79026191  0.92875843  1
  Sb  Sb5  1  0.24379372  0.34823769  0.94956309  1
  P  P6  1  0.51456161  0.02555347  0.36858290  1
  P  P7  1  0.50956151  0.72621831  0.50110542  1
  P  P8  1  0.11270184  0.67277559  0.24235964  1
  Li  Li9  1  0.40178187  0.73112100  0.16354110  1
