# generated using pymatgen
data_LiMnSb4Mo2P3
_symmetry_space_group_name_H-M   'P 1'
_cell_length_a   5.28079288
_cell_length_b   5.59498530
_cell_length_c   6.36840899
_cell_angle_alpha   96.91574792
_cell_angle_beta   92.09564085
_cell_angle_gamma   97.00493928
_symmetry_Int_Tables_number   1
_chemical_formula_structural   LiMnSb4Mo2P3
_chemical_formula_sum   'Li1 Mn1 Sb4 Mo2 P3'
_cell_volume   185.14648070
_cell_formula_units_Z   1
loop_
 _symmetry_equiv_pos_site_id
 _symmetry_equiv_pos_as_xyz
  1  'x, y, z'
loop_
 _atom_site_type_symbol
 _atom_site_label
 _atom_site_symmetry_multiplicity
 _atom_site_fract_x
 _atom_site_fract_y
 _atom_site_fract_z
 _atom_site_occupancy
  Mn  Mn0  1  0.00000000  0.00000000  0.00000000  1
  Sb  Sb1  1  0.50000000  0.50000000  0.50000000  1
  Sb  Sb2  1  0.25000000  0.25000000  0.25000000  1
  Sb  Sb3  1  0.75000000  0.25000000  0.00000000  1
  Sb  Sb4  1  0.25000000  0.75000000  0.50000000  1
  P  P5  1  0.54498607  0.94296460  0.85959816  1
  P  P6  1  0.48623649  0.48554011  0.80595469  1
  P  P7  1  0.54018866  0.84473016  0.58209341  1
  Mo  Mo8  1  0.42029800  0.08933999  0.97386117  1
  Mo  Mo9  1  0.94582104  0.43765874  0.75263002  1
  Li  Li10  1  0.64106667  0.21424121  0.83250911  1
