# generated using pymatgen
data_Li3TiAs6I4O5
_symmetry_space_group_name_H-M   'P 1'
_cell_length_a   8.20330127
_cell_length_b   8.07497877
_cell_length_c   8.59226442
_cell_angle_alpha   90.10298582
_cell_angle_beta   90.48997528
_cell_angle_gamma   90.11774030
_symmetry_Int_Tables_number   1
_chemical_formula_structural   Li3TiAs6I4O5
_chemical_formula_sum   'Li3 Ti1 As6 I4 O5'
_cell_volume   569.14139194
_cell_formula_units_Z   1
loop_
 _symmetry_equiv_pos_site_id
 _symmetry_equiv_pos_as_xyz
  1  'x, y, z'
loop_
 _atom_site_type_symbol
 _atom_site_label
 _atom_site_symmetry_multiplicity
 _atom_site_fract_x
 _atom_site_fract_y
 _atom_site_fract_z
 _atom_site_occupancy
  I  I0  1  0.12500000  0.00000000  0.25000000  1
  I  I1  1  0.00000000  0.00000000  0.00000000  1
  I  I2  1  0.37500000  0.00000000  0.25000000  1
  I  I3  1  0.25000000  0.25000000  0.25000000  1
  Li  Li4  1  0.00000000  0.25000000  0.12500000  1
  Li  Li5  1  0.69624719  0.65030133  0.32592060  1
  Li  Li6  1  0.72685129  0.05673723  0.24695561  1
  Ti  Ti7  1  0.94083414  0.65658662  0.19107704  1
  As  As8  1  0.96242807  0.76590373  0.67528537  1
  As  As9  1  0.18199718  0.56182125  0.32992379  1
  As  As10  1  0.63441060  0.54105498  0.02303093  1
  As  As11  1  0.63307129  0.13776678  0.41870355  1
  As  As12  1  0.34104189  0.73032014  0.09448198  1
  As  As13  1  0.06016587  0.16758797  0.85613800  1
  O  O14  1  0.98617083  0.43293887  0.05873854  1
  O  O15  1  0.12022134  0.08036657  0.07094065  1
  O  O16  1  0.02735916  0.61264356  0.24121486  1
  O  O17  1  0.97334802  0.61592935  0.35108255  1
  O  O18  1  0.96243931  0.26487685  0.72185676  1
