# generated using pymatgen
data_Li3TiI4O3
_symmetry_space_group_name_H-M   'P 1'
_cell_length_a   7.20070181
_cell_length_b   7.00834532
_cell_length_c   7.13892056
_cell_angle_alpha   95.63521433
_cell_angle_beta   97.47802304
_cell_angle_gamma   95.29768851
_symmetry_Int_Tables_number   1
_chemical_formula_structural   Li3TiI4O3
_chemical_formula_sum   'Li3 Ti1 I4 O3'
_cell_volume   353.45257558
_cell_formula_units_Z   1
loop_
 _symmetry_equiv_pos_site_id
 _symmetry_equiv_pos_as_xyz
  1  'x, y, z'
loop_
 _atom_site_type_symbol
 _atom_site_label
 _atom_site_symmetry_multiplicity
 _atom_site_fract_x
 _atom_site_fract_y
 _atom_site_fract_z
 _atom_site_occupancy
  I  I0  1  0.12500000  0.00000000  0.25000000  1
  I  I1  1  0.00000000  0.00000000  0.00000000  1
  I  I2  1  0.37500000  0.00000000  0.25000000  1
  I  I3  1  0.25000000  0.25000000  0.25000000  1
  Li  Li4  1  0.00000000  0.25000000  0.12500000  1
  Li  Li5  1  0.67264556  0.98732257  0.98436025  1
  Li  Li6  1  0.56357599  0.77833509  0.70060705  1
  Ti  Ti7  1  0.64382564  0.58061888  0.72424041  1
  O  O8  1  0.07779038  0.58827147  0.11922108  1
  O  O9  1  0.61944831  0.84662507  0.96816506  1
  O  O10  1  0.43650054  0.60807861  0.34230450  1
