# generated using pymatgen
data_LiMnSb4P2N5
_symmetry_space_group_name_H-M   'P 1'
_cell_length_a   5.86551881
_cell_length_b   6.30469505
_cell_length_c   7.00463512
_cell_angle_alpha   95.99403997
_cell_angle_beta   94.02838257
_cell_angle_gamma   95.72184056
_symmetry_Int_Tables_number   1
_chemical_formula_structural   LiMnSb4P2N5
_chemical_formula_sum   'Li1 Mn1 Sb4 P2 N5'
_cell_volume   255.48084866
_cell_formula_units_Z   1
loop_
 _symmetry_equiv_pos_site_id
 _symmetry_equiv_pos_as_xyz
  1  'x, y, z'
loop_
 _atom_site_type_symbol
 _atom_site_label
 _atom_site_symmetry_multiplicity
 _atom_site_fract_x
 _atom_site_fract_y
 _atom_site_fract_z
 _atom_site_occupancy
  N  N0  1  0.12500000  0.00000000  0.25000000  1
  N  N1  1  0.00000000  0.00000000  0.00000000  1
  N  N2  1  0.37500000  0.00000000  0.25000000  1
  N  N3  1  0.25000000  0.25000000  0.25000000  1
  N  N4  1  0.00000000  0.25000000  0.12500000  1
  Mn  Mn5  1  0.69131188  0.05124104  0.37891322  1
  Sb  Sb6  1  0.54772954  0.12289010  0.11332004  1
  Sb  Sb7  1  0.75396423  0.13034557  0.45702190  1
  Sb  Sb8  1  0.49275561  0.69825848  0.64610957  1
  Sb  Sb9  1  0.21714208  0.36720780  0.58530591  1
  P  P10  1  0.08641682  0.71150361  0.52205364  1
  P  P11  1  0.17242754  0.40756342  0.23479285  1
  Li  Li12  1  0.84956497  0.44622579  0.91262540  1
