# generated using pymatgen
data_LiMn2Sb4P2N
_symmetry_space_group_name_H-M   'P 1'
_cell_length_a   5.45908996
_cell_length_b   5.77346016
_cell_length_c   6.52679273
_cell_angle_alpha   96.28657156
_cell_angle_beta   92.65909029
_cell_angle_gamma   95.99495918
_symmetry_Int_Tables_number   1
_chemical_formula_structural   LiMn2Sb4P2N
_chemical_formula_sum   'Li1 Mn2 Sb4 P2 N1'
_cell_volume   203.00688444
_cell_formula_units_Z   1
loop_
 _symmetry_equiv_pos_site_id
 _symmetry_equiv_pos_as_xyz
  1  'x, y, z'
loop_
 _atom_site_type_symbol
 _atom_site_label
 _atom_site_symmetry_multiplicity
 _atom_site_fract_x
 _atom_site_fract_y
 _atom_site_fract_z
 _atom_site_occupancy
  N  N0  1  0.00000000  0.00000000  0.00000000  1
  Mn  Mn1  1  0.50000000  0.50000000  0.50000000  1
  Mn  Mn2  1  0.50000000  0.50000000  0.00000000  1
  Sb  Sb3  1  0.50000000  0.00000000  0.50000000  1
  Sb  Sb4  1  0.00000000  0.50000000  0.50000000  1
  Sb  Sb5  1  0.01285981  0.55597610  0.75928284  1
  Sb  Sb6  1  0.26393881  0.72641696  0.11934212  1
  P  P7  1  0.53549922  0.18271967  0.88500153  1
  P  P8  1  0.86790885  0.88720468  0.67239813  1
  Li  Li9  1  0.24903340  0.10618015  0.10527781  1
