# generated using pymatgen
data_Li3As6(P2O)4
_symmetry_space_group_name_H-M   'P 1'
_cell_length_a   7.20176251
_cell_length_b   7.16112727
_cell_length_c   8.54091494
_cell_angle_alpha   93.95632900
_cell_angle_beta   94.47111478
_cell_angle_gamma   94.62344922
_symmetry_Int_Tables_number   1
_chemical_formula_structural   Li3As6(P2O)4
_chemical_formula_sum   'Li3 As6 P8 O4'
_cell_volume   436.45110504
_cell_formula_units_Z   1
loop_
 _symmetry_equiv_pos_site_id
 _symmetry_equiv_pos_as_xyz
  1  'x, y, z'
loop_
 _atom_site_type_symbol
 _atom_site_label
 _atom_site_symmetry_multiplicity
 _atom_site_fract_x
 _atom_site_fract_y
 _atom_site_fract_z
 _atom_site_occupancy
  P  P0  1  0.00000000  0.00000000  0.00000000  1
  P  P1  1  0.33300000  0.66700000  0.25000000  1
  P  P2  1  0.66700000  0.33300000  0.50000000  1
  P  P3  1  0.00000000  0.00000000  0.75000000  1
  P  P4  1  0.21302922  0.83494942  0.65845770  1
  P  P5  1  0.93943482  0.36921118  0.81804072  1
  P  P6  1  0.49037823  0.17492328  0.23069288  1
  P  P7  1  0.89285921  0.41815703  0.59440804  1
  Li  Li8  1  0.29204933  0.34502989  0.58442544  1
  Li  Li9  1  0.96214309  0.61840669  0.42907063  1
  Li  Li10  1  0.62273912  0.31910921  0.25182849  1
  As  As11  1  0.59394753  0.20652526  0.57323650  1
  As  As12  1  0.74700245  0.49783350  0.26868835  1
  As  As13  1  0.38610533  0.57735852  0.08452066  1
  As  As14  1  0.81465536  0.95126232  0.64397109  1
  As  As15  1  0.89768027  0.73142852  0.89749123  1
  As  As16  1  0.72226976  0.25943734  0.93932829  1
  O  O17  1  0.16672858  0.54816604  0.84116749  1
  O  O18  1  0.36515133  0.27104458  0.71743733  1
  O  O19  1  0.86945584  0.87465744  0.57012542  1
  O  O20  1  0.87670444  0.45956018  0.78654097  1
