# generated using pymatgen
data_LiMn2Sb4P3
_symmetry_space_group_name_H-M   'P 1'
_cell_length_a   6.30488925
_cell_length_b   6.53489409
_cell_length_c   6.72632723
_cell_angle_alpha   94.16678692
_cell_angle_beta   91.11033964
_cell_angle_gamma   94.08994119
_symmetry_Int_Tables_number   1
_chemical_formula_structural   LiMn2Sb4P3
_chemical_formula_sum   'Li1 Mn2 Sb4 P3'
_cell_volume   275.61619463
_cell_formula_units_Z   1
loop_
 _symmetry_equiv_pos_site_id
 _symmetry_equiv_pos_as_xyz
  1  'x, y, z'
loop_
 _atom_site_type_symbol
 _atom_site_label
 _atom_site_symmetry_multiplicity
 _atom_site_fract_x
 _atom_site_fract_y
 _atom_site_fract_z
 _atom_site_occupancy
  Mn  Mn0  1  0.00000000  0.00000000  0.00000000  1
  Mn  Mn1  1  0.50000000  0.50000000  0.50000000  1
  Sb  Sb2  1  0.25000000  0.25000000  0.25000000  1
  Sb  Sb3  1  0.75000000  0.25000000  0.00000000  1
  Sb  Sb4  1  0.25000000  0.75000000  0.50000000  1
  Sb  Sb5  1  0.77918198  0.28157976  0.52139485  1
  P  P6  1  0.77505693  0.49922771  0.81584762  1
  P  P7  1  0.93595297  0.19479903  0.31895675  1
  P  P8  1  0.02104767  0.33336020  0.00809505  1
  Li  Li9  1  0.71574791  0.02227447  0.74687361  1
