# generated using pymatgen
data_LiMn2Sb4P3
_symmetry_space_group_name_H-M   'P 1'
_cell_length_a   5.88096597
_cell_length_b   6.13479458
_cell_length_c   6.75355194
_cell_angle_alpha   95.84394972
_cell_angle_beta   92.63672433
_cell_angle_gamma   95.99236318
_symmetry_Int_Tables_number   1
_chemical_formula_structural   LiMn2Sb4P3
_chemical_formula_sum   'Li1 Mn2 Sb4 P3'
_cell_volume   240.67209473
_cell_formula_units_Z   1
loop_
 _symmetry_equiv_pos_site_id
 _symmetry_equiv_pos_as_xyz
  1  'x, y, z'
loop_
 _atom_site_type_symbol
 _atom_site_label
 _atom_site_symmetry_multiplicity
 _atom_site_fract_x
 _atom_site_fract_y
 _atom_site_fract_z
 _atom_site_occupancy
  Mn  Mn0  1  0.00000000  0.00000000  0.00000000  1
  Mn  Mn1  1  0.50000000  0.50000000  0.50000000  1
  Sb  Sb2  1  0.25000000  0.25000000  0.25000000  1
  Sb  Sb3  1  0.75000000  0.25000000  0.00000000  1
  Sb  Sb4  1  0.25000000  0.75000000  0.50000000  1
  Sb  Sb5  1  0.63795207  0.53683227  0.61691552  1
  P  P6  1  0.00093314  0.30264110  0.22101486  1
  P  P7  1  0.17335316  0.13108549  0.71816067  1
  P  P8  1  0.07986570  0.21938926  0.28813156  1
  Li  Li9  1  0.57000198  0.72667297  0.26941980  1
