# generated using pymatgen
data_LiAl3Se3(BrO)3
_symmetry_space_group_name_H-M   'P 1'
_cell_length_a   7.75934655
_cell_length_b   7.44147846
_cell_length_c   7.33889501
_cell_angle_alpha   90.00000000
_cell_angle_beta   90.00000000
_cell_angle_gamma   90.00000000
_symmetry_Int_Tables_number   1
_chemical_formula_structural   LiAl3Se3(BrO)3
_chemical_formula_sum   'Li1 Al3 Se3 Br3 O3'
_cell_volume   423.75521163
_cell_formula_units_Z   1
loop_
 _symmetry_equiv_pos_site_id
 _symmetry_equiv_pos_as_xyz
  1  'x, y, z'
loop_
 _atom_site_type_symbol
 _atom_site_label
 _atom_site_symmetry_multiplicity
 _atom_site_fract_x
 _atom_site_fract_y
 _atom_site_fract_z
 _atom_site_occupancy
  Li  Li0  1  0.12500000  0.00000000  0.25000000  1
  Br  Br1  1  0.00000000  0.00000000  0.00000000  1
  Br  Br2  1  0.37500000  0.00000000  0.25000000  1
  Br  Br3  1  0.25000000  0.25000000  0.25000000  1
  Se  Se4  1  0.00000000  0.25000000  0.12500000  1
  Se  Se5  1  0.45071533  0.21059250  0.73709190  1
  Se  Se6  1  0.68042921  0.60975886  0.38152629  1
  Al  Al7  1  0.98287824  0.17638145  0.57043150  1
  Al  Al8  1  0.32318512  0.22105005  0.01485680  1
  Al  Al9  1  0.70497622  0.89944011  0.50048679  1
  O  O10  1  0.92618294  0.90395579  0.54590503  1
  O  O11  1  0.43684548  0.07856011  0.85900573  1
  O  O12  1  0.52304174  0.21502913  0.51311095  1
