# generated using pymatgen
data_Li5ZrSeNCl2
_symmetry_space_group_name_H-M   'P 1'
_cell_length_a   3.84184680
_cell_length_b   3.48226995
_cell_length_c   6.39129825
_cell_angle_alpha   109.91688595
_cell_angle_beta   118.04752685
_cell_angle_gamma   108.76752598
_symmetry_Int_Tables_number   1
_chemical_formula_structural   Li5ZrSeNCl2
_chemical_formula_sum   'Li5 Zr1 Se1 N1 Cl2'
_cell_volume   57.75760111
_cell_formula_units_Z   1
loop_
 _symmetry_equiv_pos_site_id
 _symmetry_equiv_pos_as_xyz
  1  'x, y, z'
loop_
 _atom_site_type_symbol
 _atom_site_label
 _atom_site_symmetry_multiplicity
 _atom_site_fract_x
 _atom_site_fract_y
 _atom_site_fract_z
 _atom_site_occupancy
  Li  Li0  1  0.00000000  0.00000000  0.00000000  1
  Li  Li1  1  0.50000000  0.50000000  0.50000000  1
  Li  Li2  1  0.50000000  0.50000000  0.00000000  1
  Li  Li3  1  0.50000000  0.00000000  0.50000000  1
  Li  Li4  1  0.00000000  0.50000000  0.50000000  1
  Se  Se5  1  0.94064505  0.88819310  0.02761641  1
  Cl  Cl6  1  0.02829025  0.78581928  0.31464943  1
  Cl  Cl7  1  0.77331305  0.61322822  0.91850761  1
  N  N8  1  0.37457368  0.70783739  0.08126319  1
  Zr  Zr9  1  0.05588303  0.08519994  0.77955548  1
