# generated using pymatgen
data_Li3Ti(IO)4
_symmetry_space_group_name_H-M   'P 1'
_cell_length_a   8.47665134
_cell_length_b   8.28506190
_cell_length_c   7.66723132
_cell_angle_alpha   90.96914461
_cell_angle_beta   90.34263332
_cell_angle_gamma   91.12409043
_symmetry_Int_Tables_number   1
_chemical_formula_structural   Li3Ti(IO)4
_chemical_formula_sum   'Li3 Ti1 I4 O4'
_cell_volume   538.27507396
_cell_formula_units_Z   1
loop_
 _symmetry_equiv_pos_site_id
 _symmetry_equiv_pos_as_xyz
  1  'x, y, z'
loop_
 _atom_site_type_symbol
 _atom_site_label
 _atom_site_symmetry_multiplicity
 _atom_site_fract_x
 _atom_site_fract_y
 _atom_site_fract_z
 _atom_site_occupancy
  I  I0  1  0.12500000  0.00000000  0.25000000  1
  I  I1  1  0.00000000  0.00000000  0.00000000  1
  I  I2  1  0.37500000  0.00000000  0.25000000  1
  I  I3  1  0.25000000  0.25000000  0.25000000  1
  Li  Li4  1  0.00000000  0.25000000  0.12500000  1
  Li  Li5  1  0.52796139  0.23761826  0.22756634  1
  Li  Li6  1  0.12285110  0.74024872  0.05236160  1
  Ti  Ti7  1  0.42054521  0.89818263  0.33730150  1
  O  O8  1  0.26756902  0.76168894  0.16450101  1
  O  O9  1  0.68392980  0.08270365  0.97605104  1
  O  O10  1  0.72160114  0.78390724  0.32304923  1
  O  O11  1  0.09868684  0.86247900  0.89324790  1
