# generated using pymatgen
data_Li3Ti(NiP2)2
_symmetry_space_group_name_H-M   'P 1'
_cell_length_a   8.11877490
_cell_length_b   7.96240607
_cell_length_c   8.32915496
_cell_angle_alpha   91.15614984
_cell_angle_beta   90.73299521
_cell_angle_gamma   91.33977083
_symmetry_Int_Tables_number   1
_chemical_formula_structural   Li3Ti(NiP2)2
_chemical_formula_sum   'Li3 Ti1 Ni2 P4'
_cell_volume   538.13390002
_cell_formula_units_Z   1
loop_
 _symmetry_equiv_pos_site_id
 _symmetry_equiv_pos_as_xyz
  1  'x, y, z'
loop_
 _atom_site_type_symbol
 _atom_site_label
 _atom_site_symmetry_multiplicity
 _atom_site_fract_x
 _atom_site_fract_y
 _atom_site_fract_z
 _atom_site_occupancy
  P  P0  1  0.00000000  0.00000000  0.00000000  1
  P  P1  1  0.33300000  0.66700000  0.25000000  1
  P  P2  1  0.66700000  0.33300000  0.50000000  1
  P  P3  1  0.00000000  0.00000000  0.75000000  1
  Li  Li4  1  0.15657423  0.35691998  0.80860724  1
  Li  Li5  1  0.03533011  0.84854274  0.10303127  1
  Li  Li6  1  0.79184403  0.28939169  0.31702737  1
  Ni  Ni7  1  0.73829295  0.75588230  0.37152008  1
  Ni  Ni8  1  0.94946415  0.67123206  0.40424698  1
  Ti  Ti9  1  0.83467684  0.37187242  0.74873884  1
