# generated using pymatgen
data_Li3TiI4N5O4
_symmetry_space_group_name_H-M   'P 1'
_cell_length_a   8.48419207
_cell_length_b   8.29706367
_cell_length_c   7.72981274
_cell_angle_alpha   90.89674151
_cell_angle_beta   90.31703578
_cell_angle_gamma   91.04011160
_symmetry_Int_Tables_number   1
_chemical_formula_structural   Li3TiI4N5O4
_chemical_formula_sum   'Li3 Ti1 I4 N5 O4'
_cell_volume   543.96602723
_cell_formula_units_Z   1
loop_
 _symmetry_equiv_pos_site_id
 _symmetry_equiv_pos_as_xyz
  1  'x, y, z'
loop_
 _atom_site_type_symbol
 _atom_site_label
 _atom_site_symmetry_multiplicity
 _atom_site_fract_x
 _atom_site_fract_y
 _atom_site_fract_z
 _atom_site_occupancy
  I  I0  1  0.00000000  0.00000000  0.00000000  1
  I  I1  1  0.50000000  0.50000000  0.50000000  1
  I  I2  1  0.25000000  0.25000000  0.25000000  1
  I  I3  1  0.75000000  0.25000000  0.00000000  1
  Li  Li4  1  0.25000000  0.75000000  0.50000000  1
  Li  Li5  1  0.62754734  0.97501300  0.40490731  1
  Li  Li6  1  0.78062575  0.97016986  0.12891474  1
  Ti  Ti7  1  0.23019960  0.68437701  0.97862607  1
  O  O8  1  0.67795710  0.16210056  0.26040089  1
  O  O9  1  0.24411302  0.16454103  0.15257196  1
  O  O10  1  0.60583181  0.20550915  0.46436175  1
  O  O11  1  0.96404621  0.77295312  0.42805504  1
  N  N12  1  0.32120218  0.21117472  0.74169636  1
  N  N13  1  0.23829686  0.72226863  0.30656763  1
  N  N14  1  0.12905038  0.88012552  0.38498893  1
  N  N15  1  0.71219503  0.83491599  0.65199134  1
  N  N16  1  0.82965044  0.31193330  0.40161524  1
