# generated using pymatgen
data_Li2MnSb4Mo2P3
_symmetry_space_group_name_H-M   'P 1'
_cell_length_a   4.24262231
_cell_length_b   4.44202605
_cell_length_c   6.33150162
_cell_angle_alpha   102.69120686
_cell_angle_beta   95.14735250
_cell_angle_gamma   103.06732292
_symmetry_Int_Tables_number   1
_chemical_formula_structural   Li2MnSb4Mo2P3
_chemical_formula_sum   'Li2 Mn1 Sb4 Mo2 P3'
_cell_volume   112.16640915
_cell_formula_units_Z   1
loop_
 _symmetry_equiv_pos_site_id
 _symmetry_equiv_pos_as_xyz
  1  'x, y, z'
loop_
 _atom_site_type_symbol
 _atom_site_label
 _atom_site_symmetry_multiplicity
 _atom_site_fract_x
 _atom_site_fract_y
 _atom_site_fract_z
 _atom_site_occupancy
  Mn  Mn0  1  0.00000000  0.00000000  0.00000000  1
  Sb  Sb1  1  0.50000000  0.50000000  0.50000000  1
  Sb  Sb2  1  0.25000000  0.25000000  0.25000000  1
  Sb  Sb3  1  0.75000000  0.25000000  0.00000000  1
  Sb  Sb4  1  0.25000000  0.75000000  0.50000000  1
  P  P5  1  0.17122400  0.90631604  0.58997144  1
  P  P6  1  0.11381633  0.73703461  0.42783081  1
  P  P7  1  0.82423445  0.07379025  0.87453396  1
  Mo  Mo8  1  0.28292146  0.03559379  0.84134359  1
  Mo  Mo9  1  0.70331527  0.46184322  0.09162794  1
  Li  Li10  1  0.66661013  0.43694768  0.27690673  1
  Li  Li11  1  0.11901257  0.03082076  0.19064349  1
