# generated using pymatgen
data_LiTi2Nb2(OF)2
_symmetry_space_group_name_H-M   'P 1'
_cell_length_a   6.14877848
_cell_length_b   6.06449826
_cell_length_c   7.33295297
_cell_angle_alpha   93.60836788
_cell_angle_beta   96.97187468
_cell_angle_gamma   94.38961165
_symmetry_Int_Tables_number   1
_chemical_formula_structural   LiTi2Nb2(OF)2
_chemical_formula_sum   'Li1 Ti2 Nb2 O2 F2'
_cell_volume   269.90072346
_cell_formula_units_Z   1
loop_
 _symmetry_equiv_pos_site_id
 _symmetry_equiv_pos_as_xyz
  1  'x, y, z'
loop_
 _atom_site_type_symbol
 _atom_site_label
 _atom_site_symmetry_multiplicity
 _atom_site_fract_x
 _atom_site_fract_y
 _atom_site_fract_z
 _atom_site_occupancy
  Li  Li0  1  0.00000000  0.00000000  0.00000000  1
  Nb  Nb1  1  0.50000000  0.50000000  0.50000000  1
  Nb  Nb2  1  0.25000000  0.25000000  0.25000000  1
  F  F3  1  0.75000000  0.25000000  0.00000000  1
  F  F4  1  0.25000000  0.75000000  0.50000000  1
  Ti  Ti5  1  0.90134848  0.37375013  0.70677022  1
  Ti  Ti6  1  0.41932741  0.44482788  0.45139280  1
  O  O7  1  0.77785232  0.55859909  0.89760066  1
  O  O8  1  0.73654063  0.59003776  0.90589424  1
