# generated using pymatgen
data_LiMn2Sb4P2N
_symmetry_space_group_name_H-M   'P 1'
_cell_length_a   5.43142274
_cell_length_b   5.85554899
_cell_length_c   6.62912542
_cell_angle_alpha   97.74531073
_cell_angle_beta   94.70119703
_cell_angle_gamma   97.02099473
_symmetry_Int_Tables_number   1
_chemical_formula_structural   LiMn2Sb4P2N
_chemical_formula_sum   'Li1 Mn2 Sb4 P2 N1'
_cell_volume   206.30131229
_cell_formula_units_Z   1
loop_
 _symmetry_equiv_pos_site_id
 _symmetry_equiv_pos_as_xyz
  1  'x, y, z'
loop_
 _atom_site_type_symbol
 _atom_site_label
 _atom_site_symmetry_multiplicity
 _atom_site_fract_x
 _atom_site_fract_y
 _atom_site_fract_z
 _atom_site_occupancy
  N  N0  1  0.00000000  0.00000000  0.00000000  1
  Mn  Mn1  1  0.50000000  0.50000000  0.50000000  1
  Mn  Mn2  1  0.50000000  0.50000000  0.00000000  1
  Sb  Sb3  1  0.50000000  0.00000000  0.50000000  1
  Sb  Sb4  1  0.00000000  0.50000000  0.50000000  1
  Sb  Sb5  1  0.58472100  0.88215353  0.15540142  1
  Sb  Sb6  1  0.02030091  0.74016180  0.08329615  1
  P  P7  1  0.78534155  0.77698082  0.02983193  1
  P  P8  1  0.09627630  0.50103698  0.39645995  1
  Li  Li9  1  0.06457874  0.73708699  0.61209940  1
