# generated using pymatgen
data_Li2Ti(PO)4
_symmetry_space_group_name_H-M   'P 1'
_cell_length_a   8.20250089
_cell_length_b   8.12371516
_cell_length_c   7.18245533
_cell_angle_alpha   90.21505312
_cell_angle_beta   90.60218254
_cell_angle_gamma   89.96354437
_symmetry_Int_Tables_number   1
_chemical_formula_structural   Li2Ti(PO)4
_chemical_formula_sum   'Li2 Ti1 P4 O4'
_cell_volume   478.57144707
_cell_formula_units_Z   1
loop_
 _symmetry_equiv_pos_site_id
 _symmetry_equiv_pos_as_xyz
  1  'x, y, z'
loop_
 _atom_site_type_symbol
 _atom_site_label
 _atom_site_symmetry_multiplicity
 _atom_site_fract_x
 _atom_site_fract_y
 _atom_site_fract_z
 _atom_site_occupancy
  P  P0  1  0.12500000  0.00000000  0.25000000  1
  P  P1  1  0.00000000  0.00000000  0.00000000  1
  P  P2  1  0.37500000  0.00000000  0.25000000  1
  P  P3  1  0.25000000  0.25000000  0.25000000  1
  Li  Li4  1  0.00000000  0.25000000  0.12500000  1
  Li  Li5  1  0.59282858  0.55199905  0.37215167  1
  Ti  Ti6  1  0.70868636  0.12916739  0.06347176  1
  O  O7  1  0.33793636  0.29193035  0.54451401  1
  O  O8  1  0.04338609  0.52068224  0.42559842  1
  O  O9  1  0.15521433  0.77697900  0.72502975  1
  O  O10  1  0.83810890  0.47486125  0.11793840  1
