# generated using pymatgen
data_Li2Lu(TiP2)2
_symmetry_space_group_name_H-M   'P 1'
_cell_length_a   7.23558764
_cell_length_b   7.10202337
_cell_length_c   7.79790570
_cell_angle_alpha   93.30568827
_cell_angle_beta   93.61952500
_cell_angle_gamma   93.97163497
_symmetry_Int_Tables_number   1
_chemical_formula_structural   Li2Lu(TiP2)2
_chemical_formula_sum   'Li2 Lu1 Ti2 P4'
_cell_volume   398.17848110
_cell_formula_units_Z   1
loop_
 _symmetry_equiv_pos_site_id
 _symmetry_equiv_pos_as_xyz
  1  'x, y, z'
loop_
 _atom_site_type_symbol
 _atom_site_label
 _atom_site_symmetry_multiplicity
 _atom_site_fract_x
 _atom_site_fract_y
 _atom_site_fract_z
 _atom_site_occupancy
  P  P0  1  0.12500000  0.12500000  0.12500000  1
  P  P1  1  0.50000000  0.50000000  0.50000000  1
  P  P2  1  0.25000000  0.25000000  0.25000000  1
  P  P3  1  0.75000000  0.75000000  0.75000000  1
  Lu  Lu4  1  0.34544701  0.98191061  0.49289367  1
  Li  Li5  1  0.14230893  0.34827059  0.88132314  1
  Li  Li6  1  0.00316279  0.94149219  0.60899527  1
  Ti  Ti7  1  0.57552186  0.49384245  0.58282081  1
  Ti  Ti8  1  0.54757684  0.49524204  0.97245044  1
