# generated using pymatgen
data_Li2Al2SeBr5O2
_symmetry_space_group_name_H-M   'P 1'
_cell_length_a   7.89395383
_cell_length_b   7.13750909
_cell_length_c   7.12673806
_cell_angle_alpha   90.00000000
_cell_angle_beta   90.00000000
_cell_angle_gamma   90.00000000
_symmetry_Int_Tables_number   1
_chemical_formula_structural   Li2Al2SeBr5O2
_chemical_formula_sum   'Li2 Al2 Se1 Br5 O2'
_cell_volume   401.54299377
_cell_formula_units_Z   1
loop_
 _symmetry_equiv_pos_site_id
 _symmetry_equiv_pos_as_xyz
  1  'x, y, z'
loop_
 _atom_site_type_symbol
 _atom_site_label
 _atom_site_symmetry_multiplicity
 _atom_site_fract_x
 _atom_site_fract_y
 _atom_site_fract_z
 _atom_site_occupancy
  Li  Li0  1  0.00000000  0.00000000  0.00000000  1
  Li  Li1  1  0.50000000  0.50000000  0.50000000  1
  Br  Br2  1  0.25000000  0.25000000  0.25000000  1
  Br  Br3  1  0.75000000  0.25000000  0.00000000  1
  Br  Br4  1  0.25000000  0.75000000  0.50000000  1
  Br  Br5  1  0.77961911  0.64371050  0.43281833  1
  Br  Br6  1  0.45974219  0.84459080  0.86456235  1
  Se  Se7  1  0.17198653  0.94947006  0.13641321  1
  Al  Al8  1  0.09607365  0.32363316  0.32871830  1
  Al  Al9  1  0.54665699  0.53730152  0.60571863  1
  O  O10  1  0.77211501  0.89951384  0.25090717  1
  O  O11  1  0.52118225  0.81188536  0.18279670  1
