# generated using pymatgen
data_Li4ZrCr2As3S2
_symmetry_space_group_name_H-M   'P 1'
_cell_length_a   6.67783295
_cell_length_b   6.41449835
_cell_length_c   7.15525749
_cell_angle_alpha   90.18247827
_cell_angle_beta   93.98811673
_cell_angle_gamma   91.13811112
_symmetry_Int_Tables_number   1
_chemical_formula_structural   Li4ZrCr2As3S2
_chemical_formula_sum   'Li4 Zr1 Cr2 As3 S2'
_cell_volume   305.68938460
_cell_formula_units_Z   1
loop_
 _symmetry_equiv_pos_site_id
 _symmetry_equiv_pos_as_xyz
  1  'x, y, z'
loop_
 _atom_site_type_symbol
 _atom_site_label
 _atom_site_symmetry_multiplicity
 _atom_site_fract_x
 _atom_site_fract_y
 _atom_site_fract_z
 _atom_site_occupancy
  S  S0  1  0.12500000  0.00000000  0.25000000  1
  S  S1  1  0.00000000  0.00000000  0.00000000  1
  As  As2  1  0.37500000  0.00000000  0.25000000  1
  As  As3  1  0.25000000  0.25000000  0.25000000  1
  As  As4  1  0.00000000  0.25000000  0.12500000  1
  Li  Li5  1  0.70931215  0.84741104  0.55071196  1
  Li  Li6  1  0.21360577  0.49363248  0.85174435  1
  Li  Li7  1  0.60505642  0.78512980  0.53830175  1
  Li  Li8  1  0.97608010  0.13144199  0.16284092  1
  Zr  Zr9  1  0.80280199  0.17246437  0.23700085  1
  Cr  Cr10  1  0.44531507  0.43669959  0.91844599  1
  Cr  Cr11  1  0.03219049  0.00473570  0.52583547  1
