# generated using pymatgen
data_Li2TiP5O2
_symmetry_space_group_name_H-M   'P 1'
_cell_length_a   8.02922952
_cell_length_b   7.91549253
_cell_length_c   7.60560243
_cell_angle_alpha   90.21976495
_cell_angle_beta   91.04557489
_cell_angle_gamma   90.25125002
_symmetry_Int_Tables_number   1
_chemical_formula_structural   Li2TiP5O2
_chemical_formula_sum   'Li2 Ti1 P5 O2'
_cell_volume   483.28755501
_cell_formula_units_Z   1
loop_
 _symmetry_equiv_pos_site_id
 _symmetry_equiv_pos_as_xyz
  1  'x, y, z'
loop_
 _atom_site_type_symbol
 _atom_site_label
 _atom_site_symmetry_multiplicity
 _atom_site_fract_x
 _atom_site_fract_y
 _atom_site_fract_z
 _atom_site_occupancy
  P  P0  1  0.00000000  0.00000000  0.00000000  1
  P  P1  1  0.33300000  0.66700000  0.25000000  1
  P  P2  1  0.66700000  0.33300000  0.50000000  1
  P  P3  1  0.00000000  0.00000000  0.75000000  1
  P  P4  1  0.42361466  0.88037233  0.46027357  1
  Li  Li5  1  0.12239354  0.82770095  0.53784042  1
  Li  Li6  1  0.88730904  0.81607613  0.88396526  1
  Ti  Ti7  1  0.61297121  0.52456943  0.60292417  1
  O  O8  1  0.45099183  0.80578451  0.47865192  1
  O  O9  1  0.93418758  0.01994713  0.48383601  1
