# generated using pymatgen
data_LiAs3S
_symmetry_space_group_name_H-M   'P 1'
_cell_length_a   6.38394281
_cell_length_b   6.18258842
_cell_length_c   7.40229165
_cell_angle_alpha   92.92328763
_cell_angle_beta   95.55614907
_cell_angle_gamma   92.78632700
_symmetry_Int_Tables_number   1
_chemical_formula_structural   LiAs3S
_chemical_formula_sum   'Li2 As6 S2'
_cell_volume   289.99043392
_cell_formula_units_Z   2
loop_
 _symmetry_equiv_pos_site_id
 _symmetry_equiv_pos_as_xyz
  1  'x, y, z'
loop_
 _atom_site_type_symbol
 _atom_site_label
 _atom_site_symmetry_multiplicity
 _atom_site_fract_x
 _atom_site_fract_y
 _atom_site_fract_z
 _atom_site_occupancy
  S  S0  1  0.12500000  0.12500000  0.12500000  1
  S  S1  1  0.50000000  0.50000000  0.50000000  1
  As  As2  1  0.25000000  0.25000000  0.25000000  1
  As  As3  1  0.75000000  0.75000000  0.75000000  1
  As  As4  1  0.11851352  0.41812598  0.62627162  1
  As  As5  1  0.03432829  0.73277380  0.90218704  1
  As  As6  1  0.30106494  0.57341677  0.38932097  1
  As  As7  1  0.76797373  0.39999396  0.09381578  1
  Li  Li8  1  0.73127190  0.96648609  0.99851139  1
  Li  Li9  1  0.34491587  0.38397550  0.30404240  1
