# generated using pymatgen
data_Li3As6I4N5
_symmetry_space_group_name_H-M   'P 1'
_cell_length_a   7.73908731
_cell_length_b   7.58855134
_cell_length_c   8.21101122
_cell_angle_alpha   92.62702722
_cell_angle_beta   92.86243928
_cell_angle_gamma   92.70863302
_symmetry_Int_Tables_number   1
_chemical_formula_structural   Li3As6I4N5
_chemical_formula_sum   'Li3 As6 I4 N5'
_cell_volume   480.51863837
_cell_formula_units_Z   1
loop_
 _symmetry_equiv_pos_site_id
 _symmetry_equiv_pos_as_xyz
  1  'x, y, z'
loop_
 _atom_site_type_symbol
 _atom_site_label
 _atom_site_symmetry_multiplicity
 _atom_site_fract_x
 _atom_site_fract_y
 _atom_site_fract_z
 _atom_site_occupancy
  I  I0  1  0.00000000  0.00000000  0.00000000  1
  I  I1  1  0.50000000  0.50000000  0.50000000  1
  I  I2  1  0.25000000  0.25000000  0.25000000  1
  I  I3  1  0.75000000  0.25000000  0.00000000  1
  Li  Li4  1  0.25000000  0.75000000  0.50000000  1
  Li  Li5  1  0.55863706  0.07395001  0.92718017  1
  Li  Li6  1  0.83226615  0.16644620  0.25347020  1
  As  As7  1  0.63976591  0.85173975  0.15570260  1
  As  As8  1  0.25074298  0.98355161  0.14215920  1
  As  As9  1  0.45893236  0.82303508  0.14887955  1
  As  As10  1  0.23777992  0.41644999  0.17561948  1
  As  As11  1  0.94121121  0.04407741  0.20903973  1
  As  As12  1  0.06801022  0.83608436  0.47840763  1
  N  N13  1  0.94462372  0.19852488  0.12296745  1
  N  N14  1  0.88750467  0.85405315  0.10279777  1
  N  N15  1  0.59663652  0.07365495  0.91335370  1
  N  N16  1  0.63058513  0.94500893  0.10079968  1
  N  N17  1  0.21034725  0.93969109  0.31275686  1
