# generated using pymatgen
data_Li2Sb4Mo2P2N
_symmetry_space_group_name_H-M   'P 1'
_cell_length_a   4.88397584
_cell_length_b   5.20635115
_cell_length_c   6.35078201
_cell_angle_alpha   101.21033391
_cell_angle_beta   94.86392532
_cell_angle_gamma   99.98905174
_symmetry_Int_Tables_number   1
_chemical_formula_structural   Li2Sb4Mo2P2N
_chemical_formula_sum   'Li2 Sb4 Mo2 P2 N1'
_cell_volume   154.82498964
_cell_formula_units_Z   1
loop_
 _symmetry_equiv_pos_site_id
 _symmetry_equiv_pos_as_xyz
  1  'x, y, z'
loop_
 _atom_site_type_symbol
 _atom_site_label
 _atom_site_symmetry_multiplicity
 _atom_site_fract_x
 _atom_site_fract_y
 _atom_site_fract_z
 _atom_site_occupancy
  N  N0  1  0.00000000  0.00000000  0.00000000  1
  Sb  Sb1  1  0.50000000  0.50000000  0.50000000  1
  Sb  Sb2  1  0.50000000  0.50000000  0.00000000  1
  Sb  Sb3  1  0.50000000  0.00000000  0.50000000  1
  Sb  Sb4  1  0.00000000  0.50000000  0.50000000  1
  P  P5  1  0.33574873  0.93256920  0.32044010  1
  P  P6  1  0.81194771  0.09795542  0.16884010  1
  Mo  Mo7  1  0.51234395  0.07690583  0.01503537  1
  Mo  Mo8  1  0.65267288  0.33989916  0.39158605  1
  Li  Li9  1  0.52411330  0.17154974  0.45691910  1
  Li  Li10  1  0.00878141  0.24380186  0.41849861  1
