# generated using pymatgen
data_LiMn2Mo2P3
_symmetry_space_group_name_H-M   'P 1'
_cell_length_a   6.38775289
_cell_length_b   6.85380394
_cell_length_c   7.01355424
_cell_angle_alpha   92.15908085
_cell_angle_beta   92.00303176
_cell_angle_gamma   92.21189252
_symmetry_Int_Tables_number   1
_chemical_formula_structural   LiMn2Mo2P3
_chemical_formula_sum   'Li1 Mn2 Mo2 P3'
_cell_volume   306.40579410
_cell_formula_units_Z   1
loop_
 _symmetry_equiv_pos_site_id
 _symmetry_equiv_pos_as_xyz
  1  'x, y, z'
loop_
 _atom_site_type_symbol
 _atom_site_label
 _atom_site_symmetry_multiplicity
 _atom_site_fract_x
 _atom_site_fract_y
 _atom_site_fract_z
 _atom_site_occupancy
  Mn  Mn0  1  0.12500000  0.12500000  0.12500000  1
  Mn  Mn1  1  0.50000000  0.50000000  0.50000000  1
  P  P2  1  0.25000000  0.25000000  0.25000000  1
  P  P3  1  0.75000000  0.75000000  0.75000000  1
  P  P4  1  0.84616836  0.16868027  0.43211891  1
  Mo  Mo5  1  0.49295576  0.86674439  0.43058217  1
  Mo  Mo6  1  0.33820221  0.27244867  0.26019900  1
  Li  Li7  1  0.01545464  0.77804579  0.12843595  1
