# generated using pymatgen
data_Li2MnSb4P3N
_symmetry_space_group_name_H-M   'P 1'
_cell_length_a   4.15857832
_cell_length_b   4.26604707
_cell_length_c   5.72959020
_cell_angle_alpha   101.07663222
_cell_angle_beta   97.01471108
_cell_angle_gamma   99.89193320
_symmetry_Int_Tables_number   1
_chemical_formula_structural   Li2MnSb4P3N
_chemical_formula_sum   'Li2 Mn1 Sb4 P3 N1'
_cell_volume   96.99700044
_cell_formula_units_Z   1
loop_
 _symmetry_equiv_pos_site_id
 _symmetry_equiv_pos_as_xyz
  1  'x, y, z'
loop_
 _atom_site_type_symbol
 _atom_site_label
 _atom_site_symmetry_multiplicity
 _atom_site_fract_x
 _atom_site_fract_y
 _atom_site_fract_z
 _atom_site_occupancy
  N  N0  1  0.00000000  0.00000000  0.00000000  1
  Mn  Mn1  1  0.50000000  0.50000000  0.50000000  1
  Sb  Sb2  1  0.50000000  0.50000000  0.00000000  1
  Sb  Sb3  1  0.50000000  0.00000000  0.50000000  1
  Sb  Sb4  1  0.00000000  0.50000000  0.50000000  1
  Sb  Sb5  1  0.49332788  0.72215994  0.55279752  1
  P  P6  1  0.08108770  0.05826171  0.35371801  1
  P  P7  1  0.93973532  0.16947249  0.37911353  1
  P  P8  1  0.24107542  0.74366489  0.03677254  1
  Li  Li9  1  0.28634710  0.07947196  0.14263430  1
  Li  Li10  1  0.70553961  0.21941365  0.82072974  1
