# generated using pymatgen
data_Li3TiNi2I4O5
_symmetry_space_group_name_H-M   'P 1'
_cell_length_a   8.16907871
_cell_length_b   8.01553447
_cell_length_c   8.40703122
_cell_angle_alpha   90.99810179
_cell_angle_beta   90.63279326
_cell_angle_gamma   91.15662141
_symmetry_Int_Tables_number   1
_chemical_formula_structural   Li3TiNi2I4O5
_chemical_formula_sum   'Li3 Ti1 Ni2 I4 O5'
_cell_volume   550.25704397
_cell_formula_units_Z   1
loop_
 _symmetry_equiv_pos_site_id
 _symmetry_equiv_pos_as_xyz
  1  'x, y, z'
loop_
 _atom_site_type_symbol
 _atom_site_label
 _atom_site_symmetry_multiplicity
 _atom_site_fract_x
 _atom_site_fract_y
 _atom_site_fract_z
 _atom_site_occupancy
  I  I0  1  0.00000000  0.00000000  0.00000000  1
  I  I1  1  0.50000000  0.50000000  0.50000000  1
  I  I2  1  0.50000000  0.50000000  0.00000000  1
  I  I3  1  0.50000000  0.00000000  0.50000000  1
  Li  Li4  1  0.00000000  0.50000000  0.50000000  1
  Li  Li5  1  0.42351183  0.33076889  0.93207335  1
  Li  Li6  1  0.58222063  0.64253633  0.59860307  1
  Ni  Ni7  1  0.18824872  0.02910839  0.41574437  1
  Ni  Ni8  1  0.95016718  0.37304588  0.73649331  1
  Ti  Ti9  1  0.89418772  0.53541068  0.27376849  1
  O  O10  1  0.12476587  0.50867470  0.16462905  1
  O  O11  1  0.84321041  0.76313601  0.26731039  1
  O  O12  1  0.16685651  0.54847638  0.17353634  1
  O  O13  1  0.20924987  0.60025510  0.00035331  1
  O  O14  1  0.02137658  0.62238718  0.80020234  1
