# generated using pymatgen
data_Li3LuSeO4
_symmetry_space_group_name_H-M   'P 1'
_cell_length_a   5.55883064
_cell_length_b   5.27349654
_cell_length_c   7.45723174
_cell_angle_alpha   101.56759974
_cell_angle_beta   104.33122252
_cell_angle_gamma   101.06023233
_symmetry_Int_Tables_number   1
_chemical_formula_structural   Li3LuSeO4
_chemical_formula_sum   'Li3 Lu1 Se1 O4'
_cell_volume   200.67322285
_cell_formula_units_Z   1
loop_
 _symmetry_equiv_pos_site_id
 _symmetry_equiv_pos_as_xyz
  1  'x, y, z'
loop_
 _atom_site_type_symbol
 _atom_site_label
 _atom_site_symmetry_multiplicity
 _atom_site_fract_x
 _atom_site_fract_y
 _atom_site_fract_z
 _atom_site_occupancy
  Lu  Lu0  1  0.00000000  0.00000000  0.00000000  1
  Li  Li1  1  0.50000000  0.50000000  0.50000000  1
  Li  Li2  1  0.25000000  0.25000000  0.25000000  1
  Li  Li3  1  0.75000000  0.25000000  0.00000000  1
  Se  Se4  1  0.25000000  0.75000000  0.50000000  1
  O  O5  1  0.06801404  0.53568384  0.36768788  1
  O  O6  1  0.08144881  0.97978866  0.46830381  1
  O  O7  1  0.15534755  0.72230228  0.63478686  1
  O  O8  1  0.90846918  0.81093741  0.47377093  1
