# generated using pymatgen
data_Li2Mo2P3
_symmetry_space_group_name_H-M   'P 1'
_cell_length_a   3.42978029
_cell_length_b   3.55823477
_cell_length_c   6.11353386
_cell_angle_alpha   105.25765547
_cell_angle_beta   96.90685706
_cell_angle_gamma   105.80990465
_symmetry_Int_Tables_number   1
_chemical_formula_structural   Li2Mo2P3
_chemical_formula_sum   'Li2 Mo2 P3'
_cell_volume   67.75967200
_cell_formula_units_Z   1
loop_
 _symmetry_equiv_pos_site_id
 _symmetry_equiv_pos_as_xyz
  1  'x, y, z'
loop_
 _atom_site_type_symbol
 _atom_site_label
 _atom_site_symmetry_multiplicity
 _atom_site_fract_x
 _atom_site_fract_y
 _atom_site_fract_z
 _atom_site_occupancy
  P  P0  1  0.12500000  0.12500000  0.12500000  1
  P  P1  1  0.50000000  0.50000000  0.50000000  1
  P  P2  1  0.25000000  0.25000000  0.25000000  1
  Mo  Mo3  1  0.75000000  0.75000000  0.75000000  1
  Mo  Mo4  1  0.59643335  0.04619052  0.39503489  1
  Li  Li5  1  0.84006314  0.46757720  0.96052370  1
  Li  Li6  1  0.56739522  0.60560020  0.33304236  1
