# generated using pymatgen
data_Li2Mn3Sb4P3
_symmetry_space_group_name_H-M   'P 1'
_cell_length_a   6.23420745
_cell_length_b   6.70530686
_cell_length_c   6.85340387
_cell_angle_alpha   96.33125652
_cell_angle_beta   90.31628908
_cell_angle_gamma   96.20532780
_symmetry_Int_Tables_number   1
_chemical_formula_structural   Li2Mn3Sb4P3
_chemical_formula_sum   'Li2 Mn3 Sb4 P3'
_cell_volume   283.02814385
_cell_formula_units_Z   1
loop_
 _symmetry_equiv_pos_site_id
 _symmetry_equiv_pos_as_xyz
  1  'x, y, z'
loop_
 _atom_site_type_symbol
 _atom_site_label
 _atom_site_symmetry_multiplicity
 _atom_site_fract_x
 _atom_site_fract_y
 _atom_site_fract_z
 _atom_site_occupancy
  Mn  Mn0  1  0.00000000  0.00000000  0.00000000  1
  Mn  Mn1  1  0.33300000  0.66700000  0.25000000  1
  Mn  Mn2  1  0.66700000  0.33300000  0.50000000  1
  Sb  Sb3  1  0.00000000  0.00000000  0.75000000  1
  Sb  Sb4  1  0.15196785  0.24713067  0.63052681  1
  Sb  Sb5  1  0.36827558  0.38836908  0.98006426  1
  Sb  Sb6  1  0.24584256  0.01764795  0.39002108  1
  P  P7  1  0.32344020  0.93844568  0.30207418  1
  P  P8  1  0.08081083  0.11098967  0.22723089  1
  P  P9  1  0.32177556  0.12421777  0.30773796  1
  Li  Li10  1  0.37186691  0.38615352  0.28856351  1
  Li  Li11  1  0.34559519  0.81959162  0.73287499  1
