# generated using pymatgen
data_Li2Cu2Ni2As6O7
_symmetry_space_group_name_H-M   'P 1'
_cell_length_a   7.62061085
_cell_length_b   7.61745669
_cell_length_c   8.76190737
_cell_angle_alpha   91.09814815
_cell_angle_beta   91.62075265
_cell_angle_gamma   91.26907003
_symmetry_Int_Tables_number   1
_chemical_formula_structural   Li2Cu2Ni2As6O7
_chemical_formula_sum   'Li2 Cu2 Ni2 As6 O7'
_cell_volume   508.19797571
_cell_formula_units_Z   1
loop_
 _symmetry_equiv_pos_site_id
 _symmetry_equiv_pos_as_xyz
  1  'x, y, z'
loop_
 _atom_site_type_symbol
 _atom_site_label
 _atom_site_symmetry_multiplicity
 _atom_site_fract_x
 _atom_site_fract_y
 _atom_site_fract_z
 _atom_site_occupancy
  Ni  Ni0  1  0.00000000  0.00000000  0.00000000  1
  Ni  Ni1  1  0.50000000  0.50000000  0.50000000  1
  O  O2  1  0.25000000  0.25000000  0.25000000  1
  O  O3  1  0.75000000  0.25000000  0.00000000  1
  O  O4  1  0.25000000  0.75000000  0.50000000  1
  O  O5  1  0.09994111  0.73079522  0.44190402  1
  O  O6  1  0.35693838  0.02227907  0.07402895  1
  O  O7  1  0.54413021  0.82033214  0.55332247  1
  O  O8  1  0.89316617  0.90340169  0.47041737  1
  As  As9  1  0.17355198  0.98716792  0.54717305  1
  As  As10  1  0.47001149  0.04430171  0.87560042  1
  As  As11  1  0.74999937  0.15634232  0.53796567  1
  As  As12  1  0.08897692  0.96982517  0.13887439  1
  As  As13  1  0.00488043  0.23064336  0.42110530  1
  As  As14  1  0.48767935  0.24464506  0.66828944  1
  Li  Li15  1  0.39961502  0.80942194  0.09073947  1
  Li  Li16  1  0.77249251  0.28544757  0.24616711  1
  Cu  Cu17  1  0.39622106  0.30274669  0.53950246  1
  Cu  Cu18  1  0.42528242  0.30676561  0.28432371  1
