# generated using pymatgen
data_Li3TiAs6P3Cl2
_symmetry_space_group_name_H-M   'P 1'
_cell_length_a   7.19748631
_cell_length_b   7.20463848
_cell_length_c   7.89162479
_cell_angle_alpha   93.26931823
_cell_angle_beta   95.29209282
_cell_angle_gamma   93.14055033
_symmetry_Int_Tables_number   1
_chemical_formula_structural   Li3TiAs6P3Cl2
_chemical_formula_sum   'Li3 Ti1 As6 P3 Cl2'
_cell_volume   406.07219701
_cell_formula_units_Z   1
loop_
 _symmetry_equiv_pos_site_id
 _symmetry_equiv_pos_as_xyz
  1  'x, y, z'
loop_
 _atom_site_type_symbol
 _atom_site_label
 _atom_site_symmetry_multiplicity
 _atom_site_fract_x
 _atom_site_fract_y
 _atom_site_fract_z
 _atom_site_occupancy
  P  P0  1  0.00000000  0.00000000  0.00000000  1
  P  P1  1  0.50000000  0.50000000  0.50000000  1
  P  P2  1  0.25000000  0.25000000  0.25000000  1
  Li  Li3  1  0.75000000  0.25000000  0.00000000  1
  Li  Li4  1  0.25000000  0.75000000  0.50000000  1
  Li  Li5  1  0.47658856  0.88190889  0.04457443  1
  Cl  Cl6  1  0.85476858  0.86257152  0.79923762  1
  Cl  Cl7  1  0.24714294  0.81034826  0.99537180  1
  Ti  Ti8  1  0.40757641  0.76809843  0.16795975  1
  As  As9  1  0.28380270  0.00570980  0.45419275  1
  As  As10  1  0.14772790  0.71912643  0.70720332  1
  As  As11  1  0.32784642  0.65684321  0.75382162  1
  As  As12  1  0.10173800  0.33900119  0.23970887  1
  As  As13  1  0.38683354  0.59165076  0.48806791  1
  As  As14  1  0.87038842  0.68279806  0.02927918  1
