# generated using pymatgen
data_Li2MnSb4Mo2P3
_symmetry_space_group_name_H-M   'P 1'
_cell_length_a   4.72705932
_cell_length_b   5.02867336
_cell_length_c   6.55991298
_cell_angle_alpha   100.49752201
_cell_angle_beta   94.72976371
_cell_angle_gamma   100.87437736
_symmetry_Int_Tables_number   1
_chemical_formula_structural   Li2MnSb4Mo2P3
_chemical_formula_sum   'Li2 Mn1 Sb4 Mo2 P3'
_cell_volume   149.46536137
_cell_formula_units_Z   1
loop_
 _symmetry_equiv_pos_site_id
 _symmetry_equiv_pos_as_xyz
  1  'x, y, z'
loop_
 _atom_site_type_symbol
 _atom_site_label
 _atom_site_symmetry_multiplicity
 _atom_site_fract_x
 _atom_site_fract_y
 _atom_site_fract_z
 _atom_site_occupancy
  Mn  Mn0  1  0.12500000  0.00000000  0.25000000  1
  Sb  Sb1  1  0.00000000  0.00000000  0.00000000  1
  Sb  Sb2  1  0.37500000  0.00000000  0.25000000  1
  Sb  Sb3  1  0.25000000  0.25000000  0.25000000  1
  Sb  Sb4  1  0.00000000  0.25000000  0.12500000  1
  P  P5  1  0.98133461  0.71625830  0.64259650  1
  P  P6  1  0.50306138  0.93973696  0.34319805  1
  P  P7  1  0.45857970  0.00336331  0.35172683  1
  Mo  Mo8  1  0.24585125  0.34564147  0.69554415  1
  Mo  Mo9  1  0.45465234  0.06930068  0.26131482  1
  Li  Li10  1  0.24641095  0.79904050  0.04653768  1
  Li  Li11  1  0.59446084  0.32298438  0.35879545  1
