# generated using pymatgen
data_Li2Mn2Sb4P3
_symmetry_space_group_name_H-M   'P 1'
_cell_length_a   6.83200767
_cell_length_b   7.30178012
_cell_length_c   7.41325325
_cell_angle_alpha   92.45012439
_cell_angle_beta   92.08770618
_cell_angle_gamma   92.67508703
_symmetry_Int_Tables_number   1
_chemical_formula_structural   Li2Mn2Sb4P3
_chemical_formula_sum   'Li2 Mn2 Sb4 P3'
_cell_volume   368.80183013
_cell_formula_units_Z   1
loop_
 _symmetry_equiv_pos_site_id
 _symmetry_equiv_pos_as_xyz
  1  'x, y, z'
loop_
 _atom_site_type_symbol
 _atom_site_label
 _atom_site_symmetry_multiplicity
 _atom_site_fract_x
 _atom_site_fract_y
 _atom_site_fract_z
 _atom_site_occupancy
  Mn  Mn0  1  0.12500000  0.00000000  0.25000000  1
  Mn  Mn1  1  0.00000000  0.00000000  0.00000000  1
  Sb  Sb2  1  0.37500000  0.00000000  0.25000000  1
  Sb  Sb3  1  0.25000000  0.25000000  0.25000000  1
  Sb  Sb4  1  0.00000000  0.25000000  0.12500000  1
  Sb  Sb5  1  0.90995487  0.86663180  0.07046348  1
  P  P6  1  0.02985378  0.91226164  0.17348972  1
  P  P7  1  0.85027372  0.77794894  0.28403407  1
  P  P8  1  0.83667437  0.59612581  0.99383297  1
  Li  Li9  1  0.25766591  0.34202095  0.46905119  1
  Li  Li10  1  0.11597329  0.27758982  0.63485154  1
