# generated using pymatgen
data_LiTi2P6F2
_symmetry_space_group_name_H-M   'P 1'
_cell_length_a   7.27149748
_cell_length_b   7.09458041
_cell_length_c   7.65943031
_cell_angle_alpha   90.80981952
_cell_angle_beta   93.85287533
_cell_angle_gamma   90.92583995
_symmetry_Int_Tables_number   1
_chemical_formula_structural   LiTi2P6F2
_chemical_formula_sum   'Li1 Ti2 P6 F2'
_cell_volume   394.14600488
_cell_formula_units_Z   1
loop_
 _symmetry_equiv_pos_site_id
 _symmetry_equiv_pos_as_xyz
  1  'x, y, z'
loop_
 _atom_site_type_symbol
 _atom_site_label
 _atom_site_symmetry_multiplicity
 _atom_site_fract_x
 _atom_site_fract_y
 _atom_site_fract_z
 _atom_site_occupancy
  P  P0  1  0.12500000  0.00000000  0.25000000  1
  P  P1  1  0.00000000  0.00000000  0.00000000  1
  P  P2  1  0.37500000  0.00000000  0.25000000  1
  P  P3  1  0.25000000  0.25000000  0.25000000  1
  P  P4  1  0.00000000  0.25000000  0.12500000  1
  P  P5  1  0.56692903  0.81115725  0.28484160  1
  Li  Li6  1  0.50492207  0.23324198  0.42585274  1
  F  F7  1  0.32387133  0.82021911  0.09857987  1
  F  F8  1  0.19456289  0.16998300  0.87158956  1
  Ti  Ti9  1  0.86267240  0.72571801  0.92301485  1
  Ti  Ti10  1  0.94223382  0.07542132  0.27518177  1
