# generated using pymatgen
data_Li3Lu(NiAs3)2
_symmetry_space_group_name_H-M   'P 1'
_cell_length_a   8.33033496
_cell_length_b   8.14668078
_cell_length_c   7.81190743
_cell_angle_alpha   91.14673698
_cell_angle_beta   90.53438762
_cell_angle_gamma   91.32958962
_symmetry_Int_Tables_number   1
_chemical_formula_structural   Li3Lu(NiAs3)2
_chemical_formula_sum   'Li3 Lu1 Ni2 As6'
_cell_volume   529.87750179
_cell_formula_units_Z   1
loop_
 _symmetry_equiv_pos_site_id
 _symmetry_equiv_pos_as_xyz
  1  'x, y, z'
loop_
 _atom_site_type_symbol
 _atom_site_label
 _atom_site_symmetry_multiplicity
 _atom_site_fract_x
 _atom_site_fract_y
 _atom_site_fract_z
 _atom_site_occupancy
  Lu  Lu0  1  0.00000000  0.00000000  0.00000000  1
  Li  Li1  1  0.50000000  0.50000000  0.50000000  1
  Li  Li2  1  0.25000000  0.25000000  0.25000000  1
  Li  Li3  1  0.75000000  0.25000000  0.00000000  1
  Ni  Ni4  1  0.25000000  0.75000000  0.50000000  1
  Ni  Ni5  1  0.61380045  0.76070744  0.17223211  1
  As  As6  1  0.52588773  0.81065976  0.81681405  1
  As  As7  1  0.12804981  0.48586641  0.21987047  1
  As  As8  1  0.06349798  0.96225009  0.19545730  1
  As  As9  1  0.34047698  0.70038976  0.82802968  1
  As  As10  1  0.88354002  0.83276949  0.25892018  1
  As  As11  1  0.66129190  0.26350295  0.48059441  1
