# generated using pymatgen
data_Li2As6P5O7
_symmetry_space_group_name_H-M   'P 1'
_cell_length_a   7.29353475
_cell_length_b   6.99321145
_cell_length_c   7.89598078
_cell_angle_alpha   92.10919111
_cell_angle_beta   92.86069868
_cell_angle_gamma   92.18213450
_symmetry_Int_Tables_number   1
_chemical_formula_structural   Li2As6P5O7
_chemical_formula_sum   'Li2 As6 P5 O7'
_cell_volume   401.64039322
_cell_formula_units_Z   1
loop_
 _symmetry_equiv_pos_site_id
 _symmetry_equiv_pos_as_xyz
  1  'x, y, z'
loop_
 _atom_site_type_symbol
 _atom_site_label
 _atom_site_symmetry_multiplicity
 _atom_site_fract_x
 _atom_site_fract_y
 _atom_site_fract_z
 _atom_site_occupancy
  P  P0  1  0.12500000  0.00000000  0.25000000  1
  P  P1  1  0.00000000  0.00000000  0.00000000  1
  P  P2  1  0.37500000  0.00000000  0.25000000  1
  P  P3  1  0.25000000  0.25000000  0.25000000  1
  P  P4  1  0.00000000  0.25000000  0.12500000  1
  Li  Li5  1  0.59972058  0.97206727  0.99579960  1
  Li  Li6  1  0.40702833  0.74639646  0.19277002  1
  As  As7  1  0.78129272  0.51435600  0.30337080  1
  As  As8  1  0.13704995  0.45977706  0.81767505  1
  As  As9  1  0.49851433  0.57219162  0.80802021  1
  As  As10  1  0.88393226  0.07183964  0.08648451  1
  As  As11  1  0.50888857  0.16119595  0.45551579  1
  As  As12  1  0.33217507  0.04623200  0.38753995  1
  O  O13  1  0.08679451  0.00078446  0.97059378  1
  O  O14  1  0.51325585  0.02054682  0.08195983  1
  O  O15  1  0.85289121  0.32395862  0.56149874  1
  O  O16  1  0.87935215  0.96977523  0.72652016  1
  O  O17  1  0.35211617  0.21759391  0.97764151  1
  O  O18  1  0.84646005  0.80032214  0.12011148  1
  O  O19  1  0.70707329  0.00598511  0.02488083  1
