# generated using pymatgen
data_Li2TiP4(O2F)2
_symmetry_space_group_name_H-M   'P 1'
_cell_length_a   7.78420438
_cell_length_b   7.63296223
_cell_length_c   7.28674988
_cell_angle_alpha   90.80126835
_cell_angle_beta   91.62850677
_cell_angle_gamma   90.54081682
_symmetry_Int_Tables_number   1
_chemical_formula_structural   Li2TiP4(O2F)2
_chemical_formula_sum   'Li2 Ti1 P4 O4 F2'
_cell_volume   432.71530599
_cell_formula_units_Z   1
loop_
 _symmetry_equiv_pos_site_id
 _symmetry_equiv_pos_as_xyz
  1  'x, y, z'
loop_
 _atom_site_type_symbol
 _atom_site_label
 _atom_site_symmetry_multiplicity
 _atom_site_fract_x
 _atom_site_fract_y
 _atom_site_fract_z
 _atom_site_occupancy
  P  P0  1  0.00000000  0.00000000  0.00000000  1
  P  P1  1  0.50000000  0.50000000  0.50000000  1
  P  P2  1  0.50000000  0.50000000  0.00000000  1
  P  P3  1  0.50000000  0.00000000  0.50000000  1
  Li  Li4  1  0.00000000  0.50000000  0.50000000  1
  Li  Li5  1  0.91575058  0.80343864  0.16585660  1
  F  F6  1  0.76905583  0.36784869  0.31605216  1
  F  F7  1  0.82711763  0.08944067  0.37948359  1
  Ti  Ti8  1  0.97053927  0.32584988  0.46455443  1
  O  O9  1  0.91314047  0.45724862  0.86293438  1
  O  O10  1  0.53695639  0.12244725  0.29437620  1
  O  O11  1  0.89683307  0.12392871  0.08504517  1
  O  O12  1  0.69227936  0.00726225  0.64731604  1
