# generated using pymatgen
data_Li2Mn2Sb4Mo2P3
_symmetry_space_group_name_H-M   'P 1'
_cell_length_a   6.71391996
_cell_length_b   7.19092065
_cell_length_c   7.23351705
_cell_angle_alpha   93.57732623
_cell_angle_beta   91.18320874
_cell_angle_gamma   93.64606311
_symmetry_Int_Tables_number   1
_chemical_formula_structural   Li2Mn2Sb4Mo2P3
_chemical_formula_sum   'Li2 Mn2 Sb4 Mo2 P3'
_cell_volume   347.73667368
_cell_formula_units_Z   1
loop_
 _symmetry_equiv_pos_site_id
 _symmetry_equiv_pos_as_xyz
  1  'x, y, z'
loop_
 _atom_site_type_symbol
 _atom_site_label
 _atom_site_symmetry_multiplicity
 _atom_site_fract_x
 _atom_site_fract_y
 _atom_site_fract_z
 _atom_site_occupancy
  Mn  Mn0  1  0.00000000  0.00000000  0.00000000  1
  Mn  Mn1  1  0.50000000  0.50000000  0.50000000  1
  Sb  Sb2  1  0.25000000  0.25000000  0.25000000  1
  Sb  Sb3  1  0.75000000  0.25000000  0.00000000  1
  Sb  Sb4  1  0.25000000  0.75000000  0.50000000  1
  Sb  Sb5  1  0.55526996  0.73462003  0.85005356  1
  P  P6  1  0.25075216  0.22589729  0.90369570  1
  P  P7  1  0.28012141  0.63059853  0.66062329  1
  P  P8  1  0.10965087  0.67366593  0.56901268  1
  Mo  Mo9  1  0.98920670  0.35869088  0.00418204  1
  Mo  Mo10  1  0.65529683  0.73892577  0.04541094  1
  Li  Li11  1  0.33806001  0.01711271  0.70832924  1
  Li  Li12  1  0.33712825  0.56348129  0.75538916  1
