# generated using pymatgen
data_Li3Ti2O4F3
_symmetry_space_group_name_H-M   'P 1'
_cell_length_a   6.35509301
_cell_length_b   6.09479170
_cell_length_c   7.51564352
_cell_angle_alpha   97.13800089
_cell_angle_beta   98.87478681
_cell_angle_gamma   96.86299268
_symmetry_Int_Tables_number   1
_chemical_formula_structural   Li3Ti2O4F3
_chemical_formula_sum   'Li3 Ti2 O4 F3'
_cell_volume   282.51977997
_cell_formula_units_Z   1
loop_
 _symmetry_equiv_pos_site_id
 _symmetry_equiv_pos_as_xyz
  1  'x, y, z'
loop_
 _atom_site_type_symbol
 _atom_site_label
 _atom_site_symmetry_multiplicity
 _atom_site_fract_x
 _atom_site_fract_y
 _atom_site_fract_z
 _atom_site_occupancy
  Li  Li0  1  0.12500000  0.12500000  0.12500000  1
  Li  Li1  1  0.50000000  0.50000000  0.50000000  1
  Li  Li2  1  0.25000000  0.25000000  0.25000000  1
  F  F3  1  0.75000000  0.75000000  0.75000000  1
  F  F4  1  0.20262963  0.65030696  0.97857123  1
  F  F5  1  0.42190665  0.60974724  0.58645298  1
  Ti  Ti6  1  0.85763156  0.40537320  0.60234321  1
  Ti  Ti7  1  0.13519526  0.06851364  0.24608644  1
  O  O8  1  0.23686610  0.76982272  0.86187354  1
  O  O9  1  0.82266405  0.16209382  0.11918089  1
  O  O10  1  0.28598357  0.90044933  0.46929751  1
  O  O11  1  0.51026160  0.34088332  0.58352655  1
