# generated using pymatgen
data_Li3TiCu2O3F2
_symmetry_space_group_name_H-M   'P 1'
_cell_length_a   5.26563090
_cell_length_b   5.21918272
_cell_length_c   6.78961243
_cell_angle_alpha   101.20062675
_cell_angle_beta   105.03089560
_cell_angle_gamma   101.81539230
_symmetry_Int_Tables_number   1
_chemical_formula_structural   Li3TiCu2O3F2
_chemical_formula_sum   'Li3 Ti1 Cu2 O3 F2'
_cell_volume   170.24661285
_cell_formula_units_Z   1
loop_
 _symmetry_equiv_pos_site_id
 _symmetry_equiv_pos_as_xyz
  1  'x, y, z'
loop_
 _atom_site_type_symbol
 _atom_site_label
 _atom_site_symmetry_multiplicity
 _atom_site_fract_x
 _atom_site_fract_y
 _atom_site_fract_z
 _atom_site_occupancy
  Li  Li0  1  0.00000000  0.00000000  0.00000000  1
  Li  Li1  1  0.50000000  0.50000000  0.50000000  1
  Li  Li2  1  0.25000000  0.25000000  0.25000000  1
  Cu  Cu3  1  0.75000000  0.25000000  0.00000000  1
  Cu  Cu4  1  0.25000000  0.75000000  0.50000000  1
  F  F5  1  0.57750940  0.84970246  0.15934388  1
  F  F6  1  0.12683649  0.63806435  0.22314221  1
  Ti  Ti7  1  0.40988244  0.85270212  0.17154956  1
  O  O8  1  0.48065850  0.71297158  0.34080355  1
  O  O9  1  0.38939602  0.46504837  0.62109856  1
  O  O10  1  0.57306375  0.44325828  0.12606925  1
