# generated using pymatgen
data_LiCuNiP2
_symmetry_space_group_name_H-M   'P 1'
_cell_length_a   7.51977544
_cell_length_b   7.42468944
_cell_length_c   8.16009849
_cell_angle_alpha   91.34922393
_cell_angle_beta   91.73757944
_cell_angle_gamma   91.56018170
_symmetry_Int_Tables_number   1
_chemical_formula_structural   LiCuNiP2
_chemical_formula_sum   'Li2 Cu2 Ni2 P4'
_cell_volume   455.08084665
_cell_formula_units_Z   2
loop_
 _symmetry_equiv_pos_site_id
 _symmetry_equiv_pos_as_xyz
  1  'x, y, z'
loop_
 _atom_site_type_symbol
 _atom_site_label
 _atom_site_symmetry_multiplicity
 _atom_site_fract_x
 _atom_site_fract_y
 _atom_site_fract_z
 _atom_site_occupancy
  P  P0  1  0.00000000  0.00000000  0.00000000  1
  P  P1  1  0.33300000  0.66700000  0.25000000  1
  P  P2  1  0.66700000  0.33300000  0.50000000  1
  P  P3  1  0.00000000  0.00000000  0.75000000  1
  Li  Li4  1  0.79559262  0.93468251  0.13842332  1
  Li  Li5  1  0.71087939  0.21302153  0.70453981  1
  Cu  Cu6  1  0.88297410  0.88749977  0.96030011  1
  Cu  Cu7  1  0.01512569  0.35346238  0.51546055  1
  Ni  Ni8  1  0.54582190  0.71584674  0.46690888  1
  Ni  Ni9  1  0.30288931  0.05301700  0.25681610  1
