# generated using pymatgen
data_Li2TiI4O3
_symmetry_space_group_name_H-M   'P 1'
_cell_length_a   8.60168873
_cell_length_b   8.48538846
_cell_length_c   7.24380650
_cell_angle_alpha   90.07755180
_cell_angle_beta   90.36896790
_cell_angle_gamma   90.08866241
_symmetry_Int_Tables_number   1
_chemical_formula_structural   Li2TiI4O3
_chemical_formula_sum   'Li2 Ti1 I4 O3'
_cell_volume   528.70371724
_cell_formula_units_Z   1
loop_
 _symmetry_equiv_pos_site_id
 _symmetry_equiv_pos_as_xyz
  1  'x, y, z'
loop_
 _atom_site_type_symbol
 _atom_site_label
 _atom_site_symmetry_multiplicity
 _atom_site_fract_x
 _atom_site_fract_y
 _atom_site_fract_z
 _atom_site_occupancy
  I  I0  1  0.00000000  0.00000000  0.00000000  1
  I  I1  1  0.33300000  0.66700000  0.25000000  1
  I  I2  1  0.66700000  0.33300000  0.50000000  1
  I  I3  1  0.00000000  0.00000000  0.75000000  1
  Li  Li4  1  0.43860545  0.63968155  0.16304027  1
  Li  Li5  1  0.86382254  0.66404268  0.30161297  1
  Ti  Ti6  1  0.06379627  0.12387614  0.90699554  1
  O  O7  1  0.80457625  0.16790190  0.33997112  1
  O  O8  1  0.62217730  0.75808042  0.60085061  1
  O  O9  1  0.02004628  0.38080299  0.86888265  1
