# generated using pymatgen
data_LiTi2P3S2
_symmetry_space_group_name_H-M   'P 1'
_cell_length_a   6.13834730
_cell_length_b   5.93939670
_cell_length_c   7.26995403
_cell_angle_alpha   92.89955865
_cell_angle_beta   96.38362559
_cell_angle_gamma   92.82177433
_symmetry_Int_Tables_number   1
_chemical_formula_structural   LiTi2P3S2
_chemical_formula_sum   'Li1 Ti2 P3 S2'
_cell_volume   262.66590180
_cell_formula_units_Z   1
loop_
 _symmetry_equiv_pos_site_id
 _symmetry_equiv_pos_as_xyz
  1  'x, y, z'
loop_
 _atom_site_type_symbol
 _atom_site_label
 _atom_site_symmetry_multiplicity
 _atom_site_fract_x
 _atom_site_fract_y
 _atom_site_fract_z
 _atom_site_occupancy
  P  P0  1  0.00000000  0.00000000  0.00000000  1
  P  P1  1  0.33300000  0.66700000  0.25000000  1
  P  P2  1  0.66700000  0.33300000  0.50000000  1
  Li  Li3  1  0.00000000  0.00000000  0.75000000  1
  S  S4  1  0.98436905  0.89365185  0.33043173  1
  S  S5  1  0.77487657  0.94969893  0.80777453  1
  Ti  Ti6  1  0.63180627  0.19303312  0.33372481  1
  Ti  Ti7  1  0.83146013  0.59018471  0.38823225  1
