# generated using pymatgen
data_Li2Ti(IO)4
_symmetry_space_group_name_H-M   'P 1'
_cell_length_a   8.54676486
_cell_length_b   8.29582755
_cell_length_c   7.77068992
_cell_angle_alpha   90.11969352
_cell_angle_beta   90.56946541
_cell_angle_gamma   90.13684165
_symmetry_Int_Tables_number   1
_chemical_formula_structural   Li2Ti(IO)4
_chemical_formula_sum   'Li2 Ti1 I4 O4'
_cell_volume   550.93123066
_cell_formula_units_Z   1
loop_
 _symmetry_equiv_pos_site_id
 _symmetry_equiv_pos_as_xyz
  1  'x, y, z'
loop_
 _atom_site_type_symbol
 _atom_site_label
 _atom_site_symmetry_multiplicity
 _atom_site_fract_x
 _atom_site_fract_y
 _atom_site_fract_z
 _atom_site_occupancy
  I  I0  1  0.00000000  0.00000000  0.00000000  1
  I  I1  1  0.50000000  0.50000000  0.50000000  1
  I  I2  1  0.50000000  0.50000000  0.00000000  1
  I  I3  1  0.50000000  0.00000000  0.50000000  1
  Li  Li4  1  0.00000000  0.50000000  0.50000000  1
  Li  Li5  1  0.31158650  0.29563868  0.95210160  1
  Ti  Ti6  1  0.92261243  0.54989085  0.03741328  1
  O  O7  1  0.96982785  0.78107710  0.90264713  1
  O  O8  1  0.52784588  0.29007049  0.36417767  1
  O  O9  1  0.83087499  0.88738126  0.01215796  1
  O  O10  1  0.68312802  0.71362269  0.42566196  1
