# generated using pymatgen
data_Li3Ti2SeI4O3
_symmetry_space_group_name_H-M   'P 1'
_cell_length_a   7.87433945
_cell_length_b   7.67808235
_cell_length_c   7.13725581
_cell_angle_alpha   90.00000000
_cell_angle_beta   90.00000000
_cell_angle_gamma   90.00000000
_symmetry_Int_Tables_number   1
_chemical_formula_structural   Li3Ti2SeI4O3
_chemical_formula_sum   'Li3 Ti2 Se1 I4 O3'
_cell_volume   431.51724987
_cell_formula_units_Z   1
loop_
 _symmetry_equiv_pos_site_id
 _symmetry_equiv_pos_as_xyz
  1  'x, y, z'
loop_
 _atom_site_type_symbol
 _atom_site_label
 _atom_site_symmetry_multiplicity
 _atom_site_fract_x
 _atom_site_fract_y
 _atom_site_fract_z
 _atom_site_occupancy
  I  I0  1  0.12500000  0.00000000  0.25000000  1
  I  I1  1  0.00000000  0.00000000  0.00000000  1
  I  I2  1  0.37500000  0.00000000  0.25000000  1
  I  I3  1  0.25000000  0.25000000  0.25000000  1
  Li  Li4  1  0.00000000  0.25000000  0.12500000  1
  Li  Li5  1  0.08790154  0.19880034  0.48627974  1
  Li  Li6  1  0.92601210  0.58305497  0.33661343  1
  Se  Se7  1  0.75050737  0.54813539  0.72478431  1
  Ti  Ti8  1  0.90003197  0.22967764  0.72172524  1
  Ti  Ti9  1  0.69406667  0.50078454  0.72329098  1
  O  O10  1  0.27984284  0.16869175  0.23255335  1
  O  O11  1  0.79210584  0.23807336  0.58357855  1
  O  O12  1  0.72327915  0.91352065  0.26479483  1
