# generated using pymatgen
data_LiMn3Sb4P3
_symmetry_space_group_name_H-M   'P 1'
_cell_length_a   5.49480247
_cell_length_b   5.82704484
_cell_length_c   6.41134805
_cell_angle_alpha   96.49676747
_cell_angle_beta   91.14657413
_cell_angle_gamma   96.64136272
_symmetry_Int_Tables_number   1
_chemical_formula_structural   LiMn3Sb4P3
_chemical_formula_sum   'Li1 Mn3 Sb4 P3'
_cell_volume   202.48058573
_cell_formula_units_Z   1
loop_
 _symmetry_equiv_pos_site_id
 _symmetry_equiv_pos_as_xyz
  1  'x, y, z'
loop_
 _atom_site_type_symbol
 _atom_site_label
 _atom_site_symmetry_multiplicity
 _atom_site_fract_x
 _atom_site_fract_y
 _atom_site_fract_z
 _atom_site_occupancy
  Mn  Mn0  1  0.00000000  0.00000000  0.00000000  1
  Mn  Mn1  1  0.50000000  0.50000000  0.50000000  1
  Mn  Mn2  1  0.25000000  0.25000000  0.25000000  1
  Sb  Sb3  1  0.75000000  0.25000000  0.00000000  1
  Sb  Sb4  1  0.25000000  0.75000000  0.50000000  1
  Sb  Sb5  1  0.85619308  0.95471589  0.83398819  1
  Sb  Sb6  1  0.09303768  0.38074020  0.96770694  1
  P  P7  1  0.98410904  0.84850607  0.67148022  1
  P  P8  1  0.66648573  0.65091534  0.22103584  1
  P  P9  1  0.04659133  0.96791484  0.26491264  1
  Li  Li10  1  0.46540561  0.67428334  0.58457176  1
