# generated using pymatgen
data_LiMnSb4Mo2P3
_symmetry_space_group_name_H-M   'P 1'
_cell_length_a   4.18705397
_cell_length_b   4.35786074
_cell_length_c   6.06116094
_cell_angle_alpha   103.19050781
_cell_angle_beta   93.43706443
_cell_angle_gamma   103.36691326
_symmetry_Int_Tables_number   1
_chemical_formula_structural   LiMnSb4Mo2P3
_chemical_formula_sum   'Li1 Mn1 Sb4 Mo2 P3'
_cell_volume   104.01645641
_cell_formula_units_Z   1
loop_
 _symmetry_equiv_pos_site_id
 _symmetry_equiv_pos_as_xyz
  1  'x, y, z'
loop_
 _atom_site_type_symbol
 _atom_site_label
 _atom_site_symmetry_multiplicity
 _atom_site_fract_x
 _atom_site_fract_y
 _atom_site_fract_z
 _atom_site_occupancy
  Mn  Mn0  1  0.00000000  0.00000000  0.00000000  1
  Sb  Sb1  1  0.50000000  0.50000000  0.50000000  1
  Sb  Sb2  1  0.50000000  0.50000000  0.00000000  1
  Sb  Sb3  1  0.50000000  0.00000000  0.50000000  1
  Sb  Sb4  1  0.00000000  0.50000000  0.50000000  1
  P  P5  1  0.83462621  0.51950505  0.43793150  1
  P  P6  1  0.61104872  0.44318712  0.67350990  1
  P  P7  1  0.71319226  0.45773203  0.61399998  1
  Mo  Mo8  1  0.31567158  0.68656146  0.74212469  1
  Mo  Mo9  1  0.96055497  0.04191991  0.36259444  1
  Li  Li10  1  0.12499020  0.78300733  0.15966529  1
