# generated using pymatgen
data_Li2Mn2Mo2P2N
_symmetry_space_group_name_H-M   'P 1'
_cell_length_a   4.41789862
_cell_length_b   4.65267362
_cell_length_c   6.17929338
_cell_angle_alpha   103.18551371
_cell_angle_beta   93.87242794
_cell_angle_gamma   102.80587804
_symmetry_Int_Tables_number   1
_chemical_formula_structural   Li2Mn2Mo2P2N
_chemical_formula_sum   'Li2 Mn2 Mo2 P2 N1'
_cell_volume   119.65452532
_cell_formula_units_Z   1
loop_
 _symmetry_equiv_pos_site_id
 _symmetry_equiv_pos_as_xyz
  1  'x, y, z'
loop_
 _atom_site_type_symbol
 _atom_site_label
 _atom_site_symmetry_multiplicity
 _atom_site_fract_x
 _atom_site_fract_y
 _atom_site_fract_z
 _atom_site_occupancy
  N  N0  1  0.00000000  0.00000000  0.00000000  1
  Mn  Mn1  1  0.50000000  0.50000000  0.50000000  1
  Mn  Mn2  1  0.25000000  0.25000000  0.25000000  1
  P  P3  1  0.75000000  0.25000000  0.00000000  1
  P  P4  1  0.25000000  0.75000000  0.50000000  1
  Mo  Mo5  1  0.60914344  0.30712438  0.12423160  1
  Mo  Mo6  1  0.23378731  0.37171648  0.16360770  1
  Li  Li7  1  0.21904391  0.68810753  0.44926193  1
  Li  Li8  1  0.15658980  0.95853997  0.62352038  1
