# generated using pymatgen
data_Li2MnSb4P3
_symmetry_space_group_name_H-M   'P 1'
_cell_length_a   6.63551304
_cell_length_b   6.94513493
_cell_length_c   7.48710809
_cell_angle_alpha   92.85222976
_cell_angle_beta   93.37872970
_cell_angle_gamma   93.24618963
_symmetry_Int_Tables_number   1
_chemical_formula_structural   Li2MnSb4P3
_chemical_formula_sum   'Li2 Mn1 Sb4 P3'
_cell_volume   343.39907979
_cell_formula_units_Z   1
loop_
 _symmetry_equiv_pos_site_id
 _symmetry_equiv_pos_as_xyz
  1  'x, y, z'
loop_
 _atom_site_type_symbol
 _atom_site_label
 _atom_site_symmetry_multiplicity
 _atom_site_fract_x
 _atom_site_fract_y
 _atom_site_fract_z
 _atom_site_occupancy
  Mn  Mn0  1  0.12500000  0.12500000  0.12500000  1
  Sb  Sb1  1  0.50000000  0.50000000  0.50000000  1
  Sb  Sb2  1  0.25000000  0.25000000  0.25000000  1
  Sb  Sb3  1  0.75000000  0.75000000  0.75000000  1
  Sb  Sb4  1  0.70599316  0.70048831  0.72814499  1
  P  P5  1  0.42937877  0.50198199  0.22976152  1
  P  P6  1  0.99948892  0.15099814  0.48445857  1
  P  P7  1  0.85297391  0.70955935  0.08950015  1
  Li  Li8  1  0.12273618  0.94497422  0.98993980  1
  Li  Li9  1  0.71195028  0.33226207  0.13144912  1
