# generated using pymatgen
data_Li2TiMn3(Sb2P)2
_symmetry_space_group_name_H-M   'P 1'
_cell_length_a   6.36163369
_cell_length_b   6.15432815
_cell_length_c   6.68199998
_cell_angle_alpha   91.06118913
_cell_angle_beta   91.99229670
_cell_angle_gamma   93.12442740
_symmetry_Int_Tables_number   1
_chemical_formula_structural   Li2TiMn3(Sb2P)2
_chemical_formula_sum   'Li2 Ti1 Mn3 Sb4 P2'
_cell_volume   261.00944483
_cell_formula_units_Z   1
loop_
 _symmetry_equiv_pos_site_id
 _symmetry_equiv_pos_as_xyz
  1  'x, y, z'
loop_
 _atom_site_type_symbol
 _atom_site_label
 _atom_site_symmetry_multiplicity
 _atom_site_fract_x
 _atom_site_fract_y
 _atom_site_fract_z
 _atom_site_occupancy
  Ti  Ti0  1  0.12500000  0.00000000  0.25000000  1
  Mn  Mn1  1  0.00000000  0.00000000  0.00000000  1
  Mn  Mn2  1  0.37500000  0.00000000  0.25000000  1
  Mn  Mn3  1  0.25000000  0.25000000  0.25000000  1
  Sb  Sb4  1  0.00000000  0.25000000  0.12500000  1
  Sb  Sb5  1  0.14032943  0.14621180  0.17532171  1
  Sb  Sb6  1  0.84412583  0.73660958  0.15614985  1
  Sb  Sb7  1  0.99861215  0.44726133  0.36027887  1
  P  P8  1  0.32662541  0.35623635  0.22596110  1
  P  P9  1  0.83641112  0.41504533  0.07298380  1
  Li  Li10  1  0.84887718  0.01605069  0.01894381  1
  Li  Li11  1  0.57047037  0.32625130  0.94976692  1
