# generated using pymatgen
data_Li3TiI4O3
_symmetry_space_group_name_H-M   'P 1'
_cell_length_a   7.29757048
_cell_length_b   7.04561810
_cell_length_c   7.64254395
_cell_angle_alpha   94.91368909
_cell_angle_beta   95.42368154
_cell_angle_gamma   94.86701151
_symmetry_Int_Tables_number   1
_chemical_formula_structural   Li3TiI4O3
_chemical_formula_sum   'Li3 Ti1 I4 O3'
_cell_volume   388.03654321
_cell_formula_units_Z   1
loop_
 _symmetry_equiv_pos_site_id
 _symmetry_equiv_pos_as_xyz
  1  'x, y, z'
loop_
 _atom_site_type_symbol
 _atom_site_label
 _atom_site_symmetry_multiplicity
 _atom_site_fract_x
 _atom_site_fract_y
 _atom_site_fract_z
 _atom_site_occupancy
  I  I0  1  0.00000000  0.00000000  0.00000000  1
  I  I1  1  0.50000000  0.50000000  0.50000000  1
  I  I2  1  0.25000000  0.25000000  0.25000000  1
  I  I3  1  0.75000000  0.25000000  0.00000000  1
  Li  Li4  1  0.25000000  0.75000000  0.50000000  1
  Li  Li5  1  0.98295821  0.01026932  0.25599665  1
  Li  Li6  1  0.23000561  0.01557850  0.12358776  1
  Ti  Ti7  1  0.73267252  0.25934956  0.75251023  1
  O  O8  1  0.73572516  0.53460992  0.16058541  1
  O  O9  1  0.43148560  0.91599597  0.49211503  1
  O  O10  1  0.79183501  0.66710595  0.92190788  1
