# generated using pymatgen
data_Li2Mn4Sb4P3
_symmetry_space_group_name_H-M   'P 1'
_cell_length_a   5.26259592
_cell_length_b   5.64457157
_cell_length_c   6.80725801
_cell_angle_alpha   98.15029257
_cell_angle_beta   94.35896801
_cell_angle_gamma   98.53852602
_symmetry_Int_Tables_number   1
_chemical_formula_structural   Li2Mn4Sb4P3
_chemical_formula_sum   'Li2 Mn4 Sb4 P3'
_cell_volume   196.97399480
_cell_formula_units_Z   1
loop_
 _symmetry_equiv_pos_site_id
 _symmetry_equiv_pos_as_xyz
  1  'x, y, z'
loop_
 _atom_site_type_symbol
 _atom_site_label
 _atom_site_symmetry_multiplicity
 _atom_site_fract_x
 _atom_site_fract_y
 _atom_site_fract_z
 _atom_site_occupancy
  Mn  Mn0  1  0.12500000  0.00000000  0.25000000  1
  Mn  Mn1  1  0.00000000  0.00000000  0.00000000  1
  Mn  Mn2  1  0.37500000  0.00000000  0.25000000  1
  Mn  Mn3  1  0.25000000  0.25000000  0.25000000  1
  Sb  Sb4  1  0.00000000  0.25000000  0.12500000  1
  Sb  Sb5  1  0.52708869  0.39987650  0.84072245  1
  Sb  Sb6  1  0.63426419  0.05857999  0.68183356  1
  Sb  Sb7  1  0.26873328  0.21908587  0.91239073  1
  P  P8  1  0.99416274  0.56171034  0.12994005  1
  P  P9  1  0.19495182  0.00967434  0.06467465  1
  P  P10  1  0.14752411  0.62480940  0.11474870  1
  Li  Li11  1  0.61851655  0.96725741  0.46868263  1
  Li  Li12  1  0.66849758  0.34999519  0.36291523  1
