# generated using pymatgen
data_Li3Cu2Ni2As6O7
_symmetry_space_group_name_H-M   'P 1'
_cell_length_a   7.63191851
_cell_length_b   7.42784055
_cell_length_c   8.47762725
_cell_angle_alpha   91.69459604
_cell_angle_beta   91.28524125
_cell_angle_gamma   91.96293827
_symmetry_Int_Tables_number   1
_chemical_formula_structural   Li3Cu2Ni2As6O7
_chemical_formula_sum   'Li3 Cu2 Ni2 As6 O7'
_cell_volume   479.96116616
_cell_formula_units_Z   1
loop_
 _symmetry_equiv_pos_site_id
 _symmetry_equiv_pos_as_xyz
  1  'x, y, z'
loop_
 _atom_site_type_symbol
 _atom_site_label
 _atom_site_symmetry_multiplicity
 _atom_site_fract_x
 _atom_site_fract_y
 _atom_site_fract_z
 _atom_site_occupancy
  Li  Li0  1  0.00000000  0.00000000  0.00000000  1
  Li  Li1  1  0.50000000  0.50000000  0.50000000  1
  Li  Li2  1  0.50000000  0.50000000  0.00000000  1
  Cu  Cu3  1  0.50000000  0.00000000  0.50000000  1
  Cu  Cu4  1  0.00000000  0.50000000  0.50000000  1
  Ni  Ni5  1  0.76760303  0.12138815  0.54887496  1
  Ni  Ni6  1  0.49844635  0.41683621  0.64477740  1
  As  As7  1  0.70988005  0.32004803  0.76176895  1
  As  As8  1  0.58793785  0.81234182  0.30230546  1
  As  As9  1  0.02986872  0.43052179  0.25316399  1
  As  As10  1  0.62494593  0.57143903  0.94757808  1
  As  As11  1  0.48557901  0.80290716  0.29989129  1
  As  As12  1  0.21323986  0.01879726  0.32424182  1
  O  O13  1  0.43991494  0.30388944  0.77947329  1
  O  O14  1  0.50334228  0.60137964  0.52381818  1
  O  O15  1  0.10402060  0.76380184  0.22258356  1
  O  O16  1  0.55840002  0.10162824  0.08923472  1
  O  O17  1  0.14296251  0.12682455  0.56678353  1
  O  O18  1  0.43268343  0.51539083  0.12092724  1
  O  O19  1  0.71612184  0.05091698  0.84631331  1
