# generated using pymatgen
data_Li3TiAs6I4N5
_symmetry_space_group_name_H-M   'P 1'
_cell_length_a   8.18442472
_cell_length_b   7.96669103
_cell_length_c   8.61668454
_cell_angle_alpha   91.21070939
_cell_angle_beta   90.42803661
_cell_angle_gamma   91.40427633
_symmetry_Int_Tables_number   1
_chemical_formula_structural   Li3TiAs6I4N5
_chemical_formula_sum   'Li3 Ti1 As6 I4 N5'
_cell_volume   561.51974707
_cell_formula_units_Z   1
loop_
 _symmetry_equiv_pos_site_id
 _symmetry_equiv_pos_as_xyz
  1  'x, y, z'
loop_
 _atom_site_type_symbol
 _atom_site_label
 _atom_site_symmetry_multiplicity
 _atom_site_fract_x
 _atom_site_fract_y
 _atom_site_fract_z
 _atom_site_occupancy
  I  I0  1  0.00000000  0.00000000  0.00000000  1
  I  I1  1  0.50000000  0.50000000  0.50000000  1
  I  I2  1  0.25000000  0.25000000  0.25000000  1
  I  I3  1  0.75000000  0.25000000  0.00000000  1
  Li  Li4  1  0.25000000  0.75000000  0.50000000  1
  Li  Li5  1  0.88289699  0.93880725  0.63375569  1
  Li  Li6  1  0.63820003  0.06084803  0.54459072  1
  Ti  Ti7  1  0.62694313  0.48869919  0.87123118  1
  As  As8  1  0.54222598  0.98121922  0.23068642  1
  As  As9  1  0.39931471  0.76816823  0.75620223  1
  As  As10  1  0.45814560  0.46914456  0.63585958  1
  As  As11  1  0.08331280  0.84085152  0.30177017  1
  As  As12  1  0.35206754  0.12618627  0.79120068  1
  As  As13  1  0.18903154  0.13588031  0.55577236  1
  N  N14  1  0.55149131  0.48790191  0.99866915  1
  N  N15  1  0.84893253  0.18875755  0.62560562  1
  N  N16  1  0.03683955  0.63445411  0.29194322  1
  N  N17  1  0.99931162  0.11812199  0.74021201  1
  N  N18  1  0.80662484  0.15152993  0.18582237  1
