# generated using pymatgen
data_Li2Mn(Sb2P)2
_symmetry_space_group_name_H-M   'P 1'
_cell_length_a   5.32578020
_cell_length_b   5.73306735
_cell_length_c   6.79412278
_cell_angle_alpha   97.89512336
_cell_angle_beta   96.08745682
_cell_angle_gamma   97.24456167
_symmetry_Int_Tables_number   1
_chemical_formula_structural   Li2Mn(Sb2P)2
_chemical_formula_sum   'Li2 Mn1 Sb4 P2'
_cell_volume   202.22569697
_cell_formula_units_Z   1
loop_
 _symmetry_equiv_pos_site_id
 _symmetry_equiv_pos_as_xyz
  1  'x, y, z'
loop_
 _atom_site_type_symbol
 _atom_site_label
 _atom_site_symmetry_multiplicity
 _atom_site_fract_x
 _atom_site_fract_y
 _atom_site_fract_z
 _atom_site_occupancy
  Mn  Mn0  1  0.12500000  0.12500000  0.12500000  1
  Sb  Sb1  1  0.50000000  0.50000000  0.50000000  1
  Sb  Sb2  1  0.25000000  0.25000000  0.25000000  1
  Sb  Sb3  1  0.75000000  0.75000000  0.75000000  1
  Sb  Sb4  1  0.33773355  0.67581775  0.15122194  1
  P  P5  1  0.82325210  0.62140024  0.49882699  1
  P  P6  1  0.87446537  0.53566805  0.38207166  1
  Li  Li7  1  0.81313615  0.24390270  0.85235488  1
  Li  Li8  1  0.24945803  0.81531649  0.72499750  1
