# generated using pymatgen
data_LiMnSb4Mo2P3
_symmetry_space_group_name_H-M   'P 1'
_cell_length_a   6.22936725
_cell_length_b   6.13919468
_cell_length_c   6.83014595
_cell_angle_alpha   93.67289912
_cell_angle_beta   90.89645200
_cell_angle_gamma   93.44764505
_symmetry_Int_Tables_number   1
_chemical_formula_structural   LiMnSb4Mo2P3
_chemical_formula_sum   'Li1 Mn1 Sb4 Mo2 P3'
_cell_volume   260.14917812
_cell_formula_units_Z   1
loop_
 _symmetry_equiv_pos_site_id
 _symmetry_equiv_pos_as_xyz
  1  'x, y, z'
loop_
 _atom_site_type_symbol
 _atom_site_label
 _atom_site_symmetry_multiplicity
 _atom_site_fract_x
 _atom_site_fract_y
 _atom_site_fract_z
 _atom_site_occupancy
  Mn  Mn0  1  0.00000000  0.00000000  0.00000000  1
  Sb  Sb1  1  0.50000000  0.50000000  0.50000000  1
  Sb  Sb2  1  0.50000000  0.50000000  0.00000000  1
  Sb  Sb3  1  0.50000000  0.00000000  0.50000000  1
  Sb  Sb4  1  0.00000000  0.50000000  0.50000000  1
  P  P5  1  0.64203098  0.28839681  0.40279734  1
  P  P6  1  0.26343481  0.72422398  0.46303702  1
  P  P7  1  0.93094747  0.91510662  0.83280193  1
  Mo  Mo8  1  0.51845049  0.21019665  0.90616939  1
  Mo  Mo9  1  0.96655324  0.46757836  0.79537582  1
  Li  Li10  1  0.10530030  0.89442020  0.35077302  1
