# generated using pymatgen
data_LiMn2Sb2P3
_symmetry_space_group_name_H-M   'P 1'
_cell_length_a   5.62759113
_cell_length_b   5.98615346
_cell_length_c   6.56247492
_cell_angle_alpha   94.03686729
_cell_angle_beta   92.38836130
_cell_angle_gamma   94.36146666
_symmetry_Int_Tables_number   1
_chemical_formula_structural   LiMn2Sb2P3
_chemical_formula_sum   'Li1 Mn2 Sb2 P3'
_cell_volume   219.64117111
_cell_formula_units_Z   1
loop_
 _symmetry_equiv_pos_site_id
 _symmetry_equiv_pos_as_xyz
  1  'x, y, z'
loop_
 _atom_site_type_symbol
 _atom_site_label
 _atom_site_symmetry_multiplicity
 _atom_site_fract_x
 _atom_site_fract_y
 _atom_site_fract_z
 _atom_site_occupancy
  Mn  Mn0  1  0.12500000  0.12500000  0.12500000  1
  Mn  Mn1  1  0.50000000  0.50000000  0.50000000  1
  Sb  Sb2  1  0.25000000  0.25000000  0.25000000  1
  Sb  Sb3  1  0.75000000  0.75000000  0.75000000  1
  P  P4  1  0.15596207  0.57480357  0.65402628  1
  P  P5  1  0.25218982  0.94699572  0.64100222  1
  P  P6  1  0.93593146  0.30422487  0.90294884  1
  Li  Li7  1  0.75942999  0.89772072  0.89401354  1
