# generated using pymatgen
data_LiMn(AlP)2
_symmetry_space_group_name_H-M   'P 1'
_cell_length_a   4.15466251
_cell_length_b   4.64092372
_cell_length_c   6.77994390
_cell_angle_alpha   99.43625068
_cell_angle_beta   101.17811082
_cell_angle_gamma   100.73961835
_symmetry_Int_Tables_number   1
_chemical_formula_structural   LiMn(AlP)2
_chemical_formula_sum   'Li1 Mn1 Al2 P2'
_cell_volume   123.25640356
_cell_formula_units_Z   1
loop_
 _symmetry_equiv_pos_site_id
 _symmetry_equiv_pos_as_xyz
  1  'x, y, z'
loop_
 _atom_site_type_symbol
 _atom_site_label
 _atom_site_symmetry_multiplicity
 _atom_site_fract_x
 _atom_site_fract_y
 _atom_site_fract_z
 _atom_site_occupancy
  Al  Al0  1  0.00000000  0.00000000  0.00000000  1
  Al  Al1  1  0.50000000  0.50000000  0.50000000  1
  Mn  Mn2  1  0.25000000  0.25000000  0.25000000  1
  P  P3  1  0.75000000  0.25000000  0.00000000  1
  P  P4  1  0.25000000  0.75000000  0.50000000  1
  Li  Li5  1  0.24536153  0.11967237  0.78190885  1
