# generated using pymatgen
data_Li2Mn2Sb4P3
_symmetry_space_group_name_H-M   'P 1'
_cell_length_a   5.40566444
_cell_length_b   5.83659681
_cell_length_c   7.06860778
_cell_angle_alpha   96.34003396
_cell_angle_beta   95.89439973
_cell_angle_gamma   96.99069751
_symmetry_Int_Tables_number   1
_chemical_formula_structural   Li2Mn2Sb4P3
_chemical_formula_sum   'Li2 Mn2 Sb4 P3'
_cell_volume   218.47774069
_cell_formula_units_Z   1
loop_
 _symmetry_equiv_pos_site_id
 _symmetry_equiv_pos_as_xyz
  1  'x, y, z'
loop_
 _atom_site_type_symbol
 _atom_site_label
 _atom_site_symmetry_multiplicity
 _atom_site_fract_x
 _atom_site_fract_y
 _atom_site_fract_z
 _atom_site_occupancy
  Mn  Mn0  1  0.00000000  0.00000000  0.00000000  1
  Mn  Mn1  1  0.33300000  0.66700000  0.25000000  1
  Sb  Sb2  1  0.66700000  0.33300000  0.50000000  1
  Sb  Sb3  1  0.00000000  0.00000000  0.75000000  1
  Sb  Sb4  1  0.58833670  0.35144163  0.55899090  1
  Sb  Sb5  1  0.19803955  0.39016720  0.53396792  1
  P  P6  1  0.79998575  0.70618005  0.03321185  1
  P  P7  1  0.39453674  0.00144778  0.87078287  1
  P  P8  1  0.02438690  0.23601909  0.97166043  1
  Li  Li9  1  0.24838950  0.85930014  0.11672765  1
  Li  Li10  1  0.09653208  0.99117295  0.68349801  1
