# generated using pymatgen
data_LiMn2Sb4Mo2P3
_symmetry_space_group_name_H-M   'P 1'
_cell_length_a   6.23577660
_cell_length_b   6.64169121
_cell_length_c   6.95149753
_cell_angle_alpha   93.57895830
_cell_angle_beta   91.81333754
_cell_angle_gamma   93.60684184
_symmetry_Int_Tables_number   1
_chemical_formula_structural   LiMn2Sb4Mo2P3
_chemical_formula_sum   'Li1 Mn2 Sb4 Mo2 P3'
_cell_volume   286.59036782
_cell_formula_units_Z   1
loop_
 _symmetry_equiv_pos_site_id
 _symmetry_equiv_pos_as_xyz
  1  'x, y, z'
loop_
 _atom_site_type_symbol
 _atom_site_label
 _atom_site_symmetry_multiplicity
 _atom_site_fract_x
 _atom_site_fract_y
 _atom_site_fract_z
 _atom_site_occupancy
  Mn  Mn0  1  0.00000000  0.00000000  0.00000000  1
  Mn  Mn1  1  0.50000000  0.50000000  0.50000000  1
  Sb  Sb2  1  0.50000000  0.50000000  0.00000000  1
  Sb  Sb3  1  0.50000000  0.00000000  0.50000000  1
  Sb  Sb4  1  0.00000000  0.50000000  0.50000000  1
  Sb  Sb5  1  0.29104362  0.53475602  0.14106426  1
  P  P6  1  0.67549844  0.76235305  0.32283094  1
  P  P7  1  0.96231578  0.28150431  0.51464256  1
  P  P8  1  0.97112594  0.90486125  0.91866845  1
  Mo  Mo9  1  0.89203551  0.14408854  0.32062696  1
  Mo  Mo10  1  0.03929964  0.34885675  0.86586354  1
  Li  Li11  1  0.87445595  0.17472282  0.12731710  1
