# generated using pymatgen
data_Li3TiNi2(IO)4
_symmetry_space_group_name_H-M   'P 1'
_cell_length_a   8.75794213
_cell_length_b   8.63366990
_cell_length_c   7.72272496
_cell_angle_alpha   90.00000000
_cell_angle_beta   90.00000000
_cell_angle_gamma   90.00000000
_symmetry_Int_Tables_number   1
_chemical_formula_structural   Li3TiNi2(IO)4
_chemical_formula_sum   'Li3 Ti1 Ni2 I4 O4'
_cell_volume   583.93980291
_cell_formula_units_Z   1
loop_
 _symmetry_equiv_pos_site_id
 _symmetry_equiv_pos_as_xyz
  1  'x, y, z'
loop_
 _atom_site_type_symbol
 _atom_site_label
 _atom_site_symmetry_multiplicity
 _atom_site_fract_x
 _atom_site_fract_y
 _atom_site_fract_z
 _atom_site_occupancy
  I  I0  1  0.12500000  0.00000000  0.25000000  1
  I  I1  1  0.00000000  0.00000000  0.00000000  1
  I  I2  1  0.37500000  0.00000000  0.25000000  1
  I  I3  1  0.25000000  0.25000000  0.25000000  1
  Li  Li4  1  0.00000000  0.25000000  0.12500000  1
  Li  Li5  1  0.07466235  0.56694836  0.29551022  1
  Li  Li6  1  0.87436189  0.82309116  0.86060948  1
  Ni  Ni7  1  0.08639640  0.88501796  0.06517943  1
  Ni  Ni8  1  0.01831096  0.15021670  0.57159679  1
  Ti  Ti9  1  0.90640833  0.72289364  0.48239759  1
  O  O10  1  0.39189563  0.03130399  0.63438474  1
  O  O11  1  0.30017122  0.98631339  0.23256274  1
  O  O12  1  0.03024684  0.02810681  0.94812408  1
  O  O13  1  0.65256925  0.86249357  0.41250372  1
