# generated using pymatgen
data_Li3TiNi2I4N5
_symmetry_space_group_name_H-M   'P 1'
_cell_length_a   7.75810183
_cell_length_b   7.51975480
_cell_length_c   8.05261455
_cell_angle_alpha   91.78044679
_cell_angle_beta   91.16816202
_cell_angle_gamma   92.06307084
_symmetry_Int_Tables_number   1
_chemical_formula_structural   Li3TiNi2I4N5
_chemical_formula_sum   'Li3 Ti1 Ni2 I4 N5'
_cell_volume   469.14173811
_cell_formula_units_Z   1
loop_
 _symmetry_equiv_pos_site_id
 _symmetry_equiv_pos_as_xyz
  1  'x, y, z'
loop_
 _atom_site_type_symbol
 _atom_site_label
 _atom_site_symmetry_multiplicity
 _atom_site_fract_x
 _atom_site_fract_y
 _atom_site_fract_z
 _atom_site_occupancy
  I  I0  1  0.12500000  0.00000000  0.25000000  1
  I  I1  1  0.00000000  0.00000000  0.00000000  1
  I  I2  1  0.37500000  0.00000000  0.25000000  1
  I  I3  1  0.25000000  0.25000000  0.25000000  1
  Li  Li4  1  0.00000000  0.25000000  0.12500000  1
  Li  Li5  1  0.18768753  0.60270067  0.16980931  1
  Li  Li6  1  0.45589315  0.25939642  0.51635393  1
  Ni  Ni7  1  0.38339456  0.38011110  0.32944916  1
  Ni  Ni8  1  0.39967644  0.88992225  0.65317058  1
  Ti  Ti9  1  0.74874601  0.30594478  0.00621627  1
  N  N10  1  0.94714502  0.30781687  0.43433059  1
  N  N11  1  0.61883688  0.96217857  0.85621716  1
  N  N12  1  0.71102288  0.21972921  0.92187416  1
  N  N13  1  0.78730802  0.92859201  0.13786919  1
  N  N14  1  0.95044621  0.64549180  0.74991518  1
