# generated using pymatgen
data_LiMnSb4Mo2P3
_symmetry_space_group_name_H-M   'P 1'
_cell_length_a   5.41804673
_cell_length_b   5.46380905
_cell_length_c   6.53071140
_cell_angle_alpha   95.41765830
_cell_angle_beta   92.60716663
_cell_angle_gamma   95.35787688
_symmetry_Int_Tables_number   1
_chemical_formula_structural   LiMnSb4Mo2P3
_chemical_formula_sum   'Li1 Mn1 Sb4 Mo2 P3'
_cell_volume   191.33743972
_cell_formula_units_Z   1
loop_
 _symmetry_equiv_pos_site_id
 _symmetry_equiv_pos_as_xyz
  1  'x, y, z'
loop_
 _atom_site_type_symbol
 _atom_site_label
 _atom_site_symmetry_multiplicity
 _atom_site_fract_x
 _atom_site_fract_y
 _atom_site_fract_z
 _atom_site_occupancy
  Mn  Mn0  1  0.12500000  0.00000000  0.25000000  1
  Sb  Sb1  1  0.00000000  0.00000000  0.00000000  1
  Sb  Sb2  1  0.37500000  0.00000000  0.25000000  1
  Sb  Sb3  1  0.25000000  0.25000000  0.25000000  1
  Sb  Sb4  1  0.00000000  0.25000000  0.12500000  1
  P  P5  1  0.59161365  0.55269183  0.25592575  1
  P  P6  1  0.57810540  0.96804273  0.96113663  1
  P  P7  1  0.49245169  0.19033066  0.27968947  1
  Mo  Mo8  1  0.53950601  0.49630894  0.95312344  1
  Mo  Mo9  1  0.50698645  0.59280145  0.57423793  1
  Li  Li10  1  0.34023017  0.16012014  0.00883610  1
