# generated using pymatgen
data_LiLuCu2(NiP2)2
_symmetry_space_group_name_H-M   'P 1'
_cell_length_a   6.40036356
_cell_length_b   6.31925808
_cell_length_c   7.55167854
_cell_angle_alpha   91.67947574
_cell_angle_beta   95.56551748
_cell_angle_gamma   91.92923571
_symmetry_Int_Tables_number   1
_chemical_formula_structural   LiLuCu2(NiP2)2
_chemical_formula_sum   'Li1 Lu1 Cu2 Ni2 P4'
_cell_volume   303.65671528
_cell_formula_units_Z   1
loop_
 _symmetry_equiv_pos_site_id
 _symmetry_equiv_pos_as_xyz
  1  'x, y, z'
loop_
 _atom_site_type_symbol
 _atom_site_label
 _atom_site_symmetry_multiplicity
 _atom_site_fract_x
 _atom_site_fract_y
 _atom_site_fract_z
 _atom_site_occupancy
  P  P0  1  0.00000000  0.00000000  0.00000000  1
  P  P1  1  0.50000000  0.50000000  0.50000000  1
  P  P2  1  0.25000000  0.25000000  0.25000000  1
  P  P3  1  0.75000000  0.25000000  0.00000000  1
  Lu  Lu4  1  0.25000000  0.75000000  0.50000000  1
  Li  Li5  1  0.40288107  0.64339425  0.30150925  1
  Cu  Cu6  1  0.82995638  0.29894725  0.90389885  1
  Cu  Cu7  1  0.50932283  0.46015098  0.30209733  1
  Ni  Ni8  1  0.95082494  0.00800273  0.62060926  1
  Ni  Ni9  1  0.17441681  0.06396666  0.86396112  1
