# generated using pymatgen
data_Li2Mn2Sb4P3
_symmetry_space_group_name_H-M   'P 1'
_cell_length_a   7.47120122
_cell_length_b   7.24211657
_cell_length_c   7.59837980
_cell_angle_alpha   90.53440514
_cell_angle_beta   90.63305226
_cell_angle_gamma   90.60821903
_symmetry_Int_Tables_number   1
_chemical_formula_structural   Li2Mn2Sb4P3
_chemical_formula_sum   'Li2 Mn2 Sb4 P3'
_cell_volume   411.06129782
_cell_formula_units_Z   1
loop_
 _symmetry_equiv_pos_site_id
 _symmetry_equiv_pos_as_xyz
  1  'x, y, z'
loop_
 _atom_site_type_symbol
 _atom_site_label
 _atom_site_symmetry_multiplicity
 _atom_site_fract_x
 _atom_site_fract_y
 _atom_site_fract_z
 _atom_site_occupancy
  Mn  Mn0  1  0.00000000  0.00000000  0.00000000  1
  Mn  Mn1  1  0.33300000  0.66700000  0.25000000  1
  Sb  Sb2  1  0.66700000  0.33300000  0.50000000  1
  Sb  Sb3  1  0.00000000  0.00000000  0.75000000  1
  Sb  Sb4  1  0.10427099  0.75165760  0.69870971  1
  Sb  Sb5  1  0.68076305  0.34880123  0.80166232  1
  P  P6  1  0.11307892  0.33140598  0.82355010  1
  P  P7  1  0.14390393  0.04846249  0.93177888  1
  P  P8  1  0.88547995  0.92941972  0.66521742  1
  Li  Li9  1  0.13135825  0.60215945  0.65771936  1
  Li  Li10  1  0.53064610  0.07670535  0.43893191  1
