# generated using pymatgen
data_Li2LuTi(As3I2)2
_symmetry_space_group_name_H-M   'P 1'
_cell_length_a   8.12122499
_cell_length_b   7.95413597
_cell_length_c   7.59341682
_cell_angle_alpha   90.91886840
_cell_angle_beta   90.91940091
_cell_angle_gamma   90.99238276
_symmetry_Int_Tables_number   1
_chemical_formula_structural   Li2LuTi(As3I2)2
_chemical_formula_sum   'Li2 Lu1 Ti1 As6 I4'
_cell_volume   490.31241937
_cell_formula_units_Z   1
loop_
 _symmetry_equiv_pos_site_id
 _symmetry_equiv_pos_as_xyz
  1  'x, y, z'
loop_
 _atom_site_type_symbol
 _atom_site_label
 _atom_site_symmetry_multiplicity
 _atom_site_fract_x
 _atom_site_fract_y
 _atom_site_fract_z
 _atom_site_occupancy
  I  I0  1  0.12500000  0.00000000  0.25000000  1
  I  I1  1  0.00000000  0.00000000  0.00000000  1
  I  I2  1  0.37500000  0.00000000  0.25000000  1
  I  I3  1  0.25000000  0.25000000  0.25000000  1
  Lu  Lu4  1  0.00000000  0.25000000  0.12500000  1
  Li  Li5  1  0.90381271  0.76076644  0.92210694  1
  Li  Li6  1  0.81838176  0.61628436  0.77067892  1
  Ti  Ti7  1  0.10467751  0.75292604  0.69005740  1
  As  As8  1  0.91973928  0.55610364  0.86757484  1
  As  As9  1  0.58028077  0.24232950  0.32291323  1
  As  As10  1  0.80399927  0.24001588  0.24436844  1
  As  As11  1  0.33598946  0.09281703  0.06301012  1
  As  As12  1  0.36217901  0.22408129  0.35834452  1
  As  As13  1  0.86275436  0.40309837  0.56896701  1
