# generated using pymatgen
data_Li3Cu2Ni2P4O7
_symmetry_space_group_name_H-M   'P 1'
_cell_length_a   7.68397856
_cell_length_b   7.49327877
_cell_length_c   8.73157163
_cell_angle_alpha   91.66575632
_cell_angle_beta   91.17290012
_cell_angle_gamma   91.92987296
_symmetry_Int_Tables_number   1
_chemical_formula_structural   Li3Cu2Ni2P4O7
_chemical_formula_sum   'Li3 Cu2 Ni2 P4 O7'
_cell_volume   502.13485394
_cell_formula_units_Z   1
loop_
 _symmetry_equiv_pos_site_id
 _symmetry_equiv_pos_as_xyz
  1  'x, y, z'
loop_
 _atom_site_type_symbol
 _atom_site_label
 _atom_site_symmetry_multiplicity
 _atom_site_fract_x
 _atom_site_fract_y
 _atom_site_fract_z
 _atom_site_occupancy
  P  P0  1  0.12500000  0.00000000  0.25000000  1
  P  P1  1  0.00000000  0.00000000  0.00000000  1
  P  P2  1  0.37500000  0.00000000  0.25000000  1
  P  P3  1  0.25000000  0.25000000  0.25000000  1
  Li  Li4  1  0.00000000  0.25000000  0.12500000  1
  Li  Li5  1  0.11150627  0.53558117  0.57224763  1
  Li  Li6  1  0.71360009  0.94401074  0.06226972  1
  Cu  Cu7  1  0.96511710  0.94759058  0.84881442  1
  Cu  Cu8  1  0.12424986  0.99623611  0.87248156  1
  Ni  Ni9  1  0.78059490  0.85502755  0.22204220  1
  Ni  Ni10  1  0.48464244  0.20575939  0.53982958  1
  O  O11  1  0.90646221  0.43104999  0.45214367  1
  O  O12  1  0.67538414  0.30524695  0.90615211  1
  O  O13  1  0.81707748  0.40464529  0.55479974  1
  O  O14  1  0.01284853  0.30875228  0.50849373  1
  O  O15  1  0.71741557  0.23486746  0.30586532  1
  O  O16  1  0.32187992  0.26312166  0.13163782  1
  O  O17  1  0.55635124  0.26179801  0.27244595  1
