# generated using pymatgen
data_Li2Mn2Mo2P3
_symmetry_space_group_name_H-M   'P 1'
_cell_length_a   4.88802277
_cell_length_b   5.19851609
_cell_length_c   6.52574783
_cell_angle_alpha   100.44950522
_cell_angle_beta   93.71006364
_cell_angle_gamma   100.68564256
_symmetry_Int_Tables_number   1
_chemical_formula_structural   Li2Mn2Mo2P3
_chemical_formula_sum   'Li2 Mn2 Mo2 P3'
_cell_volume   159.41252603
_cell_formula_units_Z   1
loop_
 _symmetry_equiv_pos_site_id
 _symmetry_equiv_pos_as_xyz
  1  'x, y, z'
loop_
 _atom_site_type_symbol
 _atom_site_label
 _atom_site_symmetry_multiplicity
 _atom_site_fract_x
 _atom_site_fract_y
 _atom_site_fract_z
 _atom_site_occupancy
  Mn  Mn0  1  0.00000000  0.00000000  0.00000000  1
  Mn  Mn1  1  0.33300000  0.66700000  0.25000000  1
  P  P2  1  0.66700000  0.33300000  0.50000000  1
  P  P3  1  0.00000000  0.00000000  0.75000000  1
  P  P4  1  0.55893855  0.36232873  0.12042674  1
  Mo  Mo5  1  0.94950635  0.09380593  0.21725637  1
  Mo  Mo6  1  0.20028264  0.56909801  0.93313737  1
  Li  Li7  1  0.63865814  0.65343574  0.59536073  1
  Li  Li8  1  0.78430287  0.10078680  0.01088928  1
