# generated using pymatgen
data_LiMn2Sb4P3
_symmetry_space_group_name_H-M   'P 1'
_cell_length_a   5.20533232
_cell_length_b   5.48907306
_cell_length_c   6.33863331
_cell_angle_alpha   99.40212885
_cell_angle_beta   91.23968272
_cell_angle_gamma   99.22856945
_symmetry_Int_Tables_number   1
_chemical_formula_structural   LiMn2Sb4P3
_chemical_formula_sum   'Li1 Mn2 Sb4 P3'
_cell_volume   176.15163631
_cell_formula_units_Z   1
loop_
 _symmetry_equiv_pos_site_id
 _symmetry_equiv_pos_as_xyz
  1  'x, y, z'
loop_
 _atom_site_type_symbol
 _atom_site_label
 _atom_site_symmetry_multiplicity
 _atom_site_fract_x
 _atom_site_fract_y
 _atom_site_fract_z
 _atom_site_occupancy
  Mn  Mn0  1  0.00000000  0.00000000  0.00000000  1
  Mn  Mn1  1  0.33300000  0.66700000  0.25000000  1
  Sb  Sb2  1  0.66700000  0.33300000  0.50000000  1
  Sb  Sb3  1  0.00000000  0.00000000  0.75000000  1
  Sb  Sb4  1  0.16348415  0.51973590  0.35571719  1
  Sb  Sb5  1  0.70581534  0.99408948  0.20763508  1
  P  P6  1  0.29904630  0.13084615  0.26311293  1
  P  P7  1  0.83294046  0.74699690  0.61473202  1
  P  P8  1  0.60762591  0.65461131  0.76218504  1
  Li  Li9  1  0.70725208  0.80769233  0.80592068  1
