# generated using pymatgen
data_Li3Ti(IO)4
_symmetry_space_group_name_H-M   'P 1'
_cell_length_a   8.86042033
_cell_length_b   8.74046893
_cell_length_c   7.27828626
_cell_angle_alpha   90.00000000
_cell_angle_beta   90.00000000
_cell_angle_gamma   90.00000000
_symmetry_Int_Tables_number   1
_chemical_formula_structural   Li3Ti(IO)4
_chemical_formula_sum   'Li3 Ti1 I4 O4'
_cell_volume   563.66126521
_cell_formula_units_Z   1
loop_
 _symmetry_equiv_pos_site_id
 _symmetry_equiv_pos_as_xyz
  1  'x, y, z'
loop_
 _atom_site_type_symbol
 _atom_site_label
 _atom_site_symmetry_multiplicity
 _atom_site_fract_x
 _atom_site_fract_y
 _atom_site_fract_z
 _atom_site_occupancy
  I  I0  1  0.00000000  0.00000000  0.00000000  1
  I  I1  1  0.50000000  0.50000000  0.50000000  1
  I  I2  1  0.50000000  0.50000000  0.00000000  1
  I  I3  1  0.50000000  0.00000000  0.50000000  1
  Li  Li4  1  0.00000000  0.50000000  0.50000000  1
  Li  Li5  1  0.25627323  0.84736954  0.65804631  1
  Li  Li6  1  0.42908299  0.65964069  0.88501459  1
  Ti  Ti7  1  0.52428991  0.78936332  0.45585759  1
  O  O8  1  0.25723530  0.55328542  0.56475915  1
  O  O9  1  0.81454821  0.70328903  0.14474101  1
  O  O10  1  0.79469973  0.29500041  0.00269376  1
  O  O11  1  0.05683248  0.13323974  0.40797743  1
