# generated using pymatgen
data_Li2MnSb4(PN)3
_symmetry_space_group_name_H-M   'P 1'
_cell_length_a   6.44908248
_cell_length_b   6.78371153
_cell_length_c   7.29338330
_cell_angle_alpha   94.83607783
_cell_angle_beta   92.83872312
_cell_angle_gamma   94.63192021
_symmetry_Int_Tables_number   1
_chemical_formula_structural   Li2MnSb4(PN)3
_chemical_formula_sum   'Li2 Mn1 Sb4 P3 N3'
_cell_volume   316.39168970
_cell_formula_units_Z   1
loop_
 _symmetry_equiv_pos_site_id
 _symmetry_equiv_pos_as_xyz
  1  'x, y, z'
loop_
 _atom_site_type_symbol
 _atom_site_label
 _atom_site_symmetry_multiplicity
 _atom_site_fract_x
 _atom_site_fract_y
 _atom_site_fract_z
 _atom_site_occupancy
  N  N0  1  0.12500000  0.00000000  0.25000000  1
  N  N1  1  0.00000000  0.00000000  0.00000000  1
  N  N2  1  0.37500000  0.00000000  0.25000000  1
  Mn  Mn3  1  0.25000000  0.25000000  0.25000000  1
  Sb  Sb4  1  0.00000000  0.25000000  0.12500000  1
  Sb  Sb5  1  0.08847305  0.26293782  0.81579647  1
  Sb  Sb6  1  0.82925389  0.03504946  0.77485269  1
  Sb  Sb7  1  0.25596796  0.86878449  0.82098437  1
  P  P8  1  0.72687182  0.97410073  0.55084833  1
  P  P9  1  0.68785363  0.71366245  0.01193033  1
  P  P10  1  0.60573360  0.65693561  0.70017610  1
  Li  Li11  1  0.56802682  0.50961378  0.23921210  1
  Li  Li12  1  0.44535331  0.57461637  0.03430916  1
