# generated using pymatgen
data_Li2MnSb4P3N
_symmetry_space_group_name_H-M   'P 1'
_cell_length_a   5.40837362
_cell_length_b   5.82241628
_cell_length_c   6.71482127
_cell_angle_alpha   96.03141489
_cell_angle_beta   95.42808724
_cell_angle_gamma   95.82554615
_symmetry_Int_Tables_number   1
_chemical_formula_structural   Li2MnSb4P3N
_chemical_formula_sum   'Li2 Mn1 Sb4 P3 N1'
_cell_volume   208.00451659
_cell_formula_units_Z   1
loop_
 _symmetry_equiv_pos_site_id
 _symmetry_equiv_pos_as_xyz
  1  'x, y, z'
loop_
 _atom_site_type_symbol
 _atom_site_label
 _atom_site_symmetry_multiplicity
 _atom_site_fract_x
 _atom_site_fract_y
 _atom_site_fract_z
 _atom_site_occupancy
  N  N0  1  0.00000000  0.00000000  0.00000000  1
  Mn  Mn1  1  0.50000000  0.50000000  0.50000000  1
  Sb  Sb2  1  0.25000000  0.25000000  0.25000000  1
  Sb  Sb3  1  0.75000000  0.25000000  0.00000000  1
  Sb  Sb4  1  0.25000000  0.75000000  0.50000000  1
  Sb  Sb5  1  0.57595352  0.05526751  0.01223795  1
  P  P6  1  0.58923047  0.42189039  0.10816713  1
  P  P7  1  0.06765878  0.43437447  0.99519984  1
  P  P8  1  0.39463895  0.62684238  0.72712724  1
  Li  Li9  1  0.07008152  0.55156068  0.27193597  1
  Li  Li10  1  0.03291463  0.78144052  0.83479590  1
