# generated using pymatgen
data_Li2TiP6(I2F)2
_symmetry_space_group_name_H-M   'P 1'
_cell_length_a   6.91966114
_cell_length_b   6.64964257
_cell_length_c   7.32854571
_cell_angle_alpha   96.12088758
_cell_angle_beta   98.35137703
_cell_angle_gamma   95.76782477
_symmetry_Int_Tables_number   1
_chemical_formula_structural   Li2TiP6(I2F)2
_chemical_formula_sum   'Li2 Ti1 P6 I4 F2'
_cell_volume   329.41891274
_cell_formula_units_Z   1
loop_
 _symmetry_equiv_pos_site_id
 _symmetry_equiv_pos_as_xyz
  1  'x, y, z'
loop_
 _atom_site_type_symbol
 _atom_site_label
 _atom_site_symmetry_multiplicity
 _atom_site_fract_x
 _atom_site_fract_y
 _atom_site_fract_z
 _atom_site_occupancy
  P  P0  1  0.00000000  0.00000000  0.00000000  1
  P  P1  1  0.50000000  0.50000000  0.50000000  1
  P  P2  1  0.25000000  0.25000000  0.25000000  1
  P  P3  1  0.75000000  0.25000000  0.00000000  1
  P  P4  1  0.25000000  0.75000000  0.50000000  1
  P  P5  1  0.14738862  0.70715472  0.03458931  1
  I  I6  1  0.82102403  0.40423655  0.86543836  1
  I  I7  1  0.41236462  0.32791070  0.42144215  1
  I  I8  1  0.27256686  0.77752457  0.91687867  1
  I  I9  1  0.52025382  0.64717689  0.10612954  1
  Li  Li10  1  0.27207799  0.56884508  0.41727171  1
  Li  Li11  1  0.45079204  0.73271911  0.50588096  1
  F  F12  1  0.45876310  0.05673248  0.80431506  1
  F  F13  1  0.02272764  0.98564633  0.55663505  1
  Ti  Ti14  1  0.42519426  0.95094151  0.57829908  1
