# generated using pymatgen
data_Li2Mn2Sb4Mo2P3
_symmetry_space_group_name_H-M   'P 1'
_cell_length_a   4.61426480
_cell_length_b   4.85611324
_cell_length_c   6.20348930
_cell_angle_alpha   102.83588955
_cell_angle_beta   92.26053184
_cell_angle_gamma   102.80609217
_symmetry_Int_Tables_number   1
_chemical_formula_structural   Li2Mn2Sb4Mo2P3
_chemical_formula_sum   'Li2 Mn2 Sb4 Mo2 P3'
_cell_volume   131.58294136
_cell_formula_units_Z   1
loop_
 _symmetry_equiv_pos_site_id
 _symmetry_equiv_pos_as_xyz
  1  'x, y, z'
loop_
 _atom_site_type_symbol
 _atom_site_label
 _atom_site_symmetry_multiplicity
 _atom_site_fract_x
 _atom_site_fract_y
 _atom_site_fract_z
 _atom_site_occupancy
  Mn  Mn0  1  0.00000000  0.00000000  0.00000000  1
  Mn  Mn1  1  0.50000000  0.50000000  0.50000000  1
  Sb  Sb2  1  0.25000000  0.25000000  0.25000000  1
  Sb  Sb3  1  0.75000000  0.25000000  0.00000000  1
  Sb  Sb4  1  0.25000000  0.75000000  0.50000000  1
  Sb  Sb5  1  0.51463085  0.85046407  0.56280164  1
  P  P6  1  0.99159463  0.99709151  0.70754306  1
  P  P7  1  0.75652153  0.78805130  0.44810972  1
  P  P8  1  0.05401828  0.23884575  0.54723964  1
  Mo  Mo9  1  0.02736746  0.49796702  0.23742449  1
  Mo  Mo10  1  0.63813822  0.67815102  0.74610172  1
  Li  Li11  1  0.29512651  0.27724188  0.19266906  1
  Li  Li12  1  0.36693425  0.74875201  0.59101311  1
