# generated using pymatgen
data_Li2TiCu2P6F2
_symmetry_space_group_name_H-M   'P 1'
_cell_length_a   6.68272190
_cell_length_b   6.67846381
_cell_length_c   7.22394792
_cell_angle_alpha   94.97453494
_cell_angle_beta   97.24478775
_cell_angle_gamma   96.11291417
_symmetry_Int_Tables_number   1
_chemical_formula_structural   Li2TiCu2P6F2
_chemical_formula_sum   'Li2 Ti1 Cu2 P6 F2'
_cell_volume   316.37134549
_cell_formula_units_Z   1
loop_
 _symmetry_equiv_pos_site_id
 _symmetry_equiv_pos_as_xyz
  1  'x, y, z'
loop_
 _atom_site_type_symbol
 _atom_site_label
 _atom_site_symmetry_multiplicity
 _atom_site_fract_x
 _atom_site_fract_y
 _atom_site_fract_z
 _atom_site_occupancy
  P  P0  1  0.12500000  0.00000000  0.25000000  1
  P  P1  1  0.00000000  0.00000000  0.00000000  1
  P  P2  1  0.37500000  0.00000000  0.25000000  1
  P  P3  1  0.25000000  0.25000000  0.25000000  1
  P  P4  1  0.00000000  0.25000000  0.12500000  1
  P  P5  1  0.41650064  0.62338372  0.40632628  1
  Li  Li6  1  0.48385578  0.68274327  0.82631966  1
  Li  Li7  1  0.92655399  0.93363655  0.55400651  1
  Cu  Cu8  1  0.58558532  0.41517760  0.70575444  1
  Cu  Cu9  1  0.12087102  0.34761455  0.24970011  1
  F  F10  1  0.59685038  0.15199694  0.27538003  1
  F  F11  1  0.67901634  0.09012967  0.17417268  1
  Ti  Ti12  1  0.13797787  0.36478892  0.76516078  1
