# generated using pymatgen
data_Li4Zn2SeO4
_symmetry_space_group_name_H-M   'P 1'
_cell_length_a   5.71772321
_cell_length_b   5.63563511
_cell_length_c   6.84623699
_cell_angle_alpha   101.78601835
_cell_angle_beta   105.22040086
_cell_angle_gamma   101.05522229
_symmetry_Int_Tables_number   1
_chemical_formula_structural   Li4Zn2SeO4
_chemical_formula_sum   'Li4 Zn2 Se1 O4'
_cell_volume   201.22634751
_cell_formula_units_Z   1
loop_
 _symmetry_equiv_pos_site_id
 _symmetry_equiv_pos_as_xyz
  1  'x, y, z'
loop_
 _atom_site_type_symbol
 _atom_site_label
 _atom_site_symmetry_multiplicity
 _atom_site_fract_x
 _atom_site_fract_y
 _atom_site_fract_z
 _atom_site_occupancy
  Li  Li0  1  0.00000000  0.00000000  0.00000000  1
  Li  Li1  1  0.33300000  0.66700000  0.25000000  1
  Li  Li2  1  0.66700000  0.33300000  0.50000000  1
  Li  Li3  1  0.00000000  0.00000000  0.75000000  1
  Zn  Zn4  1  0.69646739  0.45845724  0.74191598  1
  Zn  Zn5  1  0.06018497  0.93819988  0.07198752  1
  Se  Se6  1  0.58498849  0.60156709  0.25937118  1
  O  O7  1  0.04098459  0.75095365  0.25546308  1
  O  O8  1  0.96091617  0.92832441  0.76258431  1
  O  O9  1  0.86336595  0.36898053  0.11360385  1
  O  O10  1  0.10048911  0.20837094  0.50401493  1
