# generated using pymatgen
data_Li2TiP6(OF)2
_symmetry_space_group_name_H-M   'P 1'
_cell_length_a   7.54527588
_cell_length_b   7.38803559
_cell_length_c   7.58310705
_cell_angle_alpha   92.58301600
_cell_angle_beta   94.05022528
_cell_angle_gamma   93.16664153
_symmetry_Int_Tables_number   1
_chemical_formula_structural   Li2TiP6(OF)2
_chemical_formula_sum   'Li2 Ti1 P6 O2 F2'
_cell_volume   420.50978715
_cell_formula_units_Z   1
loop_
 _symmetry_equiv_pos_site_id
 _symmetry_equiv_pos_as_xyz
  1  'x, y, z'
loop_
 _atom_site_type_symbol
 _atom_site_label
 _atom_site_symmetry_multiplicity
 _atom_site_fract_x
 _atom_site_fract_y
 _atom_site_fract_z
 _atom_site_occupancy
  P  P0  1  0.00000000  0.00000000  0.00000000  1
  P  P1  1  0.50000000  0.50000000  0.50000000  1
  P  P2  1  0.50000000  0.50000000  0.00000000  1
  P  P3  1  0.50000000  0.00000000  0.50000000  1
  P  P4  1  0.00000000  0.50000000  0.50000000  1
  P  P5  1  0.33793449  0.95744524  0.65821807  1
  Li  Li6  1  0.01741360  0.55670878  0.20642691  1
  Li  Li7  1  0.88327550  0.00447684  0.45223762  1
  F  F8  1  0.24489413  0.60298224  0.43287797  1
  F  F9  1  0.27692003  0.70646499  0.38109497  1
  Ti  Ti10  1  0.29527244  0.17103190  0.79714889  1
  O  O11  1  0.66704288  0.56395068  0.82153420  1
  O  O12  1  0.02737240  0.02074407  0.82285872  1
