# generated using pymatgen
data_Li2TiP4I4F3
_symmetry_space_group_name_H-M   'P 1'
_cell_length_a   6.30020146
_cell_length_b   6.53169203
_cell_length_c   7.01692843
_cell_angle_alpha   96.42297630
_cell_angle_beta   98.87966537
_cell_angle_gamma   95.76991191
_symmetry_Int_Tables_number   1
_chemical_formula_structural   Li2TiP4I4F3
_chemical_formula_sum   'Li2 Ti1 P4 I4 F3'
_cell_volume   281.45385493
_cell_formula_units_Z   1
loop_
 _symmetry_equiv_pos_site_id
 _symmetry_equiv_pos_as_xyz
  1  'x, y, z'
loop_
 _atom_site_type_symbol
 _atom_site_label
 _atom_site_symmetry_multiplicity
 _atom_site_fract_x
 _atom_site_fract_y
 _atom_site_fract_z
 _atom_site_occupancy
  I  I0  1  0.00000000  0.00000000  0.00000000  1
  I  I1  1  0.50000000  0.50000000  0.50000000  1
  I  I2  1  0.50000000  0.50000000  0.00000000  1
  I  I3  1  0.50000000  0.00000000  0.50000000  1
  P  P4  1  0.00000000  0.50000000  0.50000000  1
  P  P5  1  0.99225316  0.47162668  0.95363659  1
  P  P6  1  0.46894486  0.89830940  0.87709670  1
  P  P7  1  0.63269859  0.94659323  0.76909007  1
  Li  Li8  1  0.85522423  0.97054412  0.07849849  1
  Li  Li9  1  0.74932138  0.96489371  0.06170387  1
  F  F10  1  0.33247990  0.95508204  0.79689399  1
  F  F11  1  0.69022397  0.34090308  0.56687798  1
  F  F12  1  0.12623004  0.44248839  0.61681460  1
  Ti  Ti13  1  0.52199048  0.45594315  0.58682771  1
