# generated using pymatgen
data_Li2Mn3Sb4P3
_symmetry_space_group_name_H-M   'P 1'
_cell_length_a   6.04540399
_cell_length_b   6.21496776
_cell_length_c   6.73760912
_cell_angle_alpha   98.62271426
_cell_angle_beta   91.80033764
_cell_angle_gamma   98.77443595
_symmetry_Int_Tables_number   1
_chemical_formula_structural   Li2Mn3Sb4P3
_chemical_formula_sum   'Li2 Mn3 Sb4 P3'
_cell_volume   246.97285118
_cell_formula_units_Z   1
loop_
 _symmetry_equiv_pos_site_id
 _symmetry_equiv_pos_as_xyz
  1  'x, y, z'
loop_
 _atom_site_type_symbol
 _atom_site_label
 _atom_site_symmetry_multiplicity
 _atom_site_fract_x
 _atom_site_fract_y
 _atom_site_fract_z
 _atom_site_occupancy
  Mn  Mn0  1  0.12500000  0.00000000  0.25000000  1
  Mn  Mn1  1  0.00000000  0.00000000  0.00000000  1
  Mn  Mn2  1  0.37500000  0.00000000  0.25000000  1
  Sb  Sb3  1  0.25000000  0.25000000  0.25000000  1
  Sb  Sb4  1  0.00000000  0.25000000  0.12500000  1
  Sb  Sb5  1  0.15974469  0.02393840  0.75807929  1
  Sb  Sb6  1  0.48087534  0.16340078  0.31124089  1
  P  P7  1  0.53265780  0.50716901  0.47188443  1
  P  P8  1  0.42089485  0.97250031  0.64535294  1
  P  P9  1  0.60225139  0.48732815  0.15486166  1
  Li  Li10  1  0.33082677  0.36224133  0.14861884  1
  Li  Li11  1  0.18641287  0.23327768  0.91004630  1
