# generated using pymatgen
data_Li2TiCu2P5O2
_symmetry_space_group_name_H-M   'P 1'
_cell_length_a   7.31092507
_cell_length_b   7.37780818
_cell_length_c   7.66390905
_cell_angle_alpha   90.96436521
_cell_angle_beta   91.95998665
_cell_angle_gamma   90.65089920
_symmetry_Int_Tables_number   1
_chemical_formula_structural   Li2TiCu2P5O2
_chemical_formula_sum   'Li2 Ti1 Cu2 P5 O2'
_cell_volume   413.05071385
_cell_formula_units_Z   1
loop_
 _symmetry_equiv_pos_site_id
 _symmetry_equiv_pos_as_xyz
  1  'x, y, z'
loop_
 _atom_site_type_symbol
 _atom_site_label
 _atom_site_symmetry_multiplicity
 _atom_site_fract_x
 _atom_site_fract_y
 _atom_site_fract_z
 _atom_site_occupancy
  P  P0  1  0.00000000  0.00000000  0.00000000  1
  P  P1  1  0.50000000  0.50000000  0.50000000  1
  P  P2  1  0.25000000  0.25000000  0.25000000  1
  P  P3  1  0.75000000  0.25000000  0.00000000  1
  P  P4  1  0.25000000  0.75000000  0.50000000  1
  Li  Li5  1  0.82243153  0.80971072  0.12462977  1
  Li  Li6  1  0.61100262  0.00765242  0.78056129  1
  Cu  Cu7  1  0.58928779  0.82054192  0.91119803  1
  Cu  Cu8  1  0.92303703  0.87536767  0.29531894  1
  Ti  Ti9  1  0.04439163  0.81978524  0.00050837  1
  O  O10  1  0.99452986  0.28326956  0.56659360  1
  O  O11  1  0.59052603  0.72180583  0.77497435  1
