# generated using pymatgen
data_Li3Ni2I4F3
_symmetry_space_group_name_H-M   'P 1'
_cell_length_a   6.17253492
_cell_length_b   5.97007077
_cell_length_c   7.58725200
_cell_angle_alpha   95.50239597
_cell_angle_beta   96.35733538
_cell_angle_gamma   95.35985749
_symmetry_Int_Tables_number   1
_chemical_formula_structural   Li3Ni2I4F3
_chemical_formula_sum   'Li3 Ni2 I4 F3'
_cell_volume   275.06056640
_cell_formula_units_Z   1
loop_
 _symmetry_equiv_pos_site_id
 _symmetry_equiv_pos_as_xyz
  1  'x, y, z'
loop_
 _atom_site_type_symbol
 _atom_site_label
 _atom_site_symmetry_multiplicity
 _atom_site_fract_x
 _atom_site_fract_y
 _atom_site_fract_z
 _atom_site_occupancy
  I  I0  1  0.12500000  0.12500000  0.12500000  1
  I  I1  1  0.50000000  0.50000000  0.50000000  1
  I  I2  1  0.25000000  0.25000000  0.25000000  1
  I  I3  1  0.75000000  0.75000000  0.75000000  1
  Li  Li4  1  0.33619944  0.06441948  0.10998536  1
  Li  Li5  1  0.04042588  0.88224425  0.47866437  1
  Li  Li6  1  0.17913878  0.04366103  0.91982398  1
  F  F7  1  0.02565916  0.20382336  0.73334183  1
  F  F8  1  0.25231093  0.56146498  0.92601249  1
  F  F9  1  0.74648011  0.56024409  0.62354043  1
  Ni  Ni10  1  0.39026547  0.15198495  0.85032706  1
  Ni  Ni11  1  0.30962181  0.86449335  0.87704213  1
