# generated using pymatgen
data_Li3TiO5
_symmetry_space_group_name_H-M   'P 1'
_cell_length_a   8.49715871
_cell_length_b   8.35944878
_cell_length_c   7.82620696
_cell_angle_alpha   90.54856330
_cell_angle_beta   90.34778733
_cell_angle_gamma   90.63568673
_symmetry_Int_Tables_number   1
_chemical_formula_structural   Li3TiO5
_chemical_formula_sum   'Li3 Ti1 O5'
_cell_volume   555.83741720
_cell_formula_units_Z   1
loop_
 _symmetry_equiv_pos_site_id
 _symmetry_equiv_pos_as_xyz
  1  'x, y, z'
loop_
 _atom_site_type_symbol
 _atom_site_label
 _atom_site_symmetry_multiplicity
 _atom_site_fract_x
 _atom_site_fract_y
 _atom_site_fract_z
 _atom_site_occupancy
  Li  Li0  1  0.12500000  0.00000000  0.25000000  1
  Li  Li1  1  0.00000000  0.00000000  0.00000000  1
  Li  Li2  1  0.37500000  0.00000000  0.25000000  1
  Ti  Ti3  1  0.25000000  0.25000000  0.25000000  1
  O  O4  1  0.00000000  0.25000000  0.12500000  1
  O  O5  1  0.61988113  0.49163396  0.54069580  1
  O  O6  1  0.85884793  0.27639972  0.29511258  1
  O  O7  1  0.92611242  0.76014709  0.72420017  1
  O  O8  1  0.41663995  0.68241251  0.94791702  1
