# generated using pymatgen
data_Li2Mn(Sb2P)2
_symmetry_space_group_name_H-M   'P 1'
_cell_length_a   4.31238547
_cell_length_b   4.56040949
_cell_length_c   6.18651100
_cell_angle_alpha   103.04831950
_cell_angle_beta   96.83614962
_cell_angle_gamma   101.62855173
_symmetry_Int_Tables_number   1
_chemical_formula_structural   Li2Mn(Sb2P)2
_chemical_formula_sum   'Li2 Mn1 Sb4 P2'
_cell_volume   114.35229578
_cell_formula_units_Z   1
loop_
 _symmetry_equiv_pos_site_id
 _symmetry_equiv_pos_as_xyz
  1  'x, y, z'
loop_
 _atom_site_type_symbol
 _atom_site_label
 _atom_site_symmetry_multiplicity
 _atom_site_fract_x
 _atom_site_fract_y
 _atom_site_fract_z
 _atom_site_occupancy
  Mn  Mn0  1  0.00000000  0.00000000  0.00000000  1
  Sb  Sb1  1  0.50000000  0.50000000  0.50000000  1
  Sb  Sb2  1  0.50000000  0.50000000  0.00000000  1
  Sb  Sb3  1  0.50000000  0.00000000  0.50000000  1
  Sb  Sb4  1  0.00000000  0.50000000  0.50000000  1
  P  P5  1  0.07979802  0.86156717  0.38727847  1
  P  P6  1  0.18386611  0.85546375  0.79096560  1
  Li  Li7  1  0.07167309  0.18890419  0.90573054  1
  Li  Li8  1  0.54114943  0.28139301  0.48589089  1
