# generated using pymatgen
data_Li2LuCu2P5N4
_symmetry_space_group_name_H-M   'P 1'
_cell_length_a   7.49014283
_cell_length_b   7.23660357
_cell_length_c   8.45424127
_cell_angle_alpha   93.17231720
_cell_angle_beta   92.39217978
_cell_angle_gamma   93.44594139
_symmetry_Int_Tables_number   1
_chemical_formula_structural   Li2LuCu2P5N4
_chemical_formula_sum   'Li2 Lu1 Cu2 P5 N4'
_cell_volume   456.25028666
_cell_formula_units_Z   1
loop_
 _symmetry_equiv_pos_site_id
 _symmetry_equiv_pos_as_xyz
  1  'x, y, z'
loop_
 _atom_site_type_symbol
 _atom_site_label
 _atom_site_symmetry_multiplicity
 _atom_site_fract_x
 _atom_site_fract_y
 _atom_site_fract_z
 _atom_site_occupancy
  P  P0  1  0.12500000  0.00000000  0.25000000  1
  P  P1  1  0.00000000  0.00000000  0.00000000  1
  P  P2  1  0.37500000  0.00000000  0.25000000  1
  P  P3  1  0.25000000  0.25000000  0.25000000  1
  P  P4  1  0.00000000  0.25000000  0.12500000  1
  Lu  Lu5  1  0.13350099  0.52301971  0.65797515  1
  Li  Li6  1  0.83889596  0.70524935  0.36360060  1
  Li  Li7  1  0.14902574  0.16560348  0.73336248  1
  Cu  Cu8  1  0.51991737  0.39879877  0.14978362  1
  Cu  Cu9  1  0.67095396  0.57727768  0.68496702  1
  N  N10  1  0.00829805  0.70467362  0.24091223  1
  N  N11  1  0.91675448  0.27033331  0.71301129  1
  N  N12  1  0.11945323  0.52289236  0.43741945  1
  N  N13  1  0.89883785  0.59303236  0.12177958  1
