# generated using pymatgen
data_LiMnSb4Mo2P3
_symmetry_space_group_name_H-M   'P 1'
_cell_length_a   4.34393464
_cell_length_b   4.49207182
_cell_length_c   6.20754561
_cell_angle_alpha   102.40016105
_cell_angle_beta   94.40217810
_cell_angle_gamma   102.64402773
_symmetry_Int_Tables_number   1
_chemical_formula_structural   LiMnSb4Mo2P3
_chemical_formula_sum   'Li1 Mn1 Sb4 Mo2 P3'
_cell_volume   114.45717039
_cell_formula_units_Z   1
loop_
 _symmetry_equiv_pos_site_id
 _symmetry_equiv_pos_as_xyz
  1  'x, y, z'
loop_
 _atom_site_type_symbol
 _atom_site_label
 _atom_site_symmetry_multiplicity
 _atom_site_fract_x
 _atom_site_fract_y
 _atom_site_fract_z
 _atom_site_occupancy
  Mn  Mn0  1  0.00000000  0.00000000  0.00000000  1
  Sb  Sb1  1  0.50000000  0.50000000  0.50000000  1
  Sb  Sb2  1  0.25000000  0.25000000  0.25000000  1
  Sb  Sb3  1  0.75000000  0.25000000  0.00000000  1
  Sb  Sb4  1  0.25000000  0.75000000  0.50000000  1
  P  P5  1  0.48830085  0.81905495  0.17458502  1
  P  P6  1  0.30855633  0.53793074  0.86576052  1
  P  P7  1  0.53207189  0.57756442  0.53292240  1
  Mo  Mo8  1  0.79053674  0.32646821  0.10877843  1
  Mo  Mo9  1  0.04530081  0.60808582  0.63890780  1
  Li  Li10  1  0.93247512  0.61786046  0.27667962  1
