# generated using pymatgen
data_LiMn2Sb4P3
_symmetry_space_group_name_H-M   'P 1'
_cell_length_a   6.36847117
_cell_length_b   6.77446216
_cell_length_c   7.03130706
_cell_angle_alpha   91.63117453
_cell_angle_beta   92.23630688
_cell_angle_gamma   92.05953006
_symmetry_Int_Tables_number   1
_chemical_formula_structural   LiMn2Sb4P3
_chemical_formula_sum   'Li1 Mn2 Sb4 P3'
_cell_volume   302.78907622
_cell_formula_units_Z   1
loop_
 _symmetry_equiv_pos_site_id
 _symmetry_equiv_pos_as_xyz
  1  'x, y, z'
loop_
 _atom_site_type_symbol
 _atom_site_label
 _atom_site_symmetry_multiplicity
 _atom_site_fract_x
 _atom_site_fract_y
 _atom_site_fract_z
 _atom_site_occupancy
  Mn  Mn0  1  0.00000000  0.00000000  0.00000000  1
  Mn  Mn1  1  0.50000000  0.50000000  0.50000000  1
  Sb  Sb2  1  0.25000000  0.25000000  0.25000000  1
  Sb  Sb3  1  0.75000000  0.25000000  0.00000000  1
  Sb  Sb4  1  0.25000000  0.75000000  0.50000000  1
  Sb  Sb5  1  0.35106276  0.68132276  0.31480031  1
  P  P6  1  0.61038860  0.96852645  0.26871561  1
  P  P7  1  0.14639460  0.99101887  0.69590668  1
  P  P8  1  0.54505001  0.39090111  0.41195040  1
  Li  Li9  1  0.82310701  0.37931494  0.02704512  1
