# generated using pymatgen
data_Li3TiAs6P8O3
_symmetry_space_group_name_H-M   'P 1'
_cell_length_a   6.67979787
_cell_length_b   6.56039690
_cell_length_c   7.72548129
_cell_angle_alpha   96.44705653
_cell_angle_beta   99.03379812
_cell_angle_gamma   96.07484213
_symmetry_Int_Tables_number   1
_chemical_formula_structural   Li3TiAs6P8O3
_chemical_formula_sum   'Li3 Ti1 As6 P8 O3'
_cell_volume   329.59366332
_cell_formula_units_Z   1
loop_
 _symmetry_equiv_pos_site_id
 _symmetry_equiv_pos_as_xyz
  1  'x, y, z'
loop_
 _atom_site_type_symbol
 _atom_site_label
 _atom_site_symmetry_multiplicity
 _atom_site_fract_x
 _atom_site_fract_y
 _atom_site_fract_z
 _atom_site_occupancy
  P  P0  1  0.00000000  0.00000000  0.00000000  1
  P  P1  1  0.50000000  0.50000000  0.50000000  1
  P  P2  1  0.25000000  0.25000000  0.25000000  1
  P  P3  1  0.75000000  0.25000000  0.00000000  1
  P  P4  1  0.25000000  0.75000000  0.50000000  1
  P  P5  1  0.67625683  0.00669840  0.80717543  1
  P  P6  1  0.61689901  0.46426565  0.50582591  1
  P  P7  1  0.48545340  0.89122196  0.60540172  1
  Li  Li8  1  0.72905960  0.88486912  0.36189593  1
  Li  Li9  1  0.67270005  0.46081941  0.09082510  1
  Li  Li10  1  0.10738153  0.84842512  0.38956179  1
  Ti  Ti11  1  0.10819205  0.12743957  0.43243772  1
  As  As12  1  0.50865118  0.48284929  0.47073722  1
  As  As13  1  0.30588327  0.61693659  0.11982596  1
  As  As14  1  0.35477921  0.10463542  0.82854811  1
  As  As15  1  0.04022849  0.45534614  0.73531206  1
  As  As16  1  0.05772662  0.15869049  0.26825887  1
  As  As17  1  0.57341132  0.89819342  0.52677397  1
  O  O18  1  0.79995070  0.94983685  0.40385625  1
  O  O19  1  0.41198750  0.92554707  0.76381001  1
  O  O20  1  0.07729767  0.64400950  0.90067321  1
