# generated using pymatgen
data_Li2Ti(I2F)2
_symmetry_space_group_name_H-M   'P 1'
_cell_length_a   6.81068887
_cell_length_b   6.54367832
_cell_length_c   7.28360387
_cell_angle_alpha   96.55455533
_cell_angle_beta   98.89968823
_cell_angle_gamma   96.17390845
_symmetry_Int_Tables_number   1
_chemical_formula_structural   Li2Ti(I2F)2
_chemical_formula_sum   'Li2 Ti1 I4 F2'
_cell_volume   316.00083972
_cell_formula_units_Z   1
loop_
 _symmetry_equiv_pos_site_id
 _symmetry_equiv_pos_as_xyz
  1  'x, y, z'
loop_
 _atom_site_type_symbol
 _atom_site_label
 _atom_site_symmetry_multiplicity
 _atom_site_fract_x
 _atom_site_fract_y
 _atom_site_fract_z
 _atom_site_occupancy
  I  I0  1  0.00000000  0.00000000  0.00000000  1
  I  I1  1  0.50000000  0.50000000  0.50000000  1
  I  I2  1  0.25000000  0.25000000  0.25000000  1
  I  I3  1  0.75000000  0.25000000  0.00000000  1
  Li  Li4  1  0.25000000  0.75000000  0.50000000  1
  Li  Li5  1  0.17116778  0.72675887  0.36946479  1
  F  F6  1  0.95438539  0.60388091  0.00556704  1
  F  F7  1  0.11797993  0.12677113  0.78256489  1
  Ti  Ti8  1  0.90481732  0.18739216  0.86614251  1
