# generated using pymatgen
data_Li2TiO4
_symmetry_space_group_name_H-M   'P 1'
_cell_length_a   8.67432255
_cell_length_b   8.48119750
_cell_length_c   7.60391890
_cell_angle_alpha   90.06639911
_cell_angle_beta   90.31590679
_cell_angle_gamma   90.07591191
_symmetry_Int_Tables_number   1
_chemical_formula_structural   Li2TiO4
_chemical_formula_sum   'Li2 Ti1 O4'
_cell_volume   559.40061838
_cell_formula_units_Z   1
loop_
 _symmetry_equiv_pos_site_id
 _symmetry_equiv_pos_as_xyz
  1  'x, y, z'
loop_
 _atom_site_type_symbol
 _atom_site_label
 _atom_site_symmetry_multiplicity
 _atom_site_fract_x
 _atom_site_fract_y
 _atom_site_fract_z
 _atom_site_occupancy
  Li  Li0  1  0.00000000  0.00000000  0.00000000  1
  Li  Li1  1  0.33300000  0.66700000  0.25000000  1
  Ti  Ti2  1  0.66700000  0.33300000  0.50000000  1
  O  O3  1  0.00000000  0.00000000  0.75000000  1
  O  O4  1  0.90221660  0.34039065  0.19048410  1
  O  O5  1  0.02916057  0.54436200  0.04940893  1
  O  O6  1  0.16350584  0.44609679  0.90863840  1
