# generated using pymatgen
data_LiMn2Sb4P3
_symmetry_space_group_name_H-M   'P 1'
_cell_length_a   5.32458753
_cell_length_b   5.70382294
_cell_length_c   6.93081545
_cell_angle_alpha   95.74705390
_cell_angle_beta   95.61341444
_cell_angle_gamma   96.28754398
_symmetry_Int_Tables_number   1
_chemical_formula_structural   LiMn2Sb4P3
_chemical_formula_sum   'Li1 Mn2 Sb4 P3'
_cell_volume   206.91141666
_cell_formula_units_Z   1
loop_
 _symmetry_equiv_pos_site_id
 _symmetry_equiv_pos_as_xyz
  1  'x, y, z'
loop_
 _atom_site_type_symbol
 _atom_site_label
 _atom_site_symmetry_multiplicity
 _atom_site_fract_x
 _atom_site_fract_y
 _atom_site_fract_z
 _atom_site_occupancy
  Mn  Mn0  1  0.00000000  0.00000000  0.00000000  1
  Mn  Mn1  1  0.50000000  0.50000000  0.50000000  1
  Sb  Sb2  1  0.25000000  0.25000000  0.25000000  1
  Sb  Sb3  1  0.75000000  0.25000000  0.00000000  1
  Sb  Sb4  1  0.25000000  0.75000000  0.50000000  1
  Sb  Sb5  1  0.93263602  0.30157678  0.26270860  1
  P  P6  1  0.62273606  0.51792264  0.61748876  1
  P  P7  1  0.91212754  0.88711507  0.09728559  1
  P  P8  1  0.97446983  0.02745380  0.93611641  1
  Li  Li9  1  0.53317867  0.89841898  0.12423983  1
