# generated using pymatgen
data_LiMn3Sb4P3O
_symmetry_space_group_name_H-M   'P 1'
_cell_length_a   6.87838973
_cell_length_b   7.31929450
_cell_length_c   6.85682649
_cell_angle_alpha   90.05453279
_cell_angle_beta   89.09990225
_cell_angle_gamma   89.63519015
_symmetry_Int_Tables_number   1
_chemical_formula_structural   LiMn3Sb4P3O
_chemical_formula_sum   'Li1 Mn3 Sb4 P3 O1'
_cell_volume   345.15687212
_cell_formula_units_Z   1
loop_
 _symmetry_equiv_pos_site_id
 _symmetry_equiv_pos_as_xyz
  1  'x, y, z'
loop_
 _atom_site_type_symbol
 _atom_site_label
 _atom_site_symmetry_multiplicity
 _atom_site_fract_x
 _atom_site_fract_y
 _atom_site_fract_z
 _atom_site_occupancy
  O  O0  1  0.00000000  0.00000000  0.00000000  1
  Mn  Mn1  1  0.50000000  0.50000000  0.50000000  1
  Mn  Mn2  1  0.50000000  0.50000000  0.00000000  1
  Mn  Mn3  1  0.50000000  0.00000000  0.50000000  1
  Sb  Sb4  1  0.00000000  0.50000000  0.50000000  1
  Sb  Sb5  1  0.94716210  0.85549624  0.18784524  1
  Sb  Sb6  1  0.51295323  0.46997633  0.84851264  1
  Sb  Sb7  1  0.79248284  0.81881342  0.88219840  1
  P  P8  1  0.42434360  0.61338005  0.44258274  1
  P  P9  1  0.87818319  0.98847306  0.62903253  1
  P  P10  1  0.77195386  0.16659120  0.94499965  1
  Li  Li11  1  0.15496816  0.02465969  0.86893631  1
