# generated using pymatgen
data_LiMn2Sb4P3
_symmetry_space_group_name_H-M   'P 1'
_cell_length_a   6.29646316
_cell_length_b   6.78385003
_cell_length_c   7.02039660
_cell_angle_alpha   91.86709708
_cell_angle_beta   92.48611458
_cell_angle_gamma   92.30822716
_symmetry_Int_Tables_number   1
_chemical_formula_structural   LiMn2Sb4P3
_chemical_formula_sum   'Li1 Mn2 Sb4 P3'
_cell_volume   299.16867842
_cell_formula_units_Z   1
loop_
 _symmetry_equiv_pos_site_id
 _symmetry_equiv_pos_as_xyz
  1  'x, y, z'
loop_
 _atom_site_type_symbol
 _atom_site_label
 _atom_site_symmetry_multiplicity
 _atom_site_fract_x
 _atom_site_fract_y
 _atom_site_fract_z
 _atom_site_occupancy
  Mn  Mn0  1  0.12500000  0.12500000  0.12500000  1
  Mn  Mn1  1  0.50000000  0.50000000  0.50000000  1
  Sb  Sb2  1  0.25000000  0.25000000  0.25000000  1
  Sb  Sb3  1  0.75000000  0.75000000  0.75000000  1
  Sb  Sb4  1  0.39546262  0.45391603  0.00077342  1
  Sb  Sb5  1  0.07021741  0.47724046  0.32215386  1
  P  P6  1  0.64911798  0.68941671  0.11147982  1
  P  P7  1  0.60632796  0.94071246  0.00067411  1
  P  P8  1  0.67045728  0.30370602  0.48043451  1
  Li  Li9  1  0.56836067  0.27434551  0.11282389  1
