# generated using pymatgen
data_Li2Mn2Sb4P3
_symmetry_space_group_name_H-M   'P 1'
_cell_length_a   6.33488792
_cell_length_b   6.85607737
_cell_length_c   7.14841217
_cell_angle_alpha   94.38421279
_cell_angle_beta   92.32667330
_cell_angle_gamma   94.59053007
_symmetry_Int_Tables_number   1
_chemical_formula_structural   Li2Mn2Sb4P3
_chemical_formula_sum   'Li2 Mn2 Sb4 P3'
_cell_volume   308.23069483
_cell_formula_units_Z   1
loop_
 _symmetry_equiv_pos_site_id
 _symmetry_equiv_pos_as_xyz
  1  'x, y, z'
loop_
 _atom_site_type_symbol
 _atom_site_label
 _atom_site_symmetry_multiplicity
 _atom_site_fract_x
 _atom_site_fract_y
 _atom_site_fract_z
 _atom_site_occupancy
  Mn  Mn0  1  0.00000000  0.00000000  0.00000000  1
  Mn  Mn1  1  0.50000000  0.50000000  0.50000000  1
  Sb  Sb2  1  0.50000000  0.50000000  0.00000000  1
  Sb  Sb3  1  0.50000000  0.00000000  0.50000000  1
  Sb  Sb4  1  0.00000000  0.50000000  0.50000000  1
  Sb  Sb5  1  0.66021113  0.26910167  0.47819920  1
  P  P6  1  0.30454487  0.98399502  0.17596056  1
  P  P7  1  0.43554648  0.82353160  0.41007210  1
  P  P8  1  0.49043314  0.39825326  0.38478111  1
  Li  Li9  1  0.89267176  0.06832141  0.31904498  1
  Li  Li10  1  0.70860639  0.36841805  0.22759563  1
