# generated using pymatgen
data_LiMn3Ni3Sb4P3
_symmetry_space_group_name_H-M   'P 1'
_cell_length_a   5.90464751
_cell_length_b   6.20113850
_cell_length_c   6.87574886
_cell_angle_alpha   92.82125099
_cell_angle_beta   93.07959104
_cell_angle_gamma   93.23652479
_symmetry_Int_Tables_number   1
_chemical_formula_structural   LiMn3Ni3Sb4P3
_chemical_formula_sum   'Li1 Mn3 Ni3 Sb4 P3'
_cell_volume   250.64969475
_cell_formula_units_Z   1
loop_
 _symmetry_equiv_pos_site_id
 _symmetry_equiv_pos_as_xyz
  1  'x, y, z'
loop_
 _atom_site_type_symbol
 _atom_site_label
 _atom_site_symmetry_multiplicity
 _atom_site_fract_x
 _atom_site_fract_y
 _atom_site_fract_z
 _atom_site_occupancy
  Mn  Mn0  1  0.00000000  0.00000000  0.00000000  1
  Mn  Mn1  1  0.50000000  0.50000000  0.50000000  1
  Mn  Mn2  1  0.50000000  0.50000000  0.00000000  1
  Sb  Sb3  1  0.50000000  0.00000000  0.50000000  1
  Sb  Sb4  1  0.00000000  0.50000000  0.50000000  1
  Sb  Sb5  1  0.89186831  0.42635060  0.57456434  1
  Sb  Sb6  1  0.20648849  0.02285051  0.66410976  1
  P  P7  1  0.37845260  0.75305681  0.69542053  1
  P  P8  1  0.09978029  0.96888704  0.33829524  1
  P  P9  1  0.93458177  0.64177279  0.92654952  1
  Li  Li10  1  0.30468962  0.85677417  0.86319172  1
  Ni  Ni11  1  0.79174996  0.62390154  0.92771401  1
  Ni  Ni12  1  0.50649471  0.37192401  0.22890386  1
  Ni  Ni13  1  0.71328117  0.83903577  0.68330522  1
