# generated using pymatgen
data_Li3TiNi2(IO)4
_symmetry_space_group_name_H-M   'P 1'
_cell_length_a   8.79825167
_cell_length_b   8.67567902
_cell_length_c   7.54790614
_cell_angle_alpha   90.00000000
_cell_angle_beta   90.00000000
_cell_angle_gamma   90.00000000
_symmetry_Int_Tables_number   1
_chemical_formula_structural   Li3TiNi2(IO)4
_chemical_formula_sum   'Li3 Ti1 Ni2 I4 O4'
_cell_volume   576.13777018
_cell_formula_units_Z   1
loop_
 _symmetry_equiv_pos_site_id
 _symmetry_equiv_pos_as_xyz
  1  'x, y, z'
loop_
 _atom_site_type_symbol
 _atom_site_label
 _atom_site_symmetry_multiplicity
 _atom_site_fract_x
 _atom_site_fract_y
 _atom_site_fract_z
 _atom_site_occupancy
  I  I0  1  0.12500000  0.00000000  0.25000000  1
  I  I1  1  0.00000000  0.00000000  0.00000000  1
  I  I2  1  0.37500000  0.00000000  0.25000000  1
  I  I3  1  0.25000000  0.25000000  0.25000000  1
  Li  Li4  1  0.00000000  0.25000000  0.12500000  1
  Li  Li5  1  0.38584639  0.74593844  0.44231439  1
  Li  Li6  1  0.41356455  0.63397926  0.40584804  1
  Ni  Ni7  1  0.13305995  0.91612515  0.18570736  1
  Ni  Ni8  1  0.45921580  0.48928609  0.98598860  1
  Ti  Ti9  1  0.33918930  0.68098358  0.52240667  1
  O  O10  1  0.93831747  0.94808708  0.05743299  1
  O  O11  1  0.13638163  0.14523451  0.64126848  1
  O  O12  1  0.80113466  0.37204568  0.71697367  1
  O  O13  1  0.15845208  0.15317548  0.15842840  1
