# generated using pymatgen
data_LiMo2P3
_symmetry_space_group_name_H-M   'P 1'
_cell_length_a   4.75359031
_cell_length_b   4.85706913
_cell_length_c   5.92840772
_cell_angle_alpha   97.45157266
_cell_angle_beta   91.52957542
_cell_angle_gamma   97.08288320
_symmetry_Int_Tables_number   1
_chemical_formula_structural   LiMo2P3
_chemical_formula_sum   'Li1 Mo2 P3'
_cell_volume   134.55968095
_cell_formula_units_Z   1
loop_
 _symmetry_equiv_pos_site_id
 _symmetry_equiv_pos_as_xyz
  1  'x, y, z'
loop_
 _atom_site_type_symbol
 _atom_site_label
 _atom_site_symmetry_multiplicity
 _atom_site_fract_x
 _atom_site_fract_y
 _atom_site_fract_z
 _atom_site_occupancy
  P  P0  1  0.00000000  0.00000000  0.00000000  1
  P  P1  1  0.33300000  0.66700000  0.25000000  1
  P  P2  1  0.66700000  0.33300000  0.50000000  1
  Mo  Mo3  1  0.00000000  0.00000000  0.75000000  1
  Mo  Mo4  1  0.67042996  0.25544589  0.33203533  1
  Li  Li5  1  0.12823733  0.36453342  0.94651721  1
