# generated using pymatgen
data_LiMn(Sb2P)2
_symmetry_space_group_name_H-M   'P 1'
_cell_length_a   5.92789901
_cell_length_b   6.32594276
_cell_length_c   6.86589243
_cell_angle_alpha   94.77269248
_cell_angle_beta   93.26151614
_cell_angle_gamma   94.91870727
_symmetry_Int_Tables_number   1
_chemical_formula_structural   LiMn(Sb2P)2
_chemical_formula_sum   'Li1 Mn1 Sb4 P2'
_cell_volume   255.09816862
_cell_formula_units_Z   1
loop_
 _symmetry_equiv_pos_site_id
 _symmetry_equiv_pos_as_xyz
  1  'x, y, z'
loop_
 _atom_site_type_symbol
 _atom_site_label
 _atom_site_symmetry_multiplicity
 _atom_site_fract_x
 _atom_site_fract_y
 _atom_site_fract_z
 _atom_site_occupancy
  Mn  Mn0  1  0.00000000  0.00000000  0.00000000  1
  Sb  Sb1  1  0.33300000  0.66700000  0.25000000  1
  Sb  Sb2  1  0.66700000  0.33300000  0.50000000  1
  Sb  Sb3  1  0.00000000  0.00000000  0.75000000  1
  Sb  Sb4  1  0.98135000  0.11645489  0.44747438  1
  P  P5  1  0.71499191  0.11311265  0.40040020  1
  P  P6  1  0.85261045  0.30972409  0.92456443  1
  Li  Li7  1  0.01939587  0.54539850  0.03672983  1
