# generated using pymatgen
data_Li2Mn2Sb4P3
_symmetry_space_group_name_H-M   'P 1'
_cell_length_a   5.19051701
_cell_length_b   5.53551603
_cell_length_c   6.58812648
_cell_angle_alpha   99.59226451
_cell_angle_beta   92.85332267
_cell_angle_gamma   99.73210347
_symmetry_Int_Tables_number   1
_chemical_formula_structural   Li2Mn2Sb4P3
_chemical_formula_sum   'Li2 Mn2 Sb4 P3'
_cell_volume   183.36603693
_cell_formula_units_Z   1
loop_
 _symmetry_equiv_pos_site_id
 _symmetry_equiv_pos_as_xyz
  1  'x, y, z'
loop_
 _atom_site_type_symbol
 _atom_site_label
 _atom_site_symmetry_multiplicity
 _atom_site_fract_x
 _atom_site_fract_y
 _atom_site_fract_z
 _atom_site_occupancy
  Mn  Mn0  1  0.00000000  0.00000000  0.00000000  1
  Mn  Mn1  1  0.50000000  0.50000000  0.50000000  1
  Sb  Sb2  1  0.50000000  0.50000000  0.00000000  1
  Sb  Sb3  1  0.50000000  0.00000000  0.50000000  1
  Sb  Sb4  1  0.00000000  0.50000000  0.50000000  1
  Sb  Sb5  1  0.69299488  0.48032291  0.59860921  1
  P  P6  1  0.30361265  0.85708276  0.42949356  1
  P  P7  1  0.51349323  0.83009630  0.34983869  1
  P  P8  1  0.00297471  0.80269639  0.19191338  1
  Li  Li9  1  0.79194536  0.15833324  0.46548923  1
  Li  Li10  1  0.27293958  0.24225306  0.51476645  1
