# generated using pymatgen
data_LiMn2Sb4Mo2P3
_symmetry_space_group_name_H-M   'P 1'
_cell_length_a   5.33037661
_cell_length_b   5.65299256
_cell_length_c   6.70491103
_cell_angle_alpha   95.55607313
_cell_angle_beta   94.19708228
_cell_angle_gamma   95.81780530
_symmetry_Int_Tables_number   1
_chemical_formula_structural   LiMn2Sb4Mo2P3
_chemical_formula_sum   'Li1 Mn2 Sb4 Mo2 P3'
_cell_volume   199.34724844
_cell_formula_units_Z   1
loop_
 _symmetry_equiv_pos_site_id
 _symmetry_equiv_pos_as_xyz
  1  'x, y, z'
loop_
 _atom_site_type_symbol
 _atom_site_label
 _atom_site_symmetry_multiplicity
 _atom_site_fract_x
 _atom_site_fract_y
 _atom_site_fract_z
 _atom_site_occupancy
  Mn  Mn0  1  0.00000000  0.00000000  0.00000000  1
  Mn  Mn1  1  0.50000000  0.50000000  0.50000000  1
  Sb  Sb2  1  0.50000000  0.50000000  0.00000000  1
  Sb  Sb3  1  0.50000000  0.00000000  0.50000000  1
  Sb  Sb4  1  0.00000000  0.50000000  0.50000000  1
  Sb  Sb5  1  0.38699354  0.40832634  0.62279363  1
  P  P6  1  0.43616539  0.42789853  0.55083884  1
  P  P7  1  0.52114976  0.30640647  0.21091804  1
  P  P8  1  0.00109501  0.59799283  0.42176603  1
  Mo  Mo9  1  0.82488620  0.69002868  0.40683737  1
  Mo  Mo10  1  0.86433473  0.54618327  0.71657574  1
  Li  Li11  1  0.13057371  0.02337753  0.23888255  1
