# generated using pymatgen
data_Li2Ti(OF)2
_symmetry_space_group_name_H-M   'P 1'
_cell_length_a   6.97006831
_cell_length_b   6.91484659
_cell_length_c   7.34359618
_cell_angle_alpha   94.17783770
_cell_angle_beta   96.18056908
_cell_angle_gamma   95.13140939
_symmetry_Int_Tables_number   1
_chemical_formula_structural   Li2Ti(OF)2
_chemical_formula_sum   'Li2 Ti1 O2 F2'
_cell_volume   349.25343016
_cell_formula_units_Z   1
loop_
 _symmetry_equiv_pos_site_id
 _symmetry_equiv_pos_as_xyz
  1  'x, y, z'
loop_
 _atom_site_type_symbol
 _atom_site_label
 _atom_site_symmetry_multiplicity
 _atom_site_fract_x
 _atom_site_fract_y
 _atom_site_fract_z
 _atom_site_occupancy
  Li  Li0  1  0.00000000  0.00000000  0.00000000  1
  Li  Li1  1  0.50000000  0.50000000  0.50000000  1
  F  F2  1  0.25000000  0.25000000  0.25000000  1
  F  F3  1  0.75000000  0.25000000  0.00000000  1
  Ti  Ti4  1  0.25000000  0.75000000  0.50000000  1
  O  O5  1  0.28202729  0.98844900  0.24654105  1
  O  O6  1  0.09442576  0.54444170  0.22428225  1
