# generated using pymatgen
data_LiSb4Mo2P3
_symmetry_space_group_name_H-M   'P 1'
_cell_length_a   5.19931137
_cell_length_b   5.24567231
_cell_length_c   6.49211146
_cell_angle_alpha   98.75309220
_cell_angle_beta   92.79404154
_cell_angle_gamma   98.80221315
_symmetry_Int_Tables_number   1
_chemical_formula_structural   LiSb4Mo2P3
_chemical_formula_sum   'Li1 Sb4 Mo2 P3'
_cell_volume   172.47080539
_cell_formula_units_Z   1
loop_
 _symmetry_equiv_pos_site_id
 _symmetry_equiv_pos_as_xyz
  1  'x, y, z'
loop_
 _atom_site_type_symbol
 _atom_site_label
 _atom_site_symmetry_multiplicity
 _atom_site_fract_x
 _atom_site_fract_y
 _atom_site_fract_z
 _atom_site_occupancy
  Sb  Sb0  1  0.00000000  0.00000000  0.00000000  1
  Sb  Sb1  1  0.50000000  0.50000000  0.50000000  1
  Sb  Sb2  1  0.50000000  0.50000000  0.00000000  1
  Sb  Sb3  1  0.50000000  0.00000000  0.50000000  1
  P  P4  1  0.00000000  0.50000000  0.50000000  1
  P  P5  1  0.63373826  0.26190542  0.20534058  1
  P  P6  1  0.60155098  0.35413223  0.59729190  1
  Mo  Mo7  1  0.14074198  0.47634258  0.80386542  1
  Mo  Mo8  1  0.41269976  0.15051773  0.08231177  1
  Li  Li9  1  0.57953895  0.18866253  0.60576720  1
