# generated using pymatgen
data_Li3Ti(IO)4
_symmetry_space_group_name_H-M   'P 1'
_cell_length_a   8.10760162
_cell_length_b   7.95153415
_cell_length_c   7.87675659
_cell_angle_alpha   91.74734356
_cell_angle_beta   91.53153897
_cell_angle_gamma   91.84672844
_symmetry_Int_Tables_number   1
_chemical_formula_structural   Li3Ti(IO)4
_chemical_formula_sum   'Li3 Ti1 I4 O4'
_cell_volume   507.10280150
_cell_formula_units_Z   1
loop_
 _symmetry_equiv_pos_site_id
 _symmetry_equiv_pos_as_xyz
  1  'x, y, z'
loop_
 _atom_site_type_symbol
 _atom_site_label
 _atom_site_symmetry_multiplicity
 _atom_site_fract_x
 _atom_site_fract_y
 _atom_site_fract_z
 _atom_site_occupancy
  I  I0  1  0.12500000  0.00000000  0.25000000  1
  I  I1  1  0.00000000  0.00000000  0.00000000  1
  I  I2  1  0.37500000  0.00000000  0.25000000  1
  I  I3  1  0.25000000  0.25000000  0.25000000  1
  Li  Li4  1  0.00000000  0.25000000  0.12500000  1
  Li  Li5  1  0.63432512  0.49809924  0.41711950  1
  Li  Li6  1  0.79002572  0.69653109  0.56514126  1
  Ti  Ti7  1  0.82299076  0.57409406  0.66977646  1
  O  O8  1  0.71923514  0.47155314  0.54192908  1
  O  O9  1  0.22506180  0.53688096  0.19768849  1
  O  O10  1  0.76556811  0.92379397  0.87705234  1
  O  O11  1  0.64732482  0.33659896  0.09550593  1
