# generated using pymatgen
data_LiMn2Sb4P3
_symmetry_space_group_name_H-M   'P 1'
_cell_length_a   5.13942671
_cell_length_b   5.41227306
_cell_length_c   6.35384862
_cell_angle_alpha   98.95909396
_cell_angle_beta   91.81454074
_cell_angle_gamma   98.85204751
_symmetry_Int_Tables_number   1
_chemical_formula_structural   LiMn2Sb4P3
_chemical_formula_sum   'Li1 Mn2 Sb4 P3'
_cell_volume   172.22242674
_cell_formula_units_Z   1
loop_
 _symmetry_equiv_pos_site_id
 _symmetry_equiv_pos_as_xyz
  1  'x, y, z'
loop_
 _atom_site_type_symbol
 _atom_site_label
 _atom_site_symmetry_multiplicity
 _atom_site_fract_x
 _atom_site_fract_y
 _atom_site_fract_z
 _atom_site_occupancy
  Mn  Mn0  1  0.12500000  0.00000000  0.25000000  1
  Mn  Mn1  1  0.00000000  0.00000000  0.00000000  1
  Sb  Sb2  1  0.37500000  0.00000000  0.25000000  1
  Sb  Sb3  1  0.25000000  0.25000000  0.25000000  1
  Sb  Sb4  1  0.00000000  0.25000000  0.12500000  1
  Sb  Sb5  1  0.53340095  0.89192092  0.10394679  1
  P  P6  1  0.34357420  0.58520692  0.21811602  1
  P  P7  1  0.32026272  0.43326934  0.75227783  1
  P  P8  1  0.87475484  0.92710319  0.51813183  1
  Li  Li9  1  0.83496121  0.27234438  0.91305933  1
