# generated using pymatgen
data_Li3Ni2As6O7
_symmetry_space_group_name_H-M   'P 1'
_cell_length_a   7.74598302
_cell_length_b   7.57175267
_cell_length_c   9.04413894
_cell_angle_alpha   91.63758826
_cell_angle_beta   91.03822559
_cell_angle_gamma   91.89767183
_symmetry_Int_Tables_number   1
_chemical_formula_structural   Li3Ni2As6O7
_chemical_formula_sum   'Li3 Ni2 As6 O7'
_cell_volume   529.84083544
_cell_formula_units_Z   1
loop_
 _symmetry_equiv_pos_site_id
 _symmetry_equiv_pos_as_xyz
  1  'x, y, z'
loop_
 _atom_site_type_symbol
 _atom_site_label
 _atom_site_symmetry_multiplicity
 _atom_site_fract_x
 _atom_site_fract_y
 _atom_site_fract_z
 _atom_site_occupancy
  Li  Li0  1  0.12500000  0.00000000  0.25000000  1
  Li  Li1  1  0.00000000  0.00000000  0.00000000  1
  Li  Li2  1  0.37500000  0.00000000  0.25000000  1
  Ni  Ni3  1  0.25000000  0.25000000  0.25000000  1
  Ni  Ni4  1  0.00000000  0.25000000  0.12500000  1
  As  As5  1  0.26770522  0.76891028  0.18214841  1
  As  As6  1  0.46702131  0.41259761  0.15791878  1
  As  As7  1  0.64804443  0.96902055  0.46998970  1
  As  As8  1  0.64601672  0.13459375  0.25827635  1
  As  As9  1  0.24116121  0.01939169  0.17921166  1
  As  As10  1  0.27325711  0.42402037  0.54813794  1
  O  O11  1  0.31318786  0.32667374  0.92994155  1
  O  O12  1  0.56921628  0.19068839  0.20755031  1
  O  O13  1  0.16126801  0.20134702  0.15515775  1
  O  O14  1  0.39712399  0.52926980  0.30942553  1
  O  O15  1  0.05159930  0.62078972  0.39805086  1
  O  O16  1  0.62802732  0.03295643  0.70384159  1
  O  O17  1  0.65367137  0.27972655  0.62881228  1
