# generated using pymatgen
data_LiMn2Sb4P2N
_symmetry_space_group_name_H-M   'P 1'
_cell_length_a   5.38352371
_cell_length_b   5.72205929
_cell_length_c   6.48132551
_cell_angle_alpha   96.65761397
_cell_angle_beta   94.86537974
_cell_angle_gamma   95.24979942
_symmetry_Int_Tables_number   1
_chemical_formula_structural   LiMn2Sb4P2N
_chemical_formula_sum   'Li1 Mn2 Sb4 P2 N1'
_cell_volume   196.55684180
_cell_formula_units_Z   1
loop_
 _symmetry_equiv_pos_site_id
 _symmetry_equiv_pos_as_xyz
  1  'x, y, z'
loop_
 _atom_site_type_symbol
 _atom_site_label
 _atom_site_symmetry_multiplicity
 _atom_site_fract_x
 _atom_site_fract_y
 _atom_site_fract_z
 _atom_site_occupancy
  N  N0  1  0.00000000  0.00000000  0.00000000  1
  Mn  Mn1  1  0.50000000  0.50000000  0.50000000  1
  Mn  Mn2  1  0.25000000  0.25000000  0.25000000  1
  Sb  Sb3  1  0.75000000  0.25000000  0.00000000  1
  Sb  Sb4  1  0.25000000  0.75000000  0.50000000  1
  Sb  Sb5  1  0.75259914  0.70804987  0.87957203  1
  Sb  Sb6  1  0.88288647  0.47755870  0.04956758  1
  P  P7  1  0.57249612  0.60674154  0.11393047  1
  P  P8  1  0.63424774  0.41632631  0.30193200  1
  Li  Li9  1  0.12884053  0.28933810  0.94801927  1
