# generated using pymatgen
data_Li2TiCu2(As3O2)2
_symmetry_space_group_name_H-M   'P 1'
_cell_length_a   8.38184798
_cell_length_b   8.36543414
_cell_length_c   7.73991543
_cell_angle_alpha   90.16036408
_cell_angle_beta   90.76296357
_cell_angle_gamma   90.18333896
_symmetry_Int_Tables_number   1
_chemical_formula_structural   Li2TiCu2(As3O2)2
_chemical_formula_sum   'Li2 Ti1 Cu2 As6 O4'
_cell_volume   542.65273589
_cell_formula_units_Z   1
loop_
 _symmetry_equiv_pos_site_id
 _symmetry_equiv_pos_as_xyz
  1  'x, y, z'
loop_
 _atom_site_type_symbol
 _atom_site_label
 _atom_site_symmetry_multiplicity
 _atom_site_fract_x
 _atom_site_fract_y
 _atom_site_fract_z
 _atom_site_occupancy
  Li  Li0  1  0.00000000  0.00000000  0.00000000  1
  Li  Li1  1  0.50000000  0.50000000  0.50000000  1
  Ti  Ti2  1  0.50000000  0.50000000  0.00000000  1
  As  As3  1  0.50000000  0.00000000  0.50000000  1
  As  As4  1  0.00000000  0.50000000  0.50000000  1
  As  As5  1  0.86129733  0.98135099  0.27664575  1
  As  As6  1  0.16504194  0.60802821  0.31102832  1
  As  As7  1  0.27547848  0.81435309  0.66610147  1
  As  As8  1  0.92380490  0.77462481  0.71637794  1
  O  O9  1  0.20742274  0.86892694  0.25294531  1
  O  O10  1  0.31268428  0.28374021  0.35677039  1
  O  O11  1  0.12793233  0.34281336  0.57206553  1
  O  O12  1  0.06771377  0.45576866  0.65579358  1
  Cu  Cu13  1  0.48544349  0.71917639  0.61346342  1
  Cu  Cu14  1  0.39417122  0.44612363  0.56893625  1
