# generated using pymatgen
data_Li3TiP3O2
_symmetry_space_group_name_H-M   'P 1'
_cell_length_a   6.80970061
_cell_length_b   6.47315827
_cell_length_c   5.93805256
_cell_angle_alpha   90.52473109
_cell_angle_beta   90.70065574
_cell_angle_gamma   89.39555160
_symmetry_Int_Tables_number   1
_chemical_formula_structural   Li3TiP3O2
_chemical_formula_sum   'Li3 Ti1 P3 O2'
_cell_volume   261.70615209
_cell_formula_units_Z   1
loop_
 _symmetry_equiv_pos_site_id
 _symmetry_equiv_pos_as_xyz
  1  'x, y, z'
loop_
 _atom_site_type_symbol
 _atom_site_label
 _atom_site_symmetry_multiplicity
 _atom_site_fract_x
 _atom_site_fract_y
 _atom_site_fract_z
 _atom_site_occupancy
  P  P0  1  0.00000000  0.00000000  0.00000000  1
  P  P1  1  0.33300000  0.66700000  0.25000000  1
  P  P2  1  0.66700000  0.33300000  0.50000000  1
  Li  Li3  1  0.00000000  0.00000000  0.75000000  1
  Li  Li4  1  0.80766402  0.47629719  0.45817007  1
  Li  Li5  1  0.67359765  0.61019651  0.86670146  1
  Ti  Ti6  1  0.04329363  0.02203799  0.05351020  1
  O  O7  1  0.36146542  0.76323924  0.71345412  1
  O  O8  1  0.82190265  0.26614632  0.03310170  1
