# generated using pymatgen
data_Li3Cu2(NiP2)2
_symmetry_space_group_name_H-M   'P 1'
_cell_length_a   7.48799242
_cell_length_b   7.28105898
_cell_length_c   8.41990809
_cell_angle_alpha   92.16803994
_cell_angle_beta   91.54013333
_cell_angle_gamma   92.51174580
_symmetry_Int_Tables_number   1
_chemical_formula_structural   Li3Cu2(NiP2)2
_chemical_formula_sum   'Li3 Cu2 Ni2 P4'
_cell_volume   458.10115034
_cell_formula_units_Z   1
loop_
 _symmetry_equiv_pos_site_id
 _symmetry_equiv_pos_as_xyz
  1  'x, y, z'
loop_
 _atom_site_type_symbol
 _atom_site_label
 _atom_site_symmetry_multiplicity
 _atom_site_fract_x
 _atom_site_fract_y
 _atom_site_fract_z
 _atom_site_occupancy
  P  P0  1  0.00000000  0.00000000  0.00000000  1
  P  P1  1  0.50000000  0.50000000  0.50000000  1
  P  P2  1  0.50000000  0.50000000  0.00000000  1
  P  P3  1  0.50000000  0.00000000  0.50000000  1
  Li  Li4  1  0.00000000  0.50000000  0.50000000  1
  Li  Li5  1  0.89252245  0.75643228  0.82436223  1
  Li  Li6  1  0.32731319  0.88706638  0.68579315  1
  Cu  Cu7  1  0.38238038  0.75343570  0.73509730  1
  Cu  Cu8  1  0.19347954  0.18376253  0.08524571  1
  Ni  Ni9  1  0.48105322  0.25344226  0.15935115  1
  Ni  Ni10  1  0.25029623  0.67687838  0.48618231  1
