# generated using pymatgen
data_Li2Mn2Sb4Mo2P3
_symmetry_space_group_name_H-M   'P 1'
_cell_length_a   5.00774654
_cell_length_b   5.34360791
_cell_length_c   6.63363041
_cell_angle_alpha   99.60612809
_cell_angle_beta   94.06733602
_cell_angle_gamma   99.91466276
_symmetry_Int_Tables_number   1
_chemical_formula_structural   Li2Mn2Sb4Mo2P3
_chemical_formula_sum   'Li2 Mn2 Sb4 Mo2 P3'
_cell_volume   171.49918002
_cell_formula_units_Z   1
loop_
 _symmetry_equiv_pos_site_id
 _symmetry_equiv_pos_as_xyz
  1  'x, y, z'
loop_
 _atom_site_type_symbol
 _atom_site_label
 _atom_site_symmetry_multiplicity
 _atom_site_fract_x
 _atom_site_fract_y
 _atom_site_fract_z
 _atom_site_occupancy
  Mn  Mn0  1  0.00000000  0.00000000  0.00000000  1
  Mn  Mn1  1  0.50000000  0.50000000  0.50000000  1
  Sb  Sb2  1  0.25000000  0.25000000  0.25000000  1
  Sb  Sb3  1  0.75000000  0.25000000  0.00000000  1
  Sb  Sb4  1  0.25000000  0.75000000  0.50000000  1
  Sb  Sb5  1  0.21686680  0.67882060  0.47835621  1
  P  P6  1  0.35617864  0.53504123  0.75181958  1
  P  P7  1  0.70407381  0.46556210  0.71193736  1
  P  P8  1  0.44691353  0.95226117  0.84173301  1
  Mo  Mo9  1  0.74900393  0.88446564  0.24765004  1
  Mo  Mo10  1  0.04650871  0.85144083  0.85373559  1
  Li  Li11  1  0.36355887  0.94464429  0.95463676  1
  Li  Li12  1  0.37818536  0.52744573  0.45658417  1
