# generated using pymatgen
data_Li2TiCu2(PI)4
_symmetry_space_group_name_H-M   'P 1'
_cell_length_a   6.75613705
_cell_length_b   6.63745146
_cell_length_c   7.91488045
_cell_angle_alpha   94.18159006
_cell_angle_beta   94.91215295
_cell_angle_gamma   93.96514269
_symmetry_Int_Tables_number   1
_chemical_formula_structural   Li2TiCu2(PI)4
_chemical_formula_sum   'Li2 Ti1 Cu2 P4 I4'
_cell_volume   351.66958519
_cell_formula_units_Z   1
loop_
 _symmetry_equiv_pos_site_id
 _symmetry_equiv_pos_as_xyz
  1  'x, y, z'
loop_
 _atom_site_type_symbol
 _atom_site_label
 _atom_site_symmetry_multiplicity
 _atom_site_fract_x
 _atom_site_fract_y
 _atom_site_fract_z
 _atom_site_occupancy
  Ti  Ti0  1  0.00000000  0.00000000  0.00000000  1
  I  I1  1  0.50000000  0.50000000  0.50000000  1
  I  I2  1  0.50000000  0.50000000  0.00000000  1
  I  I3  1  0.50000000  0.00000000  0.50000000  1
  I  I4  1  0.00000000  0.50000000  0.50000000  1
  P  P5  1  0.44141116  0.42116744  0.96248277  1
  P  P6  1  0.36817432  0.29042158  0.22643888  1
  P  P7  1  0.53009098  0.44310583  0.06562026  1
  P  P8  1  0.51578471  0.21228963  0.27500734  1
  Li  Li9  1  0.90576903  0.77939099  0.92951160  1
  Li  Li10  1  0.04704803  0.71365362  0.41242802  1
  Cu  Cu11  1  0.45052280  0.68924119  0.66618299  1
  Cu  Cu12  1  0.27425397  0.32539344  0.19487847  1
