# generated using pymatgen
data_Li3TiI4(OF)3
_symmetry_space_group_name_H-M   'P 1'
_cell_length_a   6.00187425
_cell_length_b   5.75718984
_cell_length_c   6.95003627
_cell_angle_alpha   99.77332677
_cell_angle_beta   102.96936700
_cell_angle_gamma   99.18794529
_symmetry_Int_Tables_number   1
_chemical_formula_structural   Li3TiI4(OF)3
_chemical_formula_sum   'Li3 Ti1 I4 O3 F3'
_cell_volume   225.68501794
_cell_formula_units_Z   1
loop_
 _symmetry_equiv_pos_site_id
 _symmetry_equiv_pos_as_xyz
  1  'x, y, z'
loop_
 _atom_site_type_symbol
 _atom_site_label
 _atom_site_symmetry_multiplicity
 _atom_site_fract_x
 _atom_site_fract_y
 _atom_site_fract_z
 _atom_site_occupancy
  I  I0  1  0.12500000  0.00000000  0.25000000  1
  I  I1  1  0.00000000  0.00000000  0.00000000  1
  I  I2  1  0.37500000  0.00000000  0.25000000  1
  I  I3  1  0.25000000  0.25000000  0.25000000  1
  Li  Li4  1  0.00000000  0.25000000  0.12500000  1
  Li  Li5  1  0.56643329  0.31285929  0.11031207  1
  Li  Li6  1  0.56017695  0.34790621  0.74864132  1
  F  F7  1  0.13659542  0.28249192  0.10544296  1
  F  F8  1  0.52774129  0.12145448  0.44203446  1
  F  F9  1  0.38080362  0.49071213  0.81995880  1
  Ti  Ti10  1  0.08769720  0.34066636  0.53230893  1
  O  O11  1  0.81503394  0.16241447  0.87042590  1
  O  O12  1  0.77223556  0.91849018  0.91111818  1
  O  O13  1  0.19989800  0.22098320  0.88239766  1
