# generated using pymatgen
data_LiMn2Sb4P3
_symmetry_space_group_name_H-M   'P 1'
_cell_length_a   6.58141526
_cell_length_b   6.87583077
_cell_length_c   7.11426518
_cell_angle_alpha   92.20119537
_cell_angle_beta   91.46586385
_cell_angle_gamma   92.46787445
_symmetry_Int_Tables_number   1
_chemical_formula_structural   LiMn2Sb4P3
_chemical_formula_sum   'Li1 Mn2 Sb4 P3'
_cell_volume   321.28414227
_cell_formula_units_Z   1
loop_
 _symmetry_equiv_pos_site_id
 _symmetry_equiv_pos_as_xyz
  1  'x, y, z'
loop_
 _atom_site_type_symbol
 _atom_site_label
 _atom_site_symmetry_multiplicity
 _atom_site_fract_x
 _atom_site_fract_y
 _atom_site_fract_z
 _atom_site_occupancy
  Mn  Mn0  1  0.00000000  0.00000000  0.00000000  1
  Mn  Mn1  1  0.50000000  0.50000000  0.50000000  1
  Sb  Sb2  1  0.50000000  0.50000000  0.00000000  1
  Sb  Sb3  1  0.50000000  0.00000000  0.50000000  1
  Sb  Sb4  1  0.00000000  0.50000000  0.50000000  1
  Sb  Sb5  1  0.58497658  0.18054542  0.42025448  1
  P  P6  1  0.97052617  0.49798016  0.06488205  1
  P  P7  1  0.11107748  0.78339901  0.94298794  1
  P  P8  1  0.28982669  0.94983708  0.44369484  1
  Li  Li9  1  0.58738390  0.82008016  0.43423973  1
