# generated using pymatgen
data_LiTe3As3I2
_symmetry_space_group_name_H-M   'P 1'
_cell_length_a   8.20148393
_cell_length_b   8.58798775
_cell_length_c   7.65735940
_cell_angle_alpha   90.16924547
_cell_angle_beta   90.80521854
_cell_angle_gamma   90.19349276
_symmetry_Int_Tables_number   1
_chemical_formula_structural   LiTe3As3I2
_chemical_formula_sum   'Li2 Te6 As6 I4'
_cell_volume   539.28155182
_cell_formula_units_Z   2
loop_
 _symmetry_equiv_pos_site_id
 _symmetry_equiv_pos_as_xyz
  1  'x, y, z'
loop_
 _atom_site_type_symbol
 _atom_site_label
 _atom_site_symmetry_multiplicity
 _atom_site_fract_x
 _atom_site_fract_y
 _atom_site_fract_z
 _atom_site_occupancy
  Te  Te0  1  0.12500000  0.12500000  0.12500000  1
  Te  Te1  1  0.50000000  0.50000000  0.50000000  1
  Te  Te2  1  0.25000000  0.25000000  0.25000000  1
  Te  Te3  1  0.75000000  0.75000000  0.75000000  1
  Te  Te4  1  0.55188563  0.96942955  0.61546658  1
  Te  Te5  1  0.37642243  0.79905769  0.77504792  1
  I  I6  1  0.87959236  0.84679488  0.16901137  1
  I  I7  1  0.79690567  0.75632454  0.84511217  1
  I  I8  1  0.48337698  0.25353661  0.34080148  1
  I  I9  1  0.01165592  0.06142912  0.20174936  1
  As  As10  1  0.28484086  0.42431962  0.03567172  1
  As  As11  1  0.14329352  0.81846093  0.46341635  1
  As  As12  1  0.22735314  0.53392530  0.05717430  1
  As  As13  1  0.59614015  0.27672156  0.85563016  1
  As  As14  1  0.03315473  0.00470729  0.53012567  1
  As  As15  1  0.43106280  0.52917719  0.67419209  1
  Li  Li16  1  0.20805058  0.71528414  0.28060427  1
  Li  Li17  1  0.65553271  0.16187549  0.91628152  1
