# generated using pymatgen
data_Li2Cu2Ni2As6P5
_symmetry_space_group_name_H-M   'P 1'
_cell_length_a   7.70880767
_cell_length_b   7.54165126
_cell_length_c   8.47327707
_cell_angle_alpha   91.58713615
_cell_angle_beta   91.48886373
_cell_angle_gamma   91.83738646
_symmetry_Int_Tables_number   1
_chemical_formula_structural   Li2Cu2Ni2As6P5
_chemical_formula_sum   'Li2 Cu2 Ni2 As6 P5'
_cell_volume   491.99188848
_cell_formula_units_Z   1
loop_
 _symmetry_equiv_pos_site_id
 _symmetry_equiv_pos_as_xyz
  1  'x, y, z'
loop_
 _atom_site_type_symbol
 _atom_site_label
 _atom_site_symmetry_multiplicity
 _atom_site_fract_x
 _atom_site_fract_y
 _atom_site_fract_z
 _atom_site_occupancy
  P  P0  1  0.12500000  0.00000000  0.25000000  1
  P  P1  1  0.00000000  0.00000000  0.00000000  1
  P  P2  1  0.37500000  0.00000000  0.25000000  1
  P  P3  1  0.25000000  0.25000000  0.25000000  1
  P  P4  1  0.00000000  0.25000000  0.12500000  1
  Li  Li5  1  0.63573192  0.19942434  0.18152663  1
  Li  Li6  1  0.48678305  0.29741456  0.94638080  1
  Cu  Cu7  1  0.99793075  0.81055194  0.32684388  1
  Cu  Cu8  1  0.14700266  0.02737483  0.56911947  1
  Ni  Ni9  1  0.43813107  0.69103876  0.79676266  1
  Ni  Ni10  1  0.71951117  0.04438681  0.68142152  1
  As  As11  1  0.57449441  0.74959044  0.66841518  1
  As  As12  1  0.29270130  0.44352994  0.81919123  1
  As  As13  1  0.62617093  0.48277245  0.89004565  1
  As  As14  1  0.45824791  0.08768055  0.31868701  1
  As  As15  1  0.86585832  0.04111568  0.63676459  1
  As  As16  1  0.87600011  0.75193041  0.73538592  1
