# generated using pymatgen
data_Li2MnSb4P3
_symmetry_space_group_name_H-M   'P 1'
_cell_length_a   6.67686917
_cell_length_b   6.79841083
_cell_length_c   7.41985951
_cell_angle_alpha   93.83146402
_cell_angle_beta   92.36347677
_cell_angle_gamma   94.05774642
_symmetry_Int_Tables_number   1
_chemical_formula_structural   Li2MnSb4P3
_chemical_formula_sum   'Li2 Mn1 Sb4 P3'
_cell_volume   334.85011059
_cell_formula_units_Z   1
loop_
 _symmetry_equiv_pos_site_id
 _symmetry_equiv_pos_as_xyz
  1  'x, y, z'
loop_
 _atom_site_type_symbol
 _atom_site_label
 _atom_site_symmetry_multiplicity
 _atom_site_fract_x
 _atom_site_fract_y
 _atom_site_fract_z
 _atom_site_occupancy
  Mn  Mn0  1  0.00000000  0.00000000  0.00000000  1
  Sb  Sb1  1  0.33300000  0.66700000  0.25000000  1
  Sb  Sb2  1  0.66700000  0.33300000  0.50000000  1
  Sb  Sb3  1  0.00000000  0.00000000  0.75000000  1
  Sb  Sb4  1  0.61043106  0.31112640  0.88631063  1
  P  P5  1  0.77097553  0.90273424  0.03617216  1
  P  P6  1  0.52779429  0.64367311  0.36261345  1
  P  P7  1  0.90447574  0.53003379  0.49164926  1
  Li  Li8  1  0.53477176  0.25312129  0.51748418  1
  Li  Li9  1  0.17459494  0.08594519  0.76517878  1
