# generated using pymatgen
data_Li3(NiAs3)2
_symmetry_space_group_name_H-M   'P 1'
_cell_length_a   7.62879961
_cell_length_b   7.44812391
_cell_length_c   8.91935481
_cell_angle_alpha   91.97553021
_cell_angle_beta   91.25247968
_cell_angle_gamma   92.28928610
_symmetry_Int_Tables_number   1
_chemical_formula_structural   Li3(NiAs3)2
_chemical_formula_sum   'Li3 Ni2 As6'
_cell_volume   505.95744378
_cell_formula_units_Z   1
loop_
 _symmetry_equiv_pos_site_id
 _symmetry_equiv_pos_as_xyz
  1  'x, y, z'
loop_
 _atom_site_type_symbol
 _atom_site_label
 _atom_site_symmetry_multiplicity
 _atom_site_fract_x
 _atom_site_fract_y
 _atom_site_fract_z
 _atom_site_occupancy
  Li  Li0  1  0.12500000  0.00000000  0.25000000  1
  Li  Li1  1  0.00000000  0.00000000  0.00000000  1
  Li  Li2  1  0.37500000  0.00000000  0.25000000  1
  Ni  Ni3  1  0.25000000  0.25000000  0.25000000  1
  Ni  Ni4  1  0.00000000  0.25000000  0.12500000  1
  As  As5  1  0.08887343  0.54741299  0.25295945  1
  As  As6  1  0.26621639  0.04607929  0.68606013  1
  As  As7  1  0.51508133  0.58948965  0.29739253  1
  As  As8  1  0.05575618  0.28543685  0.03873248  1
  As  As9  1  0.62650340  0.24362970  0.05704401  1
  As  As10  1  0.31835398  0.24726404  0.54363671  1
