# generated using pymatgen
data_Li3TiI4(OF)3
_symmetry_space_group_name_H-M   'P 1'
_cell_length_a   5.73072288
_cell_length_b   5.55804260
_cell_length_c   6.91029661
_cell_angle_alpha   98.17016432
_cell_angle_beta   101.06050969
_cell_angle_gamma   97.61069946
_symmetry_Int_Tables_number   1
_chemical_formula_structural   Li3TiI4(OF)3
_chemical_formula_sum   'Li3 Ti1 I4 O3 F3'
_cell_volume   210.91392582
_cell_formula_units_Z   1
loop_
 _symmetry_equiv_pos_site_id
 _symmetry_equiv_pos_as_xyz
  1  'x, y, z'
loop_
 _atom_site_type_symbol
 _atom_site_label
 _atom_site_symmetry_multiplicity
 _atom_site_fract_x
 _atom_site_fract_y
 _atom_site_fract_z
 _atom_site_occupancy
  I  I0  1  0.00000000  0.00000000  0.00000000  1
  I  I1  1  0.50000000  0.50000000  0.50000000  1
  I  I2  1  0.25000000  0.25000000  0.25000000  1
  I  I3  1  0.75000000  0.25000000  0.00000000  1
  Li  Li4  1  0.25000000  0.75000000  0.50000000  1
  Li  Li5  1  0.97076263  0.50708402  0.83654847  1
  Li  Li6  1  0.75954767  0.02149983  0.68890395  1
  F  F7  1  0.85617556  0.97185350  0.40920400  1
  F  F8  1  0.68344629  0.98894201  0.01427533  1
  F  F9  1  0.64985387  0.41884161  0.91213879  1
  Ti  Ti10  1  0.78811522  0.87866474  0.37477336  1
  O  O11  1  0.41393747  0.38706192  0.77217634  1
  O  O12  1  0.07076182  0.01963770  0.73537638  1
  O  O13  1  0.17828776  0.72096212  0.24065478  1
