# generated using pymatgen
data_Li3Lu(NiAs3)2
_symmetry_space_group_name_H-M   'P 1'
_cell_length_a   7.67687805
_cell_length_b   7.48435361
_cell_length_c   8.69693598
_cell_angle_alpha   91.66968979
_cell_angle_beta   91.18822240
_cell_angle_gamma   91.93438276
_symmetry_Int_Tables_number   1
_chemical_formula_structural   Li3Lu(NiAs3)2
_chemical_formula_sum   'Li3 Lu1 Ni2 As6'
_cell_volume   499.08043827
_cell_formula_units_Z   1
loop_
 _symmetry_equiv_pos_site_id
 _symmetry_equiv_pos_as_xyz
  1  'x, y, z'
loop_
 _atom_site_type_symbol
 _atom_site_label
 _atom_site_symmetry_multiplicity
 _atom_site_fract_x
 _atom_site_fract_y
 _atom_site_fract_z
 _atom_site_occupancy
  Lu  Lu0  1  0.12500000  0.12500000  0.12500000  1
  Li  Li1  1  0.50000000  0.50000000  0.50000000  1
  Li  Li2  1  0.25000000  0.25000000  0.25000000  1
  Li  Li3  1  0.75000000  0.75000000  0.75000000  1
  Ni  Ni4  1  0.86692645  0.53230103  0.12621903  1
  Ni  Ni5  1  0.12177435  0.92886630  0.43873207  1
  As  As6  1  0.76508606  0.70124587  0.60594676  1
  As  As7  1  0.22723835  0.26033486  0.44834706  1
  As  As8  1  0.37005592  0.82885491  0.18864598  1
  As  As9  1  0.37991471  0.44204986  0.78992421  1
  As  As10  1  0.54963235  0.28181994  0.23753807  1
  As  As11  1  0.44502680  0.98669569  0.26399937  1
