# generated using pymatgen
data_LiMn2Sb4(MoP)2
_symmetry_space_group_name_H-M   'P 1'
_cell_length_a   4.94130151
_cell_length_b   5.10989012
_cell_length_c   5.97028302
_cell_angle_alpha   97.23785664
_cell_angle_beta   93.17135309
_cell_angle_gamma   95.69677156
_symmetry_Int_Tables_number   1
_chemical_formula_structural   LiMn2Sb4(MoP)2
_chemical_formula_sum   'Li1 Mn2 Sb4 Mo2 P2'
_cell_volume   148.45522263
_cell_formula_units_Z   1
loop_
 _symmetry_equiv_pos_site_id
 _symmetry_equiv_pos_as_xyz
  1  'x, y, z'
loop_
 _atom_site_type_symbol
 _atom_site_label
 _atom_site_symmetry_multiplicity
 _atom_site_fract_x
 _atom_site_fract_y
 _atom_site_fract_z
 _atom_site_occupancy
  Mn  Mn0  1  0.12500000  0.00000000  0.25000000  1
  Mn  Mn1  1  0.00000000  0.00000000  0.00000000  1
  Sb  Sb2  1  0.37500000  0.00000000  0.25000000  1
  Sb  Sb3  1  0.25000000  0.25000000  0.25000000  1
  Sb  Sb4  1  0.00000000  0.25000000  0.12500000  1
  Sb  Sb5  1  0.23757085  0.92461033  0.33786746  1
  P  P6  1  0.50186733  0.03167458  0.42307431  1
  P  P7  1  0.38920595  0.99520612  0.98729430  1
  Mo  Mo8  1  0.77704613  0.33321758  0.86827649  1
  Mo  Mo9  1  0.33714677  0.79577751  0.59427956  1
  Li  Li10  1  0.28265919  0.86559505  0.39304192  1
