# generated using pymatgen
data_Li2MnSb4P3
_symmetry_space_group_name_H-M   'P 1'
_cell_length_a   6.84377086
_cell_length_b   7.33070548
_cell_length_c   7.46445912
_cell_angle_alpha   92.08988914
_cell_angle_beta   92.47566679
_cell_angle_gamma   92.37855188
_symmetry_Int_Tables_number   1
_chemical_formula_structural   Li2MnSb4P3
_chemical_formula_sum   'Li2 Mn1 Sb4 P3'
_cell_volume   373.54287906
_cell_formula_units_Z   1
loop_
 _symmetry_equiv_pos_site_id
 _symmetry_equiv_pos_as_xyz
  1  'x, y, z'
loop_
 _atom_site_type_symbol
 _atom_site_label
 _atom_site_symmetry_multiplicity
 _atom_site_fract_x
 _atom_site_fract_y
 _atom_site_fract_z
 _atom_site_occupancy
  Mn  Mn0  1  0.00000000  0.00000000  0.00000000  1
  Sb  Sb1  1  0.33300000  0.66700000  0.25000000  1
  Sb  Sb2  1  0.66700000  0.33300000  0.50000000  1
  Sb  Sb3  1  0.00000000  0.00000000  0.75000000  1
  Sb  Sb4  1  0.32059089  0.84172195  0.37091003  1
  P  P5  1  0.66875918  0.27940157  0.39829182  1
  P  P6  1  0.22122086  0.52509141  0.22644098  1
  P  P7  1  0.27402790  0.09888826  0.37167210  1
  Li  Li8  1  0.14615052  0.10445711  0.34131778  1
  Li  Li9  1  0.85657890  0.95720951  0.00373454  1
