# generated using pymatgen
data_Li2TiCu2O3F2
_symmetry_space_group_name_H-M   'P 1'
_cell_length_a   7.61932411
_cell_length_b   7.60978385
_cell_length_c   7.06798115
_cell_angle_alpha   93.02829029
_cell_angle_beta   94.29310567
_cell_angle_gamma   93.72432679
_symmetry_Int_Tables_number   1
_chemical_formula_structural   Li2TiCu2O3F2
_chemical_formula_sum   'Li2 Ti1 Cu2 O3 F2'
_cell_volume   407.11266494
_cell_formula_units_Z   1
loop_
 _symmetry_equiv_pos_site_id
 _symmetry_equiv_pos_as_xyz
  1  'x, y, z'
loop_
 _atom_site_type_symbol
 _atom_site_label
 _atom_site_symmetry_multiplicity
 _atom_site_fract_x
 _atom_site_fract_y
 _atom_site_fract_z
 _atom_site_occupancy
  Li  Li0  1  0.12500000  0.00000000  0.25000000  1
  Li  Li1  1  0.00000000  0.00000000  0.00000000  1
  Cu  Cu2  1  0.37500000  0.00000000  0.25000000  1
  Cu  Cu3  1  0.25000000  0.25000000  0.25000000  1
  F  F4  1  0.00000000  0.25000000  0.12500000  1
  F  F5  1  0.12981761  0.49164585  0.00946365  1
  Ti  Ti6  1  0.17268466  0.26665489  0.34640740  1
  O  O7  1  0.59624015  0.61955773  0.09967361  1
  O  O8  1  0.14187649  0.83403720  0.88981583  1
  O  O9  1  0.88392356  0.67851129  0.18802200  1
