# generated using pymatgen
data_Li2TiI4(O2F)2
_symmetry_space_group_name_H-M   'P 1'
_cell_length_a   6.85365381
_cell_length_b   6.81056637
_cell_length_c   7.32406692
_cell_angle_alpha   91.06237857
_cell_angle_beta   95.05447459
_cell_angle_gamma   91.21458238
_symmetry_Int_Tables_number   1
_chemical_formula_structural   Li2TiI4(O2F)2
_chemical_formula_sum   'Li2 Ti1 I4 O4 F2'
_cell_volume   340.39000690
_cell_formula_units_Z   1
loop_
 _symmetry_equiv_pos_site_id
 _symmetry_equiv_pos_as_xyz
  1  'x, y, z'
loop_
 _atom_site_type_symbol
 _atom_site_label
 _atom_site_symmetry_multiplicity
 _atom_site_fract_x
 _atom_site_fract_y
 _atom_site_fract_z
 _atom_site_occupancy
  I  I0  1  0.12500000  0.00000000  0.25000000  1
  I  I1  1  0.00000000  0.00000000  0.00000000  1
  I  I2  1  0.37500000  0.00000000  0.25000000  1
  I  I3  1  0.25000000  0.25000000  0.25000000  1
  Li  Li4  1  0.00000000  0.25000000  0.12500000  1
  Li  Li5  1  0.39389292  0.21173830  0.78311615  1
  F  F6  1  0.35620217  0.88748742  0.36988221  1
  F  F7  1  0.24912175  0.78459986  0.70418619  1
  Ti  Ti8  1  0.23614311  0.31257813  0.64718494  1
  O  O9  1  0.65659877  0.13011012  0.94696022  1
  O  O10  1  0.35900433  0.83702852  0.35774116  1
  O  O11  1  0.01040543  0.29015151  0.17972464  1
  O  O12  1  0.39368916  0.83823523  0.41092644  1
