# generated using pymatgen
data_LiMnSb4Mo2P3
_symmetry_space_group_name_H-M   'P 1'
_cell_length_a   5.91515732
_cell_length_b   5.97886471
_cell_length_c   6.96617340
_cell_angle_alpha   95.43577414
_cell_angle_beta   92.83068776
_cell_angle_gamma   95.57285213
_symmetry_Int_Tables_number   1
_chemical_formula_structural   LiMnSb4Mo2P3
_chemical_formula_sum   'Li1 Mn1 Sb4 Mo2 P3'
_cell_volume   243.67099052
_cell_formula_units_Z   1
loop_
 _symmetry_equiv_pos_site_id
 _symmetry_equiv_pos_as_xyz
  1  'x, y, z'
loop_
 _atom_site_type_symbol
 _atom_site_label
 _atom_site_symmetry_multiplicity
 _atom_site_fract_x
 _atom_site_fract_y
 _atom_site_fract_z
 _atom_site_occupancy
  Mn  Mn0  1  0.00000000  0.00000000  0.00000000  1
  Sb  Sb1  1  0.50000000  0.50000000  0.50000000  1
  Sb  Sb2  1  0.50000000  0.50000000  0.00000000  1
  Sb  Sb3  1  0.50000000  0.00000000  0.50000000  1
  Sb  Sb4  1  0.00000000  0.50000000  0.50000000  1
  P  P5  1  0.31050222  0.89165111  0.00620721  1
  P  P6  1  0.01185505  0.81610352  0.99516374  1
  P  P7  1  0.35748235  0.04601933  0.57966030  1
  Mo  Mo8  1  0.94093201  0.37962644  0.95710183  1
  Mo  Mo9  1  0.41522238  0.85420805  0.85442752  1
  Li  Li10  1  0.46431800  0.29730141  0.12669835  1
