# generated using pymatgen
data_Li2TiNi2(OF)2
_symmetry_space_group_name_H-M   'P 1'
_cell_length_a   6.69482388
_cell_length_b   6.67233163
_cell_length_c   7.63083752
_cell_angle_alpha   94.62488097
_cell_angle_beta   96.02353932
_cell_angle_gamma   95.62963992
_symmetry_Int_Tables_number   1
_chemical_formula_structural   Li2TiNi2(OF)2
_chemical_formula_sum   'Li2 Ti1 Ni2 O2 F2'
_cell_volume   335.92637836
_cell_formula_units_Z   1
loop_
 _symmetry_equiv_pos_site_id
 _symmetry_equiv_pos_as_xyz
  1  'x, y, z'
loop_
 _atom_site_type_symbol
 _atom_site_label
 _atom_site_symmetry_multiplicity
 _atom_site_fract_x
 _atom_site_fract_y
 _atom_site_fract_z
 _atom_site_occupancy
  Li  Li0  1  0.12500000  0.00000000  0.25000000  1
  Li  Li1  1  0.00000000  0.00000000  0.00000000  1
  F  F2  1  0.37500000  0.00000000  0.25000000  1
  F  F3  1  0.25000000  0.25000000  0.25000000  1
  Ni  Ni4  1  0.00000000  0.25000000  0.12500000  1
  Ni  Ni5  1  0.67432772  0.82857614  0.92585323  1
  Ti  Ti6  1  0.89436211  0.27602391  0.08204760  1
  O  O7  1  0.14735656  0.99782720  0.34250943  1
  O  O8  1  0.58635403  0.93238606  0.41195998  1
