# generated using pymatgen
data_Li2Ti(CuO)2
_symmetry_space_group_name_H-M   'P 1'
_cell_length_a   6.69017733
_cell_length_b   6.66859609
_cell_length_c   7.62673234
_cell_angle_alpha   94.63947125
_cell_angle_beta   96.04710222
_cell_angle_gamma   95.64789828
_symmetry_Int_Tables_number   1
_chemical_formula_structural   Li2Ti(CuO)2
_chemical_formula_sum   'Li2 Ti1 Cu2 O2'
_cell_volume   335.28915666
_cell_formula_units_Z   1
loop_
 _symmetry_equiv_pos_site_id
 _symmetry_equiv_pos_as_xyz
  1  'x, y, z'
loop_
 _atom_site_type_symbol
 _atom_site_label
 _atom_site_symmetry_multiplicity
 _atom_site_fract_x
 _atom_site_fract_y
 _atom_site_fract_z
 _atom_site_occupancy
  Li  Li0  1  0.00000000  0.00000000  0.00000000  1
  Li  Li1  1  0.50000000  0.50000000  0.50000000  1
  Cu  Cu2  1  0.25000000  0.25000000  0.25000000  1
  Cu  Cu3  1  0.75000000  0.25000000  0.00000000  1
  Ti  Ti4  1  0.25000000  0.75000000  0.50000000  1
  O  O5  1  0.40149196  0.85204743  0.36657347  1
  O  O6  1  0.72526226  0.75126044  0.04757095  1
