# generated using pymatgen
data_Li2Sb4P3
_symmetry_space_group_name_H-M   'P 1'
_cell_length_a   6.18227399
_cell_length_b   6.44279374
_cell_length_c   6.94530067
_cell_angle_alpha   96.62335479
_cell_angle_beta   91.00482826
_cell_angle_gamma   96.58547252
_symmetry_Int_Tables_number   1
_chemical_formula_structural   Li2Sb4P3
_chemical_formula_sum   'Li2 Sb4 P3'
_cell_volume   272.84692373
_cell_formula_units_Z   1
loop_
 _symmetry_equiv_pos_site_id
 _symmetry_equiv_pos_as_xyz
  1  'x, y, z'
loop_
 _atom_site_type_symbol
 _atom_site_label
 _atom_site_symmetry_multiplicity
 _atom_site_fract_x
 _atom_site_fract_y
 _atom_site_fract_z
 _atom_site_occupancy
  Sb  Sb0  1  0.12500000  0.00000000  0.25000000  1
  Sb  Sb1  1  0.00000000  0.00000000  0.00000000  1
  Sb  Sb2  1  0.37500000  0.00000000  0.25000000  1
  Sb  Sb3  1  0.25000000  0.25000000  0.25000000  1
  P  P4  1  0.00000000  0.25000000  0.12500000  1
  P  P5  1  0.98825503  0.36796411  0.14992246  1
  P  P6  1  0.93912462  0.20005059  0.59085111  1
  Li  Li7  1  0.49098997  0.18666409  0.63088049  1
  Li  Li8  1  0.30805873  0.30048037  0.64188101  1
