# generated using pymatgen
data_Li2MnSb4P3
_symmetry_space_group_name_H-M   'P 1'
_cell_length_a   6.08853692
_cell_length_b   6.54568056
_cell_length_c   6.95091128
_cell_angle_alpha   95.99356960
_cell_angle_beta   91.86072479
_cell_angle_gamma   96.09179054
_symmetry_Int_Tables_number   1
_chemical_formula_structural   Li2MnSb4P3
_chemical_formula_sum   'Li2 Mn1 Sb4 P3'
_cell_volume   273.68315722
_cell_formula_units_Z   1
loop_
 _symmetry_equiv_pos_site_id
 _symmetry_equiv_pos_as_xyz
  1  'x, y, z'
loop_
 _atom_site_type_symbol
 _atom_site_label
 _atom_site_symmetry_multiplicity
 _atom_site_fract_x
 _atom_site_fract_y
 _atom_site_fract_z
 _atom_site_occupancy
  Mn  Mn0  1  0.00000000  0.00000000  0.00000000  1
  Sb  Sb1  1  0.50000000  0.50000000  0.50000000  1
  Sb  Sb2  1  0.25000000  0.25000000  0.25000000  1
  Sb  Sb3  1  0.75000000  0.25000000  0.00000000  1
  Sb  Sb4  1  0.25000000  0.75000000  0.50000000  1
  P  P5  1  0.48077729  0.06618061  0.68807934  1
  P  P6  1  0.10566253  0.25752349  0.42581833  1
  P  P7  1  0.30487567  0.41424691  0.33314670  1
  Li  Li8  1  0.79028564  0.41324993  0.66725852  1
  Li  Li9  1  0.86303214  0.38302413  0.85590848  1
