# generated using pymatgen
data_LiMn2Ni3Mo2P3
_symmetry_space_group_name_H-M   'P 1'
_cell_length_a   4.59475017
_cell_length_b   4.76651351
_cell_length_c   6.19594140
_cell_angle_alpha   100.71129779
_cell_angle_beta   92.95441623
_cell_angle_gamma   100.85417242
_symmetry_Int_Tables_number   1
_chemical_formula_structural   LiMn2Ni3Mo2P3
_chemical_formula_sum   'Li1 Mn2 Ni3 Mo2 P3'
_cell_volume   130.41957278
_cell_formula_units_Z   1
loop_
 _symmetry_equiv_pos_site_id
 _symmetry_equiv_pos_as_xyz
  1  'x, y, z'
loop_
 _atom_site_type_symbol
 _atom_site_label
 _atom_site_symmetry_multiplicity
 _atom_site_fract_x
 _atom_site_fract_y
 _atom_site_fract_z
 _atom_site_occupancy
  Ni  Ni0  1  0.00000000  0.00000000  0.00000000  1
  Ni  Ni1  1  0.50000000  0.50000000  0.50000000  1
  Ni  Ni2  1  0.25000000  0.25000000  0.25000000  1
  Mn  Mn3  1  0.75000000  0.25000000  0.00000000  1
  Mn  Mn4  1  0.25000000  0.75000000  0.50000000  1
  P  P5  1  0.59511918  0.12456560  0.40131416  1
  P  P6  1  0.49590961  0.01678249  0.80171713  1
  P  P7  1  0.88029680  0.84079453  0.36489621  1
  Mo  Mo8  1  0.64227631  0.20300413  0.55920752  1
  Mo  Mo9  1  0.80225125  0.77544650  0.85391466  1
  Li  Li10  1  0.85549791  0.47972239  0.15592966  1
