# generated using pymatgen
data_Li4Ti2P3F3
_symmetry_space_group_name_H-M   'P 1'
_cell_length_a   4.04189410
_cell_length_b   3.52870693
_cell_length_c   6.69436671
_cell_angle_alpha   100.71372357
_cell_angle_beta   103.39703079
_cell_angle_gamma   99.74822369
_symmetry_Int_Tables_number   1
_chemical_formula_structural   Li4Ti2P3F3
_chemical_formula_sum   'Li4 Ti2 P3 F3'
_cell_volume   88.98060367
_cell_formula_units_Z   1
loop_
 _symmetry_equiv_pos_site_id
 _symmetry_equiv_pos_as_xyz
  1  'x, y, z'
loop_
 _atom_site_type_symbol
 _atom_site_label
 _atom_site_symmetry_multiplicity
 _atom_site_fract_x
 _atom_site_fract_y
 _atom_site_fract_z
 _atom_site_occupancy
  F  F0  1  0.12500000  0.00000000  0.25000000  1
  F  F1  1  0.00000000  0.00000000  0.00000000  1
  F  F2  1  0.37500000  0.00000000  0.25000000  1
  Ti  Ti3  1  0.25000000  0.25000000  0.25000000  1
  Ti  Ti4  1  0.00000000  0.25000000  0.12500000  1
  P  P5  1  0.49975949  0.03751635  0.46005301  1
  P  P6  1  0.52217326  0.32646016  0.59631831  1
  P  P7  1  0.08128187  0.83168525  0.42000592  1
  Li  Li8  1  0.61582495  0.78912149  0.77049184  1
  Li  Li9  1  0.67907781  0.00824531  0.78794651  1
  Li  Li10  1  0.36426235  0.98034326  0.13218084  1
  Li  Li11  1  0.48429147  0.60632021  0.68858794  1
