# generated using pymatgen
data_Li2Mn2(SbP)3
_symmetry_space_group_name_H-M   'P 1'
_cell_length_a   6.57741357
_cell_length_b   7.14396872
_cell_length_c   7.33554943
_cell_angle_alpha   92.53615772
_cell_angle_beta   92.93885127
_cell_angle_gamma   92.85749397
_symmetry_Int_Tables_number   1
_chemical_formula_structural   Li2Mn2(SbP)3
_chemical_formula_sum   'Li2 Mn2 Sb3 P3'
_cell_volume   343.42884504
_cell_formula_units_Z   1
loop_
 _symmetry_equiv_pos_site_id
 _symmetry_equiv_pos_as_xyz
  1  'x, y, z'
loop_
 _atom_site_type_symbol
 _atom_site_label
 _atom_site_symmetry_multiplicity
 _atom_site_fract_x
 _atom_site_fract_y
 _atom_site_fract_z
 _atom_site_occupancy
  Mn  Mn0  1  0.00000000  0.00000000  0.00000000  1
  Mn  Mn1  1  0.50000000  0.50000000  0.50000000  1
  Sb  Sb2  1  0.25000000  0.25000000  0.25000000  1
  Sb  Sb3  1  0.75000000  0.25000000  0.00000000  1
  Sb  Sb4  1  0.25000000  0.75000000  0.50000000  1
  P  P5  1  0.62959813  0.49185126  0.85300219  1
  P  P6  1  0.37869868  0.91730969  0.22681111  1
  P  P7  1  0.48286169  0.82335769  0.20342616  1
  Li  Li8  1  0.82982936  0.69693052  0.25062782  1
  Li  Li9  1  0.57251312  0.02837041  0.84912080  1
