# generated using pymatgen
data_Li2TiMo2P3F4
_symmetry_space_group_name_H-M   'P 1'
_cell_length_a   4.17203277
_cell_length_b   4.45240943
_cell_length_c   6.37661731
_cell_angle_alpha   103.16939392
_cell_angle_beta   95.98557459
_cell_angle_gamma   103.67227671
_symmetry_Int_Tables_number   1
_chemical_formula_structural   Li2TiMo2P3F4
_chemical_formula_sum   'Li2 Ti1 Mo2 P3 F4'
_cell_volume   110.48982703
_cell_formula_units_Z   1
loop_
 _symmetry_equiv_pos_site_id
 _symmetry_equiv_pos_as_xyz
  1  'x, y, z'
loop_
 _atom_site_type_symbol
 _atom_site_label
 _atom_site_symmetry_multiplicity
 _atom_site_fract_x
 _atom_site_fract_y
 _atom_site_fract_z
 _atom_site_occupancy
  F  F0  1  0.00000000  0.00000000  0.00000000  1
  F  F1  1  0.50000000  0.50000000  0.50000000  1
  F  F2  1  0.50000000  0.50000000  0.00000000  1
  F  F3  1  0.50000000  0.00000000  0.50000000  1
  Ti  Ti4  1  0.00000000  0.50000000  0.50000000  1
  P  P5  1  0.24205687  0.07513809  0.21427214  1
  P  P6  1  0.95612482  0.41634836  0.96783689  1
  P  P7  1  0.92390034  0.23605505  0.32712489  1
  Mo  Mo8  1  0.54631348  0.80873710  0.56131903  1
  Mo  Mo9  1  0.67491555  0.08740185  0.00228757  1
  Li  Li10  1  0.83387094  0.66258143  0.08772622  1
  Li  Li11  1  0.66782092  0.99128182  0.60500331  1
