# generated using pymatgen
data_LiTi2Se5OF2
_symmetry_space_group_name_H-M   'P 1'
_cell_length_a   6.59870430
_cell_length_b   6.85475925
_cell_length_c   7.35375970
_cell_angle_alpha   91.04946992
_cell_angle_beta   94.99305915
_cell_angle_gamma   91.19982435
_symmetry_Int_Tables_number   1
_chemical_formula_structural   LiTi2Se5OF2
_chemical_formula_sum   'Li1 Ti2 Se5 O1 F2'
_cell_volume   331.22652679
_cell_formula_units_Z   1
loop_
 _symmetry_equiv_pos_site_id
 _symmetry_equiv_pos_as_xyz
  1  'x, y, z'
loop_
 _atom_site_type_symbol
 _atom_site_label
 _atom_site_symmetry_multiplicity
 _atom_site_fract_x
 _atom_site_fract_y
 _atom_site_fract_z
 _atom_site_occupancy
  Li  Li0  1  0.12500000  0.00000000  0.25000000  1
  Se  Se1  1  0.00000000  0.00000000  0.00000000  1
  Se  Se2  1  0.37500000  0.00000000  0.25000000  1
  Se  Se3  1  0.25000000  0.25000000  0.25000000  1
  Se  Se4  1  0.00000000  0.25000000  0.12500000  1
  Se  Se5  1  0.34339301  0.66622156  0.04908998  1
  F  F6  1  0.52902067  0.47013889  0.15532384  1
  F  F7  1  0.69929020  0.75944544  0.96069968  1
  Ti  Ti8  1  0.38116889  0.00108255  0.40810092  1
  Ti  Ti9  1  0.73098440  0.03588306  0.55671129  1
  O  O10  1  0.37253931  0.22229782  0.62694528  1
