# generated using pymatgen
data_Li2MnSb4P3
_symmetry_space_group_name_H-M   'P 1'
_cell_length_a   6.86702386
_cell_length_b   7.26841635
_cell_length_c   7.50184915
_cell_angle_alpha   92.15114392
_cell_angle_beta   92.54822874
_cell_angle_gamma   92.44826738
_symmetry_Int_Tables_number   1
_chemical_formula_structural   Li2MnSb4P3
_chemical_formula_sum   'Li2 Mn1 Sb4 P3'
_cell_volume   373.43168924
_cell_formula_units_Z   1
loop_
 _symmetry_equiv_pos_site_id
 _symmetry_equiv_pos_as_xyz
  1  'x, y, z'
loop_
 _atom_site_type_symbol
 _atom_site_label
 _atom_site_symmetry_multiplicity
 _atom_site_fract_x
 _atom_site_fract_y
 _atom_site_fract_z
 _atom_site_occupancy
  Mn  Mn0  1  0.12500000  0.12500000  0.12500000  1
  Sb  Sb1  1  0.50000000  0.50000000  0.50000000  1
  Sb  Sb2  1  0.25000000  0.25000000  0.25000000  1
  Sb  Sb3  1  0.75000000  0.75000000  0.75000000  1
  Sb  Sb4  1  0.09410994  0.88877017  0.67834653  1
  P  P5  1  0.28387070  0.70370682  0.76344903  1
  P  P6  1  0.91340407  0.56201430  0.75250241  1
  P  P7  1  0.12243452  0.15516900  0.28160859  1
  Li  Li8  1  0.90483496  0.91141429  0.58989083  1
  Li  Li9  1  0.13506844  0.50464686  0.21667801  1
