# generated using pymatgen
data_Li2Ni2P4(OF)3
_symmetry_space_group_name_H-M   'P 1'
_cell_length_a   7.13614356
_cell_length_b   6.90131632
_cell_length_c   7.90645302
_cell_angle_alpha   91.47006289
_cell_angle_beta   92.53954488
_cell_angle_gamma   91.69747649
_symmetry_Int_Tables_number   1
_chemical_formula_structural   Li2Ni2P4(OF)3
_chemical_formula_sum   'Li2 Ni2 P4 O3 F3'
_cell_volume   388.68825633
_cell_formula_units_Z   1
loop_
 _symmetry_equiv_pos_site_id
 _symmetry_equiv_pos_as_xyz
  1  'x, y, z'
loop_
 _atom_site_type_symbol
 _atom_site_label
 _atom_site_symmetry_multiplicity
 _atom_site_fract_x
 _atom_site_fract_y
 _atom_site_fract_z
 _atom_site_occupancy
  P  P0  1  0.12500000  0.00000000  0.25000000  1
  P  P1  1  0.00000000  0.00000000  0.00000000  1
  P  P2  1  0.37500000  0.00000000  0.25000000  1
  P  P3  1  0.25000000  0.25000000  0.25000000  1
  Li  Li4  1  0.00000000  0.25000000  0.12500000  1
  Li  Li5  1  0.85379193  0.95183432  0.46212991  1
  F  F6  1  0.92137870  0.95498672  0.67899564  1
  F  F7  1  0.12291317  0.76991359  0.65161329  1
  F  F8  1  0.27650663  0.70213374  0.57621261  1
  Ni  Ni9  1  0.49785653  0.09465884  0.01717872  1
  Ni  Ni10  1  0.65795870  0.67059104  0.89819054  1
  O  O11  1  0.01346626  0.49998411  0.78217739  1
  O  O12  1  0.66290892  0.47742571  0.68105456  1
  O  O13  1  0.45769435  0.32607896  0.54969346  1
