# generated using pymatgen
data_LiTiS3
_symmetry_space_group_name_H-M   'P 1'
_cell_length_a   6.35662334
_cell_length_b   6.35900780
_cell_length_c   7.19891230
_cell_angle_alpha   91.08984976
_cell_angle_beta   94.46160268
_cell_angle_gamma   90.76073990
_symmetry_Int_Tables_number   1
_chemical_formula_structural   LiTiS3
_chemical_formula_sum   'Li1 Ti1 S3'
_cell_volume   290.02705053
_cell_formula_units_Z   1
loop_
 _symmetry_equiv_pos_site_id
 _symmetry_equiv_pos_as_xyz
  1  'x, y, z'
loop_
 _atom_site_type_symbol
 _atom_site_label
 _atom_site_symmetry_multiplicity
 _atom_site_fract_x
 _atom_site_fract_y
 _atom_site_fract_z
 _atom_site_occupancy
  Li  Li0  1  0.12500000  0.00000000  0.25000000  1
  S  S1  1  0.00000000  0.00000000  0.00000000  1
  S  S2  1  0.37500000  0.00000000  0.25000000  1
  S  S3  1  0.25000000  0.25000000  0.25000000  1
  Ti  Ti4  1  0.00000000  0.25000000  0.12500000  1
