# generated using pymatgen
data_Li2TiP3(ClF)2
_symmetry_space_group_name_H-M   'P 1'
_cell_length_a   7.57722261
_cell_length_b   7.30779257
_cell_length_c   7.59285558
_cell_angle_alpha   92.47120154
_cell_angle_beta   93.74004337
_cell_angle_gamma   92.31672285
_symmetry_Int_Tables_number   1
_chemical_formula_structural   Li2TiP3(ClF)2
_chemical_formula_sum   'Li2 Ti1 P3 Cl2 F2'
_cell_volume   418.75750864
_cell_formula_units_Z   1
loop_
 _symmetry_equiv_pos_site_id
 _symmetry_equiv_pos_as_xyz
  1  'x, y, z'
loop_
 _atom_site_type_symbol
 _atom_site_label
 _atom_site_symmetry_multiplicity
 _atom_site_fract_x
 _atom_site_fract_y
 _atom_site_fract_z
 _atom_site_occupancy
  P  P0  1  0.00000000  0.00000000  0.00000000  1
  P  P1  1  0.50000000  0.50000000  0.50000000  1
  P  P2  1  0.50000000  0.50000000  0.00000000  1
  Li  Li3  1  0.50000000  0.00000000  0.50000000  1
  Li  Li4  1  0.00000000  0.50000000  0.50000000  1
  F  F5  1  0.98796060  0.82653522  0.36699581  1
  F  F6  1  0.14425316  0.23848703  0.68666558  1
  Cl  Cl7  1  0.07278644  0.66015903  0.20319917  1
  Cl  Cl8  1  0.07355186  0.22233280  0.33478731  1
  Ti  Ti9  1  0.85536619  0.55099484  0.75360847  1
