# generated using pymatgen
data_Li2Mn2(SbP)3
_symmetry_space_group_name_H-M   'P 1'
_cell_length_a   6.32265063
_cell_length_b   6.84807957
_cell_length_c   7.21857842
_cell_angle_alpha   93.03197160
_cell_angle_beta   93.40383441
_cell_angle_gamma   93.36765009
_symmetry_Int_Tables_number   1
_chemical_formula_structural   Li2Mn2(SbP)3
_chemical_formula_sum   'Li2 Mn2 Sb3 P3'
_cell_volume   310.96105002
_cell_formula_units_Z   1
loop_
 _symmetry_equiv_pos_site_id
 _symmetry_equiv_pos_as_xyz
  1  'x, y, z'
loop_
 _atom_site_type_symbol
 _atom_site_label
 _atom_site_symmetry_multiplicity
 _atom_site_fract_x
 _atom_site_fract_y
 _atom_site_fract_z
 _atom_site_occupancy
  Mn  Mn0  1  0.12500000  0.12500000  0.12500000  1
  Mn  Mn1  1  0.50000000  0.50000000  0.50000000  1
  Sb  Sb2  1  0.25000000  0.25000000  0.25000000  1
  Sb  Sb3  1  0.75000000  0.75000000  0.75000000  1
  Sb  Sb4  1  0.26078468  0.03848835  0.80944925  1
  P  P5  1  0.52224521  0.27515671  0.92816494  1
  P  P6  1  0.84830384  0.85616046  0.18626127  1
  P  P7  1  0.43584170  0.66156794  0.57309450  1
  Li  Li8  1  0.19036857  0.66970404  0.37964358  1
  Li  Li9  1  0.53056175  0.87020887  0.96454732  1
