# generated using pymatgen
data_Li2MnSb4Mo2P3
_symmetry_space_group_name_H-M   'P 1'
_cell_length_a   4.08830317
_cell_length_b   4.31598732
_cell_length_c   6.42061559
_cell_angle_alpha   102.35360700
_cell_angle_beta   96.47546474
_cell_angle_gamma   102.92374438
_symmetry_Int_Tables_number   1
_chemical_formula_structural   Li2MnSb4Mo2P3
_chemical_formula_sum   'Li2 Mn1 Sb4 Mo2 P3'
_cell_volume   106.31944793
_cell_formula_units_Z   1
loop_
 _symmetry_equiv_pos_site_id
 _symmetry_equiv_pos_as_xyz
  1  'x, y, z'
loop_
 _atom_site_type_symbol
 _atom_site_label
 _atom_site_symmetry_multiplicity
 _atom_site_fract_x
 _atom_site_fract_y
 _atom_site_fract_z
 _atom_site_occupancy
  Mn  Mn0  1  0.00000000  0.00000000  0.00000000  1
  Sb  Sb1  1  0.50000000  0.50000000  0.50000000  1
  Sb  Sb2  1  0.25000000  0.25000000  0.25000000  1
  Sb  Sb3  1  0.75000000  0.25000000  0.00000000  1
  Sb  Sb4  1  0.25000000  0.75000000  0.50000000  1
  P  P5  1  0.71751649  0.22398933  0.09808457  1
  P  P6  1  0.65198035  0.43785553  0.47484264  1
  P  P7  1  0.62138970  0.86925022  0.64230748  1
  Mo  Mo8  1  0.21289059  0.37075758  0.11558815  1
  Mo  Mo9  1  0.38805011  0.45314767  0.99562735  1
  Li  Li10  1  0.23070857  0.19245520  0.83118955  1
  Li  Li11  1  0.16222727  0.54018852  0.45940582  1
