# generated using pymatgen
data_Li2TiO4
_symmetry_space_group_name_H-M   'P 1'
_cell_length_a   8.44627306
_cell_length_b   8.42320880
_cell_length_c   7.58270139
_cell_angle_alpha   90.14822255
_cell_angle_beta   90.70519788
_cell_angle_gamma   90.16945795
_symmetry_Int_Tables_number   1
_chemical_formula_structural   Li2TiO4
_chemical_formula_sum   'Li2 Ti1 O4'
_cell_volume   539.42410232
_cell_formula_units_Z   1
loop_
 _symmetry_equiv_pos_site_id
 _symmetry_equiv_pos_as_xyz
  1  'x, y, z'
loop_
 _atom_site_type_symbol
 _atom_site_label
 _atom_site_symmetry_multiplicity
 _atom_site_fract_x
 _atom_site_fract_y
 _atom_site_fract_z
 _atom_site_occupancy
  O  O0  1  0.00000000  0.00000000  0.00000000  1
  O  O1  1  0.33300000  0.66700000  0.25000000  1
  O  O2  1  0.66700000  0.33300000  0.50000000  1
  O  O3  1  0.00000000  0.00000000  0.75000000  1
  Ti  Ti4  1  0.02724656  0.51454192  0.09601241  1
  Li  Li5  1  0.33125309  0.90978871  0.02176541  1
  Li  Li6  1  0.57006436  0.68351123  0.00612159  1
