# generated using pymatgen
data_LiSb4Mo2P3
_symmetry_space_group_name_H-M   'P 1'
_cell_length_a   6.33940152
_cell_length_b   6.77867671
_cell_length_c   6.78678175
_cell_angle_alpha   94.64515862
_cell_angle_beta   89.90042177
_cell_angle_gamma   94.39912691
_symmetry_Int_Tables_number   1
_chemical_formula_structural   LiSb4Mo2P3
_chemical_formula_sum   'Li1 Sb4 Mo2 P3'
_cell_volume   289.82941494
_cell_formula_units_Z   1
loop_
 _symmetry_equiv_pos_site_id
 _symmetry_equiv_pos_as_xyz
  1  'x, y, z'
loop_
 _atom_site_type_symbol
 _atom_site_label
 _atom_site_symmetry_multiplicity
 _atom_site_fract_x
 _atom_site_fract_y
 _atom_site_fract_z
 _atom_site_occupancy
  Sb  Sb0  1  0.00000000  0.00000000  0.00000000  1
  Sb  Sb1  1  0.50000000  0.50000000  0.50000000  1
  Sb  Sb2  1  0.25000000  0.25000000  0.25000000  1
  Sb  Sb3  1  0.75000000  0.25000000  0.00000000  1
  P  P4  1  0.25000000  0.75000000  0.50000000  1
  P  P5  1  0.63217865  0.30930214  0.29866772  1
  P  P6  1  0.57427015  0.51871263  0.46678774  1
  Mo  Mo7  1  0.41921819  0.79639437  0.73194284  1
  Mo  Mo8  1  0.22899991  0.47256810  0.02141478  1
  Li  Li9  1  0.65443974  0.21260587  0.87355888  1
