# generated using pymatgen
data_LiMn3(SbP)3
_symmetry_space_group_name_H-M   'P 1'
_cell_length_a   6.62931468
_cell_length_b   7.13265615
_cell_length_c   6.93792888
_cell_angle_alpha   91.77731693
_cell_angle_beta   90.36343688
_cell_angle_gamma   91.88096011
_symmetry_Int_Tables_number   1
_chemical_formula_structural   LiMn3(SbP)3
_chemical_formula_sum   'Li1 Mn3 Sb3 P3'
_cell_volume   327.71394653
_cell_formula_units_Z   1
loop_
 _symmetry_equiv_pos_site_id
 _symmetry_equiv_pos_as_xyz
  1  'x, y, z'
loop_
 _atom_site_type_symbol
 _atom_site_label
 _atom_site_symmetry_multiplicity
 _atom_site_fract_x
 _atom_site_fract_y
 _atom_site_fract_z
 _atom_site_occupancy
  Mn  Mn0  1  0.00000000  0.00000000  0.00000000  1
  Mn  Mn1  1  0.50000000  0.50000000  0.50000000  1
  Mn  Mn2  1  0.50000000  0.50000000  0.00000000  1
  Sb  Sb3  1  0.50000000  0.00000000  0.50000000  1
  Sb  Sb4  1  0.00000000  0.50000000  0.50000000  1
  Sb  Sb5  1  0.41029288  0.45871754  0.02088736  1
  P  P6  1  0.72065957  0.87540611  0.91347438  1
  P  P7  1  0.95683136  0.27344550  0.09517679  1
  P  P8  1  0.82367410  0.66727751  0.08693572  1
  Li  Li9  1  0.96140131  0.43669699  0.91072802  1
