# generated using pymatgen
data_Li2MnSb4P3
_symmetry_space_group_name_H-M   'P 1'
_cell_length_a   6.14732660
_cell_length_b   6.19706534
_cell_length_c   7.38451196
_cell_angle_alpha   94.96091087
_cell_angle_beta   94.44986925
_cell_angle_gamma   95.44742941
_symmetry_Int_Tables_number   1
_chemical_formula_structural   Li2MnSb4P3
_chemical_formula_sum   'Li2 Mn1 Sb4 P3'
_cell_volume   277.95030211
_cell_formula_units_Z   1
loop_
 _symmetry_equiv_pos_site_id
 _symmetry_equiv_pos_as_xyz
  1  'x, y, z'
loop_
 _atom_site_type_symbol
 _atom_site_label
 _atom_site_symmetry_multiplicity
 _atom_site_fract_x
 _atom_site_fract_y
 _atom_site_fract_z
 _atom_site_occupancy
  Mn  Mn0  1  0.12500000  0.00000000  0.25000000  1
  Sb  Sb1  1  0.00000000  0.00000000  0.00000000  1
  Sb  Sb2  1  0.37500000  0.00000000  0.25000000  1
  Sb  Sb3  1  0.25000000  0.25000000  0.25000000  1
  Sb  Sb4  1  0.00000000  0.25000000  0.12500000  1
  P  P5  1  0.54853185  0.40742665  0.05349309  1
  P  P6  1  0.87281020  0.30919926  0.17643506  1
  P  P7  1  0.07052835  0.20513571  0.21239011  1
  Li  Li8  1  0.95035814  0.94696411  0.74286859  1
  Li  Li9  1  0.17000555  0.41629449  0.01450862  1
