# generated using pymatgen
data_LiMn2Sb4P2N
_symmetry_space_group_name_H-M   'P 1'
_cell_length_a   4.95269394
_cell_length_b   5.28809009
_cell_length_c   6.60711049
_cell_angle_alpha   98.47896145
_cell_angle_beta   95.39113933
_cell_angle_gamma   98.50700611
_symmetry_Int_Tables_number   1
_chemical_formula_structural   LiMn2Sb4P2N
_chemical_formula_sum   'Li1 Mn2 Sb4 P2 N1'
_cell_volume   168.07820076
_cell_formula_units_Z   1
loop_
 _symmetry_equiv_pos_site_id
 _symmetry_equiv_pos_as_xyz
  1  'x, y, z'
loop_
 _atom_site_type_symbol
 _atom_site_label
 _atom_site_symmetry_multiplicity
 _atom_site_fract_x
 _atom_site_fract_y
 _atom_site_fract_z
 _atom_site_occupancy
  N  N0  1  0.00000000  0.00000000  0.00000000  1
  Mn  Mn1  1  0.50000000  0.50000000  0.50000000  1
  Mn  Mn2  1  0.50000000  0.50000000  0.00000000  1
  Sb  Sb3  1  0.50000000  0.00000000  0.50000000  1
  Sb  Sb4  1  0.00000000  0.50000000  0.50000000  1
  Sb  Sb5  1  0.50195787  0.22686416  0.26557457  1
  Sb  Sb6  1  0.26771550  0.54622825  0.83706327  1
  P  P7  1  0.66018198  0.57567940  0.92375528  1
  P  P8  1  0.35646938  0.15260508  0.42585278  1
  Li  Li9  1  0.34614541  0.51970095  0.04742458  1
