# generated using pymatgen
data_Li2Mn2Sb4P3
_symmetry_space_group_name_H-M   'P 1'
_cell_length_a   6.89933227
_cell_length_b   7.19478943
_cell_length_c   7.37595860
_cell_angle_alpha   93.18103329
_cell_angle_beta   91.21543774
_cell_angle_gamma   93.26489783
_symmetry_Int_Tables_number   1
_chemical_formula_structural   Li2Mn2Sb4P3
_chemical_formula_sum   'Li2 Mn2 Sb4 P3'
_cell_volume   364.87038530
_cell_formula_units_Z   1
loop_
 _symmetry_equiv_pos_site_id
 _symmetry_equiv_pos_as_xyz
  1  'x, y, z'
loop_
 _atom_site_type_symbol
 _atom_site_label
 _atom_site_symmetry_multiplicity
 _atom_site_fract_x
 _atom_site_fract_y
 _atom_site_fract_z
 _atom_site_occupancy
  Mn  Mn0  1  0.12500000  0.12500000  0.12500000  1
  Mn  Mn1  1  0.50000000  0.50000000  0.50000000  1
  Sb  Sb2  1  0.25000000  0.25000000  0.25000000  1
  Sb  Sb3  1  0.75000000  0.75000000  0.75000000  1
  Sb  Sb4  1  0.43868859  0.77722356  0.46340605  1
  Sb  Sb5  1  0.46094554  0.41103862  0.50783968  1
  P  P6  1  0.16416624  0.31318603  0.69374618  1
  P  P7  1  0.74975826  0.27550057  0.17475149  1
  P  P8  1  0.37594800  0.36169588  0.34628213  1
  Li  Li9  1  0.31897448  0.94086300  0.53521709  1
  Li  Li10  1  0.73094402  0.59962592  0.17381344  1
