# generated using pymatgen
data_Li3Cu2Ni2As6O7
_symmetry_space_group_name_H-M   'P 1'
_cell_length_a   7.70274769
_cell_length_b   7.51687112
_cell_length_c   8.82312581
_cell_angle_alpha   91.65535878
_cell_angle_beta   91.13239794
_cell_angle_gamma   91.91795198
_symmetry_Int_Tables_number   1
_chemical_formula_structural   Li3Cu2Ni2As6O7
_chemical_formula_sum   'Li3 Cu2 Ni2 As6 O7'
_cell_volume   510.25478091
_cell_formula_units_Z   1
loop_
 _symmetry_equiv_pos_site_id
 _symmetry_equiv_pos_as_xyz
  1  'x, y, z'
loop_
 _atom_site_type_symbol
 _atom_site_label
 _atom_site_symmetry_multiplicity
 _atom_site_fract_x
 _atom_site_fract_y
 _atom_site_fract_z
 _atom_site_occupancy
  Li  Li0  1  0.00000000  0.00000000  0.00000000  1
  Li  Li1  1  0.50000000  0.50000000  0.50000000  1
  Li  Li2  1  0.50000000  0.50000000  0.00000000  1
  Cu  Cu3  1  0.50000000  0.00000000  0.50000000  1
  Cu  Cu4  1  0.00000000  0.50000000  0.50000000  1
  Ni  Ni5  1  0.40232414  0.80102313  0.53949222  1
  Ni  Ni6  1  0.29111877  0.04373720  0.09193673  1
  As  As7  1  0.06049084  0.62843473  0.91351685  1
  As  As8  1  0.16917546  0.03904207  0.10528534  1
  As  As9  1  0.31456364  0.17797186  0.69771793  1
  As  As10  1  0.84830958  0.20288333  0.35338862  1
  As  As11  1  0.95596634  0.75864249  0.01925870  1
  As  As12  1  0.56321727  0.81421633  0.85099692  1
  O  O13  1  0.20637774  0.77515511  0.53178685  1
  O  O14  1  0.97755282  0.65388556  0.31324787  1
  O  O15  1  0.46708652  0.01278748  0.44039355  1
  O  O16  1  0.05160196  0.84202223  0.42138031  1
  O  O17  1  0.62420743  0.07766893  0.40835745  1
  O  O18  1  0.45112917  0.41831872  0.47850675  1
  O  O19  1  0.20268785  0.77190553  0.16629852  1
