# generated using pymatgen
data_Li2TiI4(OF)2
_symmetry_space_group_name_H-M   'P 1'
_cell_length_a   7.66970773
_cell_length_b   7.65577165
_cell_length_c   7.07354844
_cell_angle_alpha   92.90696190
_cell_angle_beta   94.12110247
_cell_angle_gamma   93.57511171
_symmetry_Int_Tables_number   1
_chemical_formula_structural   Li2TiI4(OF)2
_chemical_formula_sum   'Li2 Ti1 I4 O2 F2'
_cell_volume   412.82513901
_cell_formula_units_Z   1
loop_
 _symmetry_equiv_pos_site_id
 _symmetry_equiv_pos_as_xyz
  1  'x, y, z'
loop_
 _atom_site_type_symbol
 _atom_site_label
 _atom_site_symmetry_multiplicity
 _atom_site_fract_x
 _atom_site_fract_y
 _atom_site_fract_z
 _atom_site_occupancy
  I  I0  1  0.00000000  0.00000000  0.00000000  1
  I  I1  1  0.50000000  0.50000000  0.50000000  1
  I  I2  1  0.25000000  0.25000000  0.25000000  1
  I  I3  1  0.75000000  0.25000000  0.00000000  1
  Li  Li4  1  0.25000000  0.75000000  0.50000000  1
  Li  Li5  1  0.71297244  0.78935109  0.22310274  1
  F  F6  1  0.09249203  0.65064338  0.57704007  1
  F  F7  1  0.31842205  0.03594443  0.52044844  1
  Ti  Ti8  1  0.21909917  0.93999201  0.39721471  1
  O  O9  1  0.34201090  0.01672339  0.56303389  1
  O  O10  1  0.58014339  0.45581896  0.31226024  1
