# generated using pymatgen
data_Li4Ni2As6N5
_symmetry_space_group_name_H-M   'P 1'
_cell_length_a   7.98786457
_cell_length_b   7.75710044
_cell_length_c   9.36007138
_cell_angle_alpha   91.29359241
_cell_angle_beta   90.45733924
_cell_angle_gamma   91.50041060
_symmetry_Int_Tables_number   1
_chemical_formula_structural   Li4Ni2As6N5
_chemical_formula_sum   'Li4 Ni2 As6 N5'
_cell_volume   579.60705239
_cell_formula_units_Z   1
loop_
 _symmetry_equiv_pos_site_id
 _symmetry_equiv_pos_as_xyz
  1  'x, y, z'
loop_
 _atom_site_type_symbol
 _atom_site_label
 _atom_site_symmetry_multiplicity
 _atom_site_fract_x
 _atom_site_fract_y
 _atom_site_fract_z
 _atom_site_occupancy
  Li  Li0  1  0.00000000  0.00000000  0.00000000  1
  Li  Li1  1  0.50000000  0.50000000  0.50000000  1
  Li  Li2  1  0.50000000  0.50000000  0.00000000  1
  Li  Li3  1  0.50000000  0.00000000  0.50000000  1
  Ni  Ni4  1  0.00000000  0.50000000  0.50000000  1
  Ni  Ni5  1  0.52198925  0.38138247  0.83097149  1
  As  As6  1  0.04841301  0.27515121  0.25094798  1
  As  As7  1  0.00088430  0.98972171  0.01931869  1
  As  As8  1  0.53986433  0.76252738  0.82653141  1
  As  As9  1  0.26389145  0.70961624  0.67322986  1
  As  As10  1  0.15468054  0.76718569  0.86777918  1
  As  As11  1  0.95292296  0.66015073  0.11037588  1
  N  N12  1  0.46729727  0.50619952  0.35529245  1
  N  N13  1  0.83485742  0.02028057  0.55634559  1
  N  N14  1  0.21757988  0.41699249  0.51193589  1
  N  N15  1  0.64939323  0.03601977  0.17458155  1
  N  N16  1  0.22595498  0.34316432  0.31182211  1
