# generated using pymatgen
data_Li2TiCu2(NiP2)2
_symmetry_space_group_name_H-M   'P 1'
_cell_length_a   7.16582804
_cell_length_b   6.96598043
_cell_length_c   7.56760806
_cell_angle_alpha   91.61166624
_cell_angle_beta   92.35438806
_cell_angle_gamma   91.46370925
_symmetry_Int_Tables_number   1
_chemical_formula_structural   Li2TiCu2(NiP2)2
_chemical_formula_sum   'Li2 Ti1 Cu2 Ni2 P4'
_cell_volume   377.14940756
_cell_formula_units_Z   1
loop_
 _symmetry_equiv_pos_site_id
 _symmetry_equiv_pos_as_xyz
  1  'x, y, z'
loop_
 _atom_site_type_symbol
 _atom_site_label
 _atom_site_symmetry_multiplicity
 _atom_site_fract_x
 _atom_site_fract_y
 _atom_site_fract_z
 _atom_site_occupancy
  P  P0  1  0.00000000  0.00000000  0.00000000  1
  P  P1  1  0.50000000  0.50000000  0.50000000  1
  P  P2  1  0.50000000  0.50000000  0.00000000  1
  P  P3  1  0.50000000  0.00000000  0.50000000  1
  Li  Li4  1  0.00000000  0.50000000  0.50000000  1
  Li  Li5  1  0.54103039  0.60207093  0.57531105  1
  Cu  Cu6  1  0.56617014  0.85268925  0.67886790  1
  Cu  Cu7  1  0.67349762  0.58997530  0.39475744  1
  Ni  Ni8  1  0.23172130  0.80552335  0.61423015  1
  Ni  Ni9  1  0.47778458  0.14251300  0.85655138  1
  Ti  Ti10  1  0.37866733  0.39774187  0.26044943  1
