# generated using pymatgen
data_Li2TiN3O4
_symmetry_space_group_name_H-M   'P 1'
_cell_length_a   8.29110298
_cell_length_b   8.05272312
_cell_length_c   7.98207705
_cell_angle_alpha   91.22219942
_cell_angle_beta   90.54848014
_cell_angle_gamma   91.41716440
_symmetry_Int_Tables_number   1
_chemical_formula_structural   Li2TiN3O4
_chemical_formula_sum   'Li2 Ti1 N3 O4'
_cell_volume   532.61959432
_cell_formula_units_Z   1
loop_
 _symmetry_equiv_pos_site_id
 _symmetry_equiv_pos_as_xyz
  1  'x, y, z'
loop_
 _atom_site_type_symbol
 _atom_site_label
 _atom_site_symmetry_multiplicity
 _atom_site_fract_x
 _atom_site_fract_y
 _atom_site_fract_z
 _atom_site_occupancy
  Li  Li0  1  0.12500000  0.00000000  0.25000000  1
  Li  Li1  1  0.00000000  0.00000000  0.00000000  1
  Ti  Ti2  1  0.37500000  0.00000000  0.25000000  1
  O  O3  1  0.25000000  0.25000000  0.25000000  1
  O  O4  1  0.00000000  0.25000000  0.12500000  1
  O  O5  1  0.09832381  0.32750278  0.50057890  1
  O  O6  1  0.94330228  0.73521611  0.32089416  1
  N  N7  1  0.39565991  0.09022281  0.95820335  1
  N  N8  1  0.17699120  0.35173793  0.36298603  1
  N  N9  1  0.86709481  0.01644659  0.40031177  1
