# generated using pymatgen
data_Li2LuCu2(PN)5
_symmetry_space_group_name_H-M   'P 1'
_cell_length_a   7.39359432
_cell_length_b   7.33836476
_cell_length_c   8.39758807
_cell_angle_alpha   92.47550258
_cell_angle_beta   92.83554213
_cell_angle_gamma   92.63112256
_symmetry_Int_Tables_number   1
_chemical_formula_structural   Li2LuCu2(PN)5
_chemical_formula_sum   'Li2 Lu1 Cu2 P5 N5'
_cell_volume   454.11724946
_cell_formula_units_Z   1
loop_
 _symmetry_equiv_pos_site_id
 _symmetry_equiv_pos_as_xyz
  1  'x, y, z'
loop_
 _atom_site_type_symbol
 _atom_site_label
 _atom_site_symmetry_multiplicity
 _atom_site_fract_x
 _atom_site_fract_y
 _atom_site_fract_z
 _atom_site_occupancy
  P  P0  1  0.12500000  0.00000000  0.25000000  1
  P  P1  1  0.00000000  0.00000000  0.00000000  1
  P  P2  1  0.37500000  0.00000000  0.25000000  1
  P  P3  1  0.25000000  0.25000000  0.25000000  1
  P  P4  1  0.00000000  0.25000000  0.12500000  1
  Lu  Lu5  1  0.55652812  0.30624590  0.06960512  1
  Li  Li6  1  0.30139934  0.01928810  0.66145033  1
  Li  Li7  1  0.13352447  0.91143533  0.59702287  1
  Cu  Cu8  1  0.79902335  0.82389626  0.80999954  1
  Cu  Cu9  1  0.09427538  0.26708237  0.13211606  1
  N  N10  1  0.04382019  0.57403746  0.68809588  1
  N  N11  1  0.03175444  0.14074145  0.22477359  1
  N  N12  1  0.83520450  0.53582355  0.98007262  1
  N  N13  1  0.61175071  0.36374663  0.90570723  1
  N  N14  1  0.65421445  0.34363750  0.99104276  1
