# generated using pymatgen
data_LiTi2Nb2F2
_symmetry_space_group_name_H-M   'P 1'
_cell_length_a   6.70531987
_cell_length_b   6.36267107
_cell_length_c   7.42321313
_cell_angle_alpha   91.91847186
_cell_angle_beta   94.55689500
_cell_angle_gamma   91.88917986
_symmetry_Int_Tables_number   1
_chemical_formula_structural   LiTi2Nb2F2
_chemical_formula_sum   'Li1 Ti2 Nb2 F2'
_cell_volume   315.32219705
_cell_formula_units_Z   1
loop_
 _symmetry_equiv_pos_site_id
 _symmetry_equiv_pos_as_xyz
  1  'x, y, z'
loop_
 _atom_site_type_symbol
 _atom_site_label
 _atom_site_symmetry_multiplicity
 _atom_site_fract_x
 _atom_site_fract_y
 _atom_site_fract_z
 _atom_site_occupancy
  Li  Li0  1  0.00000000  0.00000000  0.00000000  1
  Nb  Nb1  1  0.33300000  0.66700000  0.25000000  1
  Nb  Nb2  1  0.66700000  0.33300000  0.50000000  1
  F  F3  1  0.00000000  0.00000000  0.75000000  1
  F  F4  1  0.19440040  0.34901314  0.86785535  1
  Ti  Ti5  1  0.50795018  0.72267018  0.13087742  1
  Ti  Ti6  1  0.94012807  0.72593554  0.56876397  1
