# generated using pymatgen
data_Li3TiSeO4F3
_symmetry_space_group_name_H-M   'P 1'
_cell_length_a   7.14646581
_cell_length_b   6.93840234
_cell_length_c   6.99762819
_cell_angle_alpha   96.64574289
_cell_angle_beta   98.58227670
_cell_angle_gamma   96.23367135
_symmetry_Int_Tables_number   1
_chemical_formula_structural   Li3TiSeO4F3
_chemical_formula_sum   'Li3 Ti1 Se1 O4 F3'
_cell_volume   337.97775586
_cell_formula_units_Z   1
loop_
 _symmetry_equiv_pos_site_id
 _symmetry_equiv_pos_as_xyz
  1  'x, y, z'
loop_
 _atom_site_type_symbol
 _atom_site_label
 _atom_site_symmetry_multiplicity
 _atom_site_fract_x
 _atom_site_fract_y
 _atom_site_fract_z
 _atom_site_occupancy
  Li  Li0  1  0.00000000  0.00000000  0.00000000  1
  Li  Li1  1  0.50000000  0.50000000  0.50000000  1
  Li  Li2  1  0.50000000  0.50000000  0.00000000  1
  Se  Se3  1  0.50000000  0.00000000  0.50000000  1
  F  F4  1  0.00000000  0.50000000  0.50000000  1
  F  F5  1  0.87445567  0.13827350  0.39909432  1
  F  F6  1  0.18297110  0.56698742  0.61335572  1
  Ti  Ti7  1  0.01759292  0.84717487  0.29899072  1
  O  O8  1  0.37755517  0.73347074  0.97737967  1
  O  O9  1  0.56638707  0.00117191  0.74325666  1
  O  O10  1  0.27252525  0.63876112  0.25856384  1
  O  O11  1  0.80331010  0.86347846  0.33905841  1
