# generated using pymatgen
data_Li2MnSbMo2
_symmetry_space_group_name_H-M   'P 1'
_cell_length_a   4.15191104
_cell_length_b   4.43208476
_cell_length_c   6.38022584
_cell_angle_alpha   103.29176154
_cell_angle_beta   96.06134904
_cell_angle_gamma   103.80850187
_symmetry_Int_Tables_number   1
_chemical_formula_structural   Li2MnSbMo2
_chemical_formula_sum   'Li2 Mn1 Sb1 Mo2'
_cell_volume   109.34799704
_cell_formula_units_Z   1
loop_
 _symmetry_equiv_pos_site_id
 _symmetry_equiv_pos_as_xyz
  1  'x, y, z'
loop_
 _atom_site_type_symbol
 _atom_site_label
 _atom_site_symmetry_multiplicity
 _atom_site_fract_x
 _atom_site_fract_y
 _atom_site_fract_z
 _atom_site_occupancy
  Mn  Mn0  1  0.00000000  0.00000000  0.00000000  1
  Sb  Sb1  1  0.50000000  0.50000000  0.50000000  1
  Mo  Mo2  1  0.25000000  0.25000000  0.25000000  1
  Mo  Mo3  1  0.75000000  0.25000000  0.00000000  1
  Li  Li4  1  0.25000000  0.75000000  0.50000000  1
  Li  Li5  1  0.72448207  0.85280348  0.25559593  1
