# generated using pymatgen
data_Li2Mn3SbP3F4
_symmetry_space_group_name_H-M   'P 1'
_cell_length_a   6.83484840
_cell_length_b   7.02200463
_cell_length_c   6.58634629
_cell_angle_alpha   90.08769630
_cell_angle_beta   88.55251778
_cell_angle_gamma   89.41333508
_symmetry_Int_Tables_number   1
_chemical_formula_structural   Li2Mn3SbP3F4
_chemical_formula_sum   'Li2 Mn3 Sb1 P3 F4'
_cell_volume   315.98938282
_cell_formula_units_Z   1
loop_
 _symmetry_equiv_pos_site_id
 _symmetry_equiv_pos_as_xyz
  1  'x, y, z'
loop_
 _atom_site_type_symbol
 _atom_site_label
 _atom_site_symmetry_multiplicity
 _atom_site_fract_x
 _atom_site_fract_y
 _atom_site_fract_z
 _atom_site_occupancy
  F  F0  1  0.12500000  0.00000000  0.25000000  1
  F  F1  1  0.00000000  0.00000000  0.00000000  1
  F  F2  1  0.37500000  0.00000000  0.25000000  1
  F  F3  1  0.25000000  0.25000000  0.25000000  1
  Mn  Mn4  1  0.00000000  0.25000000  0.12500000  1
  Mn  Mn5  1  0.26981528  0.92229471  0.20923231  1
  Mn  Mn6  1  0.36964382  0.87527604  0.25113482  1
  Sb  Sb7  1  0.00328102  0.51761803  0.88873120  1
  P  P8  1  0.90633190  0.89587394  0.94766052  1
  P  P9  1  0.75775832  0.61615142  0.19711360  1
  P  P10  1  0.35915665  0.91055323  0.97367817  1
  Li  Li11  1  0.64898567  0.98248316  0.53740929  1
  Li  Li12  1  0.21779800  0.30960175  0.50908176  1
