# generated using pymatgen
data_Li2Mn3P3N
_symmetry_space_group_name_H-M   'P 1'
_cell_length_a   6.07578468
_cell_length_b   6.08568645
_cell_length_c   6.42169847
_cell_angle_alpha   95.29527403
_cell_angle_beta   92.40575117
_cell_angle_gamma   93.68634311
_symmetry_Int_Tables_number   1
_chemical_formula_structural   Li2Mn3P3N
_chemical_formula_sum   'Li2 Mn3 P3 N1'
_cell_volume   235.66743694
_cell_formula_units_Z   1
loop_
 _symmetry_equiv_pos_site_id
 _symmetry_equiv_pos_as_xyz
  1  'x, y, z'
loop_
 _atom_site_type_symbol
 _atom_site_label
 _atom_site_symmetry_multiplicity
 _atom_site_fract_x
 _atom_site_fract_y
 _atom_site_fract_z
 _atom_site_occupancy
  Mn  Mn0  1  0.00000000  0.00000000  0.00000000  1
  Mn  Mn1  1  0.50000000  0.50000000  0.50000000  1
  Mn  Mn2  1  0.50000000  0.50000000  0.00000000  1
  P  P3  1  0.50000000  0.00000000  0.50000000  1
  P  P4  1  0.00000000  0.50000000  0.50000000  1
  P  P5  1  0.48168623  0.66092236  0.74214453  1
  Li  Li6  1  0.25219482  0.47889133  0.44028335  1
  Li  Li7  1  0.24430519  0.64247748  0.74374254  1
  N  N8  1  0.51937018  0.29242197  0.50545716  1
