# generated using pymatgen
data_Li4LuP3SeN5
_symmetry_space_group_name_H-M   'P 1'
_cell_length_a   7.04509492
_cell_length_b   6.67307402
_cell_length_c   7.85100619
_cell_angle_alpha   96.12461083
_cell_angle_beta   96.19508634
_cell_angle_gamma   96.14718707
_symmetry_Int_Tables_number   1
_chemical_formula_structural   Li4LuP3SeN5
_chemical_formula_sum   'Li4 Lu1 P3 Se1 N5'
_cell_volume   362.20967450
_cell_formula_units_Z   1
loop_
 _symmetry_equiv_pos_site_id
 _symmetry_equiv_pos_as_xyz
  1  'x, y, z'
loop_
 _atom_site_type_symbol
 _atom_site_label
 _atom_site_symmetry_multiplicity
 _atom_site_fract_x
 _atom_site_fract_y
 _atom_site_fract_z
 _atom_site_occupancy
  P  P0  1  0.00000000  0.00000000  0.00000000  1
  P  P1  1  0.50000000  0.50000000  0.50000000  1
  P  P2  1  0.25000000  0.25000000  0.25000000  1
  Lu  Lu3  1  0.75000000  0.25000000  0.00000000  1
  Li  Li4  1  0.25000000  0.75000000  0.50000000  1
  Li  Li5  1  0.95668742  0.15967394  0.36610945  1
  Li  Li6  1  0.00127713  0.40224892  0.61232328  1
  Li  Li7  1  0.11282462  0.09231918  0.05328379  1
  Se  Se8  1  0.59617058  0.05130513  0.85632481  1
  N  N9  1  0.63152081  0.56240324  0.46600968  1
  N  N10  1  0.97638597  0.26770213  0.44317719  1
  N  N11  1  0.19269357  0.24190682  0.44852731  1
  N  N12  1  0.67151396  0.32484913  0.64279031  1
  N  N13  1  0.53594964  0.70763753  0.31667771  1
