# generated using pymatgen
data_Li2MnSb4P3
_symmetry_space_group_name_H-M   'P 1'
_cell_length_a   6.22740717
_cell_length_b   6.46410417
_cell_length_c   7.42745350
_cell_angle_alpha   93.96464234
_cell_angle_beta   94.69648517
_cell_angle_gamma   94.51225249
_symmetry_Int_Tables_number   1
_chemical_formula_structural   Li2MnSb4P3
_chemical_formula_sum   'Li2 Mn1 Sb4 P3'
_cell_volume   296.20095010
_cell_formula_units_Z   1
loop_
 _symmetry_equiv_pos_site_id
 _symmetry_equiv_pos_as_xyz
  1  'x, y, z'
loop_
 _atom_site_type_symbol
 _atom_site_label
 _atom_site_symmetry_multiplicity
 _atom_site_fract_x
 _atom_site_fract_y
 _atom_site_fract_z
 _atom_site_occupancy
  Mn  Mn0  1  0.12500000  0.12500000  0.12500000  1
  Sb  Sb1  1  0.50000000  0.50000000  0.50000000  1
  Sb  Sb2  1  0.25000000  0.25000000  0.25000000  1
  Sb  Sb3  1  0.75000000  0.75000000  0.75000000  1
  Sb  Sb4  1  0.38173570  0.39623398  0.18377520  1
  P  P5  1  0.85476046  0.74482798  0.28853074  1
  P  P6  1  0.27627621  0.72398024  0.79866884  1
  P  P7  1  0.22726414  0.14715355  0.04441231  1
  Li  Li8  1  0.26439319  0.89375948  0.08607405  1
  Li  Li9  1  0.46464581  0.11913923  0.85861533  1
