# generated using pymatgen
data_LiMn3Mo2P3
_symmetry_space_group_name_H-M   'P 1'
_cell_length_a   5.67549614
_cell_length_b   6.03108997
_cell_length_c   6.66903016
_cell_angle_alpha   95.75836787
_cell_angle_beta   92.15180235
_cell_angle_gamma   95.75954460
_symmetry_Int_Tables_number   1
_chemical_formula_structural   LiMn3Mo2P3
_chemical_formula_sum   'Li1 Mn3 Mo2 P3'
_cell_volume   225.71703342
_cell_formula_units_Z   1
loop_
 _symmetry_equiv_pos_site_id
 _symmetry_equiv_pos_as_xyz
  1  'x, y, z'
loop_
 _atom_site_type_symbol
 _atom_site_label
 _atom_site_symmetry_multiplicity
 _atom_site_fract_x
 _atom_site_fract_y
 _atom_site_fract_z
 _atom_site_occupancy
  Mn  Mn0  1  0.00000000  0.00000000  0.00000000  1
  Mn  Mn1  1  0.33300000  0.66700000  0.25000000  1
  Mn  Mn2  1  0.66700000  0.33300000  0.50000000  1
  P  P3  1  0.00000000  0.00000000  0.75000000  1
  P  P4  1  0.52128566  0.28364128  0.06704016  1
  P  P5  1  0.75357182  0.60601672  0.90808895  1
  Mo  Mo6  1  0.82764602  0.50492923  0.25543481  1
  Mo  Mo7  1  0.83003543  0.98029191  0.04953811  1
  Li  Li8  1  0.61045789  0.67466936  0.00020221  1
