# generated using pymatgen
data_Li3Ti2(PO)3
_symmetry_space_group_name_H-M   'P 1'
_cell_length_a   4.98153429
_cell_length_b   4.47353527
_cell_length_c   6.44768353
_cell_angle_alpha   91.92543763
_cell_angle_beta   99.16064747
_cell_angle_gamma   92.20128934
_symmetry_Int_Tables_number   1
_chemical_formula_structural   Li3Ti2(PO)3
_chemical_formula_sum   'Li3 Ti2 P3 O3'
_cell_volume   141.63487932
_cell_formula_units_Z   1
loop_
 _symmetry_equiv_pos_site_id
 _symmetry_equiv_pos_as_xyz
  1  'x, y, z'
loop_
 _atom_site_type_symbol
 _atom_site_label
 _atom_site_symmetry_multiplicity
 _atom_site_fract_x
 _atom_site_fract_y
 _atom_site_fract_z
 _atom_site_occupancy
  Ti  Ti0  1  0.12500000  0.00000000  0.25000000  1
  Ti  Ti1  1  0.00000000  0.00000000  0.00000000  1
  O  O2  1  0.37500000  0.00000000  0.25000000  1
  O  O3  1  0.25000000  0.25000000  0.25000000  1
  O  O4  1  0.00000000  0.25000000  0.12500000  1
  P  P5  1  0.84847843  0.84093843  0.01691051  1
  P  P6  1  0.87336436  0.07223058  0.68489902  1
  P  P7  1  0.06420230  0.93401103  0.39101728  1
  Li  Li8  1  0.23619031  0.85150592  0.84468538  1
  Li  Li9  1  0.32369213  0.20994672  0.70401939  1
  Li  Li10  1  0.86460296  0.84551212  0.90272559  1
