# generated using pymatgen
data_LiTiSe5S3O
_symmetry_space_group_name_H-M   'P 1'
_cell_length_a   8.46635413
_cell_length_b   9.14117493
_cell_length_c   8.03217981
_cell_angle_alpha   90.00000000
_cell_angle_beta   90.00000000
_cell_angle_gamma   90.00000000
_symmetry_Int_Tables_number   1
_chemical_formula_structural   LiTiSe5S3O
_chemical_formula_sum   'Li1 Ti1 Se5 S3 O1'
_cell_volume   621.62986633
_cell_formula_units_Z   1
loop_
 _symmetry_equiv_pos_site_id
 _symmetry_equiv_pos_as_xyz
  1  'x, y, z'
loop_
 _atom_site_type_symbol
 _atom_site_label
 _atom_site_symmetry_multiplicity
 _atom_site_fract_x
 _atom_site_fract_y
 _atom_site_fract_z
 _atom_site_occupancy
  Li  Li0  1  0.00000000  0.00000000  0.00000000  1
  Se  Se1  1  0.50000000  0.50000000  0.50000000  1
  Se  Se2  1  0.25000000  0.25000000  0.25000000  1
  Se  Se3  1  0.75000000  0.25000000  0.00000000  1
  Se  Se4  1  0.25000000  0.75000000  0.50000000  1
  Se  Se5  1  0.73370137  0.18946045  0.44400253  1
  S  S6  1  0.76918128  0.71484076  0.01636409  1
  S  S7  1  0.21119753  0.10324352  0.70440960  1
  S  S8  1  0.32272803  0.36715511  0.80696787  1
  Ti  Ti9  1  0.81386436  0.91268753  0.16830543  1
  O  O10  1  0.00618252  0.72328735  0.44383009  1
