# generated using pymatgen
data_Li3TiI4N5O4
_symmetry_space_group_name_H-M   'P 1'
_cell_length_a   8.45858277
_cell_length_b   8.26660980
_cell_length_c   7.75429357
_cell_angle_alpha   90.96253348
_cell_angle_beta   90.34029600
_cell_angle_gamma   91.11642231
_symmetry_Int_Tables_number   1
_chemical_formula_structural   Li3TiI4N5O4
_chemical_formula_sum   'Li3 Ti1 I4 N5 O4'
_cell_volume   542.01962514
_cell_formula_units_Z   1
loop_
 _symmetry_equiv_pos_site_id
 _symmetry_equiv_pos_as_xyz
  1  'x, y, z'
loop_
 _atom_site_type_symbol
 _atom_site_label
 _atom_site_symmetry_multiplicity
 _atom_site_fract_x
 _atom_site_fract_y
 _atom_site_fract_z
 _atom_site_occupancy
  I  I0  1  0.00000000  0.00000000  0.00000000  1
  I  I1  1  0.50000000  0.50000000  0.50000000  1
  I  I2  1  0.50000000  0.50000000  0.00000000  1
  I  I3  1  0.50000000  0.00000000  0.50000000  1
  Li  Li4  1  0.00000000  0.50000000  0.50000000  1
  Li  Li5  1  0.40182657  0.18732683  0.69730341  1
  Li  Li6  1  0.11585321  0.84206516  0.59592070  1
  Ti  Ti7  1  0.70655912  0.27052763  0.13887209  1
  O  O8  1  0.12939128  0.58369046  0.30482865  1
  O  O9  1  0.02514654  0.34197895  0.50290020  1
  O  O10  1  0.61006887  0.67009543  0.42196673  1
  O  O11  1  0.60717027  0.51521617  0.83468678  1
  N  N12  1  0.31168053  0.86225598  0.81745210  1
  N  N13  1  0.36942204  0.91904470  0.45416492  1
  N  N14  1  0.93049120  0.58558124  0.13870414  1
  N  N15  1  0.05548191  0.55646341  0.85715337  1
  N  N16  1  0.47991256  0.24644380  0.92387340  1
