# generated using pymatgen
data_Li2Mn2Sb4Mo2P3
_symmetry_space_group_name_H-M   'P 1'
_cell_length_a   5.10279333
_cell_length_b   5.50412587
_cell_length_c   7.04130737
_cell_angle_alpha   96.98532446
_cell_angle_beta   97.04647545
_cell_angle_gamma   97.77910603
_symmetry_Int_Tables_number   1
_chemical_formula_structural   Li2Mn2Sb4Mo2P3
_chemical_formula_sum   'Li2 Mn2 Sb4 Mo2 P3'
_cell_volume   192.53437478
_cell_formula_units_Z   1
loop_
 _symmetry_equiv_pos_site_id
 _symmetry_equiv_pos_as_xyz
  1  'x, y, z'
loop_
 _atom_site_type_symbol
 _atom_site_label
 _atom_site_symmetry_multiplicity
 _atom_site_fract_x
 _atom_site_fract_y
 _atom_site_fract_z
 _atom_site_occupancy
  Mn  Mn0  1  0.12500000  0.00000000  0.25000000  1
  Mn  Mn1  1  0.00000000  0.00000000  0.00000000  1
  Sb  Sb2  1  0.37500000  0.00000000  0.25000000  1
  Sb  Sb3  1  0.25000000  0.25000000  0.25000000  1
  Sb  Sb4  1  0.00000000  0.25000000  0.12500000  1
  Sb  Sb5  1  0.47901977  0.00540684  0.37356784  1
  P  P6  1  0.31974576  0.18847594  0.05586553  1
  P  P7  1  0.10422451  0.74702295  0.63328144  1
  P  P8  1  0.98232389  0.45286837  0.88902404  1
  Mo  Mo9  1  0.33873118  0.10416264  0.22020926  1
  Mo  Mo10  1  0.08187766  0.46026765  0.21816629  1
  Li  Li11  1  0.58650294  0.01862925  0.91333667  1
  Li  Li12  1  0.08555355  0.74018693  0.67122881  1
