# generated using pymatgen
data_Li2Mn3(SbP)4
_symmetry_space_group_name_H-M   'P 1'
_cell_length_a   7.57736925
_cell_length_b   8.26034177
_cell_length_c   7.54707920
_cell_angle_alpha   90.00000000
_cell_angle_beta   90.00000000
_cell_angle_gamma   90.00000000
_symmetry_Int_Tables_number   1
_chemical_formula_structural   Li2Mn3(SbP)4
_chemical_formula_sum   'Li2 Mn3 Sb4 P4'
_cell_volume   472.38421297
_cell_formula_units_Z   1
loop_
 _symmetry_equiv_pos_site_id
 _symmetry_equiv_pos_as_xyz
  1  'x, y, z'
loop_
 _atom_site_type_symbol
 _atom_site_label
 _atom_site_symmetry_multiplicity
 _atom_site_fract_x
 _atom_site_fract_y
 _atom_site_fract_z
 _atom_site_occupancy
  Mn  Mn0  1  0.12500000  0.12500000  0.12500000  1
  Mn  Mn1  1  0.50000000  0.50000000  0.50000000  1
  Mn  Mn2  1  0.25000000  0.25000000  0.25000000  1
  Sb  Sb3  1  0.75000000  0.75000000  0.75000000  1
  Sb  Sb4  1  0.45978619  0.80722730  0.14753763  1
  Sb  Sb5  1  0.62733515  0.08214761  0.59870017  1
  Sb  Sb6  1  0.63144293  0.51773382  0.83675755  1
  P  P7  1  0.24213844  0.30918074  0.04701819  1
  P  P8  1  0.03154336  0.14116321  0.01192883  1
  P  P9  1  0.68547947  0.92323926  0.92312123  1
  P  P10  1  0.09505310  0.20535250  0.32550743  1
  Li  Li11  1  0.17445188  0.96291813  0.53263185  1
  Li  Li12  1  0.94633999  0.06561800  0.76694251  1
