# generated using pymatgen
data_Li2Ti2Zn2S3I4
_symmetry_space_group_name_H-M   'P 1'
_cell_length_a   7.25894942
_cell_length_b   7.51699934
_cell_length_c   7.26101428
_cell_angle_alpha   90.77724819
_cell_angle_beta   93.69791081
_cell_angle_gamma   90.88860222
_symmetry_Int_Tables_number   1
_chemical_formula_structural   Li2Ti2Zn2S3I4
_chemical_formula_sum   'Li2 Ti2 Zn2 S3 I4'
_cell_volume   395.28643210
_cell_formula_units_Z   1
loop_
 _symmetry_equiv_pos_site_id
 _symmetry_equiv_pos_as_xyz
  1  'x, y, z'
loop_
 _atom_site_type_symbol
 _atom_site_label
 _atom_site_symmetry_multiplicity
 _atom_site_fract_x
 _atom_site_fract_y
 _atom_site_fract_z
 _atom_site_occupancy
  I  I0  1  0.00000000  0.00000000  0.00000000  1
  I  I1  1  0.50000000  0.50000000  0.50000000  1
  I  I2  1  0.25000000  0.25000000  0.25000000  1
  I  I3  1  0.75000000  0.25000000  0.00000000  1
  Li  Li4  1  0.25000000  0.75000000  0.50000000  1
  Li  Li5  1  0.57514489  0.07557849  0.27177203  1
  Zn  Zn6  1  0.14143948  0.60412246  0.91803157  1
  Zn  Zn7  1  0.49197066  0.62071145  0.56338092  1
  S  S8  1  0.93608231  0.11692109  0.17617714  1
  S  S9  1  0.73337190  0.28948761  0.58429559  1
  S  S10  1  0.55556407  0.92484241  0.73921831  1
  Ti  Ti11  1  0.64082675  0.71013599  0.53044847  1
  Ti  Ti12  1  0.66435923  0.03099668  0.34474071  1
