# generated using pymatgen
data_Li3Cu2Ni2(IO)4
_symmetry_space_group_name_H-M   'P 1'
_cell_length_a   8.40100175
_cell_length_b   8.24322646
_cell_length_c   7.50223801
_cell_angle_alpha   90.62168461
_cell_angle_beta   90.52760272
_cell_angle_gamma   90.71991787
_symmetry_Int_Tables_number   1
_chemical_formula_structural   Li3Cu2Ni2(IO)4
_chemical_formula_sum   'Li3 Cu2 Ni2 I4 O4'
_cell_volume   519.44590585
_cell_formula_units_Z   1
loop_
 _symmetry_equiv_pos_site_id
 _symmetry_equiv_pos_as_xyz
  1  'x, y, z'
loop_
 _atom_site_type_symbol
 _atom_site_label
 _atom_site_symmetry_multiplicity
 _atom_site_fract_x
 _atom_site_fract_y
 _atom_site_fract_z
 _atom_site_occupancy
  I  I0  1  0.12500000  0.00000000  0.25000000  1
  I  I1  1  0.00000000  0.00000000  0.00000000  1
  I  I2  1  0.37500000  0.00000000  0.25000000  1
  I  I3  1  0.25000000  0.25000000  0.25000000  1
  Li  Li4  1  0.00000000  0.25000000  0.12500000  1
  Li  Li5  1  0.99057611  0.84523572  0.36651654  1
  Li  Li6  1  0.24041160  0.92538152  0.26745559  1
  Cu  Cu7  1  0.61659432  0.12967167  0.62067879  1
  Cu  Cu8  1  0.50786129  0.81511981  0.70830758  1
  Ni  Ni9  1  0.20377199  0.59251189  0.67270309  1
  Ni  Ni10  1  0.36022765  0.44412894  0.53545212  1
  O  O11  1  0.67499773  0.22280264  0.55147090  1
  O  O12  1  0.04724139  0.63287568  0.43524529  1
  O  O13  1  0.71427353  0.70948521  0.72277143  1
  O  O14  1  0.15631488  0.57855622  0.98526940  1
