# generated using pymatgen
data_Li2S2Br5(OF)3
_symmetry_space_group_name_H-M   'P 1'
_cell_length_a   4.78987732
_cell_length_b   4.12457777
_cell_length_c   6.67013414
_cell_angle_alpha   97.44561239
_cell_angle_beta   100.36351470
_cell_angle_gamma   96.84470626
_symmetry_Int_Tables_number   1
_chemical_formula_structural   Li2S2Br5(OF)3
_chemical_formula_sum   'Li2 S2 Br5 O3 F3'
_cell_volume   127.15499423
_cell_formula_units_Z   1
loop_
 _symmetry_equiv_pos_site_id
 _symmetry_equiv_pos_as_xyz
  1  'x, y, z'
loop_
 _atom_site_type_symbol
 _atom_site_label
 _atom_site_symmetry_multiplicity
 _atom_site_fract_x
 _atom_site_fract_y
 _atom_site_fract_z
 _atom_site_occupancy
  O  O0  1  0.00000000  0.00000000  0.00000000  1
  O  O1  1  0.50000000  0.50000000  0.50000000  1
  O  O2  1  0.25000000  0.25000000  0.25000000  1
  Li  Li3  1  0.75000000  0.25000000  0.00000000  1
  Li  Li4  1  0.25000000  0.75000000  0.50000000  1
  F  F5  1  0.90779048  0.48923354  0.40360939  1
  F  F6  1  0.33402515  0.98574442  0.94003149  1
  F  F7  1  0.32344386  0.43633178  0.10015326  1
  S  S8  1  0.11760440  0.74954959  0.03054654  1
  S  S9  1  0.80313118  0.70132056  0.96980586  1
  Br  Br10  1  0.72423545  0.73117860  0.92073044  1
  Br  Br11  1  0.15691943  0.42559182  0.34010119  1
  Br  Br12  1  0.52223890  0.24033474  0.51925532  1
  Br  Br13  1  0.67849682  0.63143193  0.35981258  1
  Br  Br14  1  0.09416550  0.85907067  0.82671612  1
