# generated using pymatgen
data_Li3TiP3(I2O)2
_symmetry_space_group_name_H-M   'P 1'
_cell_length_a   7.73353444
_cell_length_b   7.51434205
_cell_length_c   7.10777137
_cell_angle_alpha   92.51982559
_cell_angle_beta   92.89126956
_cell_angle_gamma   92.27546511
_symmetry_Int_Tables_number   1
_chemical_formula_structural   Li3TiP3(I2O)2
_chemical_formula_sum   'Li3 Ti1 P3 I4 O2'
_cell_volume   411.76121934
_cell_formula_units_Z   1
loop_
 _symmetry_equiv_pos_site_id
 _symmetry_equiv_pos_as_xyz
  1  'x, y, z'
loop_
 _atom_site_type_symbol
 _atom_site_label
 _atom_site_symmetry_multiplicity
 _atom_site_fract_x
 _atom_site_fract_y
 _atom_site_fract_z
 _atom_site_occupancy
  I  I0  1  0.12500000  0.00000000  0.25000000  1
  I  I1  1  0.00000000  0.00000000  0.00000000  1
  I  I2  1  0.37500000  0.00000000  0.25000000  1
  I  I3  1  0.25000000  0.25000000  0.25000000  1
  P  P4  1  0.00000000  0.25000000  0.12500000  1
  P  P5  1  0.79297116  0.20715193  0.34368991  1
  P  P6  1  0.91984705  0.44404230  0.60981151  1
  Li  Li7  1  0.74295720  0.08285422  0.15964127  1
  Li  Li8  1  0.90272023  0.04610399  0.74796318  1
  Li  Li9  1  0.80339992  0.05507542  0.92682779  1
  Ti  Ti10  1  0.23341270  0.00822475  0.97659122  1
  O  O11  1  0.57933717  0.59702986  0.98232392  1
  O  O12  1  0.57492974  0.86402986  0.84768093  1
