# generated using pymatgen
data_LiMn3(SbP)4
_symmetry_space_group_name_H-M   'P 1'
_cell_length_a   4.89246112
_cell_length_b   5.03941915
_cell_length_c   5.74937050
_cell_angle_alpha   90.50839612
_cell_angle_beta   91.79981104
_cell_angle_gamma   91.37843619
_symmetry_Int_Tables_number   1
_chemical_formula_structural   LiMn3(SbP)4
_chemical_formula_sum   'Li1 Mn3 Sb4 P4'
_cell_volume   141.63415447
_cell_formula_units_Z   1
loop_
 _symmetry_equiv_pos_site_id
 _symmetry_equiv_pos_as_xyz
  1  'x, y, z'
loop_
 _atom_site_type_symbol
 _atom_site_label
 _atom_site_symmetry_multiplicity
 _atom_site_fract_x
 _atom_site_fract_y
 _atom_site_fract_z
 _atom_site_occupancy
  Mn  Mn0  1  0.00000000  0.00000000  0.00000000  1
  Mn  Mn1  1  0.33300000  0.66700000  0.25000000  1
  Mn  Mn2  1  0.66700000  0.33300000  0.50000000  1
  Sb  Sb3  1  0.00000000  0.00000000  0.75000000  1
  Sb  Sb4  1  0.49002253  0.57297598  0.36325406  1
  Sb  Sb5  1  0.21267438  0.80522379  0.87016395  1
  Sb  Sb6  1  0.47172621  0.68461612  0.28620776  1
  P  P7  1  0.20205482  0.56481092  0.65001486  1
  P  P8  1  0.19990347  0.58981936  0.52759434  1
  P  P9  1  0.10768707  0.82828476  0.26933853  1
  P  P10  1  0.05360575  0.15927524  0.35557969  1
  Li  Li11  1  0.49477109  0.48260430  0.36812878  1
