# generated using pymatgen
data_Li2Mn3Sb4P3
_symmetry_space_group_name_H-M   'P 1'
_cell_length_a   5.81696943
_cell_length_b   6.22225286
_cell_length_c   6.63792148
_cell_angle_alpha   98.29798974
_cell_angle_beta   90.41454071
_cell_angle_gamma   98.13294269
_symmetry_Int_Tables_number   1
_chemical_formula_structural   Li2Mn3Sb4P3
_chemical_formula_sum   'Li2 Mn3 Sb4 P3'
_cell_volume   235.25710290
_cell_formula_units_Z   1
loop_
 _symmetry_equiv_pos_site_id
 _symmetry_equiv_pos_as_xyz
  1  'x, y, z'
loop_
 _atom_site_type_symbol
 _atom_site_label
 _atom_site_symmetry_multiplicity
 _atom_site_fract_x
 _atom_site_fract_y
 _atom_site_fract_z
 _atom_site_occupancy
  Mn  Mn0  1  0.00000000  0.00000000  0.00000000  1
  Mn  Mn1  1  0.33300000  0.66700000  0.25000000  1
  Mn  Mn2  1  0.66700000  0.33300000  0.50000000  1
  Sb  Sb3  1  0.00000000  0.00000000  0.75000000  1
  Sb  Sb4  1  0.13228167  0.37725995  0.22130328  1
  Sb  Sb5  1  0.00784119  0.80946209  0.15608861  1
  Sb  Sb6  1  0.81783941  0.47408727  0.52533678  1
  P  P7  1  0.55572080  0.09184427  0.86340121  1
  P  P8  1  0.41238950  0.97706640  0.24415877  1
  P  P9  1  0.29643777  0.70472836  0.65219081  1
  Li  Li10  1  0.83354431  0.05479838  0.26459563  1
  Li  Li11  1  0.08060802  0.37946258  0.67251851  1
