# generated using pymatgen
data_LiSb2Mo2P3
_symmetry_space_group_name_H-M   'P 1'
_cell_length_a   4.83570013
_cell_length_b   4.93710902
_cell_length_c   6.13897603
_cell_angle_alpha   98.00994955
_cell_angle_beta   92.29983461
_cell_angle_gamma   98.27207647
_symmetry_Int_Tables_number   1
_chemical_formula_structural   LiSb2Mo2P3
_chemical_formula_sum   'Li1 Sb2 Mo2 P3'
_cell_volume   143.35330470
_cell_formula_units_Z   1
loop_
 _symmetry_equiv_pos_site_id
 _symmetry_equiv_pos_as_xyz
  1  'x, y, z'
loop_
 _atom_site_type_symbol
 _atom_site_label
 _atom_site_symmetry_multiplicity
 _atom_site_fract_x
 _atom_site_fract_y
 _atom_site_fract_z
 _atom_site_occupancy
  Sb  Sb0  1  0.00000000  0.00000000  0.00000000  1
  Sb  Sb1  1  0.50000000  0.50000000  0.50000000  1
  P  P2  1  0.50000000  0.50000000  0.00000000  1
  P  P3  1  0.50000000  0.00000000  0.50000000  1
  P  P4  1  0.00000000  0.50000000  0.50000000  1
  Mo  Mo5  1  0.84986414  0.60893502  0.11409514  1
  Mo  Mo6  1  0.36673069  0.82889051  0.54613908  1
  Li  Li7  1  0.19858752  0.75152567  0.32720236  1
