# generated using pymatgen
data_Li3TiI4(OF)3
_symmetry_space_group_name_H-M   'P 1'
_cell_length_a   6.00187425
_cell_length_b   5.75718984
_cell_length_c   6.95003627
_cell_angle_alpha   99.77332677
_cell_angle_beta   102.96936700
_cell_angle_gamma   99.18794529
_symmetry_Int_Tables_number   1
_chemical_formula_structural   Li3TiI4(OF)3
_chemical_formula_sum   'Li3 Ti1 I4 O3 F3'
_cell_volume   225.68501794
_cell_formula_units_Z   1
loop_
 _symmetry_equiv_pos_site_id
 _symmetry_equiv_pos_as_xyz
  1  'x, y, z'
loop_
 _atom_site_type_symbol
 _atom_site_label
 _atom_site_symmetry_multiplicity
 _atom_site_fract_x
 _atom_site_fract_y
 _atom_site_fract_z
 _atom_site_occupancy
  I  I0  1  0.12500000  0.00000000  0.25000000  1
  I  I1  1  0.00000000  0.00000000  0.00000000  1
  I  I2  1  0.37500000  0.00000000  0.25000000  1
  I  I3  1  0.25000000  0.25000000  0.25000000  1
  Li  Li4  1  0.00000000  0.25000000  0.12500000  1
  Li  Li5  1  0.77176016  0.34053896  0.35026992  1
  Li  Li6  1  0.13002041  0.44596543  0.29298224  1
  F  F7  1  0.01072804  0.29334728  0.13819990  1
  F  F8  1  0.30467454  0.37491746  0.95871999  1
  F  F9  1  0.83942686  0.02024287  0.15782140  1
  Ti  Ti10  1  0.85955939  0.26463463  0.47575195  1
  O  O11  1  0.80576634  0.70830430  0.81575083  1
  O  O12  1  0.69003997  0.06864778  0.27804078  1
  O  O13  1  0.97870766  0.08435298  0.04593742  1
