# generated using pymatgen
data_LiAs3(PO)2
_symmetry_space_group_name_H-M   'P 1'
_cell_length_a   8.18139538
_cell_length_b   7.98951758
_cell_length_c   7.99968587
_cell_angle_alpha   91.07415176
_cell_angle_beta   90.84317011
_cell_angle_gamma   91.24413807
_symmetry_Int_Tables_number   1
_chemical_formula_structural   LiAs3(PO)2
_chemical_formula_sum   'Li2 As6 P4 O4'
_cell_volume   522.62772447
_cell_formula_units_Z   2
loop_
 _symmetry_equiv_pos_site_id
 _symmetry_equiv_pos_as_xyz
  1  'x, y, z'
loop_
 _atom_site_type_symbol
 _atom_site_label
 _atom_site_symmetry_multiplicity
 _atom_site_fract_x
 _atom_site_fract_y
 _atom_site_fract_z
 _atom_site_occupancy
  P  P0  1  0.00000000  0.00000000  0.00000000  1
  P  P1  1  0.33300000  0.66700000  0.25000000  1
  P  P2  1  0.66700000  0.33300000  0.50000000  1
  P  P3  1  0.00000000  0.00000000  0.75000000  1
  Li  Li4  1  0.26791959  0.97889262  0.22434921  1
  Li  Li5  1  0.09389294  0.35108778  0.59362492  1
  As  As6  1  0.47563222  0.50273707  0.70569688  1
  As  As7  1  0.68742527  0.37688213  0.03620730  1
  As  As8  1  0.46159048  0.93370711  0.67788658  1
  As  As9  1  0.21237324  0.12061859  0.56107372  1
  As  As10  1  0.13209311  0.50615905  0.40132392  1
  As  As11  1  0.69722899  0.20470259  0.97126274  1
  O  O12  1  0.50257580  0.20864499  0.72480830  1
  O  O13  1  0.96705011  0.32601743  0.15639513  1
  O  O14  1  0.59079764  0.65646703  0.97591273  1
  O  O15  1  0.67149369  0.83386042  0.06390291  1
