# generated using pymatgen
data_LiMn2P3
_symmetry_space_group_name_H-M   'P 1'
_cell_length_a   4.28769203
_cell_length_b   4.47456935
_cell_length_c   6.26270660
_cell_angle_alpha   100.81760105
_cell_angle_beta   94.94811575
_cell_angle_gamma   101.09463604
_symmetry_Int_Tables_number   1
_chemical_formula_structural   LiMn2P3
_chemical_formula_sum   'Li1 Mn2 P3'
_cell_volume   114.87565417
_cell_formula_units_Z   1
loop_
 _symmetry_equiv_pos_site_id
 _symmetry_equiv_pos_as_xyz
  1  'x, y, z'
loop_
 _atom_site_type_symbol
 _atom_site_label
 _atom_site_symmetry_multiplicity
 _atom_site_fract_x
 _atom_site_fract_y
 _atom_site_fract_z
 _atom_site_occupancy
  Mn  Mn0  1  0.00000000  0.00000000  0.00000000  1
  Mn  Mn1  1  0.33300000  0.66700000  0.25000000  1
  P  P2  1  0.66700000  0.33300000  0.50000000  1
  P  P3  1  0.00000000  0.00000000  0.75000000  1
  P  P4  1  0.22858451  0.91913444  0.76466047  1
  Li  Li5  1  0.85359381  0.52658818  0.35244453  1
