# generated using pymatgen
data_Li2Ti(OF)2
_symmetry_space_group_name_H-M   'P 1'
_cell_length_a   6.71661862
_cell_length_b   6.70634862
_cell_length_c   7.23806218
_cell_angle_alpha   94.88055283
_cell_angle_beta   97.11924757
_cell_angle_gamma   95.99713131
_symmetry_Int_Tables_number   1
_chemical_formula_structural   Li2Ti(OF)2
_chemical_formula_sum   'Li2 Ti1 O2 F2'
_cell_volume   320.15575177
_cell_formula_units_Z   1
loop_
 _symmetry_equiv_pos_site_id
 _symmetry_equiv_pos_as_xyz
  1  'x, y, z'
loop_
 _atom_site_type_symbol
 _atom_site_label
 _atom_site_symmetry_multiplicity
 _atom_site_fract_x
 _atom_site_fract_y
 _atom_site_fract_z
 _atom_site_occupancy
  Li  Li0  1  0.00000000  0.00000000  0.00000000  1
  Li  Li1  1  0.33300000  0.66700000  0.25000000  1
  F  F2  1  0.66700000  0.33300000  0.50000000  1
  F  F3  1  0.00000000  0.00000000  0.75000000  1
  Ti  Ti4  1  0.25353361  0.12192074  0.03460068  1
  O  O5  1  0.06319393  0.98986653  0.03667104  1
  O  O6  1  0.51339006  0.30709782  0.29697193  1
