# generated using pymatgen
data_Li2LuTi2As6P5
_symmetry_space_group_name_H-M   'P 1'
_cell_length_a   7.28235412
_cell_length_b   6.97891669
_cell_length_c   7.86917464
_cell_angle_alpha   92.12127755
_cell_angle_beta   92.90675392
_cell_angle_gamma   92.18934667
_symmetry_Int_Tables_number   1
_chemical_formula_structural   Li2LuTi2As6P5
_chemical_formula_sum   'Li2 Lu1 Ti2 As6 P5'
_cell_volume   398.82435694
_cell_formula_units_Z   1
loop_
 _symmetry_equiv_pos_site_id
 _symmetry_equiv_pos_as_xyz
  1  'x, y, z'
loop_
 _atom_site_type_symbol
 _atom_site_label
 _atom_site_symmetry_multiplicity
 _atom_site_fract_x
 _atom_site_fract_y
 _atom_site_fract_z
 _atom_site_occupancy
  P  P0  1  0.00000000  0.00000000  0.00000000  1
  P  P1  1  0.50000000  0.50000000  0.50000000  1
  P  P2  1  0.50000000  0.50000000  0.00000000  1
  P  P3  1  0.50000000  0.00000000  0.50000000  1
  P  P4  1  0.00000000  0.50000000  0.50000000  1
  Lu  Lu5  1  0.11691243  0.07838705  0.87379639  1
  Li  Li6  1  0.55518893  0.10885521  0.71964598  1
  Li  Li7  1  0.42381980  0.77550169  0.84575055  1
  Ti  Ti8  1  0.41728568  0.29067226  0.47199600  1
  Ti  Ti9  1  0.67229084  0.95213802  0.57959638  1
  As  As10  1  0.81293839  0.65141615  0.30798279  1
  As  As11  1  0.26513692  0.60523146  0.20950020  1
  As  As12  1  0.02060541  0.85077880  0.08739976  1
  As  As13  1  0.80439507  0.67521242  0.22929267  1
  As  As14  1  0.34967358  0.59983903  0.25205034  1
  As  As15  1  0.32605507  0.24915516  0.73883298  1
