# generated using pymatgen
data_Li(NiP)3
_symmetry_space_group_name_H-M   'P 1'
_cell_length_a   4.28486889
_cell_length_b   4.12006692
_cell_length_c   5.98088825
_cell_angle_alpha   98.18030763
_cell_angle_beta   93.73265602
_cell_angle_gamma   97.93609243
_symmetry_Int_Tables_number   1
_chemical_formula_structural   Li(NiP)3
_chemical_formula_sum   'Li1 Ni3 P3'
_cell_volume   103.12353087
_cell_formula_units_Z   1
loop_
 _symmetry_equiv_pos_site_id
 _symmetry_equiv_pos_as_xyz
  1  'x, y, z'
loop_
 _atom_site_type_symbol
 _atom_site_label
 _atom_site_symmetry_multiplicity
 _atom_site_fract_x
 _atom_site_fract_y
 _atom_site_fract_z
 _atom_site_occupancy
  P  P0  1  0.00000000  0.00000000  0.00000000  1
  P  P1  1  0.33300000  0.66700000  0.25000000  1
  P  P2  1  0.66700000  0.33300000  0.50000000  1
  Li  Li3  1  0.00000000  0.00000000  0.75000000  1
  Ni  Ni4  1  0.71836636  0.65425099  0.16044183  1
  Ni  Ni5  1  0.55450616  0.38013143  0.86897751  1
  Ni  Ni6  1  0.67365595  0.80653217  0.89797779  1
