# generated using pymatgen
data_LiMnSb4Mo2P3
_symmetry_space_group_name_H-M   'P 1'
_cell_length_a   5.12927918
_cell_length_b   5.46928340
_cell_length_c   6.59333077
_cell_angle_alpha   95.81918497
_cell_angle_beta   94.93971515
_cell_angle_gamma   96.14676070
_symmetry_Int_Tables_number   1
_chemical_formula_structural   LiMnSb4Mo2P3
_chemical_formula_sum   'Li1 Mn1 Sb4 Mo2 P3'
_cell_volume   182.07360579
_cell_formula_units_Z   1
loop_
 _symmetry_equiv_pos_site_id
 _symmetry_equiv_pos_as_xyz
  1  'x, y, z'
loop_
 _atom_site_type_symbol
 _atom_site_label
 _atom_site_symmetry_multiplicity
 _atom_site_fract_x
 _atom_site_fract_y
 _atom_site_fract_z
 _atom_site_occupancy
  Mn  Mn0  1  0.12500000  0.00000000  0.25000000  1
  Sb  Sb1  1  0.00000000  0.00000000  0.00000000  1
  Sb  Sb2  1  0.37500000  0.00000000  0.25000000  1
  Sb  Sb3  1  0.25000000  0.25000000  0.25000000  1
  Sb  Sb4  1  0.00000000  0.25000000  0.12500000  1
  P  P5  1  0.03791052  0.45387749  0.11852286  1
  P  P6  1  0.98072931  0.53129364  0.64670575  1
  P  P7  1  0.42888129  0.48725883  0.70859865  1
  Mo  Mo8  1  0.40135033  0.39186964  0.56932975  1
  Mo  Mo9  1  0.68483317  0.34368408  0.34694471  1
  Li  Li10  1  0.41714972  0.06006213  0.01576060  1
