# generated using pymatgen
data_Li2TiCu2(AsP)6
_symmetry_space_group_name_H-M   'P 1'
_cell_length_a   8.10542054
_cell_length_b   7.89133941
_cell_length_c   8.09284747
_cell_angle_alpha   91.30206517
_cell_angle_beta   90.89165986
_cell_angle_gamma   91.50861107
_symmetry_Int_Tables_number   1
_chemical_formula_structural   Li2TiCu2(AsP)6
_chemical_formula_sum   'Li2 Ti1 Cu2 As6 P6'
_cell_volume   517.25909122
_cell_formula_units_Z   1
loop_
 _symmetry_equiv_pos_site_id
 _symmetry_equiv_pos_as_xyz
  1  'x, y, z'
loop_
 _atom_site_type_symbol
 _atom_site_label
 _atom_site_symmetry_multiplicity
 _atom_site_fract_x
 _atom_site_fract_y
 _atom_site_fract_z
 _atom_site_occupancy
  P  P0  1  0.00000000  0.00000000  0.00000000  1
  P  P1  1  0.50000000  0.50000000  0.50000000  1
  P  P2  1  0.25000000  0.25000000  0.25000000  1
  P  P3  1  0.75000000  0.25000000  0.00000000  1
  P  P4  1  0.25000000  0.75000000  0.50000000  1
  P  P5  1  0.76903784  0.40794480  0.20255316  1
  Li  Li6  1  0.15621883  0.74264153  0.19103003  1
  Li  Li7  1  0.52478955  0.34584875  0.48701736  1
  Cu  Cu8  1  0.83074154  0.26969050  0.91067695  1
  Cu  Cu9  1  0.96734470  0.26756438  0.25478350  1
  Ti  Ti10  1  0.79318797  0.84903537  0.31790982  1
  As  As11  1  0.30737695  0.56795636  0.98006778  1
  As  As12  1  0.23659814  0.50796523  0.04452393  1
  As  As13  1  0.15419647  0.41226626  0.02792428  1
  As  As14  1  0.21928131  0.26314415  0.47316940  1
  As  As15  1  0.45003459  0.38451541  0.56711790  1
  As  As16  1  0.27608472  0.14516037  0.89477846  1
