# generated using pymatgen
data_Li2Sb4P3
_symmetry_space_group_name_H-M   'P 1'
_cell_length_a   6.28035663
_cell_length_b   6.31426955
_cell_length_c   6.98062109
_cell_angle_alpha   97.42142000
_cell_angle_beta   92.37004842
_cell_angle_gamma   97.67682210
_symmetry_Int_Tables_number   1
_chemical_formula_structural   Li2Sb4P3
_chemical_formula_sum   'Li2 Sb4 P3'
_cell_volume   271.55910563
_cell_formula_units_Z   1
loop_
 _symmetry_equiv_pos_site_id
 _symmetry_equiv_pos_as_xyz
  1  'x, y, z'
loop_
 _atom_site_type_symbol
 _atom_site_label
 _atom_site_symmetry_multiplicity
 _atom_site_fract_x
 _atom_site_fract_y
 _atom_site_fract_z
 _atom_site_occupancy
  Sb  Sb0  1  0.00000000  0.00000000  0.00000000  1
  Sb  Sb1  1  0.33300000  0.66700000  0.25000000  1
  Sb  Sb2  1  0.66700000  0.33300000  0.50000000  1
  Sb  Sb3  1  0.00000000  0.00000000  0.75000000  1
  P  P4  1  0.14467316  0.90840011  0.54325652  1
  P  P5  1  0.44366486  0.51483853  0.52346505  1
  P  P6  1  0.45535179  0.06964972  0.64375843  1
  Li  Li7  1  0.31289496  0.99888594  0.53814988  1
  Li  Li8  1  0.78019766  0.85052706  0.54732255  1
