# generated using pymatgen
data_Li3TiI4O3
_symmetry_space_group_name_H-M   'P 1'
_cell_length_a   7.76619115
_cell_length_b   7.59847807
_cell_length_c   7.10769042
_cell_angle_alpha   93.77567109
_cell_angle_beta   95.01037827
_cell_angle_gamma   93.54952415
_symmetry_Int_Tables_number   1
_chemical_formula_structural   Li3TiI4O3
_chemical_formula_sum   'Li3 Ti1 I4 O3'
_cell_volume   415.95695748
_cell_formula_units_Z   1
loop_
 _symmetry_equiv_pos_site_id
 _symmetry_equiv_pos_as_xyz
  1  'x, y, z'
loop_
 _atom_site_type_symbol
 _atom_site_label
 _atom_site_symmetry_multiplicity
 _atom_site_fract_x
 _atom_site_fract_y
 _atom_site_fract_z
 _atom_site_occupancy
  I  I0  1  0.00000000  0.00000000  0.00000000  1
  I  I1  1  0.33300000  0.66700000  0.25000000  1
  I  I2  1  0.66700000  0.33300000  0.50000000  1
  I  I3  1  0.00000000  0.00000000  0.75000000  1
  Li  Li4  1  0.68197050  0.67763305  0.23586994  1
  Li  Li5  1  0.16947561  0.45317205  0.90825571  1
  Li  Li6  1  0.62517422  0.70737402  0.63392085  1
  Ti  Ti7  1  0.98885442  0.48349850  0.37881594  1
  O  O8  1  0.84195689  0.65930752  0.69049101  1
  O  O9  1  0.99187027  0.50451534  0.57676239  1
  O  O10  1  0.70954833  0.47629980  0.44563256  1
