# generated using pymatgen
data_Li3TiI4N5
_symmetry_space_group_name_H-M   'P 1'
_cell_length_a   8.36113026
_cell_length_b   8.15072199
_cell_length_c   7.84745185
_cell_angle_alpha   91.21289532
_cell_angle_beta   90.42880943
_cell_angle_gamma   91.40681174
_symmetry_Int_Tables_number   1
_chemical_formula_structural   Li3TiI4N5
_chemical_formula_sum   'Li3 Ti1 I4 N5'
_cell_volume   534.49981717
_cell_formula_units_Z   1
loop_
 _symmetry_equiv_pos_site_id
 _symmetry_equiv_pos_as_xyz
  1  'x, y, z'
loop_
 _atom_site_type_symbol
 _atom_site_label
 _atom_site_symmetry_multiplicity
 _atom_site_fract_x
 _atom_site_fract_y
 _atom_site_fract_z
 _atom_site_occupancy
  I  I0  1  0.00000000  0.00000000  0.00000000  1
  I  I1  1  0.50000000  0.50000000  0.50000000  1
  I  I2  1  0.50000000  0.50000000  0.00000000  1
  I  I3  1  0.50000000  0.00000000  0.50000000  1
  Li  Li4  1  0.00000000  0.50000000  0.50000000  1
  Li  Li5  1  0.79004412  0.81991148  0.04196830  1
  Li  Li6  1  0.97053542  0.81938666  0.75089349  1
  Ti  Ti7  1  0.74333189  0.51832206  0.64451722  1
  N  N8  1  0.58442919  0.88786029  0.27625409  1
  N  N9  1  0.67163330  0.82284408  0.50731539  1
  N  N10  1  0.36667978  0.49429429  0.48306373  1
  N  N11  1  0.64749490  0.60503617  0.86910294  1
  N  N12  1  0.28534566  0.08939339  0.55365321  1
