# generated using pymatgen
data_Li2Ti2Cu2S3
_symmetry_space_group_name_H-M   'P 1'
_cell_length_a   5.82805652
_cell_length_b   5.90651966
_cell_length_c   7.31716074
_cell_angle_alpha   93.92418593
_cell_angle_beta   99.15644509
_cell_angle_gamma   94.56762626
_symmetry_Int_Tables_number   1
_chemical_formula_structural   Li2Ti2Cu2S3
_chemical_formula_sum   'Li2 Ti2 Cu2 S3'
_cell_volume   247.03979379
_cell_formula_units_Z   1
loop_
 _symmetry_equiv_pos_site_id
 _symmetry_equiv_pos_as_xyz
  1  'x, y, z'
loop_
 _atom_site_type_symbol
 _atom_site_label
 _atom_site_symmetry_multiplicity
 _atom_site_fract_x
 _atom_site_fract_y
 _atom_site_fract_z
 _atom_site_occupancy
  Li  Li0  1  0.00000000  0.00000000  0.00000000  1
  Li  Li1  1  0.33300000  0.66700000  0.25000000  1
  Cu  Cu2  1  0.66700000  0.33300000  0.50000000  1
  Cu  Cu3  1  0.00000000  0.00000000  0.75000000  1
  S  S4  1  0.62376800  0.51054518  0.04140202  1
  S  S5  1  0.83558852  0.55825766  0.30176807  1
  S  S6  1  0.68955631  0.44351983  0.14100202  1
  Ti  Ti7  1  0.44617867  0.91851494  0.19593946  1
  Ti  Ti8  1  0.44049650  0.66649833  0.74117435  1
