# generated using pymatgen
data_Li3LuCu2Ni2O7
_symmetry_space_group_name_H-M   'P 1'
_cell_length_a   7.65422191
_cell_length_b   7.45587539
_cell_length_c   8.58642132
_cell_angle_alpha   91.68224062
_cell_angle_beta   91.23711241
_cell_angle_gamma   91.94877253
_symmetry_Int_Tables_number   1
_chemical_formula_structural   Li3LuCu2Ni2O7
_chemical_formula_sum   'Li3 Lu1 Cu2 Ni2 O7'
_cell_volume   489.39819634
_cell_formula_units_Z   1
loop_
 _symmetry_equiv_pos_site_id
 _symmetry_equiv_pos_as_xyz
  1  'x, y, z'
loop_
 _atom_site_type_symbol
 _atom_site_label
 _atom_site_symmetry_multiplicity
 _atom_site_fract_x
 _atom_site_fract_y
 _atom_site_fract_z
 _atom_site_occupancy
  Lu  Lu0  1  0.00000000  0.00000000  0.00000000  1
  Li  Li1  1  0.50000000  0.50000000  0.50000000  1
  Li  Li2  1  0.25000000  0.25000000  0.25000000  1
  Li  Li3  1  0.75000000  0.25000000  0.00000000  1
  Cu  Cu4  1  0.25000000  0.75000000  0.50000000  1
  Cu  Cu5  1  0.25437184  0.83419705  0.56083709  1
  Ni  Ni6  1  0.31712324  0.68705077  0.39757375  1
  Ni  Ni7  1  0.24276667  0.86369342  0.67364662  1
  O  O8  1  0.95548391  0.44783433  0.58929747  1
  O  O9  1  0.08579166  0.92528855  0.90389374  1
  O  O10  1  0.19695374  0.30524293  0.69075360  1
  O  O11  1  0.82639688  0.33055994  0.89031193  1
  O  O12  1  0.36598710  0.27861111  0.09869178  1
  O  O13  1  0.96368698  0.86414481  0.79813364  1
  O  O14  1  0.64865432  0.46512969  0.25643133  1
