# generated using pymatgen
data_LiNiAs3
_symmetry_space_group_name_H-M   'P 1'
_cell_length_a   7.85425226
_cell_length_b   7.89560766
_cell_length_c   8.98424658
_cell_angle_alpha   90.26408120
_cell_angle_beta   91.25641815
_cell_angle_gamma   90.30191533
_symmetry_Int_Tables_number   1
_chemical_formula_structural   LiNiAs3
_chemical_formula_sum   'Li2 Ni2 As6'
_cell_volume   557.00200950
_cell_formula_units_Z   2
loop_
 _symmetry_equiv_pos_site_id
 _symmetry_equiv_pos_as_xyz
  1  'x, y, z'
loop_
 _atom_site_type_symbol
 _atom_site_label
 _atom_site_symmetry_multiplicity
 _atom_site_fract_x
 _atom_site_fract_y
 _atom_site_fract_z
 _atom_site_occupancy
  Ni  Ni0  1  0.00000000  0.00000000  0.00000000  1
  Ni  Ni1  1  0.50000000  0.50000000  0.50000000  1
  As  As2  1  0.50000000  0.50000000  0.00000000  1
  As  As3  1  0.50000000  0.00000000  0.50000000  1
  As  As4  1  0.00000000  0.50000000  0.50000000  1
  As  As5  1  0.75511060  0.53730170  0.70191059  1
  As  As6  1  0.19136250  0.81660110  0.91639700  1
  As  As7  1  0.42047564  0.14104137  0.98073285  1
  Li  Li8  1  0.53298506  0.42029318  0.59860900  1
  Li  Li9  1  0.15676886  0.87060417  0.92591534  1
