# generated using pymatgen
data_Li2MnSb4(PN)2
_symmetry_space_group_name_H-M   'P 1'
_cell_length_a   6.22061134
_cell_length_b   6.66292216
_cell_length_c   7.46403955
_cell_angle_alpha   94.86894303
_cell_angle_beta   94.16514218
_cell_angle_gamma   94.85883003
_symmetry_Int_Tables_number   1
_chemical_formula_structural   Li2MnSb4(PN)2
_chemical_formula_sum   'Li2 Mn1 Sb4 P2 N2'
_cell_volume   306.14704050
_cell_formula_units_Z   1
loop_
 _symmetry_equiv_pos_site_id
 _symmetry_equiv_pos_as_xyz
  1  'x, y, z'
loop_
 _atom_site_type_symbol
 _atom_site_label
 _atom_site_symmetry_multiplicity
 _atom_site_fract_x
 _atom_site_fract_y
 _atom_site_fract_z
 _atom_site_occupancy
  N  N0  1  0.00000000  0.00000000  0.00000000  1
  N  N1  1  0.50000000  0.50000000  0.50000000  1
  Mn  Mn2  1  0.50000000  0.50000000  0.00000000  1
  Sb  Sb3  1  0.50000000  0.00000000  0.50000000  1
  Sb  Sb4  1  0.00000000  0.50000000  0.50000000  1
  Sb  Sb5  1  0.47544555  0.34823597  0.38387341  1
  Sb  Sb6  1  0.41436590  0.90689402  0.61077252  1
  P  P7  1  0.86204989  0.51165191  0.85502423  1
  P  P8  1  0.19659792  0.26656938  0.24198083  1
  Li  Li9  1  0.24536801  0.95224619  0.98192167  1
  Li  Li10  1  0.44938819  0.46174605  0.37819277  1
