# generated using pymatgen
data_Li2Mn2Sb3Mo2P3
_symmetry_space_group_name_H-M   'P 1'
_cell_length_a   5.36609968
_cell_length_b   5.78058272
_cell_length_c   6.98865294
_cell_angle_alpha   96.51051016
_cell_angle_beta   95.57824756
_cell_angle_gamma   97.08990283
_symmetry_Int_Tables_number   1
_chemical_formula_structural   Li2Mn2Sb3Mo2P3
_chemical_formula_sum   'Li2 Mn2 Sb3 Mo2 P3'
_cell_volume   212.37365498
_cell_formula_units_Z   1
loop_
 _symmetry_equiv_pos_site_id
 _symmetry_equiv_pos_as_xyz
  1  'x, y, z'
loop_
 _atom_site_type_symbol
 _atom_site_label
 _atom_site_symmetry_multiplicity
 _atom_site_fract_x
 _atom_site_fract_y
 _atom_site_fract_z
 _atom_site_occupancy
  Mn  Mn0  1  0.00000000  0.00000000  0.00000000  1
  Mn  Mn1  1  0.50000000  0.50000000  0.50000000  1
  Sb  Sb2  1  0.50000000  0.50000000  0.00000000  1
  Sb  Sb3  1  0.50000000  0.00000000  0.50000000  1
  Sb  Sb4  1  0.00000000  0.50000000  0.50000000  1
  P  P5  1  0.38058564  0.89340210  0.42600620  1
  P  P6  1  0.82480235  0.82377729  0.22721544  1
  P  P7  1  0.22988405  0.59644145  0.08767847  1
  Mo  Mo8  1  0.93424185  0.63955535  0.44617253  1
  Mo  Mo9  1  0.98352750  0.54822780  0.33820448  1
  Li  Li10  1  0.19596641  0.24844252  0.97620223  1
  Li  Li11  1  0.74305065  0.58237068  0.83499691  1
