# generated using pymatgen
data_Li2Ti2Cu2Ni2O7
_symmetry_space_group_name_H-M   'P 1'
_cell_length_a   7.02644601
_cell_length_b   7.04921269
_cell_length_c   8.26056442
_cell_angle_alpha   91.18977739
_cell_angle_beta   93.63500761
_cell_angle_gamma   91.36787353
_symmetry_Int_Tables_number   1
_chemical_formula_structural   Li2Ti2Cu2Ni2O7
_chemical_formula_sum   'Li2 Ti2 Cu2 Ni2 O7'
_cell_volume   408.11201257
_cell_formula_units_Z   1
loop_
 _symmetry_equiv_pos_site_id
 _symmetry_equiv_pos_as_xyz
  1  'x, y, z'
loop_
 _atom_site_type_symbol
 _atom_site_label
 _atom_site_symmetry_multiplicity
 _atom_site_fract_x
 _atom_site_fract_y
 _atom_site_fract_z
 _atom_site_occupancy
  Li  Li0  1  0.12500000  0.00000000  0.25000000  1
  Li  Li1  1  0.00000000  0.00000000  0.00000000  1
  Cu  Cu2  1  0.37500000  0.00000000  0.25000000  1
  Cu  Cu3  1  0.25000000  0.25000000  0.25000000  1
  Ni  Ni4  1  0.00000000  0.25000000  0.12500000  1
  Ni  Ni5  1  0.59644527  0.88807248  0.33733420  1
  Ti  Ti6  1  0.97343223  0.91762958  0.46764896  1
  Ti  Ti7  1  0.06200695  0.87414788  0.53397052  1
  O  O8  1  0.70159659  0.33765556  0.86496257  1
  O  O9  1  0.24554811  0.35280614  0.65030415  1
  O  O10  1  0.30023768  0.73887174  0.70772505  1
  O  O11  1  0.41407979  0.27809415  0.58658609  1
  O  O12  1  0.99191284  0.33130105  0.44887697  1
  O  O13  1  0.73644841  0.50425410  0.76044330  1
  O  O14  1  0.25586046  0.67826099  0.00775882  1
