# generated using pymatgen
data_Li2Mn2Sb4P3
_symmetry_space_group_name_H-M   'P 1'
_cell_length_a   5.26259592
_cell_length_b   5.64457157
_cell_length_c   6.80725801
_cell_angle_alpha   98.15029257
_cell_angle_beta   94.35896801
_cell_angle_gamma   98.53852602
_symmetry_Int_Tables_number   1
_chemical_formula_structural   Li2Mn2Sb4P3
_chemical_formula_sum   'Li2 Mn2 Sb4 P3'
_cell_volume   196.97399480
_cell_formula_units_Z   1
loop_
 _symmetry_equiv_pos_site_id
 _symmetry_equiv_pos_as_xyz
  1  'x, y, z'
loop_
 _atom_site_type_symbol
 _atom_site_label
 _atom_site_symmetry_multiplicity
 _atom_site_fract_x
 _atom_site_fract_y
 _atom_site_fract_z
 _atom_site_occupancy
  Mn  Mn0  1  0.00000000  0.00000000  0.00000000  1
  Mn  Mn1  1  0.33300000  0.66700000  0.25000000  1
  Sb  Sb2  1  0.66700000  0.33300000  0.50000000  1
  Sb  Sb3  1  0.00000000  0.00000000  0.75000000  1
  Sb  Sb4  1  0.72891261  0.81612377  0.42622342  1
  Sb  Sb5  1  0.50854909  0.75820141  0.37278084  1
  P  P6  1  0.34890668  0.57133062  0.65346624  1
  P  P7  1  0.14895616  0.51909901  0.01315821  1
  P  P8  1  0.61454730  0.40907022  0.43999715  1
  Li  Li9  1  0.22451617  0.05845942  0.20583079  1
  Li  Li10  1  0.99953722  0.71136012  0.12962666  1
