# generated using pymatgen
data_Li3Ni2As6(PO)4
_symmetry_space_group_name_H-M   'P 1'
_cell_length_a   7.91916364
_cell_length_b   7.75259955
_cell_length_c   8.44637733
_cell_angle_alpha   91.55574140
_cell_angle_beta   90.98633495
_cell_angle_gamma   91.80282596
_symmetry_Int_Tables_number   1
_chemical_formula_structural   Li3Ni2As6(PO)4
_chemical_formula_sum   'Li3 Ni2 As6 P4 O4'
_cell_volume   518.02531518
_cell_formula_units_Z   1
loop_
 _symmetry_equiv_pos_site_id
 _symmetry_equiv_pos_as_xyz
  1  'x, y, z'
loop_
 _atom_site_type_symbol
 _atom_site_label
 _atom_site_symmetry_multiplicity
 _atom_site_fract_x
 _atom_site_fract_y
 _atom_site_fract_z
 _atom_site_occupancy
  P  P0  1  0.00000000  0.00000000  0.00000000  1
  P  P1  1  0.50000000  0.50000000  0.50000000  1
  P  P2  1  0.25000000  0.25000000  0.25000000  1
  P  P3  1  0.75000000  0.25000000  0.00000000  1
  Li  Li4  1  0.25000000  0.75000000  0.50000000  1
  Li  Li5  1  0.63842865  0.44232869  0.74182311  1
  Li  Li6  1  0.96432781  0.83472916  0.71583584  1
  Ni  Ni7  1  0.69189491  0.10155426  0.32298680  1
  Ni  Ni8  1  0.09856804  0.93155656  0.17325027  1
  As  As9  1  0.77801820  0.77402398  0.80001796  1
  As  As10  1  0.86986319  0.90172772  0.94475264  1
  As  As11  1  0.43017668  0.95085674  0.66834788  1
  As  As12  1  0.03215678  0.18372683  0.90416301  1
  As  As13  1  0.89899512  0.70965595  0.59071430  1
  As  As14  1  0.53803695  0.09879321  0.28243430  1
  O  O15  1  0.65763047  0.85977691  0.05529755  1
  O  O16  1  0.97385313  0.91727546  0.58717738  1
  O  O17  1  0.26466186  0.73325600  0.89272845  1
  O  O18  1  0.34818835  0.28194628  0.34972845  1
