# generated using pymatgen
data_LiP2(IO)2
_symmetry_space_group_name_H-M   'P 1'
_cell_length_a   8.41032250
_cell_length_b   8.26153290
_cell_length_c   7.44555649
_cell_angle_alpha   90.56732513
_cell_angle_beta   90.56765391
_cell_angle_gamma   90.61271416
_symmetry_Int_Tables_number   1
_chemical_formula_structural   LiP2(IO)2
_chemical_formula_sum   'Li2 P4 I4 O4'
_cell_volume   517.25244017
_cell_formula_units_Z   2
loop_
 _symmetry_equiv_pos_site_id
 _symmetry_equiv_pos_as_xyz
  1  'x, y, z'
loop_
 _atom_site_type_symbol
 _atom_site_label
 _atom_site_symmetry_multiplicity
 _atom_site_fract_x
 _atom_site_fract_y
 _atom_site_fract_z
 _atom_site_occupancy
  P  P0  1  0.00000000  0.00000000  0.00000000  1
  P  P1  1  0.50000000  0.50000000  0.50000000  1
  P  P2  1  0.25000000  0.25000000  0.25000000  1
  P  P3  1  0.75000000  0.25000000  0.00000000  1
  I  I4  1  0.25000000  0.75000000  0.50000000  1
  I  I5  1  0.82548041  0.48667009  0.57482045  1
  I  I6  1  0.84012299  0.78156783  0.36427411  1
  I  I7  1  0.32092778  0.65778903  0.23914351  1
  Li  Li8  1  0.37471471  0.12912106  0.97313737  1
  Li  Li9  1  0.82742849  0.96833632  0.41518668  1
  O  O10  1  0.09264042  0.73514923  0.87108314  1
  O  O11  1  0.33063268  0.66706988  0.13620936  1
  O  O12  1  0.91145935  0.70722126  0.23490435  1
  O  O13  1  0.46729376  0.45099856  0.01981286  1
