# generated using pymatgen
data_Li3TiTe6(IO)4
_symmetry_space_group_name_H-M   'P 1'
_cell_length_a   7.93480863
_cell_length_b   7.79487471
_cell_length_c   7.36926180
_cell_angle_alpha   93.69482176
_cell_angle_beta   94.71743878
_cell_angle_gamma   93.47577752
_symmetry_Int_Tables_number   1
_chemical_formula_structural   Li3TiTe6(IO)4
_chemical_formula_sum   'Li3 Ti1 Te6 I4 O4'
_cell_volume   452.30974840
_cell_formula_units_Z   1
loop_
 _symmetry_equiv_pos_site_id
 _symmetry_equiv_pos_as_xyz
  1  'x, y, z'
loop_
 _atom_site_type_symbol
 _atom_site_label
 _atom_site_symmetry_multiplicity
 _atom_site_fract_x
 _atom_site_fract_y
 _atom_site_fract_z
 _atom_site_occupancy
  I  I0  1  0.12500000  0.00000000  0.25000000  1
  I  I1  1  0.00000000  0.00000000  0.00000000  1
  I  I2  1  0.37500000  0.00000000  0.25000000  1
  I  I3  1  0.25000000  0.25000000  0.25000000  1
  Li  Li4  1  0.00000000  0.25000000  0.12500000  1
  Li  Li5  1  0.78634059  0.66588279  0.86120146  1
  Li  Li6  1  0.91098841  0.20269771  0.76012041  1
  Te  Te7  1  0.90366407  0.88318770  0.30712363  1
  Te  Te8  1  0.71778666  0.43100199  0.28159151  1
  Te  Te9  1  0.70693426  0.07704308  0.49705285  1
  Te  Te10  1  0.62456150  0.95686444  0.04271214  1
  Te  Te11  1  0.95417577  0.63214717  0.17698355  1
  Te  Te12  1  0.79537360  0.95584481  0.29742370  1
  Ti  Ti13  1  0.54981491  0.28723226  0.47372615  1
  O  O14  1  0.05012788  0.39228829  0.77167830  1
  O  O15  1  0.76301311  0.10793227  0.73586998  1
  O  O16  1  0.27801763  0.64498466  0.38163680  1
  O  O17  1  0.54358426  0.28008481  0.56592733  1
