# generated using pymatgen
data_Li3TiI4N5
_symmetry_space_group_name_H-M   'P 1'
_cell_length_a   8.36188486
_cell_length_b   8.14955372
_cell_length_c   7.79922430
_cell_angle_alpha   91.24705472
_cell_angle_beta   90.44088621
_cell_angle_gamma   91.44643251
_symmetry_Int_Tables_number   1
_chemical_formula_structural   Li3TiI4N5
_chemical_formula_sum   'Li3 Ti1 I4 N5'
_cell_volume   531.16978630
_cell_formula_units_Z   1
loop_
 _symmetry_equiv_pos_site_id
 _symmetry_equiv_pos_as_xyz
  1  'x, y, z'
loop_
 _atom_site_type_symbol
 _atom_site_label
 _atom_site_symmetry_multiplicity
 _atom_site_fract_x
 _atom_site_fract_y
 _atom_site_fract_z
 _atom_site_occupancy
  I  I0  1  0.12500000  0.00000000  0.25000000  1
  I  I1  1  0.00000000  0.00000000  0.00000000  1
  I  I2  1  0.37500000  0.00000000  0.25000000  1
  I  I3  1  0.25000000  0.25000000  0.25000000  1
  Li  Li4  1  0.00000000  0.25000000  0.12500000  1
  Li  Li5  1  0.80906483  0.14399142  0.72721943  1
  Li  Li6  1  0.43482397  0.10523586  0.60561215  1
  Ti  Ti7  1  0.88402313  0.40473305  0.54649882  1
  N  N8  1  0.19494243  0.13799218  0.66994069  1
  N  N9  1  0.66877469  0.57159274  0.17579777  1
  N  N10  1  0.01842597  0.39861556  0.28304382  1
  N  N11  1  0.10719385  0.75206009  0.08342315  1
  N  N12  1  0.25948602  0.03599260  0.29429751  1
