# generated using pymatgen
data_LiTi2Cu2As6F2
_symmetry_space_group_name_H-M   'P 1'
_cell_length_a   6.64499914
_cell_length_b   6.74467350
_cell_length_c   7.87418162
_cell_angle_alpha   91.04757336
_cell_angle_beta   94.98403589
_cell_angle_gamma   91.19765607
_symmetry_Int_Tables_number   1
_chemical_formula_structural   LiTi2Cu2As6F2
_chemical_formula_sum   'Li1 Ti2 Cu2 As6 F2'
_cell_volume   351.42508308
_cell_formula_units_Z   1
loop_
 _symmetry_equiv_pos_site_id
 _symmetry_equiv_pos_as_xyz
  1  'x, y, z'
loop_
 _atom_site_type_symbol
 _atom_site_label
 _atom_site_symmetry_multiplicity
 _atom_site_fract_x
 _atom_site_fract_y
 _atom_site_fract_z
 _atom_site_occupancy
  F  F0  1  0.00000000  0.00000000  0.00000000  1
  F  F1  1  0.50000000  0.50000000  0.50000000  1
  Ti  Ti2  1  0.25000000  0.25000000  0.25000000  1
  Ti  Ti3  1  0.75000000  0.25000000  0.00000000  1
  As  As4  1  0.25000000  0.75000000  0.50000000  1
  As  As5  1  0.98372183  0.29586918  0.10133657  1
  As  As6  1  0.06147322  0.16157501  0.65757921  1
  As  As7  1  0.76817687  0.67217558  0.32034816  1
  As  As8  1  0.68894202  0.08792496  0.87340692  1
  As  As9  1  0.59937494  0.59936712  0.59916252  1
  Li  Li10  1  0.38646669  0.84480783  0.11812981  1
  Cu  Cu11  1  0.53582713  0.99912464  0.36532354  1
  Cu  Cu12  1  0.16964334  0.98898222  0.82378083  1
