# generated using pymatgen
data_LiMn2Sb4P3
_symmetry_space_group_name_H-M   'P 1'
_cell_length_a   5.86631299
_cell_length_b   6.13466486
_cell_length_c   6.71620084
_cell_angle_alpha   97.20318861
_cell_angle_beta   92.11083696
_cell_angle_gamma   97.43039569
_symmetry_Int_Tables_number   1
_chemical_formula_structural   LiMn2Sb4P3
_chemical_formula_sum   'Li1 Mn2 Sb4 P3'
_cell_volume   237.43457510
_cell_formula_units_Z   1
loop_
 _symmetry_equiv_pos_site_id
 _symmetry_equiv_pos_as_xyz
  1  'x, y, z'
loop_
 _atom_site_type_symbol
 _atom_site_label
 _atom_site_symmetry_multiplicity
 _atom_site_fract_x
 _atom_site_fract_y
 _atom_site_fract_z
 _atom_site_occupancy
  Mn  Mn0  1  0.00000000  0.00000000  0.00000000  1
  Mn  Mn1  1  0.50000000  0.50000000  0.50000000  1
  Sb  Sb2  1  0.25000000  0.25000000  0.25000000  1
  Sb  Sb3  1  0.75000000  0.25000000  0.00000000  1
  Sb  Sb4  1  0.25000000  0.75000000  0.50000000  1
  Sb  Sb5  1  0.22356858  0.04623381  0.18146630  1
  P  P6  1  0.31210459  0.32803043  0.17075889  1
  P  P7  1  0.24769217  0.01633714  0.51572643  1
  P  P8  1  0.20902174  0.38074517  0.52256465  1
  Li  Li9  1  0.66652965  0.57378288  0.35965679  1
