# generated using pymatgen
data_Li2LuAs6
_symmetry_space_group_name_H-M   'P 1'
_cell_length_a   7.55461109
_cell_length_b   7.53701005
_cell_length_c   8.44415198
_cell_angle_alpha   91.12727790
_cell_angle_beta   91.76701084
_cell_angle_gamma   91.30234419
_symmetry_Int_Tables_number   1
_chemical_formula_structural   Li2LuAs6
_chemical_formula_sum   'Li2 Lu1 As6'
_cell_volume   480.35043709
_cell_formula_units_Z   1
loop_
 _symmetry_equiv_pos_site_id
 _symmetry_equiv_pos_as_xyz
  1  'x, y, z'
loop_
 _atom_site_type_symbol
 _atom_site_label
 _atom_site_symmetry_multiplicity
 _atom_site_fract_x
 _atom_site_fract_y
 _atom_site_fract_z
 _atom_site_occupancy
  Lu  Lu0  1  0.00000000  0.00000000  0.00000000  1
  As  As1  1  0.50000000  0.50000000  0.50000000  1
  As  As2  1  0.25000000  0.25000000  0.25000000  1
  As  As3  1  0.75000000  0.25000000  0.00000000  1
  As  As4  1  0.25000000  0.75000000  0.50000000  1
  As  As5  1  0.68907905  0.45906968  0.14123722  1
  As  As6  1  0.42285639  0.64785389  0.30660394  1
  Li  Li7  1  0.84751675  0.25306963  0.57918678  1
  Li  Li8  1  0.35067428  0.69195639  0.79735824  1
