# generated using pymatgen
data_Li2Mn2Sb4P3
_symmetry_space_group_name_H-M   'P 1'
_cell_length_a   5.80708102
_cell_length_b   6.26754757
_cell_length_c   7.03590786
_cell_angle_alpha   95.90216352
_cell_angle_beta   93.79089713
_cell_angle_gamma   96.27164125
_symmetry_Int_Tables_number   1
_chemical_formula_structural   Li2Mn2Sb4P3
_chemical_formula_sum   'Li2 Mn2 Sb4 P3'
_cell_volume   252.42208012
_cell_formula_units_Z   1
loop_
 _symmetry_equiv_pos_site_id
 _symmetry_equiv_pos_as_xyz
  1  'x, y, z'
loop_
 _atom_site_type_symbol
 _atom_site_label
 _atom_site_symmetry_multiplicity
 _atom_site_fract_x
 _atom_site_fract_y
 _atom_site_fract_z
 _atom_site_occupancy
  Mn  Mn0  1  0.00000000  0.00000000  0.00000000  1
  Mn  Mn1  1  0.50000000  0.50000000  0.50000000  1
  Sb  Sb2  1  0.25000000  0.25000000  0.25000000  1
  Sb  Sb3  1  0.75000000  0.25000000  0.00000000  1
  Sb  Sb4  1  0.25000000  0.75000000  0.50000000  1
  Sb  Sb5  1  0.53372412  0.47686223  0.79083829  1
  P  P6  1  0.51907118  0.75489466  0.39727773  1
  P  P7  1  0.17549997  0.92471804  0.28640721  1
  P  P8  1  0.56751257  0.00899643  0.34549878  1
  Li  Li9  1  0.04912915  0.68121014  0.00932775  1
  Li  Li10  1  0.53027821  0.75133924  0.18960097  1
