# generated using pymatgen
data_Li3Ti(IO)4
_symmetry_space_group_name_H-M   'P 1'
_cell_length_a   8.87687184
_cell_length_b   8.75761409
_cell_length_c   7.20693757
_cell_angle_alpha   90.00000000
_cell_angle_beta   90.00000000
_cell_angle_gamma   90.00000000
_symmetry_Int_Tables_number   1
_chemical_formula_structural   Li3Ti(IO)4
_chemical_formula_sum   'Li3 Ti1 I4 O4'
_cell_volume   560.26889682
_cell_formula_units_Z   1
loop_
 _symmetry_equiv_pos_site_id
 _symmetry_equiv_pos_as_xyz
  1  'x, y, z'
loop_
 _atom_site_type_symbol
 _atom_site_label
 _atom_site_symmetry_multiplicity
 _atom_site_fract_x
 _atom_site_fract_y
 _atom_site_fract_z
 _atom_site_occupancy
  I  I0  1  0.12500000  0.12500000  0.12500000  1
  I  I1  1  0.50000000  0.50000000  0.50000000  1
  I  I2  1  0.25000000  0.25000000  0.25000000  1
  I  I3  1  0.75000000  0.75000000  0.75000000  1
  Li  Li4  1  0.77853101  0.53626083  0.75567398  1
  Li  Li5  1  0.51182737  0.85866987  0.41355149  1
  Li  Li6  1  0.19423654  0.63457581  0.84154328  1
  Ti  Ti7  1  0.36904406  0.22944234  0.57399647  1
  O  O8  1  0.45192552  0.82080568  0.19151867  1
  O  O9  1  0.33872986  0.45525506  0.75060589  1
  O  O10  1  0.64537243  0.46697728  0.29224180  1
  O  O11  1  0.34877580  0.94362774  0.29342973  1
