# generated using pymatgen
data_Li2Cu2As6O7
_symmetry_space_group_name_H-M   'P 1'
_cell_length_a   7.86461312
_cell_length_b   7.90181238
_cell_length_c   8.99922890
_cell_angle_alpha   90.25812763
_cell_angle_beta   91.22809286
_cell_angle_gamma   90.29510881
_symmetry_Int_Tables_number   1
_chemical_formula_structural   Li2Cu2As6O7
_chemical_formula_sum   'Li2 Cu2 As6 O7'
_cell_volume   559.11251700
_cell_formula_units_Z   1
loop_
 _symmetry_equiv_pos_site_id
 _symmetry_equiv_pos_as_xyz
  1  'x, y, z'
loop_
 _atom_site_type_symbol
 _atom_site_label
 _atom_site_symmetry_multiplicity
 _atom_site_fract_x
 _atom_site_fract_y
 _atom_site_fract_z
 _atom_site_occupancy
  O  O0  1  0.12500000  0.00000000  0.25000000  1
  O  O1  1  0.00000000  0.00000000  0.00000000  1
  O  O2  1  0.37500000  0.00000000  0.25000000  1
  O  O3  1  0.25000000  0.25000000  0.25000000  1
  O  O4  1  0.00000000  0.25000000  0.12500000  1
  O  O5  1  0.05021138  0.06058882  0.69476310  1
  O  O6  1  0.60629858  0.82867621  0.31438562  1
  As  As7  1  0.39134813  0.76153443  0.66270335  1
  As  As8  1  0.30027873  0.51831907  0.10876648  1
  As  As9  1  0.71989364  0.07044272  0.05937354  1
  As  As10  1  0.39693155  0.61505261  0.41930332  1
  As  As11  1  0.93931895  0.88500242  0.49863859  1
  As  As12  1  0.75113865  0.08957142  0.88481921  1
  Li  Li13  1  0.07489742  0.64926461  0.35991303  1
  Li  Li14  1  0.88092645  0.86377260  0.32430722  1
  Cu  Cu15  1  0.14358638  0.69131876  0.52606405  1
  Cu  Cu16  1  0.75998639  0.06050624  0.09487603  1
