# generated using pymatgen
data_Li2Mn2Sb4P2N
_symmetry_space_group_name_H-M   'P 1'
_cell_length_a   5.74586687
_cell_length_b   6.23227732
_cell_length_c   6.99875414
_cell_angle_alpha   95.92248198
_cell_angle_beta   96.32529363
_cell_angle_gamma   95.06731858
_symmetry_Int_Tables_number   1
_chemical_formula_structural   Li2Mn2Sb4P2N
_chemical_formula_sum   'Li2 Mn2 Sb4 P2 N1'
_cell_volume   246.50591461
_cell_formula_units_Z   1
loop_
 _symmetry_equiv_pos_site_id
 _symmetry_equiv_pos_as_xyz
  1  'x, y, z'
loop_
 _atom_site_type_symbol
 _atom_site_label
 _atom_site_symmetry_multiplicity
 _atom_site_fract_x
 _atom_site_fract_y
 _atom_site_fract_z
 _atom_site_occupancy
  N  N0  1  0.00000000  0.00000000  0.00000000  1
  Mn  Mn1  1  0.50000000  0.50000000  0.50000000  1
  Mn  Mn2  1  0.50000000  0.50000000  0.00000000  1
  Sb  Sb3  1  0.50000000  0.00000000  0.50000000  1
  Sb  Sb4  1  0.00000000  0.50000000  0.50000000  1
  Sb  Sb5  1  0.11579507  0.54645833  0.14225237  1
  Sb  Sb6  1  0.46468927  0.82383903  0.93174531  1
  P  P7  1  0.37544708  0.37038143  0.54023119  1
  P  P8  1  0.22111523  0.99339886  0.78325367  1
  Li  Li9  1  0.10605732  0.37550370  0.43928429  1
  Li  Li10  1  0.22881798  0.20386220  0.94120192  1
