# generated using pymatgen
data_LiTi2Ni2(As2S)3
_symmetry_space_group_name_H-M   'P 1'
_cell_length_a   6.98103994
_cell_length_b   6.84706189
_cell_length_c   8.04733562
_cell_angle_alpha   91.67849786
_cell_angle_beta   93.56623760
_cell_angle_gamma   91.93564123
_symmetry_Int_Tables_number   1
_chemical_formula_structural   LiTi2Ni2(As2S)3
_chemical_formula_sum   'Li1 Ti2 Ni2 As6 S3'
_cell_volume   383.50553274
_cell_formula_units_Z   1
loop_
 _symmetry_equiv_pos_site_id
 _symmetry_equiv_pos_as_xyz
  1  'x, y, z'
loop_
 _atom_site_type_symbol
 _atom_site_label
 _atom_site_symmetry_multiplicity
 _atom_site_fract_x
 _atom_site_fract_y
 _atom_site_fract_z
 _atom_site_occupancy
  Li  Li0  1  0.00000000  0.00000000  0.00000000  1
  Ni  Ni1  1  0.50000000  0.50000000  0.50000000  1
  Ni  Ni2  1  0.50000000  0.50000000  0.00000000  1
  S  S3  1  0.50000000  0.00000000  0.50000000  1
  S  S4  1  0.00000000  0.50000000  0.50000000  1
  S  S5  1  0.44898219  0.43056936  0.51737127  1
  Ti  Ti6  1  0.53412642  0.00405763  0.17932375  1
  Ti  Ti7  1  0.01634777  0.99832161  0.87836641  1
  As  As8  1  0.73224686  0.72822244  0.12403690  1
  As  As9  1  0.99490485  0.12152133  0.07609746  1
  As  As10  1  0.92406932  0.65712834  0.68272261  1
  As  As11  1  0.43362041  0.88066593  0.21412181  1
  As  As12  1  0.85589717  0.24179757  0.24738797  1
  As  As13  1  0.99397919  0.56433630  0.26025519  1
