# generated using pymatgen
data_Li2Mn2(SbP)3
_symmetry_space_group_name_H-M   'P 1'
_cell_length_a   7.48583527
_cell_length_b   7.59760890
_cell_length_c   7.70720855
_cell_angle_alpha   90.92985228
_cell_angle_beta   91.04389605
_cell_angle_gamma   91.03279896
_symmetry_Int_Tables_number   1
_chemical_formula_structural   Li2Mn2(SbP)3
_chemical_formula_sum   'Li2 Mn2 Sb3 P3'
_cell_volume   438.13918124
_cell_formula_units_Z   1
loop_
 _symmetry_equiv_pos_site_id
 _symmetry_equiv_pos_as_xyz
  1  'x, y, z'
loop_
 _atom_site_type_symbol
 _atom_site_label
 _atom_site_symmetry_multiplicity
 _atom_site_fract_x
 _atom_site_fract_y
 _atom_site_fract_z
 _atom_site_occupancy
  Mn  Mn0  1  0.00000000  0.00000000  0.00000000  1
  Mn  Mn1  1  0.50000000  0.50000000  0.50000000  1
  Sb  Sb2  1  0.50000000  0.50000000  0.00000000  1
  Sb  Sb3  1  0.50000000  0.00000000  0.50000000  1
  Sb  Sb4  1  0.00000000  0.50000000  0.50000000  1
  P  P5  1  0.58874986  0.02491976  0.99110844  1
  P  P6  1  0.14672561  0.47484064  0.75326752  1
  P  P7  1  0.58939229  0.40128204  0.42012109  1
  Li  Li8  1  0.59668180  0.53206132  0.84710148  1
  Li  Li9  1  0.75918712  0.33471418  0.30970331  1
