# generated using pymatgen
data_Li2Ti2P3Br5F3
_symmetry_space_group_name_H-M   'P 1'
_cell_length_a   7.30340627
_cell_length_b   6.76023225
_cell_length_c   7.06007823
_cell_angle_alpha   90.53754025
_cell_angle_beta   92.55745326
_cell_angle_gamma   90.61455204
_symmetry_Int_Tables_number   1
_chemical_formula_structural   Li2Ti2P3Br5F3
_chemical_formula_sum   'Li2 Ti2 P3 Br5 F3'
_cell_volume   348.19110120
_cell_formula_units_Z   1
loop_
 _symmetry_equiv_pos_site_id
 _symmetry_equiv_pos_as_xyz
  1  'x, y, z'
loop_
 _atom_site_type_symbol
 _atom_site_label
 _atom_site_symmetry_multiplicity
 _atom_site_fract_x
 _atom_site_fract_y
 _atom_site_fract_z
 _atom_site_occupancy
  P  P0  1  0.12500000  0.00000000  0.25000000  1
  P  P1  1  0.00000000  0.00000000  0.00000000  1
  P  P2  1  0.37500000  0.00000000  0.25000000  1
  Li  Li3  1  0.25000000  0.25000000  0.25000000  1
  Li  Li4  1  0.00000000  0.25000000  0.12500000  1
  Br  Br5  1  0.90329109  0.35223779  0.55743303  1
  Br  Br6  1  0.95196013  0.42588013  0.17902226  1
  Br  Br7  1  0.72503349  0.92742869  0.12390741  1
  Br  Br8  1  0.86436077  0.38947132  0.15986564  1
  Br  Br9  1  0.76254522  0.66394369  0.79748365  1
  F  F10  1  0.36835772  0.03385158  0.34280296  1
  F  F11  1  0.69478944  0.23568002  0.13943457  1
  F  F12  1  0.11607909  0.11037892  0.51914523  1
  Ti  Ti13  1  0.48953765  0.80443963  0.23981868  1
  Ti  Ti14  1  0.14524331  0.68775015  0.73377893  1
