# generated using pymatgen
data_LiLa2Al2Sb
_symmetry_space_group_name_H-M   'P 1'
_cell_length_a   5.40373136
_cell_length_b   4.92339951
_cell_length_c   5.74489585
_cell_angle_alpha   90.46587544
_cell_angle_beta   91.64928039
_cell_angle_gamma   91.26314804
_symmetry_Int_Tables_number   1
_chemical_formula_structural   LiLa2Al2Sb
_chemical_formula_sum   'Li1 La2 Al2 Sb1'
_cell_volume   152.73507407
_cell_formula_units_Z   1
loop_
 _symmetry_equiv_pos_site_id
 _symmetry_equiv_pos_as_xyz
  1  'x, y, z'
loop_
 _atom_site_type_symbol
 _atom_site_label
 _atom_site_symmetry_multiplicity
 _atom_site_fract_x
 _atom_site_fract_y
 _atom_site_fract_z
 _atom_site_occupancy
  Al  Al0  1  0.12500000  0.00000000  0.25000000  1
  Al  Al1  1  0.00000000  0.00000000  0.00000000  1
  Sb  Sb2  1  0.37500000  0.00000000  0.25000000  1
  La  La3  1  0.25000000  0.25000000  0.25000000  1
  La  La4  1  0.00000000  0.25000000  0.12500000  1
  Li  Li5  1  0.11055864  0.82675545  0.22868451  1
