# generated using pymatgen
data_Li2TiCu2(P3I2)2
_symmetry_space_group_name_H-M   'P 1'
_cell_length_a   8.42386862
_cell_length_b   8.29642661
_cell_length_c   7.72572858
_cell_angle_alpha   90.16180443
_cell_angle_beta   90.76981634
_cell_angle_gamma   90.18498567
_symmetry_Int_Tables_number   1
_chemical_formula_structural   Li2TiCu2(P3I2)2
_chemical_formula_sum   'Li2 Ti1 Cu2 P6 I4'
_cell_volume   539.88201100
_cell_formula_units_Z   1
loop_
 _symmetry_equiv_pos_site_id
 _symmetry_equiv_pos_as_xyz
  1  'x, y, z'
loop_
 _atom_site_type_symbol
 _atom_site_label
 _atom_site_symmetry_multiplicity
 _atom_site_fract_x
 _atom_site_fract_y
 _atom_site_fract_z
 _atom_site_occupancy
  P  P0  1  0.00000000  0.00000000  0.00000000  1
  P  P1  1  0.50000000  0.50000000  0.50000000  1
  P  P2  1  0.50000000  0.50000000  0.00000000  1
  P  P3  1  0.50000000  0.00000000  0.50000000  1
  P  P4  1  0.00000000  0.50000000  0.50000000  1
  P  P5  1  0.98611778  0.86728108  0.58497080  1
  I  I6  1  0.90835394  0.07910349  0.00303887  1
  I  I7  1  0.90271718  0.58386206  0.72277901  1
  I  I8  1  0.49360193  0.21537263  0.11998157  1
  I  I9  1  0.79482012  0.91787227  0.25910996  1
  Li  Li10  1  0.76538373  0.74294680  0.51477112  1
  Li  Li11  1  0.24614522  0.48320765  0.62698599  1
  Cu  Cu12  1  0.78556163  0.29661852  0.67915809  1
  Cu  Cu13  1  0.02752292  0.16517589  0.86690034  1
  Ti  Ti14  1  0.58280868  0.45119754  0.02495261  1
