# generated using pymatgen
data_LiMn2Sb4Mo2P3
_symmetry_space_group_name_H-M   'P 1'
_cell_length_a   5.82029630
_cell_length_b   6.12755073
_cell_length_c   6.61250936
_cell_angle_alpha   92.64311835
_cell_angle_beta   92.06161363
_cell_angle_gamma   92.53498748
_symmetry_Int_Tables_number   1
_chemical_formula_structural   LiMn2Sb4Mo2P3
_chemical_formula_sum   'Li1 Mn2 Sb4 Mo2 P3'
_cell_volume   235.17736909
_cell_formula_units_Z   1
loop_
 _symmetry_equiv_pos_site_id
 _symmetry_equiv_pos_as_xyz
  1  'x, y, z'
loop_
 _atom_site_type_symbol
 _atom_site_label
 _atom_site_symmetry_multiplicity
 _atom_site_fract_x
 _atom_site_fract_y
 _atom_site_fract_z
 _atom_site_occupancy
  Mn  Mn0  1  0.00000000  0.00000000  0.00000000  1
  Mn  Mn1  1  0.50000000  0.50000000  0.50000000  1
  Sb  Sb2  1  0.50000000  0.50000000  0.00000000  1
  Sb  Sb3  1  0.50000000  0.00000000  0.50000000  1
  Sb  Sb4  1  0.00000000  0.50000000  0.50000000  1
  Sb  Sb5  1  0.91936875  0.64507681  0.61318734  1
  P  P6  1  0.11610038  0.24251462  0.95049550  1
  P  P7  1  0.49791740  0.21279090  0.55371376  1
  P  P8  1  0.29338806  0.09101533  0.39656207  1
  Mo  Mo9  1  0.11303780  0.48401765  0.38636504  1
  Mo  Mo10  1  0.13543578  0.61101603  0.98367836  1
  Li  Li11  1  0.10473057  0.18132195  0.19637371  1
