# generated using pymatgen
data_Li2Ti2As6O7
_symmetry_space_group_name_H-M   'P 1'
_cell_length_a   8.17229939
_cell_length_b   7.91082764
_cell_length_c   8.34476121
_cell_angle_alpha   90.70325554
_cell_angle_beta   90.90638039
_cell_angle_gamma   90.81321034
_symmetry_Int_Tables_number   1
_chemical_formula_structural   Li2Ti2As6O7
_chemical_formula_sum   'Li2 Ti2 As6 O7'
_cell_volume   539.32192730
_cell_formula_units_Z   1
loop_
 _symmetry_equiv_pos_site_id
 _symmetry_equiv_pos_as_xyz
  1  'x, y, z'
loop_
 _atom_site_type_symbol
 _atom_site_label
 _atom_site_symmetry_multiplicity
 _atom_site_fract_x
 _atom_site_fract_y
 _atom_site_fract_z
 _atom_site_occupancy
  Li  Li0  1  0.12500000  0.00000000  0.25000000  1
  Li  Li1  1  0.00000000  0.00000000  0.00000000  1
  Ti  Ti2  1  0.37500000  0.00000000  0.25000000  1
  Ti  Ti3  1  0.25000000  0.25000000  0.25000000  1
  As  As4  1  0.00000000  0.25000000  0.12500000  1
  As  As5  1  0.03592516  0.85434352  0.36578841  1
  As  As6  1  0.57971861  0.57602252  0.82902222  1
  As  As7  1  0.73154815  0.61771342  0.29798202  1
  As  As8  1  0.72098466  0.47959452  0.11152416  1
  As  As9  1  0.20008926  0.97726433  0.28659099  1
  O  O10  1  0.13075870  0.62548851  0.19317339  1
  O  O11  1  0.34579540  0.85778256  0.70670106  1
  O  O12  1  0.68189176  0.16083594  0.19004981  1
  O  O13  1  0.92163625  0.61362346  0.77188703  1
  O  O14  1  0.91435271  0.56086913  0.45834383  1
  O  O15  1  0.33799317  0.54779143  0.59844674  1
  O  O16  1  0.77852578  0.85537875  0.94833278  1
