# generated using pymatgen
data_Li2TiCu2As6P5
_symmetry_space_group_name_H-M   'P 1'
_cell_length_a   7.47060997
_cell_length_b   7.31486400
_cell_length_c   7.65134729
_cell_angle_alpha   90.89670127
_cell_angle_beta   92.20711838
_cell_angle_gamma   90.67132852
_symmetry_Int_Tables_number   1
_chemical_formula_structural   Li2TiCu2As6P5
_chemical_formula_sum   'Li2 Ti1 Cu2 As6 P5'
_cell_volume   417.72620862
_cell_formula_units_Z   1
loop_
 _symmetry_equiv_pos_site_id
 _symmetry_equiv_pos_as_xyz
  1  'x, y, z'
loop_
 _atom_site_type_symbol
 _atom_site_label
 _atom_site_symmetry_multiplicity
 _atom_site_fract_x
 _atom_site_fract_y
 _atom_site_fract_z
 _atom_site_occupancy
  P  P0  1  0.12500000  0.00000000  0.25000000  1
  P  P1  1  0.00000000  0.00000000  0.00000000  1
  P  P2  1  0.37500000  0.00000000  0.25000000  1
  P  P3  1  0.25000000  0.25000000  0.25000000  1
  P  P4  1  0.00000000  0.25000000  0.12500000  1
  Li  Li5  1  0.10314954  0.23105338  0.97128342  1
  Li  Li6  1  0.54153663  0.70785307  0.89050356  1
  Cu  Cu7  1  0.03198480  0.98426285  0.24100120  1
  Cu  Cu8  1  0.00999924  0.88976077  0.24167765  1
  Ti  Ti9  1  0.69209243  0.06236156  0.58645904  1
  As  As10  1  0.99900796  0.93260446  0.18972394  1
  As  As11  1  0.73710673  0.16532217  0.48084992  1
  As  As12  1  0.42555065  0.52718522  0.06950000  1
  As  As13  1  0.34241429  0.89487660  0.19183516  1
  As  As14  1  0.60960183  0.20473062  0.30180058  1
  As  As15  1  0.49289546  0.75022433  0.61128758  1
