# generated using pymatgen
data_Li3Ti3Cu2(As3O)2
_symmetry_space_group_name_H-M   'P 1'
_cell_length_a   6.80010805
_cell_length_b   7.02466234
_cell_length_c   7.96987497
_cell_angle_alpha   94.37674408
_cell_angle_beta   96.73579363
_cell_angle_gamma   95.12407515
_symmetry_Int_Tables_number   1
_chemical_formula_structural   Li3Ti3Cu2(As3O)2
_chemical_formula_sum   'Li3 Ti3 Cu2 As6 O2'
_cell_volume   375.11750639
_cell_formula_units_Z   1
loop_
 _symmetry_equiv_pos_site_id
 _symmetry_equiv_pos_as_xyz
  1  'x, y, z'
loop_
 _atom_site_type_symbol
 _atom_site_label
 _atom_site_symmetry_multiplicity
 _atom_site_fract_x
 _atom_site_fract_y
 _atom_site_fract_z
 _atom_site_occupancy
  Ti  Ti0  1  0.00000000  0.00000000  0.00000000  1
  Ti  Ti1  1  0.50000000  0.50000000  0.50000000  1
  Ti  Ti2  1  0.50000000  0.50000000  0.00000000  1
  O  O3  1  0.50000000  0.00000000  0.50000000  1
  O  O4  1  0.00000000  0.50000000  0.50000000  1
  As  As5  1  0.10049274  0.50097909  0.21181490  1
  As  As6  1  0.93113050  0.22544840  0.69943177  1
  As  As7  1  0.69004515  0.34543857  0.84900630  1
  As  As8  1  0.99082903  0.60270561  0.07445597  1
  As  As9  1  0.71722544  0.52148200  0.15247033  1
  As  As10  1  0.68622957  0.18960565  0.86905290  1
  Li  Li11  1  0.67977795  0.02437403  0.00421826  1
  Li  Li12  1  0.63016524  0.08776515  0.89377253  1
  Li  Li13  1  0.70140098  0.43537853  0.57287007  1
  Cu  Cu14  1  0.23355519  0.42117804  0.31877959  1
  Cu  Cu15  1  0.42049545  0.09609053  0.22082315  1
