# generated using pymatgen
data_Li3Ni2(As3O2)2
_symmetry_space_group_name_H-M   'P 1'
_cell_length_a   8.13078077
_cell_length_b   7.97536554
_cell_length_c   8.46532235
_cell_angle_alpha   91.05565544
_cell_angle_beta   90.66928209
_cell_angle_gamma   91.22331581
_symmetry_Int_Tables_number   1
_chemical_formula_structural   Li3Ni2(As3O2)2
_chemical_formula_sum   'Li3 Ni2 As6 O4'
_cell_volume   548.68356106
_cell_formula_units_Z   1
loop_
 _symmetry_equiv_pos_site_id
 _symmetry_equiv_pos_as_xyz
  1  'x, y, z'
loop_
 _atom_site_type_symbol
 _atom_site_label
 _atom_site_symmetry_multiplicity
 _atom_site_fract_x
 _atom_site_fract_y
 _atom_site_fract_z
 _atom_site_occupancy
  Li  Li0  1  0.12500000  0.00000000  0.25000000  1
  Li  Li1  1  0.00000000  0.00000000  0.00000000  1
  Li  Li2  1  0.37500000  0.00000000  0.25000000  1
  Ni  Ni3  1  0.25000000  0.25000000  0.25000000  1
  Ni  Ni4  1  0.00000000  0.25000000  0.12500000  1
  As  As5  1  0.98657315  0.93829598  0.91272020  1
  As  As6  1  0.02442799  0.50164399  0.99060265  1
  As  As7  1  0.97511825  0.12516962  0.37682251  1
  As  As8  1  0.91845405  0.37121138  0.38064737  1
  As  As9  1  0.55047047  0.18573651  0.28975041  1
  As  As10  1  0.34154924  0.48299962  0.73110107  1
  O  O11  1  0.00957916  0.58176995  0.06447359  1
  O  O12  1  0.25213809  0.20682163  0.15087947  1
  O  O13  1  0.95153077  0.56070759  0.99953377  1
  O  O14  1  0.42009814  0.28856648  0.31665319  1
