# generated using pymatgen
data_Li2Mn3Sb4P3
_symmetry_space_group_name_H-M   'P 1'
_cell_length_a   5.56084990
_cell_length_b   5.92573251
_cell_length_c   6.50564865
_cell_angle_alpha   99.50525937
_cell_angle_beta   90.47485199
_cell_angle_gamma   99.31619973
_symmetry_Int_Tables_number   1
_chemical_formula_structural   Li2Mn3Sb4P3
_chemical_formula_sum   'Li2 Mn3 Sb4 P3'
_cell_volume   208.50767236
_cell_formula_units_Z   1
loop_
 _symmetry_equiv_pos_site_id
 _symmetry_equiv_pos_as_xyz
  1  'x, y, z'
loop_
 _atom_site_type_symbol
 _atom_site_label
 _atom_site_symmetry_multiplicity
 _atom_site_fract_x
 _atom_site_fract_y
 _atom_site_fract_z
 _atom_site_occupancy
  Mn  Mn0  1  0.12500000  0.00000000  0.25000000  1
  Mn  Mn1  1  0.00000000  0.00000000  0.00000000  1
  Mn  Mn2  1  0.37500000  0.00000000  0.25000000  1
  Sb  Sb3  1  0.25000000  0.25000000  0.25000000  1
  Sb  Sb4  1  0.00000000  0.25000000  0.12500000  1
  Sb  Sb5  1  0.38545170  0.90207278  0.88815273  1
  Sb  Sb6  1  0.29158323  0.95739052  0.84141329  1
  P  P7  1  0.67672194  0.70217793  0.09331392  1
  P  P8  1  0.74753921  0.84987678  0.56473396  1
  P  P9  1  0.96873683  0.44458938  0.15292966  1
  Li  Li10  1  0.80329323  0.55694527  0.32320171  1
  Li  Li11  1  0.72704068  0.52359749  0.80698124  1
