# generated using pymatgen
data_Li3Ti(IO)4
_symmetry_space_group_name_H-M   'P 1'
_cell_length_a   7.64388820
_cell_length_b   7.44276114
_cell_length_c   7.51258949
_cell_angle_alpha   92.97932179
_cell_angle_beta   93.05074417
_cell_angle_gamma   92.80066119
_symmetry_Int_Tables_number   1
_chemical_formula_structural   Li3Ti(IO)4
_chemical_formula_sum   'Li3 Ti1 I4 O4'
_cell_volume   425.64933171
_cell_formula_units_Z   1
loop_
 _symmetry_equiv_pos_site_id
 _symmetry_equiv_pos_as_xyz
  1  'x, y, z'
loop_
 _atom_site_type_symbol
 _atom_site_label
 _atom_site_symmetry_multiplicity
 _atom_site_fract_x
 _atom_site_fract_y
 _atom_site_fract_z
 _atom_site_occupancy
  I  I0  1  0.12500000  0.00000000  0.25000000  1
  I  I1  1  0.00000000  0.00000000  0.00000000  1
  I  I2  1  0.37500000  0.00000000  0.25000000  1
  I  I3  1  0.25000000  0.25000000  0.25000000  1
  Li  Li4  1  0.00000000  0.25000000  0.12500000  1
  Li  Li5  1  0.65354274  0.54287083  0.97698793  1
  Li  Li6  1  0.77797185  0.37946296  0.39095060  1
  Ti  Ti7  1  0.20034743  0.93609782  0.16702377  1
  O  O8  1  0.41169872  0.04444908  0.16349773  1
  O  O9  1  0.73654388  0.91478978  0.02685939  1
  O  O10  1  0.60988282  0.69439083  0.36087657  1
  O  O11  1  0.64334647  0.33050575  0.56421892  1
