# generated using pymatgen
data_Li2Ti2(As2P)3
_symmetry_space_group_name_H-M   'P 1'
_cell_length_a   6.36209988
_cell_length_b   6.15280416
_cell_length_c   7.38162418
_cell_angle_alpha   92.97224173
_cell_angle_beta   95.62148460
_cell_angle_gamma   92.83114365
_symmetry_Int_Tables_number   1
_chemical_formula_structural   Li2Ti2(As2P)3
_chemical_formula_sum   'Li2 Ti2 As6 P3'
_cell_volume   286.74372242
_cell_formula_units_Z   1
loop_
 _symmetry_equiv_pos_site_id
 _symmetry_equiv_pos_as_xyz
  1  'x, y, z'
loop_
 _atom_site_type_symbol
 _atom_site_label
 _atom_site_symmetry_multiplicity
 _atom_site_fract_x
 _atom_site_fract_y
 _atom_site_fract_z
 _atom_site_occupancy
  Ti  Ti0  1  0.12500000  0.00000000  0.25000000  1
  Ti  Ti1  1  0.00000000  0.00000000  0.00000000  1
  P  P2  1  0.37500000  0.00000000  0.25000000  1
  P  P3  1  0.25000000  0.25000000  0.25000000  1
  P  P4  1  0.00000000  0.25000000  0.12500000  1
  As  As5  1  0.18319129  0.31762265  0.30993425  1
  As  As6  1  0.99740365  0.52060825  0.69030265  1
  As  As7  1  0.75360802  0.86316503  0.53687666  1
  As  As8  1  0.64595777  0.17260014  0.26211197  1
  As  As9  1  0.11846409  0.56340993  0.72046895  1
  As  As10  1  0.94582394  0.77047014  0.39491764  1
  Li  Li11  1  0.70784728  0.91221563  0.74818244  1
  Li  Li12  1  0.26987820  0.98575835  0.98740958  1
