# generated using pymatgen
data_Li2TiP6(IO)4
_symmetry_space_group_name_H-M   'P 1'
_cell_length_a   8.63540397
_cell_length_b   8.42464007
_cell_length_c   7.65480169
_cell_angle_alpha   90.08265954
_cell_angle_beta   90.39326897
_cell_angle_gamma   90.09450192
_symmetry_Int_Tables_number   1
_chemical_formula_structural   Li2TiP6(IO)4
_chemical_formula_sum   'Li2 Ti1 P6 I4 O4'
_cell_volume   556.87366264
_cell_formula_units_Z   1
loop_
 _symmetry_equiv_pos_site_id
 _symmetry_equiv_pos_as_xyz
  1  'x, y, z'
loop_
 _atom_site_type_symbol
 _atom_site_label
 _atom_site_symmetry_multiplicity
 _atom_site_fract_x
 _atom_site_fract_y
 _atom_site_fract_z
 _atom_site_occupancy
  I  I0  1  0.12500000  0.00000000  0.25000000  1
  I  I1  1  0.00000000  0.00000000  0.00000000  1
  I  I2  1  0.37500000  0.00000000  0.25000000  1
  I  I3  1  0.25000000  0.25000000  0.25000000  1
  P  P4  1  0.00000000  0.25000000  0.12500000  1
  P  P5  1  0.12615883  0.55594872  0.55160937  1
  P  P6  1  0.17370605  0.81597559  0.53447135  1
  P  P7  1  0.47833739  0.17468101  0.21490846  1
  P  P8  1  0.30927971  0.88376972  0.31227467  1
  P  P9  1  0.57788020  0.92056351  0.75567630  1
  Li  Li10  1  0.11336669  0.51534233  0.38722078  1
  Li  Li11  1  0.90409840  0.74066282  0.99304177  1
  Ti  Ti12  1  0.99531062  0.26245601  0.25541450  1
  O  O13  1  0.90268980  0.43260844  0.53369570  1
  O  O14  1  0.51534694  0.87724788  0.16463856  1
  O  O15  1  0.13094333  0.67466925  0.40153900  1
  O  O16  1  0.82405838  0.10587063  0.01532074  1
