# generated using pymatgen
data_LiCuAs3
_symmetry_space_group_name_H-M   'P 1'
_cell_length_a   7.45944087
_cell_length_b   7.46520964
_cell_length_c   8.57541885
_cell_angle_alpha   91.47289036
_cell_angle_beta   91.95074140
_cell_angle_gamma   91.70298068
_symmetry_Int_Tables_number   1
_chemical_formula_structural   LiCuAs3
_chemical_formula_sum   'Li2 Cu2 As6'
_cell_volume   476.87509671
_cell_formula_units_Z   2
loop_
 _symmetry_equiv_pos_site_id
 _symmetry_equiv_pos_as_xyz
  1  'x, y, z'
loop_
 _atom_site_type_symbol
 _atom_site_label
 _atom_site_symmetry_multiplicity
 _atom_site_fract_x
 _atom_site_fract_y
 _atom_site_fract_z
 _atom_site_occupancy
  As  As0  1  0.12500000  0.12500000  0.12500000  1
  As  As1  1  0.50000000  0.50000000  0.50000000  1
  As  As2  1  0.25000000  0.25000000  0.25000000  1
  As  As3  1  0.75000000  0.75000000  0.75000000  1
  As  As4  1  0.82457624  0.23181995  0.32424540  1
  As  As5  1  0.62420344  0.46479417  0.83308465  1
  Li  Li6  1  0.53910377  0.07618614  0.86715444  1
  Li  Li7  1  0.69778295  0.81461147  0.93720715  1
  Cu  Cu8  1  0.29654108  0.36854932  0.95201346  1
  Cu  Cu9  1  0.93400798  0.64649441  0.71339003  1
