# generated using pymatgen
data_Li2Mn2Sb4P3N
_symmetry_space_group_name_H-M   'P 1'
_cell_length_a   5.27385536
_cell_length_b   5.44693329
_cell_length_c   5.89826976
_cell_angle_alpha   97.23052573
_cell_angle_beta   93.63930709
_cell_angle_gamma   95.24802670
_symmetry_Int_Tables_number   1
_chemical_formula_structural   Li2Mn2Sb4P3N
_chemical_formula_sum   'Li2 Mn2 Sb4 P3 N1'
_cell_volume   166.90077561
_cell_formula_units_Z   1
loop_
 _symmetry_equiv_pos_site_id
 _symmetry_equiv_pos_as_xyz
  1  'x, y, z'
loop_
 _atom_site_type_symbol
 _atom_site_label
 _atom_site_symmetry_multiplicity
 _atom_site_fract_x
 _atom_site_fract_y
 _atom_site_fract_z
 _atom_site_occupancy
  Mn  Mn0  1  0.00000000  0.00000000  0.00000000  1
  Mn  Mn1  1  0.50000000  0.50000000  0.50000000  1
  Sb  Sb2  1  0.25000000  0.25000000  0.25000000  1
  Sb  Sb3  1  0.75000000  0.25000000  0.00000000  1
  Sb  Sb4  1  0.25000000  0.75000000  0.50000000  1
  Sb  Sb5  1  0.38148692  0.05801624  0.84705395  1
  P  P6  1  0.88996641  0.61887228  0.20591731  1
  P  P7  1  0.30384180  0.66565043  0.31933132  1
  P  P8  1  0.42932360  0.19541700  0.05215898  1
  Li  Li9  1  0.85527208  0.36023593  0.07958559  1
  Li  Li10  1  0.94609424  0.01187057  0.70416917  1
  N  N11  1  0.82133044  0.12098266  0.56499506  1
