# generated using pymatgen
data_Li2TiAs6S2O3
_symmetry_space_group_name_H-M   'P 1'
_cell_length_a   6.94363689
_cell_length_b   6.80013162
_cell_length_c   8.14063417
_cell_angle_alpha   93.50930030
_cell_angle_beta   94.40505666
_cell_angle_gamma   94.03599649
_symmetry_Int_Tables_number   1
_chemical_formula_structural   Li2TiAs6S2O3
_chemical_formula_sum   'Li2 Ti1 As6 S2 O3'
_cell_volume   381.43714822
_cell_formula_units_Z   1
loop_
 _symmetry_equiv_pos_site_id
 _symmetry_equiv_pos_as_xyz
  1  'x, y, z'
loop_
 _atom_site_type_symbol
 _atom_site_label
 _atom_site_symmetry_multiplicity
 _atom_site_fract_x
 _atom_site_fract_y
 _atom_site_fract_z
 _atom_site_occupancy
  Li  Li0  1  0.00000000  0.00000000  0.00000000  1
  Li  Li1  1  0.50000000  0.50000000  0.50000000  1
  S  S2  1  0.50000000  0.50000000  0.00000000  1
  S  S3  1  0.50000000  0.00000000  0.50000000  1
  Ti  Ti4  1  0.00000000  0.50000000  0.50000000  1
  As  As5  1  0.21252000  0.44233057  0.03750329  1
  As  As6  1  0.65776869  0.71594307  0.87273371  1
  As  As7  1  0.96371771  0.23284778  0.81020277  1
  As  As8  1  0.29173078  0.64811468  0.31006610  1
  As  As9  1  0.18203670  0.02600101  0.66118639  1
  As  As10  1  0.86293535  0.08361408  0.31960728  1
  O  O11  1  0.38831029  0.35672868  0.76061893  1
  O  O12  1  0.09973498  0.82735755  0.33642502  1
  O  O13  1  0.41098187  0.28913902  0.59475398  1
