# generated using pymatgen
data_Li2Mn2Sb4P3
_symmetry_space_group_name_H-M   'P 1'
_cell_length_a   6.98563797
_cell_length_b   7.00814011
_cell_length_c   7.48495594
_cell_angle_alpha   93.41830104
_cell_angle_beta   91.30609513
_cell_angle_gamma   93.50842089
_symmetry_Int_Tables_number   1
_chemical_formula_structural   Li2Mn2Sb4P3
_chemical_formula_sum   'Li2 Mn2 Sb4 P3'
_cell_volume   364.96987451
_cell_formula_units_Z   1
loop_
 _symmetry_equiv_pos_site_id
 _symmetry_equiv_pos_as_xyz
  1  'x, y, z'
loop_
 _atom_site_type_symbol
 _atom_site_label
 _atom_site_symmetry_multiplicity
 _atom_site_fract_x
 _atom_site_fract_y
 _atom_site_fract_z
 _atom_site_occupancy
  Mn  Mn0  1  0.00000000  0.00000000  0.00000000  1
  Mn  Mn1  1  0.50000000  0.50000000  0.50000000  1
  Sb  Sb2  1  0.50000000  0.50000000  0.00000000  1
  Sb  Sb3  1  0.50000000  0.00000000  0.50000000  1
  Sb  Sb4  1  0.00000000  0.50000000  0.50000000  1
  Sb  Sb5  1  0.90462002  0.64085877  0.88846118  1
  P  P6  1  0.61410285  0.80994254  0.95337027  1
  P  P7  1  0.17042690  0.59160379  0.08828930  1
  P  P8  1  0.24310673  0.66019191  0.64173371  1
  Li  Li9  1  0.67352736  0.93284496  0.64215600  1
  Li  Li10  1  0.50789432  0.52597575  0.95297939  1
