# generated using pymatgen
data_Li3TiAs6I4O5
_symmetry_space_group_name_H-M   'P 1'
_cell_length_a   8.17441357
_cell_length_b   8.02112997
_cell_length_c   8.39891132
_cell_angle_alpha   90.99008462
_cell_angle_beta   90.62771040
_cell_angle_gamma   91.14733095
_symmetry_Int_Tables_number   1
_chemical_formula_structural   Li3TiAs6I4O5
_chemical_formula_sum   'Li3 Ti1 As6 I4 O5'
_cell_volume   550.47230729
_cell_formula_units_Z   1
loop_
 _symmetry_equiv_pos_site_id
 _symmetry_equiv_pos_as_xyz
  1  'x, y, z'
loop_
 _atom_site_type_symbol
 _atom_site_label
 _atom_site_symmetry_multiplicity
 _atom_site_fract_x
 _atom_site_fract_y
 _atom_site_fract_z
 _atom_site_occupancy
  I  I0  1  0.00000000  0.00000000  0.00000000  1
  I  I1  1  0.50000000  0.50000000  0.50000000  1
  I  I2  1  0.25000000  0.25000000  0.25000000  1
  I  I3  1  0.75000000  0.25000000  0.00000000  1
  Li  Li4  1  0.25000000  0.75000000  0.50000000  1
  Li  Li5  1  0.29741556  0.20913591  0.84707310  1
  Li  Li6  1  0.70833946  0.70733376  0.68656194  1
  Ti  Ti7  1  0.71815124  0.23731082  0.32512972  1
  As  As8  1  0.26415053  0.36952649  0.33589770  1
  As  As9  1  0.56921567  0.84650759  0.72307940  1
  As  As10  1  0.71505639  0.70956246  0.02510833  1
  As  As11  1  0.58540287  0.72051031  0.88453616  1
  As  As12  1  0.14954388  0.57849541  0.56839729  1
  As  As13  1  0.35461585  0.84149107  0.01782522  1
  O  O14  1  0.97619389  0.71112281  0.77193635  1
  O  O15  1  0.02137472  0.92516281  0.27669110  1
  O  O16  1  0.13939099  0.08015749  0.02874313  1
  O  O17  1  0.10102369  0.07850448  0.86790145  1
  O  O18  1  0.50555219  0.57403869  0.62098321  1
