# generated using pymatgen
data_Li3TiS2
_symmetry_space_group_name_H-M   'P 1'
_cell_length_a   7.27843150
_cell_length_b   6.94470190
_cell_length_c   7.60657822
_cell_angle_alpha   92.78856055
_cell_angle_beta   93.06666291
_cell_angle_gamma   92.88963317
_symmetry_Int_Tables_number   1
_chemical_formula_structural   Li3TiS2
_chemical_formula_sum   'Li3 Ti1 S2'
_cell_volume   382.93884702
_cell_formula_units_Z   1
loop_
 _symmetry_equiv_pos_site_id
 _symmetry_equiv_pos_as_xyz
  1  'x, y, z'
loop_
 _atom_site_type_symbol
 _atom_site_label
 _atom_site_symmetry_multiplicity
 _atom_site_fract_x
 _atom_site_fract_y
 _atom_site_fract_z
 _atom_site_occupancy
  Li  Li0  1  0.00000000  0.00000000  0.00000000  1
  Li  Li1  1  0.33300000  0.66700000  0.25000000  1
  Li  Li2  1  0.66700000  0.33300000  0.50000000  1
  S  S3  1  0.00000000  0.00000000  0.75000000  1
  S  S4  1  0.89416351  0.96070231  0.94304716  1
  Ti  Ti5  1  0.99619737  0.50223287  0.60852269  1
