# generated using pymatgen
data_LiScSe2(OF)2
_symmetry_space_group_name_H-M   'P 1'
_cell_length_a   7.99924451
_cell_length_b   8.67773213
_cell_length_c   8.13782494
_cell_angle_alpha   90.00000000
_cell_angle_beta   90.00000000
_cell_angle_gamma   90.00000000
_symmetry_Int_Tables_number   1
_chemical_formula_structural   LiScSe2(OF)2
_chemical_formula_sum   'Li1 Sc1 Se2 O2 F2'
_cell_volume   564.88956879
_cell_formula_units_Z   1
loop_
 _symmetry_equiv_pos_site_id
 _symmetry_equiv_pos_as_xyz
  1  'x, y, z'
loop_
 _atom_site_type_symbol
 _atom_site_label
 _atom_site_symmetry_multiplicity
 _atom_site_fract_x
 _atom_site_fract_y
 _atom_site_fract_z
 _atom_site_occupancy
  Sc  Sc0  1  0.00000000  0.00000000  0.00000000  1
  Li  Li1  1  0.50000000  0.50000000  0.50000000  1
  Se  Se2  1  0.25000000  0.25000000  0.25000000  1
  Se  Se3  1  0.75000000  0.25000000  0.00000000  1
  F  F4  1  0.25000000  0.75000000  0.50000000  1
  F  F5  1  0.94275284  0.10303260  0.63626320  1
  O  O6  1  0.37325897  0.20626994  0.71882715  1
  O  O7  1  0.34686285  0.22605511  0.35569590  1
