# generated using pymatgen
data_LiCu2(As2S)3
_symmetry_space_group_name_H-M   'P 1'
_cell_length_a   6.63891937
_cell_length_b   6.73789752
_cell_length_c   7.87008105
_cell_angle_alpha   91.05171801
_cell_angle_beta   95.00375488
_cell_angle_gamma   91.20239452
_symmetry_Int_Tables_number   1
_chemical_formula_structural   LiCu2(As2S)3
_chemical_formula_sum   'Li1 Cu2 As6 S3'
_cell_volume   350.55638815
_cell_formula_units_Z   1
loop_
 _symmetry_equiv_pos_site_id
 _symmetry_equiv_pos_as_xyz
  1  'x, y, z'
loop_
 _atom_site_type_symbol
 _atom_site_label
 _atom_site_symmetry_multiplicity
 _atom_site_fract_x
 _atom_site_fract_y
 _atom_site_fract_z
 _atom_site_occupancy
  S  S0  1  0.00000000  0.00000000  0.00000000  1
  S  S1  1  0.50000000  0.50000000  0.50000000  1
  S  S2  1  0.25000000  0.25000000  0.25000000  1
  As  As3  1  0.75000000  0.25000000  0.00000000  1
  As  As4  1  0.25000000  0.75000000  0.50000000  1
  As  As5  1  0.47908873  0.31310288  0.05978990  1
  As  As6  1  0.29374061  0.72004059  0.66522039  1
  As  As7  1  0.26792674  0.23457811  0.13800854  1
  As  As8  1  0.95792352  0.47214879  0.76823376  1
  Li  Li9  1  0.91187964  0.50438209  0.54902936  1
  Cu  Cu10  1  0.07792659  0.31345210  0.47734985  1
  Cu  Cu11  1  0.52305765  0.20224266  0.96613005  1
