# generated using pymatgen
data_LiZnCu(IO)2
_symmetry_space_group_name_H-M   'P 1'
_cell_length_a   8.17901858
_cell_length_b   8.55960283
_cell_length_c   7.68124685
_cell_angle_alpha   90.17892775
_cell_angle_beta   90.85128391
_cell_angle_gamma   90.20456220
_symmetry_Int_Tables_number   1
_chemical_formula_structural   LiZnCu(IO)2
_chemical_formula_sum   'Li2 Zn2 Cu2 I4 O4'
_cell_volume   537.69207411
_cell_formula_units_Z   2
loop_
 _symmetry_equiv_pos_site_id
 _symmetry_equiv_pos_as_xyz
  1  'x, y, z'
loop_
 _atom_site_type_symbol
 _atom_site_label
 _atom_site_symmetry_multiplicity
 _atom_site_fract_x
 _atom_site_fract_y
 _atom_site_fract_z
 _atom_site_occupancy
  O  O0  1  0.12500000  0.00000000  0.25000000  1
  O  O1  1  0.00000000  0.00000000  0.00000000  1
  O  O2  1  0.37500000  0.00000000  0.25000000  1
  O  O3  1  0.25000000  0.25000000  0.25000000  1
  I  I4  1  0.00000000  0.25000000  0.12500000  1
  I  I5  1  0.04619426  0.56402183  0.77684279  1
  I  I6  1  0.64913261  0.80497158  0.42832688  1
  I  I7  1  0.77404984  0.26511961  0.05905945  1
  Li  Li8  1  0.63603262  0.32001387  0.37457317  1
  Li  Li9  1  0.92016670  0.20459341  0.62330392  1
  Cu  Cu10  1  0.52640431  0.25371211  0.99606361  1
  Cu  Cu11  1  0.97451534  0.40566590  0.15952224  1
  Zn  Zn12  1  0.54394176  0.48640036  0.59369254  1
  Zn  Zn13  1  0.72541887  0.01049743  0.07584263  1
