# generated using pymatgen
data_Li2TiCu2P4F2
_symmetry_space_group_name_H-M   'P 1'
_cell_length_a   7.40762174
_cell_length_b   7.18304377
_cell_length_c   7.45538117
_cell_angle_alpha   91.03795001
_cell_angle_beta   92.27722891
_cell_angle_gamma   90.72938097
_symmetry_Int_Tables_number   1
_chemical_formula_structural   Li2TiCu2P4F2
_chemical_formula_sum   'Li2 Ti1 Cu2 P4 F2'
_cell_volume   396.28115965
_cell_formula_units_Z   1
loop_
 _symmetry_equiv_pos_site_id
 _symmetry_equiv_pos_as_xyz
  1  'x, y, z'
loop_
 _atom_site_type_symbol
 _atom_site_label
 _atom_site_symmetry_multiplicity
 _atom_site_fract_x
 _atom_site_fract_y
 _atom_site_fract_z
 _atom_site_occupancy
  P  P0  1  0.00000000  0.00000000  0.00000000  1
  P  P1  1  0.50000000  0.50000000  0.50000000  1
  P  P2  1  0.25000000  0.25000000  0.25000000  1
  P  P3  1  0.75000000  0.25000000  0.00000000  1
  Li  Li4  1  0.25000000  0.75000000  0.50000000  1
  Li  Li5  1  0.92902673  0.86284540  0.14254541  1
  Cu  Cu6  1  0.03548708  0.69553987  0.78875682  1
  Cu  Cu7  1  0.00025014  0.31630904  0.59979722  1
  F  F8  1  0.09858936  0.99638327  0.64633523  1
  F  F9  1  0.84994115  0.59559937  0.62927493  1
  Ti  Ti10  1  0.97205623  0.98002097  0.17220286  1
