# generated using pymatgen
data_Li3(NiO2)2
_symmetry_space_group_name_H-M   'P 1'
_cell_length_a   7.49235095
_cell_length_b   7.30935045
_cell_length_c   8.23989519
_cell_angle_alpha   93.39222085
_cell_angle_beta   93.82834330
_cell_angle_gamma   93.40149964
_symmetry_Int_Tables_number   1
_chemical_formula_structural   Li3(NiO2)2
_chemical_formula_sum   'Li3 Ni2 O4'
_cell_volume   448.54749109
_cell_formula_units_Z   1
loop_
 _symmetry_equiv_pos_site_id
 _symmetry_equiv_pos_as_xyz
  1  'x, y, z'
loop_
 _atom_site_type_symbol
 _atom_site_label
 _atom_site_symmetry_multiplicity
 _atom_site_fract_x
 _atom_site_fract_y
 _atom_site_fract_z
 _atom_site_occupancy
  Li  Li0  1  0.12500000  0.00000000  0.25000000  1
  Li  Li1  1  0.00000000  0.00000000  0.00000000  1
  Li  Li2  1  0.37500000  0.00000000  0.25000000  1
  Ni  Ni3  1  0.25000000  0.25000000  0.25000000  1
  Ni  Ni4  1  0.00000000  0.25000000  0.12500000  1
  O  O5  1  0.70219197  0.37303590  0.14603836  1
  O  O6  1  0.48132355  0.70596114  0.80265805  1
  O  O7  1  0.72701675  0.89013616  0.80090691  1
  O  O8  1  0.48080810  0.36592592  0.77423198  1
