# generated using pymatgen
data_Li3Ti2SeF3
_symmetry_space_group_name_H-M   'P 1'
_cell_length_a   6.49068802
_cell_length_b   6.51276691
_cell_length_c   7.87242987
_cell_angle_alpha   95.80691448
_cell_angle_beta   98.64478223
_cell_angle_gamma   95.51470626
_symmetry_Int_Tables_number   1
_chemical_formula_structural   Li3Ti2SeF3
_chemical_formula_sum   'Li3 Ti2 Se1 F3'
_cell_volume   325.21426091
_cell_formula_units_Z   1
loop_
 _symmetry_equiv_pos_site_id
 _symmetry_equiv_pos_as_xyz
  1  'x, y, z'
loop_
 _atom_site_type_symbol
 _atom_site_label
 _atom_site_symmetry_multiplicity
 _atom_site_fract_x
 _atom_site_fract_y
 _atom_site_fract_z
 _atom_site_occupancy
  Li  Li0  1  0.12500000  0.00000000  0.25000000  1
  Li  Li1  1  0.00000000  0.00000000  0.00000000  1
  Li  Li2  1  0.37500000  0.00000000  0.25000000  1
  Se  Se3  1  0.25000000  0.25000000  0.25000000  1
  F  F4  1  0.00000000  0.25000000  0.12500000  1
  F  F5  1  0.73555305  0.11576124  0.46670936  1
  F  F6  1  0.23354620  0.53065710  0.48636980  1
  Ti  Ti7  1  0.46593897  0.21812251  0.39603621  1
  Ti  Ti8  1  0.87762667  0.44683919  0.43196143  1
