# generated using pymatgen
data_LiMnSb4P3N
_symmetry_space_group_name_H-M   'P 1'
_cell_length_a   4.84477126
_cell_length_b   5.11124714
_cell_length_c   6.28892437
_cell_angle_alpha   98.42423246
_cell_angle_beta   95.40514368
_cell_angle_gamma   98.04048744
_symmetry_Int_Tables_number   1
_chemical_formula_structural   LiMnSb4P3N
_chemical_formula_sum   'Li1 Mn1 Sb4 P3 N1'
_cell_volume   151.48756981
_cell_formula_units_Z   1
loop_
 _symmetry_equiv_pos_site_id
 _symmetry_equiv_pos_as_xyz
  1  'x, y, z'
loop_
 _atom_site_type_symbol
 _atom_site_label
 _atom_site_symmetry_multiplicity
 _atom_site_fract_x
 _atom_site_fract_y
 _atom_site_fract_z
 _atom_site_occupancy
  N  N0  1  0.12500000  0.00000000  0.25000000  1
  Mn  Mn1  1  0.00000000  0.00000000  0.00000000  1
  Sb  Sb2  1  0.37500000  0.00000000  0.25000000  1
  Sb  Sb3  1  0.25000000  0.25000000  0.25000000  1
  Sb  Sb4  1  0.00000000  0.25000000  0.12500000  1
  Sb  Sb5  1  0.32112669  0.69100887  0.99509672  1
  P  P6  1  0.56461858  0.32901054  0.36727209  1
  P  P7  1  0.12910769  0.87663586  0.43007884  1
  P  P8  1  0.53866980  0.51771318  0.63207511  1
  Li  Li9  1  0.26144410  0.53656709  0.23855839  1
