# generated using pymatgen
data_LiMn2(NiP)3
_symmetry_space_group_name_H-M   'P 1'
_cell_length_a   5.31677844
_cell_length_b   5.44013101
_cell_length_c   6.51435810
_cell_angle_alpha   96.54316330
_cell_angle_beta   93.43944160
_cell_angle_gamma   96.93130342
_symmetry_Int_Tables_number   1
_chemical_formula_structural   LiMn2(NiP)3
_chemical_formula_sum   'Li1 Mn2 Ni3 P3'
_cell_volume   185.30545814
_cell_formula_units_Z   1
loop_
 _symmetry_equiv_pos_site_id
 _symmetry_equiv_pos_as_xyz
  1  'x, y, z'
loop_
 _atom_site_type_symbol
 _atom_site_label
 _atom_site_symmetry_multiplicity
 _atom_site_fract_x
 _atom_site_fract_y
 _atom_site_fract_z
 _atom_site_occupancy
  Ni  Ni0  1  0.00000000  0.00000000  0.00000000  1
  Ni  Ni1  1  0.50000000  0.50000000  0.50000000  1
  Ni  Ni2  1  0.25000000  0.25000000  0.25000000  1
  Mn  Mn3  1  0.75000000  0.25000000  0.00000000  1
  Mn  Mn4  1  0.25000000  0.75000000  0.50000000  1
  P  P5  1  0.25250593  0.66794354  0.24825163  1
  P  P6  1  0.45760693  0.08101758  0.12982650  1
  P  P7  1  0.37508969  0.41685207  0.68145610  1
  Li  Li8  1  0.62161589  0.06158104  0.23206634  1
