# generated using pymatgen
data_Li2MnSb4P2N
_symmetry_space_group_name_H-M   'P 1'
_cell_length_a   6.26547706
_cell_length_b   6.50661401
_cell_length_c   7.09416541
_cell_angle_alpha   95.69479892
_cell_angle_beta   92.67623915
_cell_angle_gamma   95.36670008
_symmetry_Int_Tables_number   1
_chemical_formula_structural   Li2MnSb4P2N
_chemical_formula_sum   'Li2 Mn1 Sb4 P2 N1'
_cell_volume   286.06161847
_cell_formula_units_Z   1
loop_
 _symmetry_equiv_pos_site_id
 _symmetry_equiv_pos_as_xyz
  1  'x, y, z'
loop_
 _atom_site_type_symbol
 _atom_site_label
 _atom_site_symmetry_multiplicity
 _atom_site_fract_x
 _atom_site_fract_y
 _atom_site_fract_z
 _atom_site_occupancy
  N  N0  1  0.00000000  0.00000000  0.00000000  1
  Mn  Mn1  1  0.50000000  0.50000000  0.50000000  1
  Sb  Sb2  1  0.25000000  0.25000000  0.25000000  1
  Sb  Sb3  1  0.75000000  0.25000000  0.00000000  1
  Sb  Sb4  1  0.25000000  0.75000000  0.50000000  1
  Sb  Sb5  1  0.97474191  0.14670629  0.83506728  1
  P  P6  1  0.17371939  0.98845747  0.91490346  1
  P  P7  1  0.13165728  0.93071920  0.37827576  1
  Li  Li8  1  0.75990477  0.68301425  0.74849029  1
  Li  Li9  1  0.72141255  0.98433556  0.18784821  1
