# generated using pymatgen
data_LiTi2P6O3F2
_symmetry_space_group_name_H-M   'P 1'
_cell_length_a   7.38473101
_cell_length_b   7.10492385
_cell_length_c   7.80268412
_cell_angle_alpha   90.56737616
_cell_angle_beta   92.69940344
_cell_angle_gamma   90.64866245
_symmetry_Int_Tables_number   1
_chemical_formula_structural   LiTi2P6O3F2
_chemical_formula_sum   'Li1 Ti2 P6 O3 F2'
_cell_volume   408.88805262
_cell_formula_units_Z   1
loop_
 _symmetry_equiv_pos_site_id
 _symmetry_equiv_pos_as_xyz
  1  'x, y, z'
loop_
 _atom_site_type_symbol
 _atom_site_label
 _atom_site_symmetry_multiplicity
 _atom_site_fract_x
 _atom_site_fract_y
 _atom_site_fract_z
 _atom_site_occupancy
  P  P0  1  0.00000000  0.00000000  0.00000000  1
  P  P1  1  0.50000000  0.50000000  0.50000000  1
  P  P2  1  0.25000000  0.25000000  0.25000000  1
  P  P3  1  0.75000000  0.25000000  0.00000000  1
  P  P4  1  0.25000000  0.75000000  0.50000000  1
  P  P5  1  0.22284350  0.29070874  0.00048853  1
  Li  Li6  1  0.01176290  0.92899716  0.10749697  1
  F  F7  1  0.18265141  0.87438195  0.83501567  1
  F  F8  1  0.52768331  0.77375361  0.33457218  1
  Ti  Ti9  1  0.63919585  0.09148950  0.95423082  1
  Ti  Ti10  1  0.34770813  0.05790608  0.46915621  1
  O  O11  1  0.95958571  0.16903932  0.15475699  1
  O  O12  1  0.98550132  0.90326978  0.00861439  1
  O  O13  1  0.94439208  0.20441296  0.27485646  1
