# generated using pymatgen
data_Li3LuNi2(As3P2)2
_symmetry_space_group_name_H-M   'P 1'
_cell_length_a   7.47487969
_cell_length_b   7.27296837
_cell_length_c   8.51437327
_cell_angle_alpha   92.27210878
_cell_angle_beta   91.55473710
_cell_angle_gamma   92.63253675
_symmetry_Int_Tables_number   1
_chemical_formula_structural   Li3LuNi2(As3P2)2
_chemical_formula_sum   'Li3 Lu1 Ni2 As6 P4'
_cell_volume   461.83375096
_cell_formula_units_Z   1
loop_
 _symmetry_equiv_pos_site_id
 _symmetry_equiv_pos_as_xyz
  1  'x, y, z'
loop_
 _atom_site_type_symbol
 _atom_site_label
 _atom_site_symmetry_multiplicity
 _atom_site_fract_x
 _atom_site_fract_y
 _atom_site_fract_z
 _atom_site_occupancy
  P  P0  1  0.00000000  0.00000000  0.00000000  1
  P  P1  1  0.50000000  0.50000000  0.50000000  1
  P  P2  1  0.25000000  0.25000000  0.25000000  1
  P  P3  1  0.75000000  0.25000000  0.00000000  1
  Lu  Lu4  1  0.25000000  0.75000000  0.50000000  1
  Li  Li5  1  0.92125863  0.67606196  0.31630592  1
  Li  Li6  1  0.51542521  0.17332143  0.91672321  1
  Li  Li7  1  0.08250772  0.15025780  0.94929419  1
  Ni  Ni8  1  0.81325613  0.13245090  0.17958874  1
  Ni  Ni9  1  0.61892196  0.42558539  0.40776906  1
  As  As10  1  0.15958500  0.94217165  0.39611221  1
  As  As11  1  0.50178774  0.54895074  0.16820263  1
  As  As12  1  0.67377928  0.06465428  0.80959919  1
  As  As13  1  0.12895713  0.28670049  0.16797466  1
  As  As14  1  0.82830766  0.17985789  0.00496388  1
  As  As15  1  0.80946398  0.12073789  0.38022234  1
