# generated using pymatgen
data_Li2Mn2Sb4P3
_symmetry_space_group_name_H-M   'P 1'
_cell_length_a   7.02690814
_cell_length_b   7.28272149
_cell_length_c   7.44980245
_cell_angle_alpha   92.85533330
_cell_angle_beta   91.79366877
_cell_angle_gamma   93.07056226
_symmetry_Int_Tables_number   1
_chemical_formula_structural   Li2Mn2Sb4P3
_chemical_formula_sum   'Li2 Mn2 Sb4 P3'
_cell_volume   380.00316581
_cell_formula_units_Z   1
loop_
 _symmetry_equiv_pos_site_id
 _symmetry_equiv_pos_as_xyz
  1  'x, y, z'
loop_
 _atom_site_type_symbol
 _atom_site_label
 _atom_site_symmetry_multiplicity
 _atom_site_fract_x
 _atom_site_fract_y
 _atom_site_fract_z
 _atom_site_occupancy
  Mn  Mn0  1  0.00000000  0.00000000  0.00000000  1
  Mn  Mn1  1  0.50000000  0.50000000  0.50000000  1
  Sb  Sb2  1  0.50000000  0.50000000  0.00000000  1
  Sb  Sb3  1  0.50000000  0.00000000  0.50000000  1
  Sb  Sb4  1  0.00000000  0.50000000  0.50000000  1
  Sb  Sb5  1  0.20864718  0.91057237  0.17192098  1
  P  P6  1  0.50104006  0.98796178  0.38872756  1
  P  P7  1  0.17424867  0.20206494  0.70616632  1
  P  P8  1  0.33694205  0.25522728  0.59434961  1
  Li  Li9  1  0.06011881  0.84346751  0.83720306  1
  Li  Li10  1  0.58337699  0.45001493  0.13731136  1
