# generated using pymatgen
data_Li2Mn2Sb4P3
_symmetry_space_group_name_H-M   'P 1'
_cell_length_a   5.81000152
_cell_length_b   5.99963695
_cell_length_c   6.76017437
_cell_angle_alpha   98.38097627
_cell_angle_beta   91.13313023
_cell_angle_gamma   98.31377465
_symmetry_Int_Tables_number   1
_chemical_formula_structural   Li2Mn2Sb4P3
_chemical_formula_sum   'Li2 Mn2 Sb4 P3'
_cell_volume   230.47808977
_cell_formula_units_Z   1
loop_
 _symmetry_equiv_pos_site_id
 _symmetry_equiv_pos_as_xyz
  1  'x, y, z'
loop_
 _atom_site_type_symbol
 _atom_site_label
 _atom_site_symmetry_multiplicity
 _atom_site_fract_x
 _atom_site_fract_y
 _atom_site_fract_z
 _atom_site_occupancy
  Mn  Mn0  1  0.12500000  0.12500000  0.12500000  1
  Mn  Mn1  1  0.50000000  0.50000000  0.50000000  1
  Sb  Sb2  1  0.25000000  0.25000000  0.25000000  1
  Sb  Sb3  1  0.75000000  0.75000000  0.75000000  1
  Sb  Sb4  1  0.46408096  0.24004169  0.04005267  1
  Sb  Sb5  1  0.74537427  0.29607795  0.09088576  1
  P  P6  1  0.31409687  0.87221348  0.20653382  1
  P  P7  1  0.70094427  0.06802498  0.06154707  1
  P  P8  1  0.56319041  0.18415936  0.49696115  1
  Li  Li9  1  0.19795336  0.63225999  0.41162051  1
  Li  Li10  1  0.75099225  0.54925890  0.31858237  1
