# generated using pymatgen
data_LiMn2Sb4P2N
_symmetry_space_group_name_H-M   'P 1'
_cell_length_a   5.19187854
_cell_length_b   5.51158488
_cell_length_c   6.32828725
_cell_angle_alpha   97.73760691
_cell_angle_beta   95.79033943
_cell_angle_gamma   95.61001487
_symmetry_Int_Tables_number   1
_chemical_formula_structural   LiMn2Sb4P2N
_chemical_formula_sum   'Li1 Mn2 Sb4 P2 N1'
_cell_volume   177.38043095
_cell_formula_units_Z   1
loop_
 _symmetry_equiv_pos_site_id
 _symmetry_equiv_pos_as_xyz
  1  'x, y, z'
loop_
 _atom_site_type_symbol
 _atom_site_label
 _atom_site_symmetry_multiplicity
 _atom_site_fract_x
 _atom_site_fract_y
 _atom_site_fract_z
 _atom_site_occupancy
  N  N0  1  0.00000000  0.00000000  0.00000000  1
  Mn  Mn1  1  0.50000000  0.50000000  0.50000000  1
  Mn  Mn2  1  0.50000000  0.50000000  0.00000000  1
  Sb  Sb3  1  0.50000000  0.00000000  0.50000000  1
  Sb  Sb4  1  0.00000000  0.50000000  0.50000000  1
  Sb  Sb5  1  0.62227918  0.48019658  0.17798210  1
  Sb  Sb6  1  0.40416972  0.86366345  0.03923595  1
  P  P7  1  0.63989825  0.13344525  0.69415190  1
  P  P8  1  0.98981720  0.27802437  0.30517919  1
  Li  Li9  1  0.62082934  0.83757958  0.96292708  1
