# generated using pymatgen
data_Li2MnSb4Mo2P3
_symmetry_space_group_name_H-M   'P 1'
_cell_length_a   6.07690529
_cell_length_b   6.57329479
_cell_length_c   7.12809119
_cell_angle_alpha   94.91609170
_cell_angle_beta   93.33255232
_cell_angle_gamma   95.24821190
_symmetry_Int_Tables_number   1
_chemical_formula_structural   Li2MnSb4Mo2P3
_chemical_formula_sum   'Li2 Mn1 Sb4 Mo2 P3'
_cell_volume   281.87175269
_cell_formula_units_Z   1
loop_
 _symmetry_equiv_pos_site_id
 _symmetry_equiv_pos_as_xyz
  1  'x, y, z'
loop_
 _atom_site_type_symbol
 _atom_site_label
 _atom_site_symmetry_multiplicity
 _atom_site_fract_x
 _atom_site_fract_y
 _atom_site_fract_z
 _atom_site_occupancy
  Mn  Mn0  1  0.00000000  0.00000000  0.00000000  1
  Sb  Sb1  1  0.50000000  0.50000000  0.50000000  1
  Sb  Sb2  1  0.50000000  0.50000000  0.00000000  1
  Sb  Sb3  1  0.50000000  0.00000000  0.50000000  1
  Sb  Sb4  1  0.00000000  0.50000000  0.50000000  1
  P  P5  1  0.34364345  0.48918028  0.14694258  1
  P  P6  1  0.28087057  0.66562237  0.75644507  1
  P  P7  1  0.37548562  0.03064619  0.47339268  1
  Mo  Mo8  1  0.81474959  0.99315379  0.38453044  1
  Mo  Mo9  1  0.38402584  0.27678870  0.97010794  1
  Li  Li10  1  0.59844755  0.21680747  0.87592903  1
  Li  Li11  1  0.51708897  0.02123576  0.84000574  1
