# generated using pymatgen
data_Li2Cu2P5O
_symmetry_space_group_name_H-M   'P 1'
_cell_length_a   7.87516133
_cell_length_b   7.75424174
_cell_length_c   7.77729929
_cell_angle_alpha   90.31480507
_cell_angle_beta   91.49774693
_cell_angle_gamma   90.35990626
_symmetry_Int_Tables_number   1
_chemical_formula_structural   Li2Cu2P5O
_chemical_formula_sum   'Li2 Cu2 P5 O1'
_cell_volume   474.74858704
_cell_formula_units_Z   1
loop_
 _symmetry_equiv_pos_site_id
 _symmetry_equiv_pos_as_xyz
  1  'x, y, z'
loop_
 _atom_site_type_symbol
 _atom_site_label
 _atom_site_symmetry_multiplicity
 _atom_site_fract_x
 _atom_site_fract_y
 _atom_site_fract_z
 _atom_site_occupancy
  P  P0  1  0.12500000  0.00000000  0.25000000  1
  P  P1  1  0.00000000  0.00000000  0.00000000  1
  P  P2  1  0.37500000  0.00000000  0.25000000  1
  P  P3  1  0.25000000  0.25000000  0.25000000  1
  P  P4  1  0.00000000  0.25000000  0.12500000  1
  Li  Li5  1  0.85722974  0.48384127  0.74090048  1
  Li  Li6  1  0.37169510  0.54698422  0.68117388  1
  Cu  Cu7  1  0.96892944  0.73525139  0.61220695  1
  Cu  Cu8  1  0.70580706  0.84397376  0.74287099  1
  O  O9  1  0.95351483  0.15920333  0.24447102  1
