# generated using pymatgen
data_LiNiAs3(IO)2
_symmetry_space_group_name_H-M   'P 1'
_cell_length_a   8.05171431
_cell_length_b   8.09410152
_cell_length_c   8.22302129
_cell_angle_alpha   90.25462668
_cell_angle_beta   91.21143642
_cell_angle_gamma   90.29110629
_symmetry_Int_Tables_number   1
_chemical_formula_structural   LiNiAs3(IO)2
_chemical_formula_sum   'Li2 Ni2 As6 I4 O4'
_cell_volume   535.77350107
_cell_formula_units_Z   2
loop_
 _symmetry_equiv_pos_site_id
 _symmetry_equiv_pos_as_xyz
  1  'x, y, z'
loop_
 _atom_site_type_symbol
 _atom_site_label
 _atom_site_symmetry_multiplicity
 _atom_site_fract_x
 _atom_site_fract_y
 _atom_site_fract_z
 _atom_site_occupancy
  I  I0  1  0.00000000  0.00000000  0.00000000  1
  I  I1  1  0.50000000  0.50000000  0.50000000  1
  I  I2  1  0.50000000  0.50000000  0.00000000  1
  I  I3  1  0.50000000  0.00000000  0.50000000  1
  Li  Li4  1  0.00000000  0.50000000  0.50000000  1
  Li  Li5  1  0.79365192  0.21075499  0.56290416  1
  Ni  Ni6  1  0.90155639  0.42486892  0.47894830  1
  Ni  Ni7  1  0.90111274  0.30606364  0.64642839  1
  As  As8  1  0.06336620  0.58116429  0.88659631  1
  As  As9  1  0.55001130  0.87812753  0.32721239  1
  As  As10  1  0.64579777  0.12196742  0.43626995  1
  As  As11  1  0.75738065  0.26728253  0.51737382  1
  As  As12  1  0.86848898  0.96168718  0.29433559  1
  As  As13  1  0.17833904  0.53258596  0.67932744  1
  O  O14  1  0.59727577  0.55823583  0.09333824  1
  O  O15  1  0.63579261  0.61154599  0.71424119  1
  O  O16  1  0.52668680  0.10682693  0.71691299  1
  O  O17  1  0.73425770  0.16404040  0.50418041  1
