# generated using pymatgen
data_LiMn3Mo2P3
_symmetry_space_group_name_H-M   'P 1'
_cell_length_a   5.29878716
_cell_length_b   5.38656756
_cell_length_c   6.93470660
_cell_angle_alpha   95.83122990
_cell_angle_beta   95.41027185
_cell_angle_gamma   96.12771862
_symmetry_Int_Tables_number   1
_chemical_formula_structural   LiMn3Mo2P3
_chemical_formula_sum   'Li1 Mn3 Mo2 P3'
_cell_volume   194.67405312
_cell_formula_units_Z   1
loop_
 _symmetry_equiv_pos_site_id
 _symmetry_equiv_pos_as_xyz
  1  'x, y, z'
loop_
 _atom_site_type_symbol
 _atom_site_label
 _atom_site_symmetry_multiplicity
 _atom_site_fract_x
 _atom_site_fract_y
 _atom_site_fract_z
 _atom_site_occupancy
  Mn  Mn0  1  0.00000000  0.00000000  0.00000000  1
  Mn  Mn1  1  0.33300000  0.66700000  0.25000000  1
  Mn  Mn2  1  0.66700000  0.33300000  0.50000000  1
  P  P3  1  0.00000000  0.00000000  0.75000000  1
  P  P4  1  0.78231081  0.16184115  0.79193227  1
  P  P5  1  0.64614868  0.39512666  0.95978474  1
  Mo  Mo6  1  0.58960846  0.88713466  0.36286082  1
  Mo  Mo7  1  0.38098386  0.48805191  0.96898085  1
  Li  Li8  1  0.22669607  0.66273070  0.24175404  1
