# generated using pymatgen
data_LiTi2Cu2S3
_symmetry_space_group_name_H-M   'P 1'
_cell_length_a   6.33126955
_cell_length_b   6.39501763
_cell_length_c   7.66258326
_cell_angle_alpha   91.26144665
_cell_angle_beta   96.00158004
_cell_angle_gamma   91.44217035
_symmetry_Int_Tables_number   1
_chemical_formula_structural   LiTi2Cu2S3
_chemical_formula_sum   'Li1 Ti2 Cu2 S3'
_cell_volume   308.35413071
_cell_formula_units_Z   1
loop_
 _symmetry_equiv_pos_site_id
 _symmetry_equiv_pos_as_xyz
  1  'x, y, z'
loop_
 _atom_site_type_symbol
 _atom_site_label
 _atom_site_symmetry_multiplicity
 _atom_site_fract_x
 _atom_site_fract_y
 _atom_site_fract_z
 _atom_site_occupancy
  Li  Li0  1  0.00000000  0.00000000  0.00000000  1
  Cu  Cu1  1  0.33300000  0.66700000  0.25000000  1
  Cu  Cu2  1  0.66700000  0.33300000  0.50000000  1
  S  S3  1  0.00000000  0.00000000  0.75000000  1
  S  S4  1  0.48998442  0.64901921  0.78094190  1
  S  S5  1  0.23789673  0.88308213  0.59322336  1
  Ti  Ti6  1  0.72478885  0.90396244  0.25278802  1
  Ti  Ti7  1  0.74235125  0.72079662  0.06033064  1
