# generated using pymatgen
data_Li2MnSb4P3N5
_symmetry_space_group_name_H-M   'P 1'
_cell_length_a   7.38539187
_cell_length_b   7.99079393
_cell_length_c   7.73044425
_cell_angle_alpha   90.80825105
_cell_angle_beta   90.95744805
_cell_angle_gamma   90.91988949
_symmetry_Int_Tables_number   1
_chemical_formula_structural   Li2MnSb4P3N5
_chemical_formula_sum   'Li2 Mn1 Sb4 P3 N5'
_cell_volume   456.04365224
_cell_formula_units_Z   1
loop_
 _symmetry_equiv_pos_site_id
 _symmetry_equiv_pos_as_xyz
  1  'x, y, z'
loop_
 _atom_site_type_symbol
 _atom_site_label
 _atom_site_symmetry_multiplicity
 _atom_site_fract_x
 _atom_site_fract_y
 _atom_site_fract_z
 _atom_site_occupancy
  N  N0  1  0.00000000  0.00000000  0.00000000  1
  N  N1  1  0.50000000  0.50000000  0.50000000  1
  N  N2  1  0.50000000  0.50000000  0.00000000  1
  N  N3  1  0.50000000  0.00000000  0.50000000  1
  N  N4  1  0.00000000  0.50000000  0.50000000  1
  Mn  Mn5  1  0.73898121  0.64626230  0.76163203  1
  Sb  Sb6  1  0.14575917  0.85936507  0.67098807  1
  Sb  Sb7  1  0.06120402  0.55605031  0.87293989  1
  Sb  Sb8  1  0.29705743  0.74457749  0.84083472  1
  Sb  Sb9  1  0.37619052  0.42471804  0.66084144  1
  P  P10  1  0.68466473  0.46842029  0.62960632  1
  P  P11  1  0.52250554  0.07717746  0.45408007  1
  P  P12  1  0.09815510  0.40667234  0.32983144  1
  Li  Li13  1  0.62364305  0.92101040  0.69964337  1
  Li  Li14  1  0.29913061  0.40177561  0.75908129  1
