# generated using pymatgen
data_Li3LuCu2Ni2P5
_symmetry_space_group_name_H-M   'P 1'
_cell_length_a   6.35264233
_cell_length_b   6.03385509
_cell_length_c   7.63937024
_cell_angle_alpha   98.76357866
_cell_angle_beta   100.84771356
_cell_angle_gamma   98.41730572
_symmetry_Int_Tables_number   1
_chemical_formula_structural   Li3LuCu2Ni2P5
_chemical_formula_sum   'Li3 Lu1 Cu2 Ni2 P5'
_cell_volume   279.57357915
_cell_formula_units_Z   1
loop_
 _symmetry_equiv_pos_site_id
 _symmetry_equiv_pos_as_xyz
  1  'x, y, z'
loop_
 _atom_site_type_symbol
 _atom_site_label
 _atom_site_symmetry_multiplicity
 _atom_site_fract_x
 _atom_site_fract_y
 _atom_site_fract_z
 _atom_site_occupancy
  Ni  Ni0  1  0.12500000  0.00000000  0.25000000  1
  Ni  Ni1  1  0.00000000  0.00000000  0.00000000  1
  P  P2  1  0.37500000  0.00000000  0.25000000  1
  P  P3  1  0.25000000  0.25000000  0.25000000  1
  P  P4  1  0.00000000  0.25000000  0.12500000  1
  P  P5  1  0.83005173  0.40365008  0.40465675  1
  P  P6  1  0.87163798  0.88307797  0.38200129  1
  Lu  Lu7  1  0.90640888  0.08778599  0.67160857  1
  Li  Li8  1  0.84845292  0.00378913  0.90811946  1
  Li  Li9  1  0.82770512  0.57371747  0.33571153  1
  Li  Li10  1  0.93998774  0.17147783  0.41039800  1
  Cu  Cu11  1  0.31824451  0.14228902  0.22188249  1
  Cu  Cu12  1  0.18499890  0.38662056  0.14215925  1
