# generated using pymatgen
data_Li2MnSb4P3N
_symmetry_space_group_name_H-M   'P 1'
_cell_length_a   4.32167804
_cell_length_b   4.57612911
_cell_length_c   6.30090528
_cell_angle_alpha   100.92861062
_cell_angle_beta   96.23340299
_cell_angle_gamma   100.92149269
_symmetry_Int_Tables_number   1
_chemical_formula_structural   Li2MnSb4P3N
_chemical_formula_sum   'Li2 Mn1 Sb4 P3 N1'
_cell_volume   118.77720162
_cell_formula_units_Z   1
loop_
 _symmetry_equiv_pos_site_id
 _symmetry_equiv_pos_as_xyz
  1  'x, y, z'
loop_
 _atom_site_type_symbol
 _atom_site_label
 _atom_site_symmetry_multiplicity
 _atom_site_fract_x
 _atom_site_fract_y
 _atom_site_fract_z
 _atom_site_occupancy
  N  N0  1  0.00000000  0.00000000  0.00000000  1
  Mn  Mn1  1  0.50000000  0.50000000  0.50000000  1
  Sb  Sb2  1  0.50000000  0.50000000  0.00000000  1
  Sb  Sb3  1  0.50000000  0.00000000  0.50000000  1
  Sb  Sb4  1  0.00000000  0.50000000  0.50000000  1
  Sb  Sb5  1  0.25027299  0.52021673  0.91508003  1
  P  P6  1  0.85408582  0.29521397  0.00194954  1
  P  P7  1  0.34401549  0.92040447  0.67229824  1
  P  P8  1  0.29676249  0.37011797  0.34783161  1
  Li  Li9  1  0.88668947  0.03830126  0.82372932  1
  Li  Li10  1  0.58088408  0.21487423  0.01534957  1
