# generated using pymatgen
data_Li2MnSb4P3
_symmetry_space_group_name_H-M   'P 1'
_cell_length_a   4.65567555
_cell_length_b   4.87538161
_cell_length_c   7.09771485
_cell_angle_alpha   97.88221075
_cell_angle_beta   99.33720694
_cell_angle_gamma   98.97092904
_symmetry_Int_Tables_number   1
_chemical_formula_structural   Li2MnSb4P3
_chemical_formula_sum   'Li2 Mn1 Sb4 P3'
_cell_volume   154.83016859
_cell_formula_units_Z   1
loop_
 _symmetry_equiv_pos_site_id
 _symmetry_equiv_pos_as_xyz
  1  'x, y, z'
loop_
 _atom_site_type_symbol
 _atom_site_label
 _atom_site_symmetry_multiplicity
 _atom_site_fract_x
 _atom_site_fract_y
 _atom_site_fract_z
 _atom_site_occupancy
  Mn  Mn0  1  0.00000000  0.00000000  0.00000000  1
  Sb  Sb1  1  0.50000000  0.50000000  0.50000000  1
  Sb  Sb2  1  0.50000000  0.50000000  0.00000000  1
  Sb  Sb3  1  0.50000000  0.00000000  0.50000000  1
  Sb  Sb4  1  0.00000000  0.50000000  0.50000000  1
  P  P5  1  0.34788231  0.94153877  0.31493430  1
  P  P6  1  0.39261118  0.74990031  0.82670054  1
  P  P7  1  0.63384017  0.00092121  0.58230337  1
  Li  Li8  1  0.33898238  0.80659774  0.64364536  1
  Li  Li9  1  0.19748106  0.33429436  0.95029390  1
