# generated using pymatgen
data_Li2Mn2Sb2P3
_symmetry_space_group_name_H-M   'P 1'
_cell_length_a   5.65721460
_cell_length_b   6.04280459
_cell_length_c   6.64543955
_cell_angle_alpha   97.03018500
_cell_angle_beta   91.88230550
_cell_angle_gamma   97.01480436
_symmetry_Int_Tables_number   1
_chemical_formula_structural   Li2Mn2Sb2P3
_chemical_formula_sum   'Li2 Mn2 Sb2 P3'
_cell_volume   223.51805071
_cell_formula_units_Z   1
loop_
 _symmetry_equiv_pos_site_id
 _symmetry_equiv_pos_as_xyz
  1  'x, y, z'
loop_
 _atom_site_type_symbol
 _atom_site_label
 _atom_site_symmetry_multiplicity
 _atom_site_fract_x
 _atom_site_fract_y
 _atom_site_fract_z
 _atom_site_occupancy
  Mn  Mn0  1  0.12500000  0.12500000  0.12500000  1
  Mn  Mn1  1  0.50000000  0.50000000  0.50000000  1
  Sb  Sb2  1  0.25000000  0.25000000  0.25000000  1
  Sb  Sb3  1  0.75000000  0.75000000  0.75000000  1
  P  P4  1  0.61645338  0.87011491  0.44678686  1
  P  P5  1  0.90493161  0.65746420  0.59368985  1
  P  P6  1  0.17184082  0.76002566  0.89115777  1
  Li  Li7  1  0.25471795  0.88950498  0.48500200  1
  Li  Li8  1  0.25759148  0.35226591  0.22266387  1
