# generated using pymatgen
data_Li2Ni2As6(OF)3
_symmetry_space_group_name_H-M   'P 1'
_cell_length_a   7.09035228
_cell_length_b   6.86639527
_cell_length_c   8.11572119
_cell_angle_alpha   91.37851539
_cell_angle_beta   92.68156257
_cell_angle_gamma   91.59063472
_symmetry_Int_Tables_number   1
_chemical_formula_structural   Li2Ni2As6(OF)3
_chemical_formula_sum   'Li2 Ni2 As6 O3 F3'
_cell_volume   394.40322852
_cell_formula_units_Z   1
loop_
 _symmetry_equiv_pos_site_id
 _symmetry_equiv_pos_as_xyz
  1  'x, y, z'
loop_
 _atom_site_type_symbol
 _atom_site_label
 _atom_site_symmetry_multiplicity
 _atom_site_fract_x
 _atom_site_fract_y
 _atom_site_fract_z
 _atom_site_occupancy
  Li  Li0  1  0.12500000  0.00000000  0.25000000  1
  Li  Li1  1  0.00000000  0.00000000  0.00000000  1
  F  F2  1  0.37500000  0.00000000  0.25000000  1
  F  F3  1  0.25000000  0.25000000  0.25000000  1
  F  F4  1  0.00000000  0.25000000  0.12500000  1
  Ni  Ni5  1  0.92930583  0.97607992  0.44431676  1
  Ni  Ni6  1  0.16008849  0.21611090  0.90603006  1
  As  As7  1  0.92199537  0.12048736  0.74329466  1
  As  As8  1  0.98334515  0.18251597  0.05770000  1
  As  As9  1  0.17311331  0.02728098  0.19195407  1
  As  As10  1  0.00658318  0.30295369  0.53038880  1
  As  As11  1  0.53827832  0.63513434  0.83653165  1
  As  As12  1  0.33085669  0.30814539  0.60095635  1
  O  O13  1  0.99960632  0.08000474  0.43899735  1
  O  O14  1  0.48224299  0.45608341  0.34273458  1
  O  O15  1  0.78557348  0.85381392  0.12987950  1
