# generated using pymatgen
data_Li2Ti2Cu2As6P5
_symmetry_space_group_name_H-M   'P 1'
_cell_length_a   7.56481936
_cell_length_b   7.30971930
_cell_length_c   7.73443064
_cell_angle_alpha   91.30287774
_cell_angle_beta   92.79264121
_cell_angle_gamma   91.26288536
_symmetry_Int_Tables_number   1
_chemical_formula_structural   Li2Ti2Cu2As6P5
_chemical_formula_sum   'Li2 Ti2 Cu2 As6 P5'
_cell_volume   426.95541551
_cell_formula_units_Z   1
loop_
 _symmetry_equiv_pos_site_id
 _symmetry_equiv_pos_as_xyz
  1  'x, y, z'
loop_
 _atom_site_type_symbol
 _atom_site_label
 _atom_site_symmetry_multiplicity
 _atom_site_fract_x
 _atom_site_fract_y
 _atom_site_fract_z
 _atom_site_occupancy
  P  P0  1  0.00000000  0.00000000  0.00000000  1
  P  P1  1  0.50000000  0.50000000  0.50000000  1
  P  P2  1  0.50000000  0.50000000  0.00000000  1
  P  P3  1  0.50000000  0.00000000  0.50000000  1
  P  P4  1  0.00000000  0.50000000  0.50000000  1
  Li  Li5  1  0.71895805  0.17555282  0.33940193  1
  Li  Li6  1  0.81518139  0.32671698  0.99566136  1
  Cu  Cu7  1  0.39334624  0.32911775  0.47203050  1
  Cu  Cu8  1  0.61771794  0.16357362  0.82737679  1
  Ti  Ti9  1  0.50796171  0.50742693  0.52725956  1
  Ti  Ti10  1  0.29329102  0.34100110  0.78307071  1
  As  As11  1  0.20379989  0.35744129  0.01732385  1
  As  As12  1  0.05884646  0.82705113  0.25061096  1
  As  As13  1  0.14464777  0.63266167  0.24517646  1
  As  As14  1  0.45259242  0.58263212  0.39254580  1
  As  As15  1  0.35835339  0.42415614  0.73333907  1
  As  As16  1  0.08513476  0.49857117  0.08657291  1
