# generated using pymatgen
data_Li2Ti2P5OF2
_symmetry_space_group_name_H-M   'P 1'
_cell_length_a   8.10817104
_cell_length_b   7.87676927
_cell_length_c   7.72295762
_cell_angle_alpha   90.24399577
_cell_angle_beta   91.16085775
_cell_angle_gamma   90.27895231
_symmetry_Int_Tables_number   1
_chemical_formula_structural   Li2Ti2P5OF2
_chemical_formula_sum   'Li2 Ti2 P5 O1 F2'
_cell_volume   493.12413760
_cell_formula_units_Z   1
loop_
 _symmetry_equiv_pos_site_id
 _symmetry_equiv_pos_as_xyz
  1  'x, y, z'
loop_
 _atom_site_type_symbol
 _atom_site_label
 _atom_site_symmetry_multiplicity
 _atom_site_fract_x
 _atom_site_fract_y
 _atom_site_fract_z
 _atom_site_occupancy
  P  P0  1  0.12500000  0.00000000  0.25000000  1
  P  P1  1  0.00000000  0.00000000  0.00000000  1
  P  P2  1  0.37500000  0.00000000  0.25000000  1
  P  P3  1  0.25000000  0.25000000  0.25000000  1
  P  P4  1  0.00000000  0.25000000  0.12500000  1
  Li  Li5  1  0.95281508  0.88652270  0.37130150  1
  Li  Li6  1  0.51496958  0.66236729  0.29215344  1
  F  F7  1  0.78045993  0.13180479  0.74897128  1
  F  F8  1  0.62082293  0.07271639  0.23902085  1
  Ti  Ti9  1  0.32116596  0.36439650  0.67121027  1
  Ti  Ti10  1  0.64169552  0.06444847  0.99084571  1
  O  O11  1  0.43388983  0.54008478  0.80126193  1
