# generated using pymatgen
data_Li2Cu2As6O7
_symmetry_space_group_name_H-M   'P 1'
_cell_length_a   7.60565981
_cell_length_b   7.62246728
_cell_length_c   8.72861783
_cell_angle_alpha   91.03604448
_cell_angle_beta   91.68934791
_cell_angle_gamma   91.19669575
_symmetry_Int_Tables_number   1
_chemical_formula_structural   Li2Cu2As6O7
_chemical_formula_sum   'Li2 Cu2 As6 O7'
_cell_volume   505.61317605
_cell_formula_units_Z   1
loop_
 _symmetry_equiv_pos_site_id
 _symmetry_equiv_pos_as_xyz
  1  'x, y, z'
loop_
 _atom_site_type_symbol
 _atom_site_label
 _atom_site_symmetry_multiplicity
 _atom_site_fract_x
 _atom_site_fract_y
 _atom_site_fract_z
 _atom_site_occupancy
  O  O0  1  0.12500000  0.12500000  0.12500000  1
  O  O1  1  0.50000000  0.50000000  0.50000000  1
  O  O2  1  0.25000000  0.25000000  0.25000000  1
  O  O3  1  0.75000000  0.75000000  0.75000000  1
  O  O4  1  0.70058086  0.58194154  0.51862175  1
  O  O5  1  0.28030172  0.03932753  0.62463748  1
  O  O6  1  0.84262036  0.87761912  0.65638227  1
  As  As7  1  0.95419544  0.11243558  0.25118534  1
  As  As8  1  0.16918220  0.03170186  0.15863952  1
  As  As9  1  0.86788153  0.26308154  0.42878233  1
  As  As10  1  0.21442261  0.27249762  0.22626660  1
  As  As11  1  0.98991831  0.64073632  0.54256340  1
  As  As12  1  0.22896041  0.59398885  0.53480580  1
  Li  Li13  1  0.40789329  0.86361743  0.15122616  1
  Li  Li14  1  0.36484562  0.23791424  0.33974990  1
  Cu  Cu15  1  0.84558903  0.88032142  0.71891728  1
  Cu  Cu16  1  0.88315429  0.14704578  0.77069250  1
