# generated using pymatgen
data_LiMn2Sb4P3
_symmetry_space_group_name_H-M   'P 1'
_cell_length_a   5.79748262
_cell_length_b   6.02343131
_cell_length_c   6.66710430
_cell_angle_alpha   96.66186839
_cell_angle_beta   92.50247591
_cell_angle_gamma   97.01707925
_symmetry_Int_Tables_number   1
_chemical_formula_structural   LiMn2Sb4P3
_chemical_formula_sum   'Li1 Mn2 Sb4 P3'
_cell_volume   229.12079681
_cell_formula_units_Z   1
loop_
 _symmetry_equiv_pos_site_id
 _symmetry_equiv_pos_as_xyz
  1  'x, y, z'
loop_
 _atom_site_type_symbol
 _atom_site_label
 _atom_site_symmetry_multiplicity
 _atom_site_fract_x
 _atom_site_fract_y
 _atom_site_fract_z
 _atom_site_occupancy
  Mn  Mn0  1  0.00000000  0.00000000  0.00000000  1
  Mn  Mn1  1  0.33300000  0.66700000  0.25000000  1
  Sb  Sb2  1  0.66700000  0.33300000  0.50000000  1
  Sb  Sb3  1  0.00000000  0.00000000  0.75000000  1
  Sb  Sb4  1  0.22302771  0.89973630  0.60087378  1
  Sb  Sb5  1  0.30895694  0.29822187  0.31890543  1
  P  P6  1  0.85643089  0.07599872  0.82051424  1
  P  P7  1  0.24487805  0.10078194  0.20208607  1
  P  P8  1  0.13447386  0.96498096  0.76126910  1
  Li  Li9  1  0.50539048  0.57763036  0.62198793  1
