# generated using pymatgen
data_Li2MnSb4P3
_symmetry_space_group_name_H-M   'P 1'
_cell_length_a   5.44985023
_cell_length_b   5.76169181
_cell_length_c   7.17460851
_cell_angle_alpha   96.10980618
_cell_angle_beta   96.38066724
_cell_angle_gamma   96.83437006
_symmetry_Int_Tables_number   1
_chemical_formula_structural   Li2MnSb4P3
_chemical_formula_sum   'Li2 Mn1 Sb4 P3'
_cell_volume   220.65827107
_cell_formula_units_Z   1
loop_
 _symmetry_equiv_pos_site_id
 _symmetry_equiv_pos_as_xyz
  1  'x, y, z'
loop_
 _atom_site_type_symbol
 _atom_site_label
 _atom_site_symmetry_multiplicity
 _atom_site_fract_x
 _atom_site_fract_y
 _atom_site_fract_z
 _atom_site_occupancy
  Mn  Mn0  1  0.00000000  0.00000000  0.00000000  1
  Sb  Sb1  1  0.50000000  0.50000000  0.50000000  1
  Sb  Sb2  1  0.25000000  0.25000000  0.25000000  1
  Sb  Sb3  1  0.75000000  0.25000000  0.00000000  1
  Sb  Sb4  1  0.25000000  0.75000000  0.50000000  1
  P  P5  1  0.98874311  0.57918951  0.26948788  1
  P  P6  1  0.70390952  0.47437706  0.79579437  1
  P  P7  1  0.59689498  0.75333013  0.22952466  1
  Li  Li8  1  0.80365442  0.69085314  0.75310107  1
  Li  Li9  1  0.32169712  0.29839735  0.73519530  1
