# generated using pymatgen
data_LiSb2P3
_symmetry_space_group_name_H-M   'P 1'
_cell_length_a   5.27056441
_cell_length_b   5.59962397
_cell_length_c   6.56029390
_cell_angle_alpha   95.02951634
_cell_angle_beta   93.91550733
_cell_angle_gamma   95.48757012
_symmetry_Int_Tables_number   1
_chemical_formula_structural   LiSb2P3
_chemical_formula_sum   'Li1 Sb2 P3'
_cell_volume   191.41097744
_cell_formula_units_Z   1
loop_
 _symmetry_equiv_pos_site_id
 _symmetry_equiv_pos_as_xyz
  1  'x, y, z'
loop_
 _atom_site_type_symbol
 _atom_site_label
 _atom_site_symmetry_multiplicity
 _atom_site_fract_x
 _atom_site_fract_y
 _atom_site_fract_z
 _atom_site_occupancy
  Sb  Sb0  1  0.12500000  0.12500000  0.12500000  1
  Sb  Sb1  1  0.50000000  0.50000000  0.50000000  1
  P  P2  1  0.25000000  0.25000000  0.25000000  1
  P  P3  1  0.75000000  0.75000000  0.75000000  1
  P  P4  1  0.09669554  0.31326431  0.95487769  1
  Li  Li5  1  0.79821416  0.97960636  0.02564436  1
