# generated using pymatgen
data_Li2TiCu2(NiAs3)2
_symmetry_space_group_name_H-M   'P 1'
_cell_length_a   7.43884645
_cell_length_b   7.27284665
_cell_length_c   8.08976649
_cell_angle_alpha   91.48968093
_cell_angle_beta   91.44886086
_cell_angle_gamma   91.54254991
_symmetry_Int_Tables_number   1
_chemical_formula_structural   Li2TiCu2(NiAs3)2
_chemical_formula_sum   'Li2 Ti1 Cu2 Ni2 As6'
_cell_volume   437.21486526
_cell_formula_units_Z   1
loop_
 _symmetry_equiv_pos_site_id
 _symmetry_equiv_pos_as_xyz
  1  'x, y, z'
loop_
 _atom_site_type_symbol
 _atom_site_label
 _atom_site_symmetry_multiplicity
 _atom_site_fract_x
 _atom_site_fract_y
 _atom_site_fract_z
 _atom_site_occupancy
  Li  Li0  1  0.12500000  0.00000000  0.25000000  1
  Li  Li1  1  0.00000000  0.00000000  0.00000000  1
  Cu  Cu2  1  0.37500000  0.00000000  0.25000000  1
  Cu  Cu3  1  0.25000000  0.25000000  0.25000000  1
  Ni  Ni4  1  0.00000000  0.25000000  0.12500000  1
  Ni  Ni5  1  0.64345473  0.86307591  0.95681655  1
  Ti  Ti6  1  0.59847133  0.05845314  0.66084124  1
  As  As7  1  0.28349543  0.69854010  0.52627456  1
  As  As8  1  0.95710226  0.80302001  0.78066107  1
  As  As9  1  0.24462543  0.50753791  0.04929785  1
  As  As10  1  0.41558120  0.02570568  0.09678423  1
  As  As11  1  0.97139951  0.02446725  0.31967816  1
  As  As12  1  0.44346727  0.60949129  0.20853630  1
