# generated using pymatgen
data_Li2TiCu2I4F3
_symmetry_space_group_name_H-M   'P 1'
_cell_length_a   6.54372024
_cell_length_b   6.35557809
_cell_length_c   7.25014726
_cell_angle_alpha   95.92181752
_cell_angle_beta   97.86065894
_cell_angle_gamma   95.50545379
_symmetry_Int_Tables_number   1
_chemical_formula_structural   Li2TiCu2I4F3
_chemical_formula_sum   'Li2 Ti1 Cu2 I4 F3'
_cell_volume   295.24111538
_cell_formula_units_Z   1
loop_
 _symmetry_equiv_pos_site_id
 _symmetry_equiv_pos_as_xyz
  1  'x, y, z'
loop_
 _atom_site_type_symbol
 _atom_site_label
 _atom_site_symmetry_multiplicity
 _atom_site_fract_x
 _atom_site_fract_y
 _atom_site_fract_z
 _atom_site_occupancy
  I  I0  1  0.00000000  0.00000000  0.00000000  1
  I  I1  1  0.50000000  0.50000000  0.50000000  1
  I  I2  1  0.25000000  0.25000000  0.25000000  1
  I  I3  1  0.75000000  0.25000000  0.00000000  1
  Li  Li4  1  0.25000000  0.75000000  0.50000000  1
  Li  Li5  1  0.32944050  0.51870575  0.25068674  1
  Cu  Cu6  1  0.49493674  0.18720454  0.86295730  1
  Cu  Cu7  1  0.02427735  0.98268677  0.50910371  1
  F  F8  1  0.60772460  0.15315699  0.49277289  1
  F  F9  1  0.30857880  0.90906944  0.17203400  1
  F  F10  1  0.83985642  0.28921796  0.76013203  1
  Ti  Ti11  1  0.03377123  0.51022348  0.87683521  1
