# generated using pymatgen
data_Li3TiNi2As6O5
_symmetry_space_group_name_H-M   'P 1'
_cell_length_a   8.23671209
_cell_length_b   8.08634574
_cell_length_c   8.25096610
_cell_angle_alpha   90.92482487
_cell_angle_beta   90.58633594
_cell_angle_gamma   91.07170658
_symmetry_Int_Tables_number   1
_chemical_formula_structural   Li3TiNi2As6O5
_chemical_formula_sum   'Li3 Ti1 Ni2 As6 O5'
_cell_volume   549.35656813
_cell_formula_units_Z   1
loop_
 _symmetry_equiv_pos_site_id
 _symmetry_equiv_pos_as_xyz
  1  'x, y, z'
loop_
 _atom_site_type_symbol
 _atom_site_label
 _atom_site_symmetry_multiplicity
 _atom_site_fract_x
 _atom_site_fract_y
 _atom_site_fract_z
 _atom_site_occupancy
  Li  Li0  1  0.00000000  0.00000000  0.00000000  1
  Li  Li1  1  0.50000000  0.50000000  0.50000000  1
  Li  Li2  1  0.25000000  0.25000000  0.25000000  1
  Ni  Ni3  1  0.75000000  0.25000000  0.00000000  1
  Ni  Ni4  1  0.25000000  0.75000000  0.50000000  1
  Ti  Ti5  1  0.78702769  0.71874168  0.67080631  1
  As  As6  1  0.37598406  0.23107424  0.81552904  1
  As  As7  1  0.69885005  0.41075731  0.08041911  1
  As  As8  1  0.33733684  0.41629032  0.80163927  1
  As  As9  1  0.48941757  0.40476502  0.06712724  1
  As  As10  1  0.21508421  0.26491022  0.04731331  1
  As  As11  1  0.51473618  0.60173276  0.80288241  1
  O  O12  1  0.05504951  0.84152788  0.83871583  1
  O  O13  1  0.13626083  0.99007555  0.56348985  1
  O  O14  1  0.16500789  0.21786753  0.66437836  1
  O  O15  1  0.22808077  0.60831984  0.74009033  1
  O  O16  1  0.05636619  0.50543186  0.97428899  1
