# generated using pymatgen
data_Li3Ti(IO)4
_symmetry_space_group_name_H-M   'P 1'
_cell_length_a   6.99798793
_cell_length_b   6.88761202
_cell_length_c   7.02223729
_cell_angle_alpha   93.65083416
_cell_angle_beta   95.08157980
_cell_angle_gamma   93.35618967
_symmetry_Int_Tables_number   1
_chemical_formula_structural   Li3Ti(IO)4
_chemical_formula_sum   'Li3 Ti1 I4 O4'
_cell_volume   335.75125003
_cell_formula_units_Z   1
loop_
 _symmetry_equiv_pos_site_id
 _symmetry_equiv_pos_as_xyz
  1  'x, y, z'
loop_
 _atom_site_type_symbol
 _atom_site_label
 _atom_site_symmetry_multiplicity
 _atom_site_fract_x
 _atom_site_fract_y
 _atom_site_fract_z
 _atom_site_occupancy
  I  I0  1  0.00000000  0.00000000  0.00000000  1
  I  I1  1  0.50000000  0.50000000  0.50000000  1
  I  I2  1  0.25000000  0.25000000  0.25000000  1
  I  I3  1  0.75000000  0.25000000  0.00000000  1
  Li  Li4  1  0.25000000  0.75000000  0.50000000  1
  Li  Li5  1  0.34531725  0.75362224  0.39830848  1
  Li  Li6  1  0.47855709  0.65939993  0.67482933  1
  Ti  Ti7  1  0.76525462  0.22727380  0.87914354  1
  O  O8  1  0.81162308  0.36443140  0.04157075  1
  O  O9  1  0.91583716  0.64816028  0.76511113  1
  O  O10  1  0.41825701  0.41484344  0.23146153  1
  O  O11  1  0.69842843  0.11221269  0.63198744  1
