# generated using pymatgen
data_Li2TiAs6I4O3
_symmetry_space_group_name_H-M   'P 1'
_cell_length_a   7.65743581
_cell_length_b   7.73185256
_cell_length_c   8.11407472
_cell_angle_alpha   90.42643409
_cell_angle_beta   92.02884390
_cell_angle_gamma   90.48752803
_symmetry_Int_Tables_number   1
_chemical_formula_structural   Li2TiAs6I4O3
_chemical_formula_sum   'Li2 Ti1 As6 I4 O3'
_cell_volume   480.07029990
_cell_formula_units_Z   1
loop_
 _symmetry_equiv_pos_site_id
 _symmetry_equiv_pos_as_xyz
  1  'x, y, z'
loop_
 _atom_site_type_symbol
 _atom_site_label
 _atom_site_symmetry_multiplicity
 _atom_site_fract_x
 _atom_site_fract_y
 _atom_site_fract_z
 _atom_site_occupancy
  Ti  Ti0  1  0.12500000  0.00000000  0.25000000  1
  I  I1  1  0.00000000  0.00000000  0.00000000  1
  I  I2  1  0.37500000  0.00000000  0.25000000  1
  I  I3  1  0.25000000  0.25000000  0.25000000  1
  I  I4  1  0.00000000  0.25000000  0.12500000  1
  O  O5  1  0.35184096  0.75143118  0.31011868  1
  O  O6  1  0.06869228  0.48268747  0.99725581  1
  O  O7  1  0.60706554  0.03801227  0.19059653  1
  As  As8  1  0.72852538  0.68866366  0.63047254  1
  As  As9  1  0.08217163  0.09963489  0.50168702  1
  As  As10  1  0.08907620  0.44542857  0.27947947  1
  As  As11  1  0.43849683  0.37275861  0.01407807  1
  As  As12  1  0.73048076  0.55852199  0.94004822  1
  As  As13  1  0.82084668  0.74762570  0.06536084  1
  Li  Li14  1  0.38737753  0.38077080  0.64696113  1
  Li  Li15  1  0.53864793  0.26126931  0.80712723  1
