# generated using pymatgen
data_Li2LuNi2(As3P2)2
_symmetry_space_group_name_H-M   'P 1'
_cell_length_a   7.45036054
_cell_length_b   7.23214944
_cell_length_c   7.99006628
_cell_angle_alpha   91.77900777
_cell_angle_beta   91.68265274
_cell_angle_gamma   91.97134466
_symmetry_Int_Tables_number   1
_chemical_formula_structural   Li2LuNi2(As3P2)2
_chemical_formula_sum   'Li2 Lu1 Ni2 As6 P4'
_cell_volume   429.85991833
_cell_formula_units_Z   1
loop_
 _symmetry_equiv_pos_site_id
 _symmetry_equiv_pos_as_xyz
  1  'x, y, z'
loop_
 _atom_site_type_symbol
 _atom_site_label
 _atom_site_symmetry_multiplicity
 _atom_site_fract_x
 _atom_site_fract_y
 _atom_site_fract_z
 _atom_site_occupancy
  P  P0  1  0.12500000  0.00000000  0.25000000  1
  P  P1  1  0.00000000  0.00000000  0.00000000  1
  P  P2  1  0.37500000  0.00000000  0.25000000  1
  P  P3  1  0.25000000  0.25000000  0.25000000  1
  Lu  Lu4  1  0.00000000  0.25000000  0.12500000  1
  Li  Li5  1  0.87134447  0.30149428  0.16806292  1
  Li  Li6  1  0.42355937  0.25052970  0.87317764  1
  Ni  Ni7  1  0.06402149  0.55294108  0.09211852  1
  Ni  Ni8  1  0.59245736  0.25059649  0.20298639  1
  As  As9  1  0.66516619  0.25398841  0.69599603  1
  As  As10  1  0.50207186  0.07981883  0.48409710  1
  As  As11  1  0.77104616  0.08623729  0.96837719  1
  As  As12  1  0.19961887  0.50962698  0.35888285  1
  As  As13  1  0.74131788  0.71458946  0.44735481  1
  As  As14  1  0.32195234  0.88234823  0.19210772  1
