# generated using pymatgen
data_Li2MnMo2P3N
_symmetry_space_group_name_H-M   'P 1'
_cell_length_a   3.63805748
_cell_length_b   3.72508895
_cell_length_c   5.38732549
_cell_angle_alpha   104.32301245
_cell_angle_beta   95.14294506
_cell_angle_gamma   103.00781914
_symmetry_Int_Tables_number   1
_chemical_formula_structural   Li2MnMo2P3N
_chemical_formula_sum   'Li2 Mn1 Mo2 P3 N1'
_cell_volume   68.10334626
_cell_formula_units_Z   1
loop_
 _symmetry_equiv_pos_site_id
 _symmetry_equiv_pos_as_xyz
  1  'x, y, z'
loop_
 _atom_site_type_symbol
 _atom_site_label
 _atom_site_symmetry_multiplicity
 _atom_site_fract_x
 _atom_site_fract_y
 _atom_site_fract_z
 _atom_site_occupancy
  Mn  Mn0  1  0.00000000  0.00000000  0.00000000  1
  P  P1  1  0.50000000  0.50000000  0.50000000  1
  P  P2  1  0.50000000  0.50000000  0.00000000  1
  P  P3  1  0.50000000  0.00000000  0.50000000  1
  Mo  Mo4  1  0.00000000  0.50000000  0.50000000  1
  Mo  Mo5  1  0.63203660  0.72065993  0.79376177  1
  Li  Li6  1  0.55728382  0.21221391  0.94351271  1
  Li  Li7  1  0.14731614  0.27204890  0.77093308  1
  N  N8  1  0.78370627  0.92562480  0.18475045  1
