# generated using pymatgen
data_Li2TiP4
_symmetry_space_group_name_H-M   'P 1'
_cell_length_a   7.14387408
_cell_length_b   6.90764325
_cell_length_c   7.64062126
_cell_angle_alpha   91.81944811
_cell_angle_beta   92.43062036
_cell_angle_gamma   91.61579403
_symmetry_Int_Tables_number   1
_chemical_formula_structural   Li2TiP4
_chemical_formula_sum   'Li2 Ti1 P4'
_cell_volume   376.35032802
_cell_formula_units_Z   1
loop_
 _symmetry_equiv_pos_site_id
 _symmetry_equiv_pos_as_xyz
  1  'x, y, z'
loop_
 _atom_site_type_symbol
 _atom_site_label
 _atom_site_symmetry_multiplicity
 _atom_site_fract_x
 _atom_site_fract_y
 _atom_site_fract_z
 _atom_site_occupancy
  P  P0  1  0.00000000  0.00000000  0.00000000  1
  P  P1  1  0.50000000  0.50000000  0.50000000  1
  P  P2  1  0.50000000  0.50000000  0.00000000  1
  P  P3  1  0.50000000  0.00000000  0.50000000  1
  Li  Li4  1  0.00000000  0.50000000  0.50000000  1
  Li  Li5  1  0.27448647  0.71582735  0.79271415  1
  Ti  Ti6  1  0.46450264  0.62363962  0.83742724  1
