# generated using pymatgen
data_Li3TiSe(OF)3
_symmetry_space_group_name_H-M   'P 1'
_cell_length_a   6.06510096
_cell_length_b   5.80149064
_cell_length_c   6.97088994
_cell_angle_alpha   99.42199222
_cell_angle_beta   102.67253379
_cell_angle_gamma   98.86768560
_symmetry_Int_Tables_number   1
_chemical_formula_structural   Li3TiSe(OF)3
_chemical_formula_sum   'Li3 Ti1 Se1 O3 F3'
_cell_volume   231.42965600
_cell_formula_units_Z   1
loop_
 _symmetry_equiv_pos_site_id
 _symmetry_equiv_pos_as_xyz
  1  'x, y, z'
loop_
 _atom_site_type_symbol
 _atom_site_label
 _atom_site_symmetry_multiplicity
 _atom_site_fract_x
 _atom_site_fract_y
 _atom_site_fract_z
 _atom_site_occupancy
  Li  Li0  1  0.00000000  0.00000000  0.00000000  1
  Li  Li1  1  0.50000000  0.50000000  0.50000000  1
  Li  Li2  1  0.25000000  0.25000000  0.25000000  1
  F  F3  1  0.75000000  0.25000000  0.00000000  1
  F  F4  1  0.25000000  0.75000000  0.50000000  1
  F  F5  1  0.81680425  0.22686133  0.60368927  1
  Se  Se6  1  0.35147347  0.59525661  0.15822016  1
  Ti  Ti7  1  0.08408881  0.38404787  0.28166492  1
  O  O8  1  0.40554659  0.94461838  0.98138790  1
  O  O9  1  0.93350312  0.45776114  0.21747721  1
  O  O10  1  0.42293484  0.27953870  0.33738509  1
