# generated using pymatgen
data_Li3TiI4(OF)3
_symmetry_space_group_name_H-M   'P 1'
_cell_length_a   6.87293432
_cell_length_b   6.63305148
_cell_length_c   7.08727833
_cell_angle_alpha   96.76660202
_cell_angle_beta   98.97939330
_cell_angle_gamma   96.36131080
_symmetry_Int_Tables_number   1
_chemical_formula_structural   Li3TiI4(OF)3
_chemical_formula_sum   'Li3 Ti1 I4 O3 F3'
_cell_volume   314.15504596
_cell_formula_units_Z   1
loop_
 _symmetry_equiv_pos_site_id
 _symmetry_equiv_pos_as_xyz
  1  'x, y, z'
loop_
 _atom_site_type_symbol
 _atom_site_label
 _atom_site_symmetry_multiplicity
 _atom_site_fract_x
 _atom_site_fract_y
 _atom_site_fract_z
 _atom_site_occupancy
  I  I0  1  0.00000000  0.00000000  0.00000000  1
  I  I1  1  0.50000000  0.50000000  0.50000000  1
  I  I2  1  0.25000000  0.25000000  0.25000000  1
  I  I3  1  0.75000000  0.25000000  0.00000000  1
  Li  Li4  1  0.25000000  0.75000000  0.50000000  1
  Li  Li5  1  0.52509612  0.33128962  0.38594349  1
  Li  Li6  1  0.39655048  0.58684404  0.76038393  1
  F  F7  1  0.36700244  0.33523521  0.52383447  1
  F  F8  1  0.23209485  0.65594485  0.31259416  1
  F  F9  1  0.96063809  0.35318601  0.61137415  1
  Ti  Ti10  1  0.01147970  0.72834677  0.98907645  1
  O  O11  1  0.11557426  0.19845024  0.79931788  1
  O  O12  1  0.22746538  0.07646084  0.09642432  1
  O  O13  1  0.18741857  0.37834792  0.18380764  1
