# generated using pymatgen
data_Li2TiSeCl2F3
_symmetry_space_group_name_H-M   'P 1'
_cell_length_a   7.20323933
_cell_length_b   6.92011392
_cell_length_c   7.08735141
_cell_angle_alpha   95.38248577
_cell_angle_beta   97.31078177
_cell_angle_gamma   95.08891054
_symmetry_Int_Tables_number   1
_chemical_formula_structural   Li2TiSeCl2F3
_chemical_formula_sum   'Li2 Ti1 Se1 Cl2 F3'
_cell_volume   347.05135588
_cell_formula_units_Z   1
loop_
 _symmetry_equiv_pos_site_id
 _symmetry_equiv_pos_as_xyz
  1  'x, y, z'
loop_
 _atom_site_type_symbol
 _atom_site_label
 _atom_site_symmetry_multiplicity
 _atom_site_fract_x
 _atom_site_fract_y
 _atom_site_fract_z
 _atom_site_occupancy
  Li  Li0  1  0.00000000  0.00000000  0.00000000  1
  Li  Li1  1  0.50000000  0.50000000  0.50000000  1
  F  F2  1  0.50000000  0.50000000  0.00000000  1
  F  F3  1  0.50000000  0.00000000  0.50000000  1
  F  F4  1  0.00000000  0.50000000  0.50000000  1
  Se  Se5  1  0.61032752  0.67035169  0.58802652  1
  Cl  Cl6  1  0.50838466  0.80249017  0.52102070  1
  Cl  Cl7  1  0.29804809  0.72753100  0.40616157  1
  Ti  Ti8  1  0.02938791  0.74445316  0.33345644  1
