# generated using pymatgen
data_Li2Sb2P3
_symmetry_space_group_name_H-M   'P 1'
_cell_length_a   4.86870978
_cell_length_b   5.08553142
_cell_length_c   5.95517938
_cell_angle_alpha   101.52614844
_cell_angle_beta   90.12803246
_cell_angle_gamma   101.08944805
_symmetry_Int_Tables_number   1
_chemical_formula_structural   Li2Sb2P3
_chemical_formula_sum   'Li2 Sb2 P3'
_cell_volume   141.65205252
_cell_formula_units_Z   1
loop_
 _symmetry_equiv_pos_site_id
 _symmetry_equiv_pos_as_xyz
  1  'x, y, z'
loop_
 _atom_site_type_symbol
 _atom_site_label
 _atom_site_symmetry_multiplicity
 _atom_site_fract_x
 _atom_site_fract_y
 _atom_site_fract_z
 _atom_site_occupancy
  Sb  Sb0  1  0.12500000  0.12500000  0.12500000  1
  Sb  Sb1  1  0.50000000  0.50000000  0.50000000  1
  P  P2  1  0.25000000  0.25000000  0.25000000  1
  P  P3  1  0.75000000  0.75000000  0.75000000  1
  P  P4  1  0.20274042  0.11456487  0.58681101  1
  Li  Li5  1  0.54724884  0.24407170  0.06330862  1
  Li  Li6  1  0.48175150  0.12338685  0.10445746  1
