# generated using pymatgen
data_Li3LuCu2(PN)5
_symmetry_space_group_name_H-M   'P 1'
_cell_length_a   7.35012949
_cell_length_b   7.15755788
_cell_length_c   8.37845375
_cell_angle_alpha   93.57132867
_cell_angle_beta   93.13025394
_cell_angle_gamma   93.77445763
_symmetry_Int_Tables_number   1
_chemical_formula_structural   Li3LuCu2(PN)5
_chemical_formula_sum   'Li3 Lu1 Cu2 P5 N5'
_cell_volume   438.20829178
_cell_formula_units_Z   1
loop_
 _symmetry_equiv_pos_site_id
 _symmetry_equiv_pos_as_xyz
  1  'x, y, z'
loop_
 _atom_site_type_symbol
 _atom_site_label
 _atom_site_symmetry_multiplicity
 _atom_site_fract_x
 _atom_site_fract_y
 _atom_site_fract_z
 _atom_site_occupancy
  P  P0  1  0.00000000  0.00000000  0.00000000  1
  P  P1  1  0.50000000  0.50000000  0.50000000  1
  P  P2  1  0.25000000  0.25000000  0.25000000  1
  P  P3  1  0.75000000  0.25000000  0.00000000  1
  P  P4  1  0.25000000  0.75000000  0.50000000  1
  Lu  Lu5  1  0.31020093  0.86740325  0.56956738  1
  Li  Li6  1  0.94391091  0.15708353  0.09485110  1
  Li  Li7  1  0.39903943  0.04551325  0.68618584  1
  Li  Li8  1  0.66972419  0.43808854  0.55650490  1
  Cu  Cu9  1  0.31660077  0.57659515  0.28489376  1
  Cu  Cu10  1  0.46073692  0.77130895  0.92189686  1
  N  N11  1  0.46007819  0.15772339  0.20747347  1
  N  N12  1  0.48277068  0.22533416  0.07037302  1
  N  N13  1  0.98047997  0.10973023  0.01934611  1
  N  N14  1  0.45753178  0.39819911  0.75077756  1
  N  N15  1  0.05491028  0.08552224  0.93915274  1
