# generated using pymatgen
data_Li2LuCu2(As3P2)2
_symmetry_space_group_name_H-M   'P 1'
_cell_length_a   7.53087702
_cell_length_b   7.34420705
_cell_length_c   8.38606690
_cell_angle_alpha   91.91999023
_cell_angle_beta   91.62099981
_cell_angle_gamma   92.17927602
_symmetry_Int_Tables_number   1
_chemical_formula_structural   Li2LuCu2(As3P2)2
_chemical_formula_sum   'Li2 Lu1 Cu2 As6 P4'
_cell_volume   463.02062868
_cell_formula_units_Z   1
loop_
 _symmetry_equiv_pos_site_id
 _symmetry_equiv_pos_as_xyz
  1  'x, y, z'
loop_
 _atom_site_type_symbol
 _atom_site_label
 _atom_site_symmetry_multiplicity
 _atom_site_fract_x
 _atom_site_fract_y
 _atom_site_fract_z
 _atom_site_occupancy
  P  P0  1  0.12500000  0.00000000  0.25000000  1
  P  P1  1  0.00000000  0.00000000  0.00000000  1
  P  P2  1  0.37500000  0.00000000  0.25000000  1
  P  P3  1  0.25000000  0.25000000  0.25000000  1
  Lu  Lu4  1  0.00000000  0.25000000  0.12500000  1
  Li  Li5  1  0.48773208  0.42992099  0.64871964  1
  Li  Li6  1  0.04887961  0.08081848  0.47325918  1
  Cu  Cu7  1  0.43202242  0.65651325  0.85736180  1
  Cu  Cu8  1  0.99778350  0.22163933  0.91389206  1
  As  As9  1  0.14965134  0.12873562  0.00415721  1
  As  As10  1  0.55506812  0.17860521  0.71747698  1
  As  As11  1  0.47921294  0.39828909  0.64291679  1
  As  As12  1  0.57064227  0.30804255  0.77192380  1
  As  As13  1  0.76328228  0.57786350  0.39320226  1
  As  As14  1  0.66573559  0.09978651  0.03570649  1
