# generated using pymatgen
data_Li2Cu2I4N5
_symmetry_space_group_name_H-M   'P 1'
_cell_length_a   7.79017572
_cell_length_b   7.76243856
_cell_length_c   8.25908038
_cell_angle_alpha   91.15148759
_cell_angle_beta   91.48718681
_cell_angle_gamma   91.33151226
_symmetry_Int_Tables_number   1
_chemical_formula_structural   Li2Cu2I4N5
_chemical_formula_sum   'Li2 Cu2 I4 N5'
_cell_volume   499.02276104
_cell_formula_units_Z   1
loop_
 _symmetry_equiv_pos_site_id
 _symmetry_equiv_pos_as_xyz
  1  'x, y, z'
loop_
 _atom_site_type_symbol
 _atom_site_label
 _atom_site_symmetry_multiplicity
 _atom_site_fract_x
 _atom_site_fract_y
 _atom_site_fract_z
 _atom_site_occupancy
  I  I0  1  0.00000000  0.00000000  0.00000000  1
  I  I1  1  0.50000000  0.50000000  0.50000000  1
  I  I2  1  0.50000000  0.50000000  0.00000000  1
  I  I3  1  0.50000000  0.00000000  0.50000000  1
  Li  Li4  1  0.00000000  0.50000000  0.50000000  1
  Li  Li5  1  0.87338829  0.71618760  0.65013823  1
  N  N6  1  0.57983729  0.47655048  0.97887207  1
  N  N7  1  0.54051313  0.97886847  0.76467577  1
  N  N8  1  0.19117244  0.23924777  0.76858409  1
  N  N9  1  0.03354103  0.21674267  0.87184967  1
  N  N10  1  0.25428204  0.84846841  0.15209447  1
  Cu  Cu11  1  0.18593124  0.79021717  0.12737440  1
  Cu  Cu12  1  0.27679154  0.77758402  0.29681123  1
