# generated using pymatgen
data_Li5(TiS)2
_symmetry_space_group_name_H-M   'P 1'
_cell_length_a   5.34559980
_cell_length_b   4.85820409
_cell_length_c   6.78305696
_cell_angle_alpha   98.48659992
_cell_angle_beta   99.30158097
_cell_angle_gamma   97.63459635
_symmetry_Int_Tables_number   1
_chemical_formula_structural   Li5(TiS)2
_chemical_formula_sum   'Li5 Ti2 S2'
_cell_volume   169.70586031
_cell_formula_units_Z   1
loop_
 _symmetry_equiv_pos_site_id
 _symmetry_equiv_pos_as_xyz
  1  'x, y, z'
loop_
 _atom_site_type_symbol
 _atom_site_label
 _atom_site_symmetry_multiplicity
 _atom_site_fract_x
 _atom_site_fract_y
 _atom_site_fract_z
 _atom_site_occupancy
  S  S0  1  0.12500000  0.00000000  0.25000000  1
  S  S1  1  0.00000000  0.00000000  0.00000000  1
  Ti  Ti2  1  0.37500000  0.00000000  0.25000000  1
  Ti  Ti3  1  0.25000000  0.25000000  0.25000000  1
  Li  Li4  1  0.00000000  0.25000000  0.12500000  1
  Li  Li5  1  0.16091026  0.29866229  0.63629076  1
  Li  Li6  1  0.22494865  0.54610807  0.79440478  1
  Li  Li7  1  0.44655277  0.31387223  0.01601978  1
  Li  Li8  1  0.18715087  0.16635572  0.23602652  1
