# generated using pymatgen
data_Li3LuAs6(P2O)3
_symmetry_space_group_name_H-M   'P 1'
_cell_length_a   7.33487910
_cell_length_b   7.20729792
_cell_length_c   8.14165549
_cell_angle_alpha   92.58899285
_cell_angle_beta   93.47785566
_cell_angle_gamma   92.58876228
_symmetry_Int_Tables_number   1
_chemical_formula_structural   Li3LuAs6(P2O)3
_chemical_formula_sum   'Li3 Lu1 As6 P6 O3'
_cell_volume   428.67903284
_cell_formula_units_Z   1
loop_
 _symmetry_equiv_pos_site_id
 _symmetry_equiv_pos_as_xyz
  1  'x, y, z'
loop_
 _atom_site_type_symbol
 _atom_site_label
 _atom_site_symmetry_multiplicity
 _atom_site_fract_x
 _atom_site_fract_y
 _atom_site_fract_z
 _atom_site_occupancy
  P  P0  1  0.00000000  0.00000000  0.00000000  1
  P  P1  1  0.50000000  0.50000000  0.50000000  1
  P  P2  1  0.50000000  0.50000000  0.00000000  1
  P  P3  1  0.50000000  0.00000000  0.50000000  1
  P  P4  1  0.00000000  0.50000000  0.50000000  1
  P  P5  1  0.40632832  0.38987272  0.00555289  1
  Lu  Lu6  1  0.35483446  0.12310012  0.89147934  1
  Li  Li7  1  0.70435708  0.77880987  0.14394522  1
  Li  Li8  1  0.81472133  0.82470179  0.50054469  1
  Li  Li9  1  0.83615683  0.40753869  0.38620654  1
  As  As10  1  0.64289194  0.46110013  0.92500086  1
  As  As11  1  0.02755354  0.27312107  0.22361666  1
  As  As12  1  0.55365855  0.36314727  0.00838914  1
  As  As13  1  0.19531603  0.92885369  0.22517078  1
  As  As14  1  0.17636717  0.46631647  0.06830104  1
  As  As15  1  0.24639905  0.91521482  0.59822361  1
  O  O16  1  0.40318651  0.07861311  0.87069856  1
  O  O17  1  0.42730290  0.31066923  0.60012796  1
  O  O18  1  0.68002025  0.15508039  0.67600327  1
