# generated using pymatgen
data_Li2TiCu2(OF)2
_symmetry_space_group_name_H-M   'P 1'
_cell_length_a   6.50543653
_cell_length_b   6.97579706
_cell_length_c   7.07939377
_cell_angle_alpha   93.53042408
_cell_angle_beta   95.60799371
_cell_angle_gamma   93.79755397
_symmetry_Int_Tables_number   1
_chemical_formula_structural   Li2TiCu2(OF)2
_chemical_formula_sum   'Li2 Ti1 Cu2 O2 F2'
_cell_volume   318.27750130
_cell_formula_units_Z   1
loop_
 _symmetry_equiv_pos_site_id
 _symmetry_equiv_pos_as_xyz
  1  'x, y, z'
loop_
 _atom_site_type_symbol
 _atom_site_label
 _atom_site_symmetry_multiplicity
 _atom_site_fract_x
 _atom_site_fract_y
 _atom_site_fract_z
 _atom_site_occupancy
  Li  Li0  1  0.00000000  0.00000000  0.00000000  1
  Li  Li1  1  0.50000000  0.50000000  0.50000000  1
  Cu  Cu2  1  0.50000000  0.50000000  0.00000000  1
  Cu  Cu3  1  0.50000000  0.00000000  0.50000000  1
  F  F4  1  0.00000000  0.50000000  0.50000000  1
  F  F5  1  0.08331953  0.27714223  0.73869283  1
  Ti  Ti6  1  0.85985271  0.12260434  0.34895680  1
  O  O7  1  0.38975975  0.91553702  0.94748559  1
  O  O8  1  0.36955399  0.86164419  0.12577284  1
