# generated using pymatgen
data_Li2Ni2I4F3
_symmetry_space_group_name_H-M   'P 1'
_cell_length_a   7.86950839
_cell_length_b   7.68998328
_cell_length_c   7.86082871
_cell_angle_alpha   90.85083264
_cell_angle_beta   91.41602322
_cell_angle_gamma   90.98265640
_symmetry_Int_Tables_number   1
_chemical_formula_structural   Li2Ni2I4F3
_chemical_formula_sum   'Li2 Ni2 I4 F3'
_cell_volume   475.43823491
_cell_formula_units_Z   1
loop_
 _symmetry_equiv_pos_site_id
 _symmetry_equiv_pos_as_xyz
  1  'x, y, z'
loop_
 _atom_site_type_symbol
 _atom_site_label
 _atom_site_symmetry_multiplicity
 _atom_site_fract_x
 _atom_site_fract_y
 _atom_site_fract_z
 _atom_site_occupancy
  I  I0  1  0.12500000  0.00000000  0.25000000  1
  I  I1  1  0.00000000  0.00000000  0.00000000  1
  I  I2  1  0.37500000  0.00000000  0.25000000  1
  I  I3  1  0.25000000  0.25000000  0.25000000  1
  Li  Li4  1  0.00000000  0.25000000  0.12500000  1
  Li  Li5  1  0.36013700  0.67532458  0.62125700  1
  F  F6  1  0.82414918  0.39338950  0.32603967  1
  F  F7  1  0.90857960  0.46319742  0.94897261  1
  F  F8  1  0.59677994  0.53739326  0.52661738  1
  Ni  Ni9  1  0.86054451  0.56758922  0.41587133  1
  Ni  Ni10  1  0.05041600  0.48755329  0.98856092  1
