# generated using pymatgen
data_Li2Cu2As6P8O3
_symmetry_space_group_name_H-M   'P 1'
_cell_length_a   7.38041093
_cell_length_b   7.48810254
_cell_length_c   8.41022475
_cell_angle_alpha   91.79973518
_cell_angle_beta   93.72307557
_cell_angle_gamma   91.75993016
_symmetry_Int_Tables_number   1
_chemical_formula_structural   Li2Cu2As6P8O3
_chemical_formula_sum   'Li2 Cu2 As6 P8 O3'
_cell_volume   463.33365896
_cell_formula_units_Z   1
loop_
 _symmetry_equiv_pos_site_id
 _symmetry_equiv_pos_as_xyz
  1  'x, y, z'
loop_
 _atom_site_type_symbol
 _atom_site_label
 _atom_site_symmetry_multiplicity
 _atom_site_fract_x
 _atom_site_fract_y
 _atom_site_fract_z
 _atom_site_occupancy
  O  O0  1  0.00000000  0.00000000  0.00000000  1
  O  O1  1  0.50000000  0.50000000  0.50000000  1
  O  O2  1  0.25000000  0.25000000  0.25000000  1
  P  P3  1  0.75000000  0.25000000  0.00000000  1
  P  P4  1  0.25000000  0.75000000  0.50000000  1
  P  P5  1  0.76542752  0.36569168  0.15269600  1
  P  P6  1  0.16917460  0.98025342  0.85915442  1
  P  P7  1  0.99132455  0.30418421  0.93601034  1
  P  P8  1  0.88674194  0.44961346  0.52320386  1
  P  P9  1  0.16323567  0.51756442  0.13539208  1
  P  P10  1  0.65865749  0.03289596  0.22038776  1
  As  As11  1  0.42480005  0.61573110  0.94171098  1
  As  As12  1  0.03979758  0.18714614  0.85519148  1
  As  As13  1  0.14247668  0.90041931  0.02673886  1
  As  As14  1  0.23412230  0.09360655  0.81750514  1
  As  As15  1  0.39640270  0.77953692  0.30669967  1
  As  As16  1  0.61427374  0.04924293  0.94281787  1
  Li  Li17  1  0.67577160  0.68990354  0.33744802  1
  Li  Li18  1  0.90096041  0.13122427  0.57528481  1
  Cu  Cu19  1  0.28990679  0.01751168  0.40028940  1
  Cu  Cu20  1  0.71552269  0.12914358  0.93418340  1
