# generated using pymatgen
data_Li3Ti2(CuP3)2
_symmetry_space_group_name_H-M   'P 1'
_cell_length_a   7.48830541
_cell_length_b   7.30449598
_cell_length_c   8.48078902
_cell_angle_alpha   93.07090254
_cell_angle_beta   93.45021717
_cell_angle_gamma   93.16798833
_symmetry_Int_Tables_number   1
_chemical_formula_structural   Li3Ti2(CuP3)2
_chemical_formula_sum   'Li3 Ti2 Cu2 P6'
_cell_volume   461.58227889
_cell_formula_units_Z   1
loop_
 _symmetry_equiv_pos_site_id
 _symmetry_equiv_pos_as_xyz
  1  'x, y, z'
loop_
 _atom_site_type_symbol
 _atom_site_label
 _atom_site_symmetry_multiplicity
 _atom_site_fract_x
 _atom_site_fract_y
 _atom_site_fract_z
 _atom_site_occupancy
  P  P0  1  0.12500000  0.00000000  0.25000000  1
  P  P1  1  0.00000000  0.00000000  0.00000000  1
  P  P2  1  0.37500000  0.00000000  0.25000000  1
  P  P3  1  0.25000000  0.25000000  0.25000000  1
  P  P4  1  0.00000000  0.25000000  0.12500000  1
  P  P5  1  0.81220449  0.54647946  0.35708320  1
  Li  Li6  1  0.46292130  0.70648283  0.79046666  1
  Li  Li7  1  0.52073341  0.02626297  0.68666584  1
  Li  Li8  1  0.56398508  0.63136343  0.49691453  1
  Cu  Cu9  1  0.12921568  0.34327903  0.60054574  1
  Cu  Cu10  1  0.19386894  0.43071720  0.73604694  1
  Ti  Ti11  1  0.23382382  0.75806961  0.99352659  1
  Ti  Ti12  1  0.64277785  0.82253328  0.39970907  1
