# generated using pymatgen
data_Li3LuCu2(PN)5
_symmetry_space_group_name_H-M   'P 1'
_cell_length_a   7.35012949
_cell_length_b   7.15755788
_cell_length_c   8.37845375
_cell_angle_alpha   93.57132867
_cell_angle_beta   93.13025394
_cell_angle_gamma   93.77445763
_symmetry_Int_Tables_number   1
_chemical_formula_structural   Li3LuCu2(PN)5
_chemical_formula_sum   'Li3 Lu1 Cu2 P5 N5'
_cell_volume   438.20829178
_cell_formula_units_Z   1
loop_
 _symmetry_equiv_pos_site_id
 _symmetry_equiv_pos_as_xyz
  1  'x, y, z'
loop_
 _atom_site_type_symbol
 _atom_site_label
 _atom_site_symmetry_multiplicity
 _atom_site_fract_x
 _atom_site_fract_y
 _atom_site_fract_z
 _atom_site_occupancy
  P  P0  1  0.00000000  0.00000000  0.00000000  1
  P  P1  1  0.50000000  0.50000000  0.50000000  1
  P  P2  1  0.25000000  0.25000000  0.25000000  1
  P  P3  1  0.75000000  0.25000000  0.00000000  1
  P  P4  1  0.25000000  0.75000000  0.50000000  1
  Lu  Lu5  1  0.39535052  0.93072630  0.08535661  1
  Li  Li6  1  0.95102969  0.13718561  0.94402768  1
  Li  Li7  1  0.87638494  0.13245206  0.91148967  1
  Li  Li8  1  0.80814745  0.18634290  0.89444161  1
  Cu  Cu9  1  0.03045862  0.60781169  0.21786420  1
  Cu  Cu10  1  0.72588623  0.05028929  0.38708486  1
  N  N11  1  0.75831071  0.23950474  0.34977523  1
  N  N12  1  0.71868564  0.12982564  0.26940128  1
  N  N13  1  0.46172657  0.39971216  0.80422210  1
  N  N14  1  0.02604057  0.74905930  0.42128587  1
  N  N15  1  0.78432250  0.42388505  0.45227833  1
