# generated using pymatgen
data_Li3TiI4
_symmetry_space_group_name_H-M   'P 1'
_cell_length_a   7.17563607
_cell_length_b   6.92419364
_cell_length_c   7.69083479
_cell_angle_alpha   94.16217407
_cell_angle_beta   93.99617808
_cell_angle_gamma   93.99973358
_symmetry_Int_Tables_number   1
_chemical_formula_structural   Li3TiI4
_chemical_formula_sum   'Li3 Ti1 I4'
_cell_volume   379.11226739
_cell_formula_units_Z   1
loop_
 _symmetry_equiv_pos_site_id
 _symmetry_equiv_pos_as_xyz
  1  'x, y, z'
loop_
 _atom_site_type_symbol
 _atom_site_label
 _atom_site_symmetry_multiplicity
 _atom_site_fract_x
 _atom_site_fract_y
 _atom_site_fract_z
 _atom_site_occupancy
  I  I0  1  0.00000000  0.00000000  0.00000000  1
  I  I1  1  0.50000000  0.50000000  0.50000000  1
  I  I2  1  0.25000000  0.25000000  0.25000000  1
  I  I3  1  0.75000000  0.25000000  0.00000000  1
  Li  Li4  1  0.25000000  0.75000000  0.50000000  1
  Li  Li5  1  0.36780701  0.48509782  0.02466367  1
  Li  Li6  1  0.58875524  0.30466314  0.63353354  1
  Ti  Ti7  1  0.28235128  0.91996561  0.86093727  1
