# generated using pymatgen
data_Li3Ni2As6I4O5
_symmetry_space_group_name_H-M   'P 1'
_cell_length_a   8.07948170
_cell_length_b   8.16523364
_cell_length_c   8.33985405
_cell_angle_alpha   90.99217044
_cell_angle_beta   90.62903281
_cell_angle_gamma   91.14974804
_symmetry_Int_Tables_number   1
_chemical_formula_structural   Li3Ni2As6I4O5
_chemical_formula_sum   'Li3 Ni2 As6 I4 O5'
_cell_volume   549.95876337
_cell_formula_units_Z   1
loop_
 _symmetry_equiv_pos_site_id
 _symmetry_equiv_pos_as_xyz
  1  'x, y, z'
loop_
 _atom_site_type_symbol
 _atom_site_label
 _atom_site_symmetry_multiplicity
 _atom_site_fract_x
 _atom_site_fract_y
 _atom_site_fract_z
 _atom_site_occupancy
  I  I0  1  0.00000000  0.00000000  0.00000000  1
  I  I1  1  0.50000000  0.50000000  0.50000000  1
  I  I2  1  0.25000000  0.25000000  0.25000000  1
  I  I3  1  0.75000000  0.25000000  0.00000000  1
  Li  Li4  1  0.25000000  0.75000000  0.50000000  1
  Li  Li5  1  0.51083259  0.06568979  0.12073557  1
  Li  Li6  1  0.56821921  0.56373167  0.78410300  1
  Ni  Ni7  1  0.73358152  0.47194365  0.01068867  1
  Ni  Ni8  1  0.70843932  0.01331237  0.21462265  1
  As  As9  1  0.36728428  0.18443306  0.04365780  1
  As  As10  1  0.56162628  0.29747330  0.98445658  1
  As  As11  1  0.39320309  0.93516008  0.22594794  1
  As  As12  1  0.48849448  0.01435823  0.17478323  1
  As  As13  1  0.84198798  0.47018639  0.43056804  1
  As  As14  1  0.75463956  0.60052191  0.32518506  1
  O  O15  1  0.01268818  0.50748884  0.48052866  1
  O  O16  1  0.22338562  0.71930088  0.02604555  1
  O  O17  1  0.25199190  0.78977075  0.51174625  1
  O  O18  1  0.82403596  0.82928887  0.21277489  1
  O  O19  1  0.29055739  0.74105426  0.28010382  1
