# generated using pymatgen
data_Li3O5
_symmetry_space_group_name_H-M   'P 1'
_cell_length_a   6.94775612
_cell_length_b   6.74130201
_cell_length_c   8.08553511
_cell_angle_alpha   95.36363278
_cell_angle_beta   96.50595567
_cell_angle_gamma   95.23541779
_symmetry_Int_Tables_number   1
_chemical_formula_structural   Li3O5
_chemical_formula_sum   'Li3 O5'
_cell_volume   372.62477934
_cell_formula_units_Z   1
loop_
 _symmetry_equiv_pos_site_id
 _symmetry_equiv_pos_as_xyz
  1  'x, y, z'
loop_
 _atom_site_type_symbol
 _atom_site_label
 _atom_site_symmetry_multiplicity
 _atom_site_fract_x
 _atom_site_fract_y
 _atom_site_fract_z
 _atom_site_occupancy
  Li  Li0  1  0.00000000  0.00000000  0.00000000  1
  Li  Li1  1  0.33300000  0.66700000  0.25000000  1
  Li  Li2  1  0.66700000  0.33300000  0.50000000  1
  O  O3  1  0.00000000  0.00000000  0.75000000  1
  O  O4  1  0.99839904  0.07851965  0.73832356  1
  O  O5  1  0.37914640  0.23161415  0.69761552  1
  O  O6  1  0.49939069  0.17790887  0.64972497  1
  O  O7  1  0.31125688  0.56204992  0.03522037  1
