# generated using pymatgen
data_Li2Mn3Sb4P3
_symmetry_space_group_name_H-M   'P 1'
_cell_length_a   5.92959400
_cell_length_b   6.35264306
_cell_length_c   6.69608639
_cell_angle_alpha   97.76711176
_cell_angle_beta   90.38801976
_cell_angle_gamma   97.61262387
_symmetry_Int_Tables_number   1
_chemical_formula_structural   Li2Mn3Sb4P3
_chemical_formula_sum   'Li2 Mn3 Sb4 P3'
_cell_volume   247.63718914
_cell_formula_units_Z   1
loop_
 _symmetry_equiv_pos_site_id
 _symmetry_equiv_pos_as_xyz
  1  'x, y, z'
loop_
 _atom_site_type_symbol
 _atom_site_label
 _atom_site_symmetry_multiplicity
 _atom_site_fract_x
 _atom_site_fract_y
 _atom_site_fract_z
 _atom_site_occupancy
  Mn  Mn0  1  0.00000000  0.00000000  0.00000000  1
  Mn  Mn1  1  0.50000000  0.50000000  0.50000000  1
  Mn  Mn2  1  0.50000000  0.50000000  0.00000000  1
  Sb  Sb3  1  0.50000000  0.00000000  0.50000000  1
  Sb  Sb4  1  0.00000000  0.50000000  0.50000000  1
  Sb  Sb5  1  0.44683661  0.68392799  0.17460331  1
  Sb  Sb6  1  0.72494978  0.43482740  0.26166093  1
  P  P7  1  0.72840260  0.92361455  0.74146730  1
  P  P8  1  0.95117367  0.70900825  0.00563535  1
  P  P9  1  0.87769418  0.83761515  0.01415693  1
  Li  Li10  1  0.34240223  0.46807062  0.46667893  1
  Li  Li11  1  0.71080919  0.04142219  0.20598261  1
