# generated using pymatgen
data_Li2TiI4(NF)3
_symmetry_space_group_name_H-M   'P 1'
_cell_length_a   7.88218482
_cell_length_b   7.62382925
_cell_length_c   8.01895697
_cell_angle_alpha   91.36619258
_cell_angle_beta   91.30841314
_cell_angle_gamma   91.58150468
_symmetry_Int_Tables_number   1
_chemical_formula_structural   Li2TiI4(NF)3
_chemical_formula_sum   'Li2 Ti1 I4 N3 F3'
_cell_volume   481.42505331
_cell_formula_units_Z   1
loop_
 _symmetry_equiv_pos_site_id
 _symmetry_equiv_pos_as_xyz
  1  'x, y, z'
loop_
 _atom_site_type_symbol
 _atom_site_label
 _atom_site_symmetry_multiplicity
 _atom_site_fract_x
 _atom_site_fract_y
 _atom_site_fract_z
 _atom_site_occupancy
  I  I0  1  0.12500000  0.00000000  0.25000000  1
  I  I1  1  0.00000000  0.00000000  0.00000000  1
  I  I2  1  0.37500000  0.00000000  0.25000000  1
  I  I3  1  0.25000000  0.25000000  0.25000000  1
  Li  Li4  1  0.00000000  0.25000000  0.12500000  1
  Li  Li5  1  0.34846691  0.24063349  0.32911864  1
  F  F6  1  0.41132422  0.73348245  0.42172625  1
  F  F7  1  0.68590049  0.52743825  0.71270207  1
  F  F8  1  0.99892816  0.55595883  0.34352787  1
  Ti  Ti9  1  0.66629121  0.32573232  0.22297422  1
  N  N10  1  0.52333904  0.35665516  0.00567516  1
  N  N11  1  0.87409841  0.80200754  0.95691105  1
  N  N12  1  0.62791083  0.38241083  0.68908085  1
