# generated using pymatgen
data_LiCuNiAs3
_symmetry_space_group_name_H-M   'P 1'
_cell_length_a   7.66418238
_cell_length_b   7.56499143
_cell_length_c   8.83579108
_cell_angle_alpha   91.16216138
_cell_angle_beta   91.66473867
_cell_angle_gamma   91.33752432
_symmetry_Int_Tables_number   1
_chemical_formula_structural   LiCuNiAs3
_chemical_formula_sum   'Li2 Cu2 Ni2 As6'
_cell_volume   511.82614726
_cell_formula_units_Z   2
loop_
 _symmetry_equiv_pos_site_id
 _symmetry_equiv_pos_as_xyz
  1  'x, y, z'
loop_
 _atom_site_type_symbol
 _atom_site_label
 _atom_site_symmetry_multiplicity
 _atom_site_fract_x
 _atom_site_fract_y
 _atom_site_fract_z
 _atom_site_occupancy
  Li  Li0  1  0.00000000  0.00000000  0.00000000  1
  Li  Li1  1  0.50000000  0.50000000  0.50000000  1
  Cu  Cu2  1  0.25000000  0.25000000  0.25000000  1
  Cu  Cu3  1  0.75000000  0.25000000  0.00000000  1
  Ni  Ni4  1  0.25000000  0.75000000  0.50000000  1
  Ni  Ni5  1  0.82699074  0.51249974  0.05788473  1
  As  As6  1  0.06210961  0.53726092  0.77305875  1
  As  As7  1  0.31917413  0.94475016  0.54490404  1
  As  As8  1  0.63938781  0.67434733  0.95439699  1
  As  As9  1  0.25721667  0.56628590  0.12551906  1
  As  As10  1  0.33542226  0.38537151  0.17887451  1
  As  As11  1  0.68534729  0.85704091  0.85145219  1
