# generated using pymatgen
data_Li2TiP8O3
_symmetry_space_group_name_H-M   'P 1'
_cell_length_a   8.52135846
_cell_length_b   8.69073521
_cell_length_c   7.81021641
_cell_angle_alpha   90.00000000
_cell_angle_beta   90.00000000
_cell_angle_gamma   90.00000000
_symmetry_Int_Tables_number   1
_chemical_formula_structural   Li2TiP8O3
_chemical_formula_sum   'Li2 Ti1 P8 O3'
_cell_volume   578.40018129
_cell_formula_units_Z   1
loop_
 _symmetry_equiv_pos_site_id
 _symmetry_equiv_pos_as_xyz
  1  'x, y, z'
loop_
 _atom_site_type_symbol
 _atom_site_label
 _atom_site_symmetry_multiplicity
 _atom_site_fract_x
 _atom_site_fract_y
 _atom_site_fract_z
 _atom_site_occupancy
  P  P0  1  0.00000000  0.00000000  0.00000000  1
  P  P1  1  0.50000000  0.50000000  0.50000000  1
  P  P2  1  0.25000000  0.25000000  0.25000000  1
  P  P3  1  0.75000000  0.25000000  0.00000000  1
  P  P4  1  0.25000000  0.75000000  0.50000000  1
  P  P5  1  0.58182790  0.82582237  0.06175612  1
  P  P6  1  0.06369731  0.56738179  0.66972917  1
  P  P7  1  0.44989067  0.35932650  0.86955889  1
  Li  Li8  1  0.18392499  0.56687298  0.27207096  1
  Li  Li9  1  0.30485587  0.31680634  0.30318148  1
  Ti  Ti10  1  0.40293184  0.79110736  0.49488790  1
  O  O11  1  0.88444938  0.82145111  0.92944916  1
  O  O12  1  0.02572022  0.05213676  0.40898763  1
  O  O13  1  0.35970639  0.43309266  0.01795062  1
