# generated using pymatgen
data_Li2TiP5I4
_symmetry_space_group_name_H-M   'P 1'
_cell_length_a   8.31946898
_cell_length_b   8.08722559
_cell_length_c   7.95141965
_cell_angle_alpha   91.15825148
_cell_angle_beta   90.51978255
_cell_angle_gamma   91.34301550
_symmetry_Int_Tables_number   1
_chemical_formula_structural   Li2TiP5I4
_chemical_formula_sum   'Li2 Ti1 P5 I4'
_cell_volume   534.70219720
_cell_formula_units_Z   1
loop_
 _symmetry_equiv_pos_site_id
 _symmetry_equiv_pos_as_xyz
  1  'x, y, z'
loop_
 _atom_site_type_symbol
 _atom_site_label
 _atom_site_symmetry_multiplicity
 _atom_site_fract_x
 _atom_site_fract_y
 _atom_site_fract_z
 _atom_site_occupancy
  I  I0  1  0.12500000  0.12500000  0.12500000  1
  I  I1  1  0.50000000  0.50000000  0.50000000  1
  I  I2  1  0.25000000  0.25000000  0.25000000  1
  I  I3  1  0.75000000  0.75000000  0.75000000  1
  P  P4  1  0.48554587  0.23836589  0.13107151  1
  P  P5  1  0.06806119  0.14997239  0.99260732  1
  P  P6  1  0.14770473  0.76497332  0.05019147  1
  P  P7  1  0.31218501  0.40590403  0.20469870  1
  P  P8  1  0.93868319  0.22522303  0.82300320  1
  Li  Li9  1  0.97076760  0.71530524  0.69246586  1
  Li  Li10  1  0.67779795  0.88428154  0.81341131  1
  Ti  Ti11  1  0.60263279  0.62379336  0.09696810  1
