# generated using pymatgen
data_Li3TiNi2As6O5
_symmetry_space_group_name_H-M   'P 1'
_cell_length_a   8.44266031
_cell_length_b   8.30248156
_cell_length_c   7.99062811
_cell_angle_alpha   90.58696682
_cell_angle_beta   90.37213504
_cell_angle_gamma   90.68018953
_symmetry_Int_Tables_number   1
_chemical_formula_structural   Li3TiNi2As6O5
_chemical_formula_sum   'Li3 Ti1 Ni2 As6 O5'
_cell_volume   560.02221037
_cell_formula_units_Z   1
loop_
 _symmetry_equiv_pos_site_id
 _symmetry_equiv_pos_as_xyz
  1  'x, y, z'
loop_
 _atom_site_type_symbol
 _atom_site_label
 _atom_site_symmetry_multiplicity
 _atom_site_fract_x
 _atom_site_fract_y
 _atom_site_fract_z
 _atom_site_occupancy
  Li  Li0  1  0.00000000  0.00000000  0.00000000  1
  Li  Li1  1  0.50000000  0.50000000  0.50000000  1
  Li  Li2  1  0.25000000  0.25000000  0.25000000  1
  Ni  Ni3  1  0.75000000  0.25000000  0.00000000  1
  Ni  Ni4  1  0.25000000  0.75000000  0.50000000  1
  Ti  Ti5  1  0.30161714  0.39703645  0.02564043  1
  As  As6  1  0.99654189  0.71040975  0.60761104  1
  As  As7  1  0.01267261  0.07798273  0.35062536  1
  As  As8  1  0.43973598  0.32035929  0.33927157  1
  As  As9  1  0.15527697  0.49082721  0.92795414  1
  As  As10  1  0.05928076  0.95389168  0.46446202  1
  As  As11  1  0.15643422  0.35563899  0.96064149  1
  O  O12  1  0.75211902  0.35440348  0.18174952  1
  O  O13  1  0.24002649  0.92929040  0.33446764  1
  O  O14  1  0.68819011  0.87486063  0.30074360  1
  O  O15  1  0.32479422  0.24312278  0.18951665  1
  O  O16  1  0.96843064  0.64205806  0.45971872  1
