# generated using pymatgen
data_Li3TiZn2(IO)4
_symmetry_space_group_name_H-M   'P 1'
_cell_length_a   8.68362095
_cell_length_b   8.98083680
_cell_length_c   7.22940842
_cell_angle_alpha   90.00000000
_cell_angle_beta   90.00000000
_cell_angle_gamma   90.00000000
_symmetry_Int_Tables_number   1
_chemical_formula_structural   Li3TiZn2(IO)4
_chemical_formula_sum   'Li3 Ti1 Zn2 I4 O4'
_cell_volume   563.79396516
_cell_formula_units_Z   1
loop_
 _symmetry_equiv_pos_site_id
 _symmetry_equiv_pos_as_xyz
  1  'x, y, z'
loop_
 _atom_site_type_symbol
 _atom_site_label
 _atom_site_symmetry_multiplicity
 _atom_site_fract_x
 _atom_site_fract_y
 _atom_site_fract_z
 _atom_site_occupancy
  I  I0  1  0.00000000  0.00000000  0.00000000  1
  I  I1  1  0.50000000  0.50000000  0.50000000  1
  I  I2  1  0.25000000  0.25000000  0.25000000  1
  I  I3  1  0.75000000  0.25000000  0.00000000  1
  Li  Li4  1  0.25000000  0.75000000  0.50000000  1
  Li  Li5  1  0.66621868  0.01862344  0.34258403  1
  Li  Li6  1  0.38399744  0.21160032  0.62258349  1
  Zn  Zn7  1  0.83733658  0.23618559  0.72853232  1
  Zn  Zn8  1  0.56150862  0.02788958  0.08085522  1
  Ti  Ti9  1  0.74447536  0.96676593  0.33873530  1
  O  O10  1  0.46607735  0.29722008  0.72575226  1
  O  O11  1  0.78196456  0.52899773  0.33078862  1
  O  O12  1  0.03460178  0.18452800  0.78171269  1
  O  O13  1  0.46905367  0.26439749  0.73784241  1
