# generated using pymatgen
data_Li2TiO2F3
_symmetry_space_group_name_H-M   'P 1'
_cell_length_a   5.31321964
_cell_length_b   5.28406358
_cell_length_c   6.61350191
_cell_angle_alpha   98.98535784
_cell_angle_beta   105.15307824
_cell_angle_gamma   99.51798399
_symmetry_Int_Tables_number   1
_chemical_formula_structural   Li2TiO2F3
_chemical_formula_sum   'Li2 Ti1 O2 F3'
_cell_volume   172.83226432
_cell_formula_units_Z   1
loop_
 _symmetry_equiv_pos_site_id
 _symmetry_equiv_pos_as_xyz
  1  'x, y, z'
loop_
 _atom_site_type_symbol
 _atom_site_label
 _atom_site_symmetry_multiplicity
 _atom_site_fract_x
 _atom_site_fract_y
 _atom_site_fract_z
 _atom_site_occupancy
  Li  Li0  1  0.12500000  0.00000000  0.25000000  1
  Li  Li1  1  0.00000000  0.00000000  0.00000000  1
  F  F2  1  0.37500000  0.00000000  0.25000000  1
  F  F3  1  0.25000000  0.25000000  0.25000000  1
  F  F4  1  0.00000000  0.25000000  0.12500000  1
  Ti  Ti5  1  0.71187704  0.17482416  0.26334269  1
  O  O6  1  0.86183984  0.23865581  0.71246691  1
  O  O7  1  0.26634921  0.95426097  0.86463094  1
