# generated using pymatgen
data_Li3Ti(NiO2)2
_symmetry_space_group_name_H-M   'P 1'
_cell_length_a   8.43064129
_cell_length_b   8.28979015
_cell_length_c   7.97306774
_cell_angle_alpha   90.62417033
_cell_angle_beta   90.39572194
_cell_angle_gamma   90.72330175
_symmetry_Int_Tables_number   1
_chemical_formula_structural   Li3Ti(NiO2)2
_chemical_formula_sum   'Li3 Ti1 Ni2 O4'
_cell_volume   557.13243985
_cell_formula_units_Z   1
loop_
 _symmetry_equiv_pos_site_id
 _symmetry_equiv_pos_as_xyz
  1  'x, y, z'
loop_
 _atom_site_type_symbol
 _atom_site_label
 _atom_site_symmetry_multiplicity
 _atom_site_fract_x
 _atom_site_fract_y
 _atom_site_fract_z
 _atom_site_occupancy
  Li  Li0  1  0.12500000  0.00000000  0.25000000  1
  Li  Li1  1  0.00000000  0.00000000  0.00000000  1
  Li  Li2  1  0.37500000  0.00000000  0.25000000  1
  Ni  Ni3  1  0.25000000  0.25000000  0.25000000  1
  Ni  Ni4  1  0.00000000  0.25000000  0.12500000  1
  Ti  Ti5  1  0.82125994  0.77516872  0.26984793  1
  O  O6  1  0.16858259  0.81352538  0.54832964  1
  O  O7  1  0.10723381  0.40996583  0.77333111  1
  O  O8  1  0.52244837  0.15856980  0.28302763  1
  O  O9  1  0.80442881  0.88321479  0.63942804  1
