# generated using pymatgen
data_Li2LuCu2(NiP2)2
_symmetry_space_group_name_H-M   'P 1'
_cell_length_a   7.28906849
_cell_length_b   7.16648017
_cell_length_c   7.93706433
_cell_angle_alpha   93.39873709
_cell_angle_beta   93.78955045
_cell_angle_gamma   93.47609249
_symmetry_Int_Tables_number   1
_chemical_formula_structural   Li2LuCu2(NiP2)2
_chemical_formula_sum   'Li2 Lu1 Cu2 Ni2 P4'
_cell_volume   412.10586770
_cell_formula_units_Z   1
loop_
 _symmetry_equiv_pos_site_id
 _symmetry_equiv_pos_as_xyz
  1  'x, y, z'
loop_
 _atom_site_type_symbol
 _atom_site_label
 _atom_site_symmetry_multiplicity
 _atom_site_fract_x
 _atom_site_fract_y
 _atom_site_fract_z
 _atom_site_occupancy
  P  P0  1  0.00000000  0.00000000  0.00000000  1
  P  P1  1  0.50000000  0.50000000  0.50000000  1
  P  P2  1  0.50000000  0.50000000  0.00000000  1
  P  P3  1  0.50000000  0.00000000  0.50000000  1
  Lu  Lu4  1  0.00000000  0.50000000  0.50000000  1
  Li  Li5  1  0.21089669  0.43971872  0.24530815  1
  Li  Li6  1  0.68017148  0.23474454  0.72018111  1
  Cu  Cu7  1  0.35409251  0.86733366  0.85751325  1
  Cu  Cu8  1  0.42240276  0.41427091  0.62975888  1
  Ni  Ni9  1  0.31153552  0.80260773  0.74486264  1
  Ni  Ni10  1  0.69752144  0.32854815  0.41059798  1
