# generated using pymatgen
data_Li3TiSeN5O4
_symmetry_space_group_name_H-M   'P 1'
_cell_length_a   5.67551799
_cell_length_b   5.35766481
_cell_length_c   7.15659488
_cell_angle_alpha   101.91890442
_cell_angle_beta   104.79007561
_cell_angle_gamma   101.32227873
_symmetry_Int_Tables_number   1
_chemical_formula_structural   Li3TiSeN5O4
_chemical_formula_sum   'Li3 Ti1 Se1 N5 O4'
_cell_volume   198.60614213
_cell_formula_units_Z   1
loop_
 _symmetry_equiv_pos_site_id
 _symmetry_equiv_pos_as_xyz
  1  'x, y, z'
loop_
 _atom_site_type_symbol
 _atom_site_label
 _atom_site_symmetry_multiplicity
 _atom_site_fract_x
 _atom_site_fract_y
 _atom_site_fract_z
 _atom_site_occupancy
  Li  Li0  1  0.00000000  0.00000000  0.00000000  1
  Li  Li1  1  0.50000000  0.50000000  0.50000000  1
  Li  Li2  1  0.25000000  0.25000000  0.25000000  1
  Se  Se3  1  0.75000000  0.25000000  0.00000000  1
  Ti  Ti4  1  0.25000000  0.75000000  0.50000000  1
  O  O5  1  0.28079066  0.62210587  0.03836080  1
  O  O6  1  0.29687417  0.64983738  0.10403371  1
  O  O7  1  0.96142005  0.67691990  0.93228278  1
  O  O8  1  0.21797065  0.21298857  0.53034960  1
  N  N9  1  0.11827028  0.90958499  0.15315712  1
  N  N10  1  0.36126624  0.31931756  0.34945892  1
  N  N11  1  0.50105848  0.44079492  0.44622054  1
  N  N12  1  0.79797347  0.43665062  0.86747931  1
  N  N13  1  0.31798179  0.23843250  0.08029426  1
