# generated using pymatgen
data_Li2TiP5I4N3
_symmetry_space_group_name_H-M   'P 1'
_cell_length_a   8.09363619
_cell_length_b   7.81805556
_cell_length_c   8.17013257
_cell_angle_alpha   91.73129381
_cell_angle_beta   90.72724570
_cell_angle_gamma   92.00765687
_symmetry_Int_Tables_number   1
_chemical_formula_structural   Li2TiP5I4N3
_chemical_formula_sum   'Li2 Ti1 P5 I4 N3'
_cell_volume   516.37524497
_cell_formula_units_Z   1
loop_
 _symmetry_equiv_pos_site_id
 _symmetry_equiv_pos_as_xyz
  1  'x, y, z'
loop_
 _atom_site_type_symbol
 _atom_site_label
 _atom_site_symmetry_multiplicity
 _atom_site_fract_x
 _atom_site_fract_y
 _atom_site_fract_z
 _atom_site_occupancy
  I  I0  1  0.00000000  0.00000000  0.00000000  1
  I  I1  1  0.50000000  0.50000000  0.50000000  1
  I  I2  1  0.25000000  0.25000000  0.25000000  1
  I  I3  1  0.75000000  0.25000000  0.00000000  1
  P  P4  1  0.25000000  0.75000000  0.50000000  1
  P  P5  1  0.52195836  0.72413289  0.26631486  1
  P  P6  1  0.60161830  0.57268552  0.09633321  1
  P  P7  1  0.59326407  0.42032853  0.52343564  1
  P  P8  1  0.93213113  0.40362770  0.11251999  1
  Li  Li9  1  0.72176869  0.64967839  0.57623323  1
  Li  Li10  1  0.47375078  0.03481680  0.00497567  1
  Ti  Ti11  1  0.70689418  0.08233164  0.58548761  1
  N  N12  1  0.12895375  0.84391782  0.28461785  1
  N  N13  1  0.27116908  0.55550678  0.02033603  1
  N  N14  1  0.97433663  0.26278490  0.03835467  1
