# generated using pymatgen
data_Li2Lu(CuP2)2
_symmetry_space_group_name_H-M   'P 1'
_cell_length_a   7.16734561
_cell_length_b   7.09531324
_cell_length_c   7.88946369
_cell_angle_alpha   94.19683586
_cell_angle_beta   94.90364437
_cell_angle_gamma   94.17848417
_symmetry_Int_Tables_number   1
_chemical_formula_structural   Li2Lu(CuP2)2
_chemical_formula_sum   'Li2 Lu1 Cu2 P4'
_cell_volume   397.40901534
_cell_formula_units_Z   1
loop_
 _symmetry_equiv_pos_site_id
 _symmetry_equiv_pos_as_xyz
  1  'x, y, z'
loop_
 _atom_site_type_symbol
 _atom_site_label
 _atom_site_symmetry_multiplicity
 _atom_site_fract_x
 _atom_site_fract_y
 _atom_site_fract_z
 _atom_site_occupancy
  P  P0  1  0.12500000  0.12500000  0.12500000  1
  P  P1  1  0.50000000  0.50000000  0.50000000  1
  P  P2  1  0.25000000  0.25000000  0.25000000  1
  P  P3  1  0.75000000  0.75000000  0.75000000  1
  Lu  Lu4  1  0.20917815  0.21548343  0.50479403  1
  Li  Li5  1  0.85648436  0.07397646  0.87892892  1
  Li  Li6  1  0.24726677  0.49706426  0.93377115  1
  Cu  Cu7  1  0.06740780  0.79376090  0.43554526  1
  Cu  Cu8  1  0.87636175  0.79412972  0.53995821  1
