# generated using pymatgen
data_Li2TiCu2P4N5
_symmetry_space_group_name_H-M   'P 1'
_cell_length_a   7.83748290
_cell_length_b   7.62069712
_cell_length_c   8.04284213
_cell_angle_alpha   91.53064141
_cell_angle_beta   91.21864290
_cell_angle_gamma   91.71990838
_symmetry_Int_Tables_number   1
_chemical_formula_structural   Li2TiCu2P4N5
_chemical_formula_sum   'Li2 Ti1 Cu2 P4 N5'
_cell_volume   479.87066507
_cell_formula_units_Z   1
loop_
 _symmetry_equiv_pos_site_id
 _symmetry_equiv_pos_as_xyz
  1  'x, y, z'
loop_
 _atom_site_type_symbol
 _atom_site_label
 _atom_site_symmetry_multiplicity
 _atom_site_fract_x
 _atom_site_fract_y
 _atom_site_fract_z
 _atom_site_occupancy
  P  P0  1  0.00000000  0.00000000  0.00000000  1
  P  P1  1  0.50000000  0.50000000  0.50000000  1
  P  P2  1  0.25000000  0.25000000  0.25000000  1
  P  P3  1  0.75000000  0.25000000  0.00000000  1
  Li  Li4  1  0.25000000  0.75000000  0.50000000  1
  Li  Li5  1  0.82230012  0.85146436  0.07862176  1
  Cu  Cu6  1  0.34928215  0.87347936  0.45844851  1
  Cu  Cu7  1  0.80640422  0.34385765  0.72545323  1
  Ti  Ti8  1  0.56361927  0.82959870  0.89684978  1
  N  N9  1  0.26452053  0.32383443  0.80358193  1
  N  N10  1  0.20814654  0.97450127  0.15104465  1
  N  N11  1  0.00540527  0.67835817  0.91216019  1
  N  N12  1  0.38838729  0.99270676  0.69454604  1
  N  N13  1  0.40810274  0.53739088  0.43950251  1
