# generated using pymatgen
data_Li3Ti(IO)4
_symmetry_space_group_name_H-M   'P 1'
_cell_length_a   8.39444011
_cell_length_b   8.19033314
_cell_length_c   7.81560979
_cell_angle_alpha   91.12732014
_cell_angle_beta   90.39855501
_cell_angle_gamma   91.30755489
_symmetry_Int_Tables_number   1
_chemical_formula_structural   Li3Ti(IO)4
_chemical_formula_sum   'Li3 Ti1 I4 O4'
_cell_volume   537.09002022
_cell_formula_units_Z   1
loop_
 _symmetry_equiv_pos_site_id
 _symmetry_equiv_pos_as_xyz
  1  'x, y, z'
loop_
 _atom_site_type_symbol
 _atom_site_label
 _atom_site_symmetry_multiplicity
 _atom_site_fract_x
 _atom_site_fract_y
 _atom_site_fract_z
 _atom_site_occupancy
  I  I0  1  0.12500000  0.00000000  0.25000000  1
  I  I1  1  0.00000000  0.00000000  0.00000000  1
  I  I2  1  0.37500000  0.00000000  0.25000000  1
  I  I3  1  0.25000000  0.25000000  0.25000000  1
  Li  Li4  1  0.00000000  0.25000000  0.12500000  1
  Li  Li5  1  0.87733596  0.41070550  0.99557743  1
  Li  Li6  1  0.05540697  0.18257917  0.65806611  1
  Ti  Ti7  1  0.58253595  0.62472980  0.27833358  1
  O  O8  1  0.96429306  0.54960051  0.17452197  1
  O  O9  1  0.10439817  0.20214747  0.97822807  1
  O  O10  1  0.30452631  0.48154760  0.19134053  1
  O  O11  1  0.63618551  0.30916332  0.14064675  1
