# generated using pymatgen
data_LiTiF2
_symmetry_space_group_name_H-M   'P 1'
_cell_length_a   7.31188071
_cell_length_b   7.17596587
_cell_length_c   7.58510412
_cell_angle_alpha   91.17466483
_cell_angle_beta   93.32945885
_cell_angle_gamma   91.35147714
_symmetry_Int_Tables_number   1
_chemical_formula_structural   LiTiF2
_chemical_formula_sum   'Li1 Ti1 F2'
_cell_volume   397.11127139
_cell_formula_units_Z   1
loop_
 _symmetry_equiv_pos_site_id
 _symmetry_equiv_pos_as_xyz
  1  'x, y, z'
loop_
 _atom_site_type_symbol
 _atom_site_label
 _atom_site_symmetry_multiplicity
 _atom_site_fract_x
 _atom_site_fract_y
 _atom_site_fract_z
 _atom_site_occupancy
  Li  Li0  1  0.00000000  0.00000000  0.00000000  1
  F  F1  1  0.50000000  0.50000000  0.50000000  1
  F  F2  1  0.50000000  0.50000000  0.00000000  1
  Ti  Ti3  1  0.50000000  0.00000000  0.50000000  1
