# generated using pymatgen
data_Li2P3(I2O)2
_symmetry_space_group_name_H-M   'P 1'
_cell_length_a   6.94151984
_cell_length_b   6.90665459
_cell_length_c   7.82175411
_cell_angle_alpha   92.74820620
_cell_angle_beta   94.16716075
_cell_angle_gamma   92.54916357
_symmetry_Int_Tables_number   1
_chemical_formula_structural   Li2P3(I2O)2
_chemical_formula_sum   'Li2 P3 I4 O2'
_cell_volume   373.14114459
_cell_formula_units_Z   1
loop_
 _symmetry_equiv_pos_site_id
 _symmetry_equiv_pos_as_xyz
  1  'x, y, z'
loop_
 _atom_site_type_symbol
 _atom_site_label
 _atom_site_symmetry_multiplicity
 _atom_site_fract_x
 _atom_site_fract_y
 _atom_site_fract_z
 _atom_site_occupancy
  I  I0  1  0.00000000  0.00000000  0.00000000  1
  I  I1  1  0.33300000  0.66700000  0.25000000  1
  I  I2  1  0.66700000  0.33300000  0.50000000  1
  I  I3  1  0.00000000  0.00000000  0.75000000  1
  P  P4  1  0.22317738  0.95363113  0.29000838  1
  P  P5  1  0.59814298  0.56481404  0.76299244  1
  P  P6  1  0.03112232  0.01589491  0.84192741  1
  O  O7  1  0.92048358  0.55914955  0.13771204  1
  O  O8  1  0.50670472  0.99272126  0.27344341  1
  Li  Li9  1  0.34606641  0.40632849  0.81271845  1
  Li  Li10  1  0.03650564  0.41953458  0.39380284  1
