# generated using pymatgen
data_Li2LuCu2(SO)2
_symmetry_space_group_name_H-M   'P 1'
_cell_length_a   6.41411492
_cell_length_b   6.41136499
_cell_length_c   7.38029236
_cell_angle_alpha   96.28620028
_cell_angle_beta   98.44236118
_cell_angle_gamma   96.48988570
_symmetry_Int_Tables_number   1
_chemical_formula_structural   Li2LuCu2(SO)2
_chemical_formula_sum   'Li2 Lu1 Cu2 S2 O2'
_cell_volume   295.82398853
_cell_formula_units_Z   1
loop_
 _symmetry_equiv_pos_site_id
 _symmetry_equiv_pos_as_xyz
  1  'x, y, z'
loop_
 _atom_site_type_symbol
 _atom_site_label
 _atom_site_symmetry_multiplicity
 _atom_site_fract_x
 _atom_site_fract_y
 _atom_site_fract_z
 _atom_site_occupancy
  Lu  Lu0  1  0.12500000  0.00000000  0.25000000  1
  Li  Li1  1  0.00000000  0.00000000  0.00000000  1
  Li  Li2  1  0.37500000  0.00000000  0.25000000  1
  Cu  Cu3  1  0.25000000  0.25000000  0.25000000  1
  Cu  Cu4  1  0.00000000  0.25000000  0.12500000  1
  S  S5  1  0.98157897  0.53852417  0.24620574  1
  S  S6  1  0.10444081  0.63232734  0.80608608  1
  O  O7  1  0.48081570  0.47621754  0.38144845  1
  O  O8  1  0.57963092  0.54927155  0.03537090  1
