# generated using pymatgen
data_Li2Ti(CuO2)2
_symmetry_space_group_name_H-M   'P 1'
_cell_length_a   8.17758411
_cell_length_b   8.12507237
_cell_length_c   7.96152045
_cell_angle_alpha   90.22808625
_cell_angle_beta   91.32616086
_cell_angle_gamma   90.25258030
_symmetry_Int_Tables_number   1
_chemical_formula_structural   Li2Ti(CuO2)2
_chemical_formula_sum   'Li2 Ti1 Cu2 O4'
_cell_volume   528.83974613
_cell_formula_units_Z   1
loop_
 _symmetry_equiv_pos_site_id
 _symmetry_equiv_pos_as_xyz
  1  'x, y, z'
loop_
 _atom_site_type_symbol
 _atom_site_label
 _atom_site_symmetry_multiplicity
 _atom_site_fract_x
 _atom_site_fract_y
 _atom_site_fract_z
 _atom_site_occupancy
  Li  Li0  1  0.00000000  0.00000000  0.00000000  1
  Li  Li1  1  0.50000000  0.50000000  0.50000000  1
  Cu  Cu2  1  0.50000000  0.50000000  0.00000000  1
  Cu  Cu3  1  0.50000000  0.00000000  0.50000000  1
  Ti  Ti4  1  0.00000000  0.50000000  0.50000000  1
  O  O5  1  0.15192887  0.04063695  0.04133590  1
  O  O6  1  0.76871213  0.79042781  0.49589597  1
  O  O7  1  0.58176167  0.77515803  0.67065796  1
  O  O8  1  0.34546599  0.71156558  0.04592425  1
