# generated using pymatgen
data_Li3LuN5
_symmetry_space_group_name_H-M   'P 1'
_cell_length_a   7.54085628
_cell_length_b   7.33952799
_cell_length_c   8.43085677
_cell_angle_alpha   92.28121467
_cell_angle_beta   91.86719271
_cell_angle_gamma   92.52949953
_symmetry_Int_Tables_number   1
_chemical_formula_structural   Li3LuN5
_chemical_formula_sum   'Li3 Lu1 N5'
_cell_volume   465.51716601
_cell_formula_units_Z   1
loop_
 _symmetry_equiv_pos_site_id
 _symmetry_equiv_pos_as_xyz
  1  'x, y, z'
loop_
 _atom_site_type_symbol
 _atom_site_label
 _atom_site_symmetry_multiplicity
 _atom_site_fract_x
 _atom_site_fract_y
 _atom_site_fract_z
 _atom_site_occupancy
  Lu  Lu0  1  0.12500000  0.00000000  0.25000000  1
  Li  Li1  1  0.00000000  0.00000000  0.00000000  1
  Li  Li2  1  0.37500000  0.00000000  0.25000000  1
  Li  Li3  1  0.25000000  0.25000000  0.25000000  1
  N  N4  1  0.00000000  0.25000000  0.12500000  1
  N  N5  1  0.34788512  0.67673314  0.85955763  1
  N  N6  1  0.04502911  0.54088443  0.52516174  1
  N  N7  1  0.62524628  0.64510895  0.38385737  1
  N  N8  1  0.15114676  0.01139638  0.48235228  1
