# generated using pymatgen
data_Li2Ni2P4N3
_symmetry_space_group_name_H-M   'P 1'
_cell_length_a   7.56981178
_cell_length_b   7.19917472
_cell_length_c   8.73888262
_cell_angle_alpha   93.03263784
_cell_angle_beta   91.18021439
_cell_angle_gamma   93.51708522
_symmetry_Int_Tables_number   1
_chemical_formula_structural   Li2Ni2P4N3
_chemical_formula_sum   'Li2 Ni2 P4 N3'
_cell_volume   474.53913641
_cell_formula_units_Z   1
loop_
 _symmetry_equiv_pos_site_id
 _symmetry_equiv_pos_as_xyz
  1  'x, y, z'
loop_
 _atom_site_type_symbol
 _atom_site_label
 _atom_site_symmetry_multiplicity
 _atom_site_fract_x
 _atom_site_fract_y
 _atom_site_fract_z
 _atom_site_occupancy
  P  P0  1  0.12500000  0.00000000  0.25000000  1
  P  P1  1  0.00000000  0.00000000  0.00000000  1
  P  P2  1  0.37500000  0.00000000  0.25000000  1
  P  P3  1  0.25000000  0.25000000  0.25000000  1
  Li  Li4  1  0.00000000  0.25000000  0.12500000  1
  Li  Li5  1  0.76171338  0.59073705  0.66186784  1
  Ni  Ni6  1  0.06133019  0.79783762  0.08887049  1
  Ni  Ni7  1  0.12448110  0.30125187  0.23463241  1
  N  N8  1  0.47228193  0.15364057  0.15762131  1
  N  N9  1  0.41345039  0.92863748  0.89743045  1
  N  N10  1  0.13331898  0.60879219  0.00838739  1
