# generated using pymatgen
data_Li3LuCu2(NiP2)2
_symmetry_space_group_name_H-M   'P 1'
_cell_length_a   7.42773935
_cell_length_b   7.22104681
_cell_length_c   8.23932629
_cell_angle_alpha   92.82989176
_cell_angle_beta   92.46067761
_cell_angle_gamma   93.06247720
_symmetry_Int_Tables_number   1
_chemical_formula_structural   Li3LuCu2(NiP2)2
_chemical_formula_sum   'Li3 Lu1 Cu2 Ni2 P4'
_cell_volume   440.29532879
_cell_formula_units_Z   1
loop_
 _symmetry_equiv_pos_site_id
 _symmetry_equiv_pos_as_xyz
  1  'x, y, z'
loop_
 _atom_site_type_symbol
 _atom_site_label
 _atom_site_symmetry_multiplicity
 _atom_site_fract_x
 _atom_site_fract_y
 _atom_site_fract_z
 _atom_site_occupancy
  P  P0  1  0.00000000  0.00000000  0.00000000  1
  P  P1  1  0.50000000  0.50000000  0.50000000  1
  P  P2  1  0.50000000  0.50000000  0.00000000  1
  P  P3  1  0.50000000  0.00000000  0.50000000  1
  Lu  Lu4  1  0.00000000  0.50000000  0.50000000  1
  Li  Li5  1  0.56995601  0.94722875  0.50344101  1
  Li  Li6  1  0.95025002  0.83323616  0.34016862  1
  Li  Li7  1  0.13754962  0.46911969  0.74912603  1
  Cu  Cu8  1  0.86209465  0.46831388  0.29001432  1
  Cu  Cu9  1  0.27033940  0.75071833  0.28576758  1
  Ni  Ni10  1  0.55920760  0.73562525  0.56500636  1
  Ni  Ni11  1  0.29785096  0.65893609  0.69690991  1
