# generated using pymatgen
data_Li2TiCu2P4F2
_symmetry_space_group_name_H-M   'P 1'
_cell_length_a   6.86352142
_cell_length_b   6.68582276
_cell_length_c   7.19074439
_cell_angle_alpha   91.50449528
_cell_angle_beta   93.05775306
_cell_angle_gamma   91.01546050
_symmetry_Int_Tables_number   1
_chemical_formula_structural   Li2TiCu2P4F2
_chemical_formula_sum   'Li2 Ti1 Cu2 P4 F2'
_cell_volume   329.32712551
_cell_formula_units_Z   1
loop_
 _symmetry_equiv_pos_site_id
 _symmetry_equiv_pos_as_xyz
  1  'x, y, z'
loop_
 _atom_site_type_symbol
 _atom_site_label
 _atom_site_symmetry_multiplicity
 _atom_site_fract_x
 _atom_site_fract_y
 _atom_site_fract_z
 _atom_site_occupancy
  P  P0  1  0.00000000  0.00000000  0.00000000  1
  P  P1  1  0.50000000  0.50000000  0.50000000  1
  P  P2  1  0.50000000  0.50000000  0.00000000  1
  P  P3  1  0.50000000  0.00000000  0.50000000  1
  Li  Li4  1  0.00000000  0.50000000  0.50000000  1
  Li  Li5  1  0.97044973  0.26915389  0.91662428  1
  Cu  Cu6  1  0.32329341  0.32314498  0.98520942  1
  Cu  Cu7  1  0.89775875  0.60378672  0.24112881  1
  F  F8  1  0.81896872  0.08590418  0.51595003  1
  F  F9  1  0.68993532  0.21076528  0.62633824  1
  Ti  Ti10  1  0.91440128  0.35867168  0.02302620  1
