# generated using pymatgen
data_LiNiAs3
_symmetry_space_group_name_H-M   'P 1'
_cell_length_a   7.64354624
_cell_length_b   7.60977028
_cell_length_c   8.81297461
_cell_angle_alpha   91.19341719
_cell_angle_beta   91.51552528
_cell_angle_gamma   91.38009454
_symmetry_Int_Tables_number   1
_chemical_formula_structural   LiNiAs3
_chemical_formula_sum   'Li2 Ni2 As6'
_cell_volume   512.16609035
_cell_formula_units_Z   2
loop_
 _symmetry_equiv_pos_site_id
 _symmetry_equiv_pos_as_xyz
  1  'x, y, z'
loop_
 _atom_site_type_symbol
 _atom_site_label
 _atom_site_symmetry_multiplicity
 _atom_site_fract_x
 _atom_site_fract_y
 _atom_site_fract_z
 _atom_site_occupancy
  Ni  Ni0  1  0.00000000  0.00000000  0.00000000  1
  Ni  Ni1  1  0.50000000  0.50000000  0.50000000  1
  As  As2  1  0.50000000  0.50000000  0.00000000  1
  As  As3  1  0.50000000  0.00000000  0.50000000  1
  As  As4  1  0.00000000  0.50000000  0.50000000  1
  As  As5  1  0.58540176  0.95828938  0.42173584  1
  As  As6  1  0.37454571  0.31554402  0.00547304  1
  As  As7  1  0.68243669  0.62863634  0.26291124  1
  Li  Li8  1  0.65597579  0.54355149  0.72181929  1
  Li  Li9  1  0.16275495  0.80516062  0.74367697  1
