# generated using pymatgen
data_Li2Ti2As6P4N3
_symmetry_space_group_name_H-M   'P 1'
_cell_length_a   7.67424924
_cell_length_b   7.40878192
_cell_length_c   8.27531531
_cell_angle_alpha   91.83762584
_cell_angle_beta   91.40488326
_cell_angle_gamma   92.07804337
_symmetry_Int_Tables_number   1
_chemical_formula_structural   Li2Ti2As6P4N3
_chemical_formula_sum   'Li2 Ti2 As6 P4 N3'
_cell_volume   469.80168093
_cell_formula_units_Z   1
loop_
 _symmetry_equiv_pos_site_id
 _symmetry_equiv_pos_as_xyz
  1  'x, y, z'
loop_
 _atom_site_type_symbol
 _atom_site_label
 _atom_site_symmetry_multiplicity
 _atom_site_fract_x
 _atom_site_fract_y
 _atom_site_fract_z
 _atom_site_occupancy
  P  P0  1  0.00000000  0.00000000  0.00000000  1
  P  P1  1  0.50000000  0.50000000  0.50000000  1
  P  P2  1  0.25000000  0.25000000  0.25000000  1
  P  P3  1  0.75000000  0.25000000  0.00000000  1
  Li  Li4  1  0.25000000  0.75000000  0.50000000  1
  Li  Li5  1  0.08879328  0.31805875  0.60854240  1
  Ti  Ti6  1  0.05141972  0.28036205  0.81885634  1
  Ti  Ti7  1  0.16335255  0.70589707  0.96706256  1
  As  As8  1  0.50938989  0.71675216  0.69557154  1
  As  As9  1  0.89436731  0.29193895  0.09365844  1
  As  As10  1  0.54476602  0.51317602  0.47926158  1
  As  As11  1  0.18687434  0.07296026  0.98562369  1
  As  As12  1  0.55434243  0.87375610  0.95137980  1
  As  As13  1  0.64052921  0.49556065  0.32379423  1
  N  N14  1  0.50496233  0.82576440  0.24697509  1
  N  N15  1  0.31128888  0.13602612  0.49454264  1
  N  N16  1  0.47303541  0.00162735  0.19203075  1
