# generated using pymatgen
data_Li3Nb2SeClF3
_symmetry_space_group_name_H-M   'P 1'
_cell_length_a   4.82632587
_cell_length_b   4.16643247
_cell_length_c   7.06506257
_cell_angle_alpha   99.42170517
_cell_angle_beta   105.54084517
_cell_angle_gamma   99.06747743
_symmetry_Int_Tables_number   1
_chemical_formula_structural   Li3Nb2SeClF3
_chemical_formula_sum   'Li3 Nb2 Se1 Cl1 F3'
_cell_volume   131.95969649
_cell_formula_units_Z   1
loop_
 _symmetry_equiv_pos_site_id
 _symmetry_equiv_pos_as_xyz
  1  'x, y, z'
loop_
 _atom_site_type_symbol
 _atom_site_label
 _atom_site_symmetry_multiplicity
 _atom_site_fract_x
 _atom_site_fract_y
 _atom_site_fract_z
 _atom_site_occupancy
  Li  Li0  1  0.12500000  0.00000000  0.25000000  1
  Li  Li1  1  0.00000000  0.00000000  0.00000000  1
  Li  Li2  1  0.37500000  0.00000000  0.25000000  1
  Nb  Nb3  1  0.25000000  0.25000000  0.25000000  1
  Nb  Nb4  1  0.00000000  0.25000000  0.12500000  1
  Se  Se5  1  0.71409665  0.82998826  0.87142379  1
  F  F6  1  0.94080244  0.36362225  0.57847702  1
  F  F7  1  0.33256422  0.16600239  0.74072173  1
  F  F8  1  0.28347874  0.90954253  0.64808679  1
  Cl  Cl9  1  0.60204985  0.80630687  0.16041220  1
