# generated using pymatgen
data_Li2TiP5I4N5
_symmetry_space_group_name_H-M   'P 1'
_cell_length_a   7.51516144
_cell_length_b   7.18364006
_cell_length_c   7.66791529
_cell_angle_alpha   92.20346446
_cell_angle_beta   92.63245389
_cell_angle_gamma   92.27850714
_symmetry_Int_Tables_number   1
_chemical_formula_structural   Li2TiP5I4N5
_chemical_formula_sum   'Li2 Ti1 P5 I4 N5'
_cell_volume   412.86144949
_cell_formula_units_Z   1
loop_
 _symmetry_equiv_pos_site_id
 _symmetry_equiv_pos_as_xyz
  1  'x, y, z'
loop_
 _atom_site_type_symbol
 _atom_site_label
 _atom_site_symmetry_multiplicity
 _atom_site_fract_x
 _atom_site_fract_y
 _atom_site_fract_z
 _atom_site_occupancy
  I  I0  1  0.00000000  0.00000000  0.00000000  1
  I  I1  1  0.50000000  0.50000000  0.50000000  1
  I  I2  1  0.50000000  0.50000000  0.00000000  1
  I  I3  1  0.50000000  0.00000000  0.50000000  1
  P  P4  1  0.00000000  0.50000000  0.50000000  1
  P  P5  1  0.29033337  0.85200786  0.69816352  1
  P  P6  1  0.53575282  0.19708465  0.61316406  1
  P  P7  1  0.49434723  0.71244644  0.26330879  1
  P  P8  1  0.41787264  0.74154685  0.32066333  1
  Li  Li9  1  0.20742305  0.59752047  0.86104880  1
  Li  Li10  1  0.37862567  0.86783056  0.49736668  1
  Ti  Ti11  1  0.41292125  0.75238514  0.50232042  1
  N  N12  1  0.25918204  0.71648912  0.61127177  1
  N  N13  1  0.83867348  0.52188707  0.70335965  1
  N  N14  1  0.56637963  0.51078004  0.30046923  1
  N  N15  1  0.58094277  0.57198286  0.70290384  1
  N  N16  1  0.35668229  0.56574648  0.27190817  1
