# generated using pymatgen
data_Li4As6P8SeO3
_symmetry_space_group_name_H-M   'P 1'
_cell_length_a   5.40554341
_cell_length_b   5.17614816
_cell_length_c   7.27992001
_cell_angle_alpha   102.39567759
_cell_angle_beta   106.37192499
_cell_angle_gamma   101.63909493
_symmetry_Int_Tables_number   1
_chemical_formula_structural   Li4As6P8SeO3
_chemical_formula_sum   'Li4 As6 P8 Se1 O3'
_cell_volume   183.24904585
_cell_formula_units_Z   1
loop_
 _symmetry_equiv_pos_site_id
 _symmetry_equiv_pos_as_xyz
  1  'x, y, z'
loop_
 _atom_site_type_symbol
 _atom_site_label
 _atom_site_symmetry_multiplicity
 _atom_site_fract_x
 _atom_site_fract_y
 _atom_site_fract_z
 _atom_site_occupancy
  P  P0  1  0.00000000  0.00000000  0.00000000  1
  P  P1  1  0.50000000  0.50000000  0.50000000  1
  P  P2  1  0.25000000  0.25000000  0.25000000  1
  P  P3  1  0.75000000  0.25000000  0.00000000  1
  P  P4  1  0.25000000  0.75000000  0.50000000  1
  P  P5  1  0.23790644  0.60833387  0.50421895  1
  P  P6  1  0.51439469  0.88350476  0.95856320  1
  P  P7  1  0.35610258  0.27308196  0.19161820  1
  Li  Li8  1  0.83775120  0.77774991  0.05911513  1
  Li  Li9  1  0.97805717  0.72304738  0.01399614  1
  Li  Li10  1  0.33487638  0.51140192  0.49418977  1
  Li  Li11  1  0.96443938  0.33946880  0.84909088  1
  Se  Se12  1  0.02078425  0.39949257  0.69555085  1
  As  As13  1  0.43683477  0.65543512  0.91375573  1
  As  As14  1  0.51744954  0.53453065  0.25555721  1
  As  As15  1  0.65195347  0.37084036  0.60419253  1
  As  As16  1  0.35299804  0.46185954  0.32852222  1
  As  As17  1  0.88950899  0.41745130  0.58090155  1
  As  As18  1  0.72877608  0.72784634  0.10474856  1
  O  O19  1  0.53555156  0.70161260  0.05409721  1
  O  O20  1  0.74859567  0.29174558  0.35207577  1
  O  O21  1  0.37509559  0.37491660  0.24864885  1
