# generated using pymatgen
data_LiMn2(Sb2P)2
_symmetry_space_group_name_H-M   'P 1'
_cell_length_a   5.32929288
_cell_length_b   5.74682014
_cell_length_c   6.56869634
_cell_angle_alpha   97.72343301
_cell_angle_beta   94.73937438
_cell_angle_gamma   97.21109930
_symmetry_Int_Tables_number   1
_chemical_formula_structural   LiMn2(Sb2P)2
_chemical_formula_sum   'Li1 Mn2 Sb4 P2'
_cell_volume   196.75886646
_cell_formula_units_Z   1
loop_
 _symmetry_equiv_pos_site_id
 _symmetry_equiv_pos_as_xyz
  1  'x, y, z'
loop_
 _atom_site_type_symbol
 _atom_site_label
 _atom_site_symmetry_multiplicity
 _atom_site_fract_x
 _atom_site_fract_y
 _atom_site_fract_z
 _atom_site_occupancy
  Mn  Mn0  1  0.00000000  0.00000000  0.00000000  1
  Mn  Mn1  1  0.33300000  0.66700000  0.25000000  1
  Sb  Sb2  1  0.66700000  0.33300000  0.50000000  1
  Sb  Sb3  1  0.00000000  0.00000000  0.75000000  1
  Sb  Sb4  1  0.43798700  0.81141586  0.53590159  1
  Sb  Sb5  1  0.42723099  0.57953042  0.66262810  1
  P  P6  1  0.36229050  0.80272119  0.76544665  1
  P  P7  1  0.37805734  0.61683885  0.57836868  1
  Li  Li8  1  0.63994269  0.99041610  0.58499901  1
