# generated using pymatgen
data_Li2TiP6(IO)4
_symmetry_space_group_name_H-M   'P 1'
_cell_length_a   8.75751888
_cell_length_b   8.59581757
_cell_length_c   7.44884230
_cell_angle_alpha   90.03802512
_cell_angle_beta   90.18091199
_cell_angle_gamma   90.04347287
_symmetry_Int_Tables_number   1
_chemical_formula_structural   Li2TiP6(IO)4
_chemical_formula_sum   'Li2 Ti1 P6 I4 O4'
_cell_volume   560.73112764
_cell_formula_units_Z   1
loop_
 _symmetry_equiv_pos_site_id
 _symmetry_equiv_pos_as_xyz
  1  'x, y, z'
loop_
 _atom_site_type_symbol
 _atom_site_label
 _atom_site_symmetry_multiplicity
 _atom_site_fract_x
 _atom_site_fract_y
 _atom_site_fract_z
 _atom_site_occupancy
  P  P0  1  0.00000000  0.00000000  0.00000000  1
  P  P1  1  0.50000000  0.50000000  0.50000000  1
  P  P2  1  0.25000000  0.25000000  0.25000000  1
  P  P3  1  0.75000000  0.25000000  0.00000000  1
  P  P4  1  0.25000000  0.75000000  0.50000000  1
  P  P5  1  0.44653473  0.43776416  0.52933701  1
  I  I6  1  0.23240808  0.08289566  0.08168630  1
  I  I7  1  0.73730482  0.91457983  0.49904828  1
  I  I8  1  0.90726105  0.45849256  0.05437165  1
  I  I9  1  0.99367321  0.40956943  0.69944920  1
  Li  Li10  1  0.49820941  0.52531178  0.52011666  1
  Li  Li11  1  0.69489219  0.08846431  0.37614389  1
  Ti  Ti12  1  0.15576368  0.40598300  0.52427056  1
  O  O13  1  0.35113733  0.65457597  0.13476516  1
  O  O14  1  0.76470278  0.10311063  0.06460608  1
  O  O15  1  0.42345878  0.97940523  0.16337810  1
  O  O16  1  0.60235647  0.01834673  0.79815674  1
