# generated using pymatgen
data_Li3LuP3N5Cl2
_symmetry_space_group_name_H-M   'P 1'
_cell_length_a   6.93805001
_cell_length_b   6.74525455
_cell_length_c   7.90883040
_cell_angle_alpha   94.22690815
_cell_angle_beta   94.76193476
_cell_angle_gamma   94.21205958
_symmetry_Int_Tables_number   1
_chemical_formula_structural   Li3LuP3N5Cl2
_chemical_formula_sum   'Li3 Lu1 P3 N5 Cl2'
_cell_volume   366.66304057
_cell_formula_units_Z   1
loop_
 _symmetry_equiv_pos_site_id
 _symmetry_equiv_pos_as_xyz
  1  'x, y, z'
loop_
 _atom_site_type_symbol
 _atom_site_label
 _atom_site_symmetry_multiplicity
 _atom_site_fract_x
 _atom_site_fract_y
 _atom_site_fract_z
 _atom_site_occupancy
  P  P0  1  0.00000000  0.00000000  0.00000000  1
  P  P1  1  0.50000000  0.50000000  0.50000000  1
  P  P2  1  0.50000000  0.50000000  0.00000000  1
  Lu  Lu3  1  0.50000000  0.00000000  0.50000000  1
  Li  Li4  1  0.00000000  0.50000000  0.50000000  1
  Li  Li5  1  0.86685819  0.29400961  0.21525139  1
  Li  Li6  1  0.92055477  0.23998580  0.95081590  1
  Cl  Cl7  1  0.98374210  0.27530735  0.75793480  1
  Cl  Cl8  1  0.95554149  0.40993525  0.91125968  1
  N  N9  1  0.51169994  0.72456183  0.11240108  1
  N  N10  1  0.92679549  0.79673802  0.80008701  1
  N  N11  1  0.94117484  0.93421580  0.70417871  1
  N  N12  1  0.21626033  0.31394122  0.45721194  1
  N  N13  1  0.50524908  0.26126547  0.15531115  1
