# generated using pymatgen
data_LiTiCu2(OF)2
_symmetry_space_group_name_H-M   'P 1'
_cell_length_a   5.60161356
_cell_length_b   5.57137001
_cell_length_c   6.94206021
_cell_angle_alpha   95.92928919
_cell_angle_beta   99.23837008
_cell_angle_gamma   96.01892200
_symmetry_Int_Tables_number   1
_chemical_formula_structural   LiTiCu2(OF)2
_chemical_formula_sum   'Li1 Ti1 Cu2 O2 F2'
_cell_volume   211.06461844
_cell_formula_units_Z   1
loop_
 _symmetry_equiv_pos_site_id
 _symmetry_equiv_pos_as_xyz
  1  'x, y, z'
loop_
 _atom_site_type_symbol
 _atom_site_label
 _atom_site_symmetry_multiplicity
 _atom_site_fract_x
 _atom_site_fract_y
 _atom_site_fract_z
 _atom_site_occupancy
  Li  Li0  1  0.00000000  0.00000000  0.00000000  1
  Cu  Cu1  1  0.50000000  0.50000000  0.50000000  1
  Cu  Cu2  1  0.50000000  0.50000000  0.00000000  1
  F  F3  1  0.50000000  0.00000000  0.50000000  1
  F  F4  1  0.00000000  0.50000000  0.50000000  1
  Ti  Ti5  1  0.69649587  0.36571630  0.96965336  1
  O  O6  1  0.62555261  0.11053403  0.20193613  1
  O  O7  1  0.81872036  0.00037724  0.31017783  1
