# generated using pymatgen
data_LiMnMo2P3
_symmetry_space_group_name_H-M   'P 1'
_cell_length_a   5.36593193
_cell_length_b   5.70525628
_cell_length_c   6.44774162
_cell_angle_alpha   94.02966159
_cell_angle_beta   93.69760636
_cell_angle_gamma   94.11017049
_symmetry_Int_Tables_number   1
_chemical_formula_structural   LiMnMo2P3
_chemical_formula_sum   'Li1 Mn1 Mo2 P3'
_cell_volume   195.91675738
_cell_formula_units_Z   1
loop_
 _symmetry_equiv_pos_site_id
 _symmetry_equiv_pos_as_xyz
  1  'x, y, z'
loop_
 _atom_site_type_symbol
 _atom_site_label
 _atom_site_symmetry_multiplicity
 _atom_site_fract_x
 _atom_site_fract_y
 _atom_site_fract_z
 _atom_site_occupancy
  Mn  Mn0  1  0.00000000  0.00000000  0.00000000  1
  P  P1  1  0.50000000  0.50000000  0.50000000  1
  P  P2  1  0.50000000  0.50000000  0.00000000  1
  P  P3  1  0.50000000  0.00000000  0.50000000  1
  Mo  Mo4  1  0.00000000  0.50000000  0.50000000  1
  Mo  Mo5  1  0.50589083  0.21374487  0.05326335  1
  Li  Li6  1  0.28245558  0.83570628  0.46506641  1
