# generated using pymatgen
data_Li3TiI4(OF)3
_symmetry_space_group_name_H-M   'P 1'
_cell_length_a   5.73096571
_cell_length_b   5.55822095
_cell_length_c   6.91033220
_cell_angle_alpha   98.17160004
_cell_angle_beta   101.06221917
_cell_angle_gamma   97.61211196
_symmetry_Int_Tables_number   1
_chemical_formula_structural   Li3TiI4(OF)3
_chemical_formula_sum   'Li3 Ti1 I4 O3 F3'
_cell_volume   210.92744906
_cell_formula_units_Z   1
loop_
 _symmetry_equiv_pos_site_id
 _symmetry_equiv_pos_as_xyz
  1  'x, y, z'
loop_
 _atom_site_type_symbol
 _atom_site_label
 _atom_site_symmetry_multiplicity
 _atom_site_fract_x
 _atom_site_fract_y
 _atom_site_fract_z
 _atom_site_occupancy
  I  I0  1  0.00000000  0.00000000  0.00000000  1
  I  I1  1  0.50000000  0.50000000  0.50000000  1
  I  I2  1  0.50000000  0.50000000  0.00000000  1
  I  I3  1  0.50000000  0.00000000  0.50000000  1
  Li  Li4  1  0.00000000  0.50000000  0.50000000  1
  Li  Li5  1  0.09917196  0.92203862  0.71395072  1
  Li  Li6  1  0.59173881  0.88635452  0.63009925  1
  F  F7  1  0.03353337  0.13834106  0.09646840  1
  F  F8  1  0.11581193  0.83534384  0.20461750  1
  F  F9  1  0.55405579  0.45917606  0.27122559  1
  Ti  Ti10  1  0.77202138  0.41637408  0.69287825  1
  O  O11  1  0.37161967  0.55610395  0.62324525  1
  O  O12  1  0.93014220  0.27200658  0.63268096  1
  O  O13  1  0.26735049  0.08516040  0.57037812  1
