# generated using pymatgen
data_Li2LuCu2(As3P2)2
_symmetry_space_group_name_H-M   'P 1'
_cell_length_a   7.52698489
_cell_length_b   7.58548908
_cell_length_c   8.28316065
_cell_angle_alpha   90.77331624
_cell_angle_beta   92.06805384
_cell_angle_gamma   90.85697868
_symmetry_Int_Tables_number   1
_chemical_formula_structural   Li2LuCu2(As3P2)2
_chemical_formula_sum   'Li2 Lu1 Cu2 As6 P4'
_cell_volume   472.52666680
_cell_formula_units_Z   1
loop_
 _symmetry_equiv_pos_site_id
 _symmetry_equiv_pos_as_xyz
  1  'x, y, z'
loop_
 _atom_site_type_symbol
 _atom_site_label
 _atom_site_symmetry_multiplicity
 _atom_site_fract_x
 _atom_site_fract_y
 _atom_site_fract_z
 _atom_site_occupancy
  P  P0  1  0.00000000  0.00000000  0.00000000  1
  P  P1  1  0.50000000  0.50000000  0.50000000  1
  P  P2  1  0.50000000  0.50000000  0.00000000  1
  P  P3  1  0.50000000  0.00000000  0.50000000  1
  Lu  Lu4  1  0.00000000  0.50000000  0.50000000  1
  Li  Li5  1  0.54532162  0.67913505  0.87402054  1
  Li  Li6  1  0.79376388  0.00921139  0.58501707  1
  Cu  Cu7  1  0.30169362  0.22841571  0.62895816  1
  Cu  Cu8  1  0.23555880  0.92240843  0.51694104  1
  As  As9  1  0.80966342  0.07543082  0.57494278  1
  As  As10  1  0.98465808  0.38661816  0.67316505  1
  As  As11  1  0.70155079  0.30342124  0.60372720  1
  As  As12  1  0.24564982  0.98256518  0.26266520  1
  As  As13  1  0.89372260  0.02359368  0.48567392  1
  As  As14  1  0.64971684  0.47407731  0.09190098  1
