# generated using pymatgen
data_Li2LuCu2(NiP2)2
_symmetry_space_group_name_H-M   'P 1'
_cell_length_a   7.36732819
_cell_length_b   7.19541809
_cell_length_c   7.81966392
_cell_angle_alpha   91.48495819
_cell_angle_beta   91.56721780
_cell_angle_gamma   91.51076812
_symmetry_Int_Tables_number   1
_chemical_formula_structural   Li2LuCu2(NiP2)2
_chemical_formula_sum   'Li2 Lu1 Cu2 Ni2 P4'
_cell_volume   414.08197357
_cell_formula_units_Z   1
loop_
 _symmetry_equiv_pos_site_id
 _symmetry_equiv_pos_as_xyz
  1  'x, y, z'
loop_
 _atom_site_type_symbol
 _atom_site_label
 _atom_site_symmetry_multiplicity
 _atom_site_fract_x
 _atom_site_fract_y
 _atom_site_fract_z
 _atom_site_occupancy
  P  P0  1  0.00000000  0.00000000  0.00000000  1
  P  P1  1  0.50000000  0.50000000  0.50000000  1
  P  P2  1  0.25000000  0.25000000  0.25000000  1
  P  P3  1  0.75000000  0.25000000  0.00000000  1
  Lu  Lu4  1  0.25000000  0.75000000  0.50000000  1
  Li  Li5  1  0.20456761  0.31741502  0.99153507  1
  Li  Li6  1  0.78163269  0.58739300  0.55698404  1
  Cu  Cu7  1  0.44690448  0.68136948  0.55643558  1
  Cu  Cu8  1  0.18182374  0.05005869  0.56610288  1
  Ni  Ni9  1  0.37803479  0.26651704  0.60444616  1
  Ni  Ni10  1  0.37451834  0.42478274  0.09975252  1
