# generated using pymatgen
data_LiTiS3(IO)4
_symmetry_space_group_name_H-M   'P 1'
_cell_length_a   7.74525142
_cell_length_b   7.66929087
_cell_length_c   7.23524994
_cell_angle_alpha   90.59877144
_cell_angle_beta   92.84877268
_cell_angle_gamma   90.68455565
_symmetry_Int_Tables_number   1
_chemical_formula_structural   LiTiS3(IO)4
_chemical_formula_sum   'Li1 Ti1 S3 I4 O4'
_cell_volume   429.19008085
_cell_formula_units_Z   1
loop_
 _symmetry_equiv_pos_site_id
 _symmetry_equiv_pos_as_xyz
  1  'x, y, z'
loop_
 _atom_site_type_symbol
 _atom_site_label
 _atom_site_symmetry_multiplicity
 _atom_site_fract_x
 _atom_site_fract_y
 _atom_site_fract_z
 _atom_site_occupancy
  I  I0  1  0.00000000  0.00000000  0.00000000  1
  I  I1  1  0.50000000  0.50000000  0.50000000  1
  I  I2  1  0.25000000  0.25000000  0.25000000  1
  I  I3  1  0.75000000  0.25000000  0.00000000  1
  Li  Li4  1  0.25000000  0.75000000  0.50000000  1
  S  S5  1  0.68733982  0.04663666  0.00575892  1
  S  S6  1  0.44389280  0.46321579  0.54869252  1
  S  S7  1  0.21133950  0.94398572  0.44681181  1
  Ti  Ti8  1  0.96179502  0.88858759  0.41098419  1
  O  O9  1  0.53168132  0.98535456  0.22910899  1
  O  O10  1  0.68120144  0.37720523  0.04073920  1
  O  O11  1  0.90317467  0.88188819  0.57233530  1
  O  O12  1  0.73470456  0.56876796  0.55831136  1
