# generated using pymatgen
data_Li2Sb4P3OF4
_symmetry_space_group_name_H-M   'P 1'
_cell_length_a   5.22721314
_cell_length_b   5.08348789
_cell_length_c   5.80305143
_cell_angle_alpha   97.05157299
_cell_angle_beta   90.38772175
_cell_angle_gamma   96.20971312
_symmetry_Int_Tables_number   1
_chemical_formula_structural   Li2Sb4P3OF4
_chemical_formula_sum   'Li2 Sb4 P3 O1 F4'
_cell_volume   152.10574815
_cell_formula_units_Z   1
loop_
 _symmetry_equiv_pos_site_id
 _symmetry_equiv_pos_as_xyz
  1  'x, y, z'
loop_
 _atom_site_type_symbol
 _atom_site_label
 _atom_site_symmetry_multiplicity
 _atom_site_fract_x
 _atom_site_fract_y
 _atom_site_fract_z
 _atom_site_occupancy
  F  F0  1  0.00000000  0.00000000  0.00000000  1
  F  F1  1  0.50000000  0.50000000  0.50000000  1
  F  F2  1  0.25000000  0.25000000  0.25000000  1
  F  F3  1  0.75000000  0.25000000  0.00000000  1
  O  O4  1  0.25000000  0.75000000  0.50000000  1
  Sb  Sb5  1  0.87667087  0.78675563  0.85520942  1
  Sb  Sb6  1  0.75570946  0.91854795  0.90639765  1
  Sb  Sb7  1  0.47918107  0.46331949  0.65884723  1
  Sb  Sb8  1  0.33058304  0.23237500  0.16024049  1
  P  P9  1  0.19563708  0.09639994  0.88593104  1
  P  P10  1  0.47750519  0.32719512  0.81969988  1
  P  P11  1  0.96265768  0.63683459  0.89644659  1
  Li  Li12  1  0.95999438  0.99758017  0.99779449  1
  Li  Li13  1  0.57640093  0.75325683  0.79425885  1
