# generated using pymatgen
data_LiCuAs3P2
_symmetry_space_group_name_H-M   'P 1'
_cell_length_a   7.50293872
_cell_length_b   7.51120731
_cell_length_c   8.25729221
_cell_angle_alpha   91.04014400
_cell_angle_beta   91.93826830
_cell_angle_gamma   91.20051726
_symmetry_Int_Tables_number   1
_chemical_formula_structural   LiCuAs3P2
_chemical_formula_sum   'Li2 Cu2 As6 P4'
_cell_volume   464.89783045
_cell_formula_units_Z   2
loop_
 _symmetry_equiv_pos_site_id
 _symmetry_equiv_pos_as_xyz
  1  'x, y, z'
loop_
 _atom_site_type_symbol
 _atom_site_label
 _atom_site_symmetry_multiplicity
 _atom_site_fract_x
 _atom_site_fract_y
 _atom_site_fract_z
 _atom_site_occupancy
  P  P0  1  0.00000000  0.00000000  0.00000000  1
  P  P1  1  0.33300000  0.66700000  0.25000000  1
  P  P2  1  0.66700000  0.33300000  0.50000000  1
  P  P3  1  0.00000000  0.00000000  0.75000000  1
  Li  Li4  1  0.69793489  0.15177844  0.16241694  1
  Li  Li5  1  0.22291029  0.29654266  0.18063000  1
  Cu  Cu6  1  0.62874384  0.25493755  0.47553800  1
  Cu  Cu7  1  0.86339573  0.71393595  0.14178303  1
  As  As8  1  0.57257352  0.68167801  0.58228730  1
  As  As9  1  0.77841282  0.69336238  0.91467850  1
  As  As10  1  0.14302211  0.62868251  0.78009962  1
  As  As11  1  0.09923414  0.24563482  0.31475675  1
  As  As12  1  0.36577431  0.81357947  0.82211124  1
  As  As13  1  0.38217753  0.99561061  0.83379860  1
