# generated using pymatgen
data_Li2Ti(IO)4
_symmetry_space_group_name_H-M   'P 1'
_cell_length_a   7.96850199
_cell_length_b   7.79174584
_cell_length_c   7.67152774
_cell_angle_alpha   91.10457994
_cell_angle_beta   91.10522008
_cell_angle_gamma   91.19295221
_symmetry_Int_Tables_number   1
_chemical_formula_structural   Li2Ti(IO)4
_chemical_formula_sum   'Li2 Ti1 I4 O4'
_cell_volume   476.02986411
_cell_formula_units_Z   1
loop_
 _symmetry_equiv_pos_site_id
 _symmetry_equiv_pos_as_xyz
  1  'x, y, z'
loop_
 _atom_site_type_symbol
 _atom_site_label
 _atom_site_symmetry_multiplicity
 _atom_site_fract_x
 _atom_site_fract_y
 _atom_site_fract_z
 _atom_site_occupancy
  I  I0  1  0.00000000  0.00000000  0.00000000  1
  I  I1  1  0.50000000  0.50000000  0.50000000  1
  I  I2  1  0.25000000  0.25000000  0.25000000  1
  I  I3  1  0.75000000  0.25000000  0.00000000  1
  Li  Li4  1  0.25000000  0.75000000  0.50000000  1
  Li  Li5  1  0.56111089  0.74774118  0.04597144  1
  Ti  Ti6  1  0.84241755  0.07333430  0.49314852  1
  O  O7  1  0.29610525  0.66650390  0.29888730  1
  O  O8  1  0.78913898  0.31039279  0.85545267  1
  O  O9  1  0.13995465  0.63094026  0.88803347  1
  O  O10  1  0.33040129  0.89015696  0.16391291  1
