# generated using pymatgen
data_Li3LuP3F3
_symmetry_space_group_name_H-M   'P 1'
_cell_length_a   5.84882421
_cell_length_b   5.25307168
_cell_length_c   6.95819036
_cell_angle_alpha   96.85036516
_cell_angle_beta   95.80418376
_cell_angle_gamma   97.89833515
_symmetry_Int_Tables_number   1
_chemical_formula_structural   Li3LuP3F3
_chemical_formula_sum   'Li3 Lu1 P3 F3'
_cell_volume   208.73913668
_cell_formula_units_Z   1
loop_
 _symmetry_equiv_pos_site_id
 _symmetry_equiv_pos_as_xyz
  1  'x, y, z'
loop_
 _atom_site_type_symbol
 _atom_site_label
 _atom_site_symmetry_multiplicity
 _atom_site_fract_x
 _atom_site_fract_y
 _atom_site_fract_z
 _atom_site_occupancy
  P  P0  1  0.12500000  0.00000000  0.25000000  1
  P  P1  1  0.00000000  0.00000000  0.00000000  1
  P  P2  1  0.37500000  0.00000000  0.25000000  1
  Lu  Lu3  1  0.25000000  0.25000000  0.25000000  1
  Li  Li4  1  0.00000000  0.25000000  0.12500000  1
  Li  Li5  1  0.10943489  0.58237712  0.83532314  1
  Li  Li6  1  0.30144599  0.51213776  0.08903855  1
  F  F7  1  0.95210821  0.37896900  0.61671430  1
  F  F8  1  0.63471616  0.39202566  0.81117856  1
  F  F9  1  0.70037108  0.09682260  0.58111572  1
