# generated using pymatgen
data_Li2Ti2Cu2As6P5
_symmetry_space_group_name_H-M   'P 1'
_cell_length_a   7.60293717
_cell_length_b   7.52000828
_cell_length_c   8.50911905
_cell_angle_alpha   91.48422315
_cell_angle_beta   91.70536627
_cell_angle_gamma   91.71706599
_symmetry_Int_Tables_number   1
_chemical_formula_structural   Li2Ti2Cu2As6P5
_chemical_formula_sum   'Li2 Ti2 Cu2 As6 P5'
_cell_volume   485.89300362
_cell_formula_units_Z   1
loop_
 _symmetry_equiv_pos_site_id
 _symmetry_equiv_pos_as_xyz
  1  'x, y, z'
loop_
 _atom_site_type_symbol
 _atom_site_label
 _atom_site_symmetry_multiplicity
 _atom_site_fract_x
 _atom_site_fract_y
 _atom_site_fract_z
 _atom_site_occupancy
  Ti  Ti0  1  0.00000000  0.00000000  0.00000000  1
  Ti  Ti1  1  0.50000000  0.50000000  0.50000000  1
  P  P2  1  0.50000000  0.50000000  0.00000000  1
  P  P3  1  0.50000000  0.00000000  0.50000000  1
  P  P4  1  0.00000000  0.50000000  0.50000000  1
  P  P5  1  0.84233384  0.87603803  0.18143732  1
  P  P6  1  0.11562953  0.38731949  0.18296716  1
  As  As7  1  0.00045683  0.88116923  0.43017499  1
  As  As8  1  0.47314844  0.47209109  0.84229848  1
  As  As9  1  0.98139976  0.76772400  0.39785775  1
  As  As10  1  0.48459814  0.36117557  0.54712950  1
  As  As11  1  0.64070355  0.20230170  0.12999451  1
  As  As12  1  0.29069290  0.78747463  0.10739379  1
  Li  Li13  1  0.78209750  0.04199806  0.29528013  1
  Li  Li14  1  0.81600774  0.43519019  0.29180677  1
  Cu  Cu15  1  0.21656595  0.55128507  0.01248370  1
  Cu  Cu16  1  0.86108101  0.71597508  0.45025002  1
