# generated using pymatgen
data_LiCuNiAs3
_symmetry_space_group_name_H-M   'P 1'
_cell_length_a   7.53610733
_cell_length_b   7.45937816
_cell_length_c   8.52481104
_cell_angle_alpha   91.51844175
_cell_angle_beta   91.67598137
_cell_angle_gamma   91.75691188
_symmetry_Int_Tables_number   1
_chemical_formula_structural   LiCuNiAs3
_chemical_formula_sum   'Li2 Cu2 Ni2 As6'
_cell_volume   478.60926214
_cell_formula_units_Z   2
loop_
 _symmetry_equiv_pos_site_id
 _symmetry_equiv_pos_as_xyz
  1  'x, y, z'
loop_
 _atom_site_type_symbol
 _atom_site_label
 _atom_site_symmetry_multiplicity
 _atom_site_fract_x
 _atom_site_fract_y
 _atom_site_fract_z
 _atom_site_occupancy
  Li  Li0  1  0.00000000  0.00000000  0.00000000  1
  Li  Li1  1  0.50000000  0.50000000  0.50000000  1
  Cu  Cu2  1  0.25000000  0.25000000  0.25000000  1
  Cu  Cu3  1  0.75000000  0.25000000  0.00000000  1
  Ni  Ni4  1  0.25000000  0.75000000  0.50000000  1
  Ni  Ni5  1  0.39654223  0.93579579  0.61886031  1
  As  As6  1  0.41388109  0.46758128  0.71591717  1
  As  As7  1  0.59328578  0.16823373  0.82397960  1
  As  As8  1  0.89021821  0.35110586  0.70981936  1
  As  As9  1  0.28146269  0.91115337  0.86694925  1
  As  As10  1  0.95336523  0.81875628  0.95685783  1
  As  As11  1  0.46114120  0.86374735  0.98959006  1
