# generated using pymatgen
data_Li2Cu2Ni2As6F3
_symmetry_space_group_name_H-M   'P 1'
_cell_length_a   7.67170964
_cell_length_b   7.56584350
_cell_length_c   8.85461273
_cell_angle_alpha   91.20385397
_cell_angle_beta   91.60846576
_cell_angle_gamma   91.38665970
_symmetry_Int_Tables_number   1
_chemical_formula_structural   Li2Cu2Ni2As6F3
_chemical_formula_sum   'Li2 Cu2 Ni2 As6 F3'
_cell_volume   513.47394728
_cell_formula_units_Z   1
loop_
 _symmetry_equiv_pos_site_id
 _symmetry_equiv_pos_as_xyz
  1  'x, y, z'
loop_
 _atom_site_type_symbol
 _atom_site_label
 _atom_site_symmetry_multiplicity
 _atom_site_fract_x
 _atom_site_fract_y
 _atom_site_fract_z
 _atom_site_occupancy
  Li  Li0  1  0.00000000  0.00000000  0.00000000  1
  Li  Li1  1  0.50000000  0.50000000  0.50000000  1
  Cu  Cu2  1  0.25000000  0.25000000  0.25000000  1
  Cu  Cu3  1  0.75000000  0.25000000  0.00000000  1
  F  F4  1  0.25000000  0.75000000  0.50000000  1
  F  F5  1  0.63387607  0.54355952  0.35931022  1
  F  F6  1  0.11950183  0.95601060  0.79243856  1
  Ni  Ni7  1  0.29423778  0.98557158  0.52426465  1
  Ni  Ni8  1  0.56891093  0.55299814  0.31315828  1
  As  As9  1  0.86844052  0.34078368  0.53299092  1
  As  As10  1  0.37924001  0.35313960  0.31248815  1
  As  As11  1  0.14274078  0.40404508  0.08193340  1
  As  As12  1  0.29222149  0.41915871  0.68113795  1
  As  As13  1  0.36503518  0.28565183  0.84076120  1
  As  As14  1  0.34457276  0.94643197  0.39487198  1
