# generated using pymatgen
data_Li2Ti2NCl2
_symmetry_space_group_name_H-M   'P 1'
_cell_length_a   3.93374891
_cell_length_b   4.03089652
_cell_length_c   5.73039526
_cell_angle_alpha   99.02301559
_cell_angle_beta   114.60027139
_cell_angle_gamma   98.64493439
_symmetry_Int_Tables_number   1
_chemical_formula_structural   Li2Ti2NCl2
_chemical_formula_sum   'Li2 Ti2 N1 Cl2'
_cell_volume   79.20789489
_cell_formula_units_Z   1
loop_
 _symmetry_equiv_pos_site_id
 _symmetry_equiv_pos_as_xyz
  1  'x, y, z'
loop_
 _atom_site_type_symbol
 _atom_site_label
 _atom_site_symmetry_multiplicity
 _atom_site_fract_x
 _atom_site_fract_y
 _atom_site_fract_z
 _atom_site_occupancy
  Cl  Cl0  1  0.12500000  0.12500000  0.12500000  1
  Cl  Cl1  1  0.50000000  0.50000000  0.50000000  1
  Ti  Ti2  1  0.25000000  0.25000000  0.25000000  1
  Ti  Ti3  1  0.75000000  0.75000000  0.75000000  1
  Li  Li4  1  0.78904212  0.51346653  0.06317975  1
  Li  Li5  1  0.81140131  0.74108186  0.85132213  1
  N  N6  1  0.52953704  0.46927748  0.59247490  1
