# generated using pymatgen
data_Li3Lu(NiAs3)2
_symmetry_space_group_name_H-M   'P 1'
_cell_length_a   7.71046705
_cell_length_b   7.52657417
_cell_length_c   8.86078019
_cell_angle_alpha   91.65108248
_cell_angle_beta   91.11574022
_cell_angle_gamma   91.91304912
_symmetry_Int_Tables_number   1
_chemical_formula_structural   Li3Lu(NiAs3)2
_chemical_formula_sum   'Li3 Lu1 Ni2 As6'
_cell_volume   513.61376809
_cell_formula_units_Z   1
loop_
 _symmetry_equiv_pos_site_id
 _symmetry_equiv_pos_as_xyz
  1  'x, y, z'
loop_
 _atom_site_type_symbol
 _atom_site_label
 _atom_site_symmetry_multiplicity
 _atom_site_fract_x
 _atom_site_fract_y
 _atom_site_fract_z
 _atom_site_occupancy
  Lu  Lu0  1  0.12500000  0.00000000  0.25000000  1
  Li  Li1  1  0.00000000  0.00000000  0.00000000  1
  Li  Li2  1  0.37500000  0.00000000  0.25000000  1
  Li  Li3  1  0.25000000  0.25000000  0.25000000  1
  Ni  Ni4  1  0.00000000  0.25000000  0.12500000  1
  Ni  Ni5  1  0.32364333  0.51569072  0.26478220  1
  As  As6  1  0.59986879  0.22743014  0.38227033  1
  As  As7  1  0.48085326  0.99365959  0.35539128  1
  As  As8  1  0.89537283  0.84990001  0.03720323  1
  As  As9  1  0.90349536  0.43537553  0.15688259  1
  As  As10  1  0.13005886  0.13746761  0.34574943  1
  As  As11  1  0.08959075  0.69703888  0.07322135  1
