# generated using pymatgen
data_Li2LuTi(PO)4
_symmetry_space_group_name_H-M   'P 1'
_cell_length_a   7.89141330
_cell_length_b   7.85895373
_cell_length_c   7.47894365
_cell_angle_alpha   93.04953339
_cell_angle_beta   93.79234340
_cell_angle_gamma   92.91978723
_symmetry_Int_Tables_number   1
_chemical_formula_structural   Li2LuTi(PO)4
_chemical_formula_sum   'Li2 Lu1 Ti1 P4 O4'
_cell_volume   461.46923262
_cell_formula_units_Z   1
loop_
 _symmetry_equiv_pos_site_id
 _symmetry_equiv_pos_as_xyz
  1  'x, y, z'
loop_
 _atom_site_type_symbol
 _atom_site_label
 _atom_site_symmetry_multiplicity
 _atom_site_fract_x
 _atom_site_fract_y
 _atom_site_fract_z
 _atom_site_occupancy
  O  O0  1  0.00000000  0.00000000  0.00000000  1
  O  O1  1  0.50000000  0.50000000  0.50000000  1
  O  O2  1  0.50000000  0.50000000  0.00000000  1
  O  O3  1  0.50000000  0.00000000  0.50000000  1
  P  P4  1  0.00000000  0.50000000  0.50000000  1
  P  P5  1  0.02411453  0.05840668  0.05169479  1
  P  P6  1  0.12204333  0.64117958  0.06493727  1
  P  P7  1  0.08741635  0.68173515  0.97599551  1
  Ti  Ti8  1  0.01717629  0.29546276  0.52550956  1
  Lu  Lu9  1  0.50407571  0.09263090  0.17841908  1
  Li  Li10  1  0.61678904  0.57162985  0.79723952  1
  Li  Li11  1  0.02124324  0.04383271  0.26860797  1
