# generated using pymatgen
data_LiTi3Cu2O5F3
_symmetry_space_group_name_H-M   'P 1'
_cell_length_a   7.36484895
_cell_length_b   7.23426359
_cell_length_c   8.56935372
_cell_angle_alpha   90.48818820
_cell_angle_beta   92.47566480
_cell_angle_gamma   90.55293377
_symmetry_Int_Tables_number   1
_chemical_formula_structural   LiTi3Cu2O5F3
_chemical_formula_sum   'Li1 Ti3 Cu2 O5 F3'
_cell_volume   456.10318538
_cell_formula_units_Z   1
loop_
 _symmetry_equiv_pos_site_id
 _symmetry_equiv_pos_as_xyz
  1  'x, y, z'
loop_
 _atom_site_type_symbol
 _atom_site_label
 _atom_site_symmetry_multiplicity
 _atom_site_fract_x
 _atom_site_fract_y
 _atom_site_fract_z
 _atom_site_occupancy
  Li  Li0  1  0.00000000  0.00000000  0.00000000  1
  Cu  Cu1  1  0.50000000  0.50000000  0.50000000  1
  Cu  Cu2  1  0.25000000  0.25000000  0.25000000  1
  F  F3  1  0.75000000  0.25000000  0.00000000  1
  F  F4  1  0.25000000  0.75000000  0.50000000  1
  F  F5  1  0.73416890  0.34840046  0.32230529  1
  Ti  Ti6  1  0.52023774  0.32525393  0.45106938  1
  Ti  Ti7  1  0.27513436  0.70865821  0.03529461  1
  Ti  Ti8  1  0.66479789  0.72014774  0.35164157  1
  O  O9  1  0.17819620  0.30632183  0.14046777  1
  O  O10  1  0.29885909  0.35833606  0.45414562  1
  O  O11  1  0.95178377  0.57304974  0.94273669  1
  O  O12  1  0.04443003  0.77782961  0.02092194  1
  O  O13  1  0.71701264  0.17904975  0.33242103  1
