# generated using pymatgen
data_Li2TiN3
_symmetry_space_group_name_H-M   'P 1'
_cell_length_a   7.87656623
_cell_length_b   7.55578397
_cell_length_c   8.39665867
_cell_angle_alpha   92.24101639
_cell_angle_beta   90.94016096
_cell_angle_gamma   92.59874998
_symmetry_Int_Tables_number   1
_chemical_formula_structural   Li2TiN3
_chemical_formula_sum   'Li2 Ti1 N3'
_cell_volume   498.73718699
_cell_formula_units_Z   1
loop_
 _symmetry_equiv_pos_site_id
 _symmetry_equiv_pos_as_xyz
  1  'x, y, z'
loop_
 _atom_site_type_symbol
 _atom_site_label
 _atom_site_symmetry_multiplicity
 _atom_site_fract_x
 _atom_site_fract_y
 _atom_site_fract_z
 _atom_site_occupancy
  Li  Li0  1  0.12500000  0.00000000  0.25000000  1
  Li  Li1  1  0.00000000  0.00000000  0.00000000  1
  Ti  Ti2  1  0.37500000  0.00000000  0.25000000  1
  N  N3  1  0.25000000  0.25000000  0.25000000  1
  N  N4  1  0.00000000  0.25000000  0.12500000  1
  N  N5  1  0.03947320  0.18739687  0.04116992  1
