# generated using pymatgen
data_Li2TiP5F2
_symmetry_space_group_name_H-M   'P 1'
_cell_length_a   7.30512382
_cell_length_b   6.96797554
_cell_length_c   7.41996147
_cell_angle_alpha   92.02124020
_cell_angle_beta   93.42806865
_cell_angle_gamma   91.97785988
_symmetry_Int_Tables_number   1
_chemical_formula_structural   Li2TiP5F2
_chemical_formula_sum   'Li2 Ti1 P5 F2'
_cell_volume   376.52595085
_cell_formula_units_Z   1
loop_
 _symmetry_equiv_pos_site_id
 _symmetry_equiv_pos_as_xyz
  1  'x, y, z'
loop_
 _atom_site_type_symbol
 _atom_site_label
 _atom_site_symmetry_multiplicity
 _atom_site_fract_x
 _atom_site_fract_y
 _atom_site_fract_z
 _atom_site_occupancy
  P  P0  1  0.00000000  0.00000000  0.00000000  1
  P  P1  1  0.33300000  0.66700000  0.25000000  1
  P  P2  1  0.66700000  0.33300000  0.50000000  1
  P  P3  1  0.00000000  0.00000000  0.75000000  1
  P  P4  1  0.60690875  0.12811684  0.63526407  1
  Li  Li5  1  0.74757038  0.17441199  0.97086930  1
  Li  Li6  1  0.09572149  0.07155276  0.99049484  1
  F  F7  1  0.25045330  0.61074859  0.18533359  1
  F  F8  1  0.94893805  0.64645490  0.05606126  1
  Ti  Ti9  1  0.91637784  0.13392697  0.14349599  1
