# generated using pymatgen
data_Li2LuCu2P4F2
_symmetry_space_group_name_H-M   'P 1'
_cell_length_a   7.24423420
_cell_length_b   6.93117503
_cell_length_c   7.66318621
_cell_angle_alpha   92.13813602
_cell_angle_beta   92.97316513
_cell_angle_gamma   92.21347790
_symmetry_Int_Tables_number   1
_chemical_formula_structural   Li2LuCu2P4F2
_chemical_formula_sum   'Li2 Lu1 Cu2 P4 F2'
_cell_volume   383.67395635
_cell_formula_units_Z   1
loop_
 _symmetry_equiv_pos_site_id
 _symmetry_equiv_pos_as_xyz
  1  'x, y, z'
loop_
 _atom_site_type_symbol
 _atom_site_label
 _atom_site_symmetry_multiplicity
 _atom_site_fract_x
 _atom_site_fract_y
 _atom_site_fract_z
 _atom_site_occupancy
  P  P0  1  0.00000000  0.00000000  0.00000000  1
  P  P1  1  0.50000000  0.50000000  0.50000000  1
  P  P2  1  0.25000000  0.25000000  0.25000000  1
  P  P3  1  0.75000000  0.25000000  0.00000000  1
  Lu  Lu4  1  0.25000000  0.75000000  0.50000000  1
  Li  Li5  1  0.27512250  0.99322877  0.15706603  1
  Li  Li6  1  0.43893903  0.68136312  0.20594924  1
  Cu  Cu7  1  0.95615775  0.13474301  0.44288169  1
  Cu  Cu8  1  0.44285154  0.31196842  0.98211505  1
  F  F9  1  0.40819129  0.34079620  0.15747109  1
  F  F10  1  0.20182901  0.13779151  0.19202122  1
