# generated using pymatgen
data_Li2Lu(As3P2)2
_symmetry_space_group_name_H-M   'P 1'
_cell_length_a   7.62617641
_cell_length_b   7.42962339
_cell_length_c   8.24884590
_cell_angle_alpha   91.50981445
_cell_angle_beta   91.46119139
_cell_angle_gamma   91.70422899
_symmetry_Int_Tables_number   1
_chemical_formula_structural   Li2Lu(As3P2)2
_chemical_formula_sum   'Li2 Lu1 As6 P4'
_cell_volume   466.84594606
_cell_formula_units_Z   1
loop_
 _symmetry_equiv_pos_site_id
 _symmetry_equiv_pos_as_xyz
  1  'x, y, z'
loop_
 _atom_site_type_symbol
 _atom_site_label
 _atom_site_symmetry_multiplicity
 _atom_site_fract_x
 _atom_site_fract_y
 _atom_site_fract_z
 _atom_site_occupancy
  P  P0  1  0.00000000  0.00000000  0.00000000  1
  P  P1  1  0.50000000  0.50000000  0.50000000  1
  P  P2  1  0.25000000  0.25000000  0.25000000  1
  P  P3  1  0.75000000  0.25000000  0.00000000  1
  Lu  Lu4  1  0.25000000  0.75000000  0.50000000  1
  Li  Li5  1  0.15315497  0.27644233  0.40534897  1
  Li  Li6  1  0.55365022  0.34348626  0.63699747  1
  As  As7  1  0.31692794  0.82127374  0.55409829  1
  As  As8  1  0.75741883  0.44232554  0.20344659  1
  As  As9  1  0.11305019  0.32777497  0.69441851  1
  As  As10  1  0.13709608  0.58079324  0.91633419  1
  As  As11  1  0.85181228  0.53525251  0.11236415  1
  As  As12  1  0.81621322  0.30767952  0.78582460  1
