# generated using pymatgen
data_Li2P(BrO)3
_symmetry_space_group_name_H-M   'P 1'
_cell_length_a   8.01336367
_cell_length_b   8.08050849
_cell_length_c   8.95356321
_cell_angle_alpha   90.00000000
_cell_angle_beta   90.00000000
_cell_angle_gamma   90.00000000
_symmetry_Int_Tables_number   1
_chemical_formula_structural   Li2P(BrO)3
_chemical_formula_sum   'Li2 P1 Br3 O3'
_cell_volume   579.76160146
_cell_formula_units_Z   1
loop_
 _symmetry_equiv_pos_site_id
 _symmetry_equiv_pos_as_xyz
  1  'x, y, z'
loop_
 _atom_site_type_symbol
 _atom_site_label
 _atom_site_symmetry_multiplicity
 _atom_site_fract_x
 _atom_site_fract_y
 _atom_site_fract_z
 _atom_site_occupancy
  P  P0  1  0.12500000  0.00000000  0.25000000  1
  Li  Li1  1  0.00000000  0.00000000  0.00000000  1
  Li  Li2  1  0.37500000  0.00000000  0.25000000  1
  Br  Br3  1  0.25000000  0.25000000  0.25000000  1
  Br  Br4  1  0.00000000  0.25000000  0.12500000  1
  Br  Br5  1  0.42369665  0.53366017  0.65183435  1
  O  O6  1  0.14558759  0.46590474  0.54442979  1
  O  O7  1  0.79391282  0.73304375  0.26865304  1
  O  O8  1  0.89027409  0.58873419  0.01237036  1
