# generated using pymatgen
data_Li2TiI4O4F3
_symmetry_space_group_name_H-M   'P 1'
_cell_length_a   8.34822684
_cell_length_b   8.18017201
_cell_length_c   7.84803854
_cell_angle_alpha   90.51953895
_cell_angle_beta   90.62764605
_cell_angle_gamma   90.60092770
_symmetry_Int_Tables_number   1
_chemical_formula_structural   Li2TiI4O4F3
_chemical_formula_sum   'Li2 Ti1 I4 O4 F3'
_cell_volume   535.85778484
_cell_formula_units_Z   1
loop_
 _symmetry_equiv_pos_site_id
 _symmetry_equiv_pos_as_xyz
  1  'x, y, z'
loop_
 _atom_site_type_symbol
 _atom_site_label
 _atom_site_symmetry_multiplicity
 _atom_site_fract_x
 _atom_site_fract_y
 _atom_site_fract_z
 _atom_site_occupancy
  I  I0  1  0.12500000  0.00000000  0.25000000  1
  I  I1  1  0.00000000  0.00000000  0.00000000  1
  I  I2  1  0.37500000  0.00000000  0.25000000  1
  I  I3  1  0.25000000  0.25000000  0.25000000  1
  Li  Li4  1  0.00000000  0.25000000  0.12500000  1
  Li  Li5  1  0.52429843  0.64103045  0.67631529  1
  F  F6  1  0.56481503  0.13520010  0.08505801  1
  F  F7  1  0.38618496  0.13629303  0.07497833  1
  F  F8  1  0.46838011  0.49327330  0.75464223  1
  Ti  Ti9  1  0.77704164  0.37780525  0.35962348  1
  O  O10  1  0.36253306  0.03562866  0.54965750  1
  O  O11  1  0.09137385  0.27467398  0.88561993  1
  O  O12  1  0.47896289  0.26959599  0.88684705  1
  O  O13  1  0.44854079  0.89345394  0.83242520  1
