# generated using pymatgen
data_Li2LuNi2(As3P2)2
_symmetry_space_group_name_H-M   'P 1'
_cell_length_a   7.47875250
_cell_length_b   7.25768613
_cell_length_c   8.00431307
_cell_angle_alpha   91.76832533
_cell_angle_beta   91.61962964
_cell_angle_gamma   91.98668084
_symmetry_Int_Tables_number   1
_chemical_formula_structural   Li2LuNi2(As3P2)2
_chemical_formula_sum   'Li2 Lu1 Ni2 As6 P4'
_cell_volume   433.80652183
_cell_formula_units_Z   1
loop_
 _symmetry_equiv_pos_site_id
 _symmetry_equiv_pos_as_xyz
  1  'x, y, z'
loop_
 _atom_site_type_symbol
 _atom_site_label
 _atom_site_symmetry_multiplicity
 _atom_site_fract_x
 _atom_site_fract_y
 _atom_site_fract_z
 _atom_site_occupancy
  P  P0  1  0.00000000  0.00000000  0.00000000  1
  P  P1  1  0.50000000  0.50000000  0.50000000  1
  P  P2  1  0.25000000  0.25000000  0.25000000  1
  P  P3  1  0.75000000  0.25000000  0.00000000  1
  Lu  Lu4  1  0.25000000  0.75000000  0.50000000  1
  Li  Li5  1  0.41573307  0.26630476  0.71358015  1
  Li  Li6  1  0.79046309  0.84270164  0.42440437  1
  Ni  Ni7  1  0.38724577  0.30642436  0.76610847  1
  Ni  Ni8  1  0.40704580  0.49092096  0.63180446  1
  As  As9  1  0.04229409  0.06923245  0.33214691  1
  As  As10  1  0.10042005  0.45962623  0.02552868  1
  As  As11  1  0.33803100  0.64479818  0.60632598  1
  As  As12  1  0.71435349  0.64174542  0.77809354  1
  As  As13  1  0.35162355  0.72680400  0.98849670  1
  As  As14  1  0.61256903  0.43345780  0.47551685  1
