# generated using pymatgen
data_Li2Lu(CuP2)2
_symmetry_space_group_name_H-M   'P 1'
_cell_length_a   7.06365812
_cell_length_b   7.01570722
_cell_length_c   8.02653767
_cell_angle_alpha   95.12043213
_cell_angle_beta   95.80994270
_cell_angle_gamma   95.05363681
_symmetry_Int_Tables_number   1
_chemical_formula_structural   Li2Lu(CuP2)2
_chemical_formula_sum   'Li2 Lu1 Cu2 P4'
_cell_volume   392.24723350
_cell_formula_units_Z   1
loop_
 _symmetry_equiv_pos_site_id
 _symmetry_equiv_pos_as_xyz
  1  'x, y, z'
loop_
 _atom_site_type_symbol
 _atom_site_label
 _atom_site_symmetry_multiplicity
 _atom_site_fract_x
 _atom_site_fract_y
 _atom_site_fract_z
 _atom_site_occupancy
  P  P0  1  0.12500000  0.12500000  0.12500000  1
  P  P1  1  0.50000000  0.50000000  0.50000000  1
  P  P2  1  0.25000000  0.25000000  0.25000000  1
  P  P3  1  0.75000000  0.75000000  0.75000000  1
  Lu  Lu4  1  0.60006422  0.65853522  0.90194429  1
  Li  Li5  1  0.89970692  0.59540507  0.95164344  1
  Li  Li6  1  0.35170465  0.12546802  0.68894754  1
  Cu  Cu7  1  0.22184654  0.79621433  0.52994608  1
  Cu  Cu8  1  0.90646616  0.31827074  0.21069932  1
