# generated using pymatgen
data_Li2TiI4NO4
_symmetry_space_group_name_H-M   'P 1'
_cell_length_a   6.97055333
_cell_length_b   7.03837346
_cell_length_c   6.48269888
_cell_angle_alpha   91.06745594
_cell_angle_beta   98.81469189
_cell_angle_gamma   91.09352644
_symmetry_Int_Tables_number   1
_chemical_formula_structural   Li2TiI4NO4
_chemical_formula_sum   'Li2 Ti1 I4 N1 O4'
_cell_volume   314.16153123
_cell_formula_units_Z   1
loop_
 _symmetry_equiv_pos_site_id
 _symmetry_equiv_pos_as_xyz
  1  'x, y, z'
loop_
 _atom_site_type_symbol
 _atom_site_label
 _atom_site_symmetry_multiplicity
 _atom_site_fract_x
 _atom_site_fract_y
 _atom_site_fract_z
 _atom_site_occupancy
  Ti  Ti0  1  0.12500000  0.00000000  0.25000000  1
  O  O1  1  0.00000000  0.00000000  0.00000000  1
  O  O2  1  0.37500000  0.00000000  0.25000000  1
  O  O3  1  0.25000000  0.25000000  0.25000000  1
  O  O4  1  0.00000000  0.25000000  0.12500000  1
  I  I5  1  0.60468958  0.83661278  0.46011617  1
  I  I6  1  0.07472718  0.76636557  0.22176201  1
  I  I7  1  0.44202017  0.76778057  0.37828372  1
  I  I8  1  0.09266858  0.61436971  0.56114908  1
  Li  Li9  1  0.30318422  0.81125051  0.90254719  1
  Li  Li10  1  0.75785358  0.26588490  0.42931469  1
  N  N11  1  0.39212614  0.69130956  0.93578676  1
