# generated using pymatgen
data_Li3Ti(IO)4
_symmetry_space_group_name_H-M   'P 1'
_cell_length_a   7.16112351
_cell_length_b   6.95487938
_cell_length_c   7.51887219
_cell_angle_alpha   96.14191141
_cell_angle_beta   97.93163144
_cell_angle_gamma   95.76108012
_symmetry_Int_Tables_number   1
_chemical_formula_structural   Li3Ti(IO)4
_chemical_formula_sum   'Li3 Ti1 I4 O4'
_cell_volume   366.23459620
_cell_formula_units_Z   1
loop_
 _symmetry_equiv_pos_site_id
 _symmetry_equiv_pos_as_xyz
  1  'x, y, z'
loop_
 _atom_site_type_symbol
 _atom_site_label
 _atom_site_symmetry_multiplicity
 _atom_site_fract_x
 _atom_site_fract_y
 _atom_site_fract_z
 _atom_site_occupancy
  I  I0  1  0.12500000  0.00000000  0.25000000  1
  I  I1  1  0.00000000  0.00000000  0.00000000  1
  I  I2  1  0.37500000  0.00000000  0.25000000  1
  I  I3  1  0.25000000  0.25000000  0.25000000  1
  Li  Li4  1  0.00000000  0.25000000  0.12500000  1
  Li  Li5  1  0.41255300  0.17662944  0.83010101  1
  Li  Li6  1  0.53330906  0.03741022  0.82703099  1
  Ti  Ti7  1  0.74287082  0.31464319  0.10362411  1
  O  O8  1  0.53729425  0.05330146  0.30165171  1
  O  O9  1  0.30013929  0.05735904  0.69914324  1
  O  O10  1  0.93532773  0.74385557  0.67985308  1
  O  O11  1  0.78507884  0.44869483  0.10048211  1
