# generated using pymatgen
data_LiLa3Si2(IO)4
_symmetry_space_group_name_H-M   'P 1'
_cell_length_a   10.52299240
_cell_length_b   10.59749115
_cell_length_c   9.75069668
_cell_angle_alpha   90.00000000
_cell_angle_beta   90.00000000
_cell_angle_gamma   90.00000000
_symmetry_Int_Tables_number   1
_chemical_formula_structural   LiLa3Si2(IO)4
_chemical_formula_sum   'Li1 La3 Si2 I4 O4'
_cell_volume   1087.37155097
_cell_formula_units_Z   1
loop_
 _symmetry_equiv_pos_site_id
 _symmetry_equiv_pos_as_xyz
  1  'x, y, z'
loop_
 _atom_site_type_symbol
 _atom_site_label
 _atom_site_symmetry_multiplicity
 _atom_site_fract_x
 _atom_site_fract_y
 _atom_site_fract_z
 _atom_site_occupancy
  I  I0  1  0.00000000  0.00000000  0.00000000  1
  I  I1  1  0.50000000  0.50000000  0.50000000  1
  I  I2  1  0.25000000  0.25000000  0.25000000  1
  I  I3  1  0.75000000  0.25000000  0.00000000  1
  Li  Li4  1  0.25000000  0.75000000  0.50000000  1
  La  La5  1  0.77629442  0.05969483  0.42826841  1
  La  La6  1  0.85008192  0.93434097  0.11275741  1
  La  La7  1  0.48448838  0.59096710  0.67911219  1
  Si  Si8  1  0.04537313  0.02501711  0.25875126  1
  Si  Si9  1  0.81987265  0.45498129  0.32138936  1
  O  O10  1  0.20329893  0.04924817  0.28955629  1
  O  O11  1  0.75955917  0.88413044  0.19349551  1
  O  O12  1  0.93202428  0.40573690  0.47643848  1
  O  O13  1  0.64072975  0.40796819  0.99439782  1
