# generated using pymatgen
data_Li2Ti2Sb2NO
_symmetry_space_group_name_H-M   'P 1'
_cell_length_a   6.02331712
_cell_length_b   6.03494102
_cell_length_c   6.20848053
_cell_angle_alpha   91.49265611
_cell_angle_beta   102.32585174
_cell_angle_gamma   91.52911128
_symmetry_Int_Tables_number   1
_chemical_formula_structural   Li2Ti2Sb2NO
_chemical_formula_sum   'Li2 Ti2 Sb2 N1 O1'
_cell_volume   220.28345796
_cell_formula_units_Z   1
loop_
 _symmetry_equiv_pos_site_id
 _symmetry_equiv_pos_as_xyz
  1  'x, y, z'
loop_
 _atom_site_type_symbol
 _atom_site_label
 _atom_site_symmetry_multiplicity
 _atom_site_fract_x
 _atom_site_fract_y
 _atom_site_fract_z
 _atom_site_occupancy
  Li  Li0  1  0.00000000  0.00000000  0.00000000  1
  Li  Li1  1  0.50000000  0.50000000  0.50000000  1
  Sb  Sb2  1  0.50000000  0.50000000  0.00000000  1
  Sb  Sb3  1  0.50000000  0.00000000  0.50000000  1
  Ti  Ti4  1  0.00000000  0.50000000  0.50000000  1
  Ti  Ti5  1  0.00458359  0.86359692  0.05290748  1
  O  O6  1  0.16892675  0.49110969  0.23111449  1
  N  N7  1  0.02993514  0.23713114  0.31227052  1
