# generated using pymatgen
data_Li2LuP5Cl2
_symmetry_space_group_name_H-M   'P 1'
_cell_length_a   6.36677096
_cell_length_b   6.27883342
_cell_length_c   7.61718237
_cell_angle_alpha   98.98447664
_cell_angle_beta   101.33035783
_cell_angle_gamma   98.52282606
_symmetry_Int_Tables_number   1
_chemical_formula_structural   Li2LuP5Cl2
_chemical_formula_sum   'Li2 Lu1 P5 Cl2'
_cell_volume   289.83163370
_cell_formula_units_Z   1
loop_
 _symmetry_equiv_pos_site_id
 _symmetry_equiv_pos_as_xyz
  1  'x, y, z'
loop_
 _atom_site_type_symbol
 _atom_site_label
 _atom_site_symmetry_multiplicity
 _atom_site_fract_x
 _atom_site_fract_y
 _atom_site_fract_z
 _atom_site_occupancy
  Cl  Cl0  1  0.00000000  0.00000000  0.00000000  1
  Cl  Cl1  1  0.50000000  0.50000000  0.50000000  1
  P  P2  1  0.25000000  0.25000000  0.25000000  1
  P  P3  1  0.75000000  0.25000000  0.00000000  1
  P  P4  1  0.25000000  0.75000000  0.50000000  1
  P  P5  1  0.70659020  0.42618982  0.02409232  1
  P  P6  1  0.91737271  0.15288812  0.31796208  1
  Lu  Lu7  1  0.77708123  0.81451632  0.73696928  1
  Li  Li8  1  0.61404669  0.17558064  0.50880851  1
  Li  Li9  1  0.18177119  0.54538579  0.52982280  1
