# generated using pymatgen
data_Li3LuCu2P5
_symmetry_space_group_name_H-M   'P 1'
_cell_length_a   7.52701445
_cell_length_b   7.32632167
_cell_length_c   8.42705366
_cell_angle_alpha   92.37484357
_cell_angle_beta   91.95885828
_cell_angle_gamma   92.61985127
_symmetry_Int_Tables_number   1
_chemical_formula_structural   Li3LuCu2P5
_chemical_formula_sum   'Li3 Lu1 Cu2 P5'
_cell_volume   463.52512999
_cell_formula_units_Z   1
loop_
 _symmetry_equiv_pos_site_id
 _symmetry_equiv_pos_as_xyz
  1  'x, y, z'
loop_
 _atom_site_type_symbol
 _atom_site_label
 _atom_site_symmetry_multiplicity
 _atom_site_fract_x
 _atom_site_fract_y
 _atom_site_fract_z
 _atom_site_occupancy
  P  P0  1  0.00000000  0.00000000  0.00000000  1
  P  P1  1  0.33300000  0.66700000  0.25000000  1
  P  P2  1  0.66700000  0.33300000  0.50000000  1
  P  P3  1  0.00000000  0.00000000  0.75000000  1
  P  P4  1  0.28182030  0.21793030  0.97447110  1
  Lu  Lu5  1  0.25224990  0.07317619  0.84356951  1
  Li  Li6  1  0.01563864  0.60614195  0.66740646  1
  Li  Li7  1  0.47625309  0.25826855  0.31930824  1
  Li  Li8  1  0.47741948  0.55443872  0.42607345  1
  Cu  Cu9  1  0.47168434  0.18685986  0.02916358  1
  Cu  Cu10  1  0.00857017  0.65593647  0.62134454  1
