# generated using pymatgen
data_Li2LuTiCu2N5
_symmetry_space_group_name_H-M   'P 1'
_cell_length_a   6.33360236
_cell_length_b   6.20089804
_cell_length_c   7.37292089
_cell_angle_alpha   95.30550069
_cell_angle_beta   97.11753705
_cell_angle_gamma   95.96586546
_symmetry_Int_Tables_number   1
_chemical_formula_structural   Li2LuTiCu2N5
_chemical_formula_sum   'Li2 Lu1 Ti1 Cu2 N5'
_cell_volume   284.14402915
_cell_formula_units_Z   1
loop_
 _symmetry_equiv_pos_site_id
 _symmetry_equiv_pos_as_xyz
  1  'x, y, z'
loop_
 _atom_site_type_symbol
 _atom_site_label
 _atom_site_symmetry_multiplicity
 _atom_site_fract_x
 _atom_site_fract_y
 _atom_site_fract_z
 _atom_site_occupancy
  Lu  Lu0  1  0.00000000  0.00000000  0.00000000  1
  Li  Li1  1  0.50000000  0.50000000  0.50000000  1
  Li  Li2  1  0.25000000  0.25000000  0.25000000  1
  Cu  Cu3  1  0.75000000  0.25000000  0.00000000  1
  Cu  Cu4  1  0.25000000  0.75000000  0.50000000  1
  Ti  Ti5  1  0.35758399  0.00403067  0.04265764  1
  N  N6  1  0.78590047  0.91395840  0.47257487  1
  N  N7  1  0.91116349  0.50508996  0.62370804  1
  N  N8  1  0.14548437  0.46978642  0.03594196  1
  N  N9  1  0.56446003  0.43898523  0.91116113  1
  N  N10  1  0.50917053  0.70606912  0.73487405  1
