# generated using pymatgen
data_LiCuNiAs3
_symmetry_space_group_name_H-M   'P 1'
_cell_length_a   7.82998193
_cell_length_b   7.86315904
_cell_length_c   8.34752847
_cell_angle_alpha   90.68984520
_cell_angle_beta   91.49839905
_cell_angle_gamma   90.79540507
_symmetry_Int_Tables_number   1
_chemical_formula_structural   LiCuNiAs3
_chemical_formula_sum   'Li2 Cu2 Ni2 As6'
_cell_volume   513.67912043
_cell_formula_units_Z   2
loop_
 _symmetry_equiv_pos_site_id
 _symmetry_equiv_pos_as_xyz
  1  'x, y, z'
loop_
 _atom_site_type_symbol
 _atom_site_label
 _atom_site_symmetry_multiplicity
 _atom_site_fract_x
 _atom_site_fract_y
 _atom_site_fract_z
 _atom_site_occupancy
  Ni  Ni0  1  0.12500000  0.00000000  0.25000000  1
  Ni  Ni1  1  0.00000000  0.00000000  0.00000000  1
  As  As2  1  0.37500000  0.00000000  0.25000000  1
  As  As3  1  0.25000000  0.25000000  0.25000000  1
  As  As4  1  0.00000000  0.25000000  0.12500000  1
  As  As5  1  0.80015289  0.42823980  0.80438846  1
  As  As6  1  0.97532104  0.22955967  0.64744025  1
  As  As7  1  0.83720209  0.10853256  0.30847063  1
  Li  Li8  1  0.61485921  0.24579319  0.31679089  1
  Li  Li9  1  0.88190205  0.66576286  0.81840881  1
  Cu  Cu10  1  0.64913537  0.73285961  0.35393276  1
  Cu  Cu11  1  0.85405423  0.68911217  0.02356908  1
