# generated using pymatgen
data_Li3Cu2Ni2As6O7
_symmetry_space_group_name_H-M   'P 1'
_cell_length_a   7.62685887
_cell_length_b   7.42148071
_cell_length_c   8.45294678
_cell_angle_alpha   91.69739893
_cell_angle_beta   91.29615952
_cell_angle_gamma   91.96615184
_symmetry_Int_Tables_number   1
_chemical_formula_structural   Li3Cu2Ni2As6O7
_chemical_formula_sum   'Li3 Cu2 Ni2 As6 O7'
_cell_volume   477.83333137
_cell_formula_units_Z   1
loop_
 _symmetry_equiv_pos_site_id
 _symmetry_equiv_pos_as_xyz
  1  'x, y, z'
loop_
 _atom_site_type_symbol
 _atom_site_label
 _atom_site_symmetry_multiplicity
 _atom_site_fract_x
 _atom_site_fract_y
 _atom_site_fract_z
 _atom_site_occupancy
  Li  Li0  1  0.00000000  0.00000000  0.00000000  1
  Li  Li1  1  0.50000000  0.50000000  0.50000000  1
  Li  Li2  1  0.50000000  0.50000000  0.00000000  1
  Cu  Cu3  1  0.50000000  0.00000000  0.50000000  1
  Cu  Cu4  1  0.00000000  0.50000000  0.50000000  1
  Ni  Ni5  1  0.09088829  0.70973140  0.07290631  1
  Ni  Ni6  1  0.35521959  0.21582993  0.32646541  1
  As  As7  1  0.60352479  0.63744465  0.96879614  1
  As  As8  1  0.19400389  0.76920186  0.48371558  1
  As  As9  1  0.59236425  0.78275743  0.21617888  1
  As  As10  1  0.27092242  0.33533011  0.38058776  1
  As  As11  1  0.16669528  0.96243411  0.64526983  1
  As  As12  1  0.79582803  0.70487025  0.66971588  1
  O  O13  1  0.03595266  0.09575482  0.10593887  1
  O  O14  1  0.66551759  0.54414957  0.20102672  1
  O  O15  1  0.59758309  0.45966727  0.88980849  1
  O  O16  1  0.74208312  0.84846396  0.11651096  1
  O  O17  1  0.02573683  0.27669363  0.85367435  1
  O  O18  1  0.05350859  0.70477570  0.77686420  1
  O  O19  1  0.25620177  0.62167360  0.67883091  1
