# generated using pymatgen
data_Li3TiP4I4N5
_symmetry_space_group_name_H-M   'P 1'
_cell_length_a   7.08460674
_cell_length_b   6.81020039
_cell_length_c   7.81828683
_cell_angle_alpha   94.39905411
_cell_angle_beta   94.00078359
_cell_angle_gamma   94.30043763
_symmetry_Int_Tables_number   1
_chemical_formula_structural   Li3TiP4I4N5
_chemical_formula_sum   'Li3 Ti1 P4 I4 N5'
_cell_volume   373.95983814
_cell_formula_units_Z   1
loop_
 _symmetry_equiv_pos_site_id
 _symmetry_equiv_pos_as_xyz
  1  'x, y, z'
loop_
 _atom_site_type_symbol
 _atom_site_label
 _atom_site_symmetry_multiplicity
 _atom_site_fract_x
 _atom_site_fract_y
 _atom_site_fract_z
 _atom_site_occupancy
  I  I0  1  0.00000000  0.00000000  0.00000000  1
  I  I1  1  0.50000000  0.50000000  0.50000000  1
  I  I2  1  0.50000000  0.50000000  0.00000000  1
  I  I3  1  0.50000000  0.00000000  0.50000000  1
  P  P4  1  0.00000000  0.50000000  0.50000000  1
  P  P5  1  0.28444864  0.73301470  0.30054685  1
  P  P6  1  0.00727737  0.64010897  0.95370885  1
  P  P7  1  0.73798225  0.91969757  0.69084661  1
  Li  Li8  1  0.34824940  0.73857080  0.66009944  1
  Li  Li9  1  0.00742572  0.96888305  0.05613894  1
  Li  Li10  1  0.76929115  0.41645526  0.84434142  1
  Ti  Ti11  1  0.01324561  0.86130645  0.62537434  1
  N  N12  1  0.63720233  0.46290450  0.92563694  1
  N  N13  1  0.18899138  0.31341980  0.94770851  1
  N  N14  1  0.71119198  0.54123996  0.80243779  1
  N  N15  1  0.09671884  0.95401851  0.35733226  1
  N  N16  1  0.15590766  0.87408197  0.84752724  1
