# generated using pymatgen
data_Li3LuO4F3
_symmetry_space_group_name_H-M   'P 1'
_cell_length_a   5.48547956
_cell_length_b   5.19111586
_cell_length_c   7.12580263
_cell_angle_alpha   101.81932016
_cell_angle_beta   105.25537040
_cell_angle_gamma   101.15168449
_symmetry_Int_Tables_number   1
_chemical_formula_structural   Li3LuO4F3
_chemical_formula_sum   'Li3 Lu1 O4 F3'
_cell_volume   184.92456262
_cell_formula_units_Z   1
loop_
 _symmetry_equiv_pos_site_id
 _symmetry_equiv_pos_as_xyz
  1  'x, y, z'
loop_
 _atom_site_type_symbol
 _atom_site_label
 _atom_site_symmetry_multiplicity
 _atom_site_fract_x
 _atom_site_fract_y
 _atom_site_fract_z
 _atom_site_occupancy
  Lu  Lu0  1  0.00000000  0.00000000  0.00000000  1
  Li  Li1  1  0.50000000  0.50000000  0.50000000  1
  Li  Li2  1  0.50000000  0.50000000  0.00000000  1
  Li  Li3  1  0.50000000  0.00000000  0.50000000  1
  F  F4  1  0.00000000  0.50000000  0.50000000  1
  F  F5  1  0.82431265  0.04065901  0.55410172  1
  F  F6  1  0.77976983  0.86140314  0.66920729  1
  O  O7  1  0.99840387  0.38835073  0.71291329  1
  O  O8  1  0.80234983  0.56996363  0.09937648  1
  O  O9  1  0.41913959  0.20717623  0.85086704  1
  O  O10  1  0.95725058  0.24327300  0.73819574  1
