# generated using pymatgen
data_Li3TiI4O3
_symmetry_space_group_name_H-M   'P 1'
_cell_length_a   7.93140612
_cell_length_b   7.77090082
_cell_length_c   7.12245354
_cell_angle_alpha   93.21403587
_cell_angle_beta   94.26507900
_cell_angle_gamma   93.02152854
_symmetry_Int_Tables_number   1
_chemical_formula_structural   Li3TiI4O3
_chemical_formula_sum   'Li3 Ti1 I4 O3'
_cell_volume   436.36838640
_cell_formula_units_Z   1
loop_
 _symmetry_equiv_pos_site_id
 _symmetry_equiv_pos_as_xyz
  1  'x, y, z'
loop_
 _atom_site_type_symbol
 _atom_site_label
 _atom_site_symmetry_multiplicity
 _atom_site_fract_x
 _atom_site_fract_y
 _atom_site_fract_z
 _atom_site_occupancy
  I  I0  1  0.12500000  0.00000000  0.25000000  1
  I  I1  1  0.00000000  0.00000000  0.00000000  1
  I  I2  1  0.37500000  0.00000000  0.25000000  1
  I  I3  1  0.25000000  0.25000000  0.25000000  1
  Li  Li4  1  0.00000000  0.25000000  0.12500000  1
  Li  Li5  1  0.63522886  0.67087027  0.92882533  1
  Li  Li6  1  0.59339802  0.71060141  0.97737861  1
  Ti  Ti7  1  0.17035185  0.58459300  0.70814150  1
  O  O8  1  0.35739957  0.42317367  0.35065470  1
  O  O9  1  0.61973913  0.70718390  0.11891376  1
  O  O10  1  0.00628670  0.64260046  0.08530143  1
