# generated using pymatgen
data_Li2LuCu2(NiP2)2
_symmetry_space_group_name_H-M   'P 1'
_cell_length_a   7.28120727
_cell_length_b   7.07290623
_cell_length_c   7.71144295
_cell_angle_alpha   91.65256942
_cell_angle_beta   92.08593972
_cell_angle_gamma   91.63478918
_symmetry_Int_Tables_number   1
_chemical_formula_structural   Li2LuCu2(NiP2)2
_chemical_formula_sum   'Li2 Lu1 Cu2 Ni2 P4'
_cell_volume   396.53171124
_cell_formula_units_Z   1
loop_
 _symmetry_equiv_pos_site_id
 _symmetry_equiv_pos_as_xyz
  1  'x, y, z'
loop_
 _atom_site_type_symbol
 _atom_site_label
 _atom_site_symmetry_multiplicity
 _atom_site_fract_x
 _atom_site_fract_y
 _atom_site_fract_z
 _atom_site_occupancy
  P  P0  1  0.00000000  0.00000000  0.00000000  1
  P  P1  1  0.50000000  0.50000000  0.50000000  1
  P  P2  1  0.25000000  0.25000000  0.25000000  1
  P  P3  1  0.75000000  0.25000000  0.00000000  1
  Lu  Lu4  1  0.25000000  0.75000000  0.50000000  1
  Li  Li5  1  0.33162164  0.18782848  0.34776737  1
  Li  Li6  1  0.04453087  0.36051031  0.51349952  1
  Cu  Cu7  1  0.49785898  0.62332904  0.68033974  1
  Cu  Cu8  1  0.47741996  0.32452459  0.13908127  1
  Ni  Ni9  1  0.59233001  0.91627070  0.40908712  1
  Ni  Ni10  1  0.06755707  0.29965199  0.45523832  1
