# generated using pymatgen
data_Li3TiSe(OF)3
_symmetry_space_group_name_H-M   'P 1'
_cell_length_a   5.32121462
_cell_length_b   5.03238832
_cell_length_c   6.82987483
_cell_angle_alpha   102.91551023
_cell_angle_beta   106.88221353
_cell_angle_gamma   102.12671261
_symmetry_Int_Tables_number   1
_chemical_formula_structural   Li3TiSe(OF)3
_chemical_formula_sum   'Li3 Ti1 Se1 O3 F3'
_cell_volume   163.00122779
_cell_formula_units_Z   1
loop_
 _symmetry_equiv_pos_site_id
 _symmetry_equiv_pos_as_xyz
  1  'x, y, z'
loop_
 _atom_site_type_symbol
 _atom_site_label
 _atom_site_symmetry_multiplicity
 _atom_site_fract_x
 _atom_site_fract_y
 _atom_site_fract_z
 _atom_site_occupancy
  Li  Li0  1  0.12500000  0.00000000  0.25000000  1
  Li  Li1  1  0.00000000  0.00000000  0.00000000  1
  Li  Li2  1  0.37500000  0.00000000  0.25000000  1
  Se  Se3  1  0.25000000  0.25000000  0.25000000  1
  F  F4  1  0.00000000  0.25000000  0.12500000  1
  F  F5  1  0.70191836  0.91825888  0.70122272  1
  F  F6  1  0.41089468  0.11898751  0.17828809  1
  Ti  Ti7  1  0.05657203  0.28705074  0.32704001  1
  O  O8  1  0.69523722  0.20069760  0.45153574  1
  O  O9  1  0.34167857  0.92439389  0.19452626  1
  O  O10  1  0.76755999  0.23089217  0.44103619  1
