# generated using pymatgen
data_Li3TiI4Cl2F3
_symmetry_space_group_name_H-M   'P 1'
_cell_length_a   6.94657272
_cell_length_b   6.78767324
_cell_length_c   6.98519251
_cell_angle_alpha   94.60463450
_cell_angle_beta   96.21567981
_cell_angle_gamma   94.26901631
_symmetry_Int_Tables_number   1
_chemical_formula_structural   Li3TiI4Cl2F3
_chemical_formula_sum   'Li3 Ti1 I4 Cl2 F3'
_cell_volume   325.21575688
_cell_formula_units_Z   1
loop_
 _symmetry_equiv_pos_site_id
 _symmetry_equiv_pos_as_xyz
  1  'x, y, z'
loop_
 _atom_site_type_symbol
 _atom_site_label
 _atom_site_symmetry_multiplicity
 _atom_site_fract_x
 _atom_site_fract_y
 _atom_site_fract_z
 _atom_site_occupancy
  I  I0  1  0.12500000  0.00000000  0.25000000  1
  I  I1  1  0.00000000  0.00000000  0.00000000  1
  I  I2  1  0.37500000  0.00000000  0.25000000  1
  I  I3  1  0.25000000  0.25000000  0.25000000  1
  Li  Li4  1  0.00000000  0.25000000  0.12500000  1
  Li  Li5  1  0.29397736  0.51801571  0.52698358  1
  Li  Li6  1  0.01967649  0.33775835  0.94297486  1
  F  F7  1  0.94383830  0.10630043  0.79042423  1
  F  F8  1  0.27309109  0.10893443  0.11665291  1
  F  F9  1  0.11047675  0.76969605  0.78142232  1
  Cl  Cl10  1  0.03207158  0.10442668  0.37771883  1
  Cl  Cl11  1  0.65653685  0.15307155  0.78357045  1
  Ti  Ti12  1  0.37919411  0.50879328  0.50577997  1
