# generated using pymatgen
data_LiP8S3(ClF)2
_symmetry_space_group_name_H-M   'P 1'
_cell_length_a   5.55201371
_cell_length_b   5.34493284
_cell_length_c   7.29569861
_cell_angle_alpha   98.45386366
_cell_angle_beta   103.52373723
_cell_angle_gamma   98.11154496
_symmetry_Int_Tables_number   1
_chemical_formula_structural   LiP8S3(ClF)2
_chemical_formula_sum   'Li1 P8 S3 Cl2 F2'
_cell_volume   204.71541538
_cell_formula_units_Z   1
loop_
 _symmetry_equiv_pos_site_id
 _symmetry_equiv_pos_as_xyz
  1  'x, y, z'
loop_
 _atom_site_type_symbol
 _atom_site_label
 _atom_site_symmetry_multiplicity
 _atom_site_fract_x
 _atom_site_fract_y
 _atom_site_fract_z
 _atom_site_occupancy
  F  F0  1  0.00000000  0.00000000  0.00000000  1
  F  F1  1  0.50000000  0.50000000  0.50000000  1
  Cl  Cl2  1  0.25000000  0.25000000  0.25000000  1
  Cl  Cl3  1  0.75000000  0.25000000  0.00000000  1
  S  S4  1  0.25000000  0.75000000  0.50000000  1
  S  S5  1  0.74376654  0.54069638  0.65303214  1
  S  S6  1  0.08223970  0.64244345  0.81510119  1
  P  P7  1  0.28257060  0.78383078  0.16664912  1
  P  P8  1  0.29892243  0.97214266  0.61963027  1
  P  P9  1  0.27621844  0.31923864  0.85488483  1
  P  P10  1  0.37843988  0.30153449  0.10734794  1
  P  P11  1  0.35211724  0.03079205  0.19852106  1
  P  P12  1  0.20460480  0.50362899  0.90925029  1
  P  P13  1  0.84916365  0.27573477  0.42987398  1
  P  P14  1  0.36229402  0.02032157  0.80570445  1
  Li  Li15  1  0.50682998  0.49342328  0.69599858  1
