# generated using pymatgen
data_Li3Ti(IO)4
_symmetry_space_group_name_H-M   'P 1'
_cell_length_a   8.85741551
_cell_length_b   8.73733741
_cell_length_c   7.29131792
_cell_angle_alpha   90.00000000
_cell_angle_beta   90.00000000
_cell_angle_gamma   90.00000000
_symmetry_Int_Tables_number   1
_chemical_formula_structural   Li3Ti(IO)4
_chemical_formula_sum   'Li3 Ti1 I4 O4'
_cell_volume   564.27675529
_cell_formula_units_Z   1
loop_
 _symmetry_equiv_pos_site_id
 _symmetry_equiv_pos_as_xyz
  1  'x, y, z'
loop_
 _atom_site_type_symbol
 _atom_site_label
 _atom_site_symmetry_multiplicity
 _atom_site_fract_x
 _atom_site_fract_y
 _atom_site_fract_z
 _atom_site_occupancy
  I  I0  1  0.00000000  0.00000000  0.00000000  1
  I  I1  1  0.50000000  0.50000000  0.50000000  1
  I  I2  1  0.50000000  0.50000000  0.00000000  1
  I  I3  1  0.50000000  0.00000000  0.50000000  1
  Li  Li4  1  0.00000000  0.50000000  0.50000000  1
  Li  Li5  1  0.17019186  0.97270228  0.06026358  1
  Li  Li6  1  0.08014845  0.37307793  0.05370852  1
  Ti  Ti7  1  0.42831762  0.06596516  0.59269008  1
  O  O8  1  0.73916586  0.72520876  0.86004332  1
  O  O9  1  0.31966821  0.72871172  0.65456436  1
  O  O10  1  0.57891809  0.75050108  0.49957259  1
  O  O11  1  0.48052863  0.36360874  0.54457174  1
