# generated using pymatgen
data_Li(As2S)3
_symmetry_space_group_name_H-M   'P 1'
_cell_length_a   6.47900391
_cell_length_b   6.55966957
_cell_length_c   7.76222431
_cell_angle_alpha   91.16073433
_cell_angle_beta   95.52242143
_cell_angle_gamma   91.32702928
_symmetry_Int_Tables_number   1
_chemical_formula_structural   Li(As2S)3
_chemical_formula_sum   'Li1 As6 S3'
_cell_volume   328.19243840
_cell_formula_units_Z   1
loop_
 _symmetry_equiv_pos_site_id
 _symmetry_equiv_pos_as_xyz
  1  'x, y, z'
loop_
 _atom_site_type_symbol
 _atom_site_label
 _atom_site_symmetry_multiplicity
 _atom_site_fract_x
 _atom_site_fract_y
 _atom_site_fract_z
 _atom_site_occupancy
  S  S0  1  0.12500000  0.00000000  0.25000000  1
  S  S1  1  0.00000000  0.00000000  0.00000000  1
  S  S2  1  0.37500000  0.00000000  0.25000000  1
  As  As3  1  0.25000000  0.25000000  0.25000000  1
  As  As4  1  0.00000000  0.25000000  0.12500000  1
  As  As5  1  0.18332522  0.57258961  0.92398301  1
  As  As6  1  0.85029879  0.07196906  0.79021519  1
  As  As7  1  0.56931175  0.02547167  0.66243137  1
  As  As8  1  0.01018751  0.76604146  0.01561535  1
  Li  Li9  1  0.43783640  0.80872328  0.47464160  1
