# generated using pymatgen
data_LiTiAs3F
_symmetry_space_group_name_H-M   'P 1'
_cell_length_a   7.28921758
_cell_length_b   7.28263837
_cell_length_c   8.04047372
_cell_angle_alpha   91.17979047
_cell_angle_beta   93.06211697
_cell_angle_gamma   91.17906451
_symmetry_Int_Tables_number   1
_chemical_formula_structural   LiTiAs3F
_chemical_formula_sum   'Li2 Ti2 As6 F2'
_cell_volume   426.02619040
_cell_formula_units_Z   2
loop_
 _symmetry_equiv_pos_site_id
 _symmetry_equiv_pos_as_xyz
  1  'x, y, z'
loop_
 _atom_site_type_symbol
 _atom_site_label
 _atom_site_symmetry_multiplicity
 _atom_site_fract_x
 _atom_site_fract_y
 _atom_site_fract_z
 _atom_site_occupancy
  F  F0  1  0.12500000  0.00000000  0.25000000  1
  F  F1  1  0.00000000  0.00000000  0.00000000  1
  Ti  Ti2  1  0.37500000  0.00000000  0.25000000  1
  Ti  Ti3  1  0.25000000  0.25000000  0.25000000  1
  As  As4  1  0.00000000  0.25000000  0.12500000  1
  As  As5  1  0.04564142  0.65554746  0.25577783  1
  As  As6  1  0.91182013  0.34657649  0.85282589  1
  As  As7  1  0.56226210  0.17762156  0.50033699  1
  As  As8  1  0.18259344  0.50382942  0.12026188  1
  As  As9  1  0.96512536  0.26433974  0.38914671  1
  Li  Li10  1  0.21896692  0.99276078  0.05845340  1
  Li  Li11  1  0.72365831  0.60264725  0.54890444  1
