# generated using pymatgen
data_Li2MnMo2P3
_symmetry_space_group_name_H-M   'P 1'
_cell_length_a   4.98357463
_cell_length_b   5.32172080
_cell_length_c   6.66446413
_cell_angle_alpha   99.45759744
_cell_angle_beta   94.43560854
_cell_angle_gamma   99.82140670
_symmetry_Int_Tables_number   1
_chemical_formula_structural   Li2MnMo2P3
_chemical_formula_sum   'Li2 Mn1 Mo2 P3'
_cell_volume   170.77941207
_cell_formula_units_Z   1
loop_
 _symmetry_equiv_pos_site_id
 _symmetry_equiv_pos_as_xyz
  1  'x, y, z'
loop_
 _atom_site_type_symbol
 _atom_site_label
 _atom_site_symmetry_multiplicity
 _atom_site_fract_x
 _atom_site_fract_y
 _atom_site_fract_z
 _atom_site_occupancy
  Mn  Mn0  1  0.12500000  0.12500000  0.12500000  1
  P  P1  1  0.50000000  0.50000000  0.50000000  1
  P  P2  1  0.25000000  0.25000000  0.25000000  1
  P  P3  1  0.75000000  0.75000000  0.75000000  1
  Mo  Mo4  1  0.96262378  0.92039140  0.35174523  1
  Mo  Mo5  1  0.40139736  0.08040794  0.09650886  1
  Li  Li6  1  0.04083822  0.42824427  0.89631677  1
  Li  Li7  1  0.33840948  0.63180600  0.76695708  1
