# generated using pymatgen
data_Li3Si2PI5Br4
_symmetry_space_group_name_H-M   'P 1'
_cell_length_a   10.56486470
_cell_length_b   10.22795293
_cell_length_c   11.13395524
_cell_angle_alpha   90.00000000
_cell_angle_beta   90.00000000
_cell_angle_gamma   90.00000000
_symmetry_Int_Tables_number   1
_chemical_formula_structural   Li3Si2PI5Br4
_chemical_formula_sum   'Li3 Si2 P1 I5 Br4'
_cell_volume   1203.10112088
_cell_formula_units_Z   1
loop_
 _symmetry_equiv_pos_site_id
 _symmetry_equiv_pos_as_xyz
  1  'x, y, z'
loop_
 _atom_site_type_symbol
 _atom_site_label
 _atom_site_symmetry_multiplicity
 _atom_site_fract_x
 _atom_site_fract_y
 _atom_site_fract_z
 _atom_site_occupancy
  I  I0  1  0.00000000  0.00000000  0.00000000  1
  I  I1  1  0.50000000  0.50000000  0.50000000  1
  I  I2  1  0.25000000  0.25000000  0.25000000  1
  I  I3  1  0.75000000  0.25000000  0.00000000  1
  I  I4  1  0.25000000  0.75000000  0.50000000  1
  P  P5  1  0.60773769  0.84044959  0.41575440  1
  Li  Li6  1  0.82613632  0.87103041  0.69434776  1
  Li  Li7  1  0.24627298  0.34406493  0.72402772  1
  Li  Li8  1  0.28909502  0.57920375  0.17848834  1
  Br  Br9  1  0.05953915  0.58528390  0.80274845  1
  Br  Br10  1  0.97547772  0.47855088  0.47945804  1
  Br  Br11  1  0.50547573  0.36172371  0.11302106  1
  Br  Br12  1  0.65411390  0.53613762  0.80208108  1
  Si  Si13  1  0.05573005  0.03900946  0.05759857  1
  Si  Si14  1  0.61920117  0.90812540  0.93694335  1
