# generated using pymatgen
data_Li2LuZn2(As3P2)2
_symmetry_space_group_name_H-M   'P 1'
_cell_length_a   7.83434011
_cell_length_b   7.87801265
_cell_length_c   7.69936628
_cell_angle_alpha   91.14223901
_cell_angle_beta   91.14290097
_cell_angle_gamma   91.23362420
_symmetry_Int_Tables_number   1
_chemical_formula_structural   Li2LuZn2(As3P2)2
_chemical_formula_sum   'Li2 Lu1 Zn2 As6 P4'
_cell_volume   474.89418414
_cell_formula_units_Z   1
loop_
 _symmetry_equiv_pos_site_id
 _symmetry_equiv_pos_as_xyz
  1  'x, y, z'
loop_
 _atom_site_type_symbol
 _atom_site_label
 _atom_site_symmetry_multiplicity
 _atom_site_fract_x
 _atom_site_fract_y
 _atom_site_fract_z
 _atom_site_occupancy
  P  P0  1  0.12500000  0.00000000  0.25000000  1
  P  P1  1  0.00000000  0.00000000  0.00000000  1
  P  P2  1  0.37500000  0.00000000  0.25000000  1
  P  P3  1  0.25000000  0.25000000  0.25000000  1
  Lu  Lu4  1  0.00000000  0.25000000  0.12500000  1
  Li  Li5  1  0.76866174  0.28365287  0.05373837  1
  Li  Li6  1  0.65626332  0.04126220  0.69897907  1
  Zn  Zn7  1  0.40696100  0.94202776  0.47818198  1
  Zn  Zn8  1  0.00006284  0.24768263  0.32184975  1
  As  As9  1  0.39600949  0.60729122  0.99045124  1
  As  As10  1  0.55035135  0.77658690  0.83178891  1
  As  As11  1  0.10696178  0.83054590  0.35760466  1
  As  As12  1  0.16529271  0.56845222  0.80982288  1
  As  As13  1  0.91850009  0.62534777  0.85206166  1
  As  As14  1  0.45405954  0.73809234  0.58644817  1
