# generated using pymatgen
data_Li3LuCu2(PN)5
_symmetry_space_group_name_H-M   'P 1'
_cell_length_a   7.35012949
_cell_length_b   7.15755788
_cell_length_c   8.37845375
_cell_angle_alpha   93.57132867
_cell_angle_beta   93.13025394
_cell_angle_gamma   93.77445763
_symmetry_Int_Tables_number   1
_chemical_formula_structural   Li3LuCu2(PN)5
_chemical_formula_sum   'Li3 Lu1 Cu2 P5 N5'
_cell_volume   438.20829178
_cell_formula_units_Z   1
loop_
 _symmetry_equiv_pos_site_id
 _symmetry_equiv_pos_as_xyz
  1  'x, y, z'
loop_
 _atom_site_type_symbol
 _atom_site_label
 _atom_site_symmetry_multiplicity
 _atom_site_fract_x
 _atom_site_fract_y
 _atom_site_fract_z
 _atom_site_occupancy
  P  P0  1  0.00000000  0.00000000  0.00000000  1
  P  P1  1  0.50000000  0.50000000  0.50000000  1
  P  P2  1  0.25000000  0.25000000  0.25000000  1
  P  P3  1  0.75000000  0.25000000  0.00000000  1
  P  P4  1  0.25000000  0.75000000  0.50000000  1
  Lu  Lu5  1  0.54314691  0.30326552  0.02631024  1
  Li  Li6  1  0.86386467  0.33016041  0.00804167  1
  Li  Li7  1  0.35613496  0.98678937  0.75548381  1
  Li  Li8  1  0.05781371  0.86055700  0.52879820  1
  Cu  Cu9  1  0.35515602  0.34808070  0.92623926  1
  Cu  Cu10  1  0.90354482  0.42946392  0.82102551  1
  N  N11  1  0.34853317  0.26643085  0.63130548  1
  N  N12  1  0.63678017  0.80149019  0.23808339  1
  N  N13  1  0.40030921  0.81147867  0.87370434  1
  N  N14  1  0.27686443  0.07883260  0.96291603  1
  N  N15  1  0.73505832  0.29614409  0.42381579  1
