# generated using pymatgen
data_Li2TiI4O2F3
_symmetry_space_group_name_H-M   'P 1'
_cell_length_a   7.19225893
_cell_length_b   7.21360717
_cell_length_c   6.81665049
_cell_angle_alpha   92.99871786
_cell_angle_beta   96.79483980
_cell_angle_gamma   93.75268584
_symmetry_Int_Tables_number   1
_chemical_formula_structural   Li2TiI4O2F3
_chemical_formula_sum   'Li2 Ti1 I4 O2 F3'
_cell_volume   349.78101662
_cell_formula_units_Z   1
loop_
 _symmetry_equiv_pos_site_id
 _symmetry_equiv_pos_as_xyz
  1  'x, y, z'
loop_
 _atom_site_type_symbol
 _atom_site_label
 _atom_site_symmetry_multiplicity
 _atom_site_fract_x
 _atom_site_fract_y
 _atom_site_fract_z
 _atom_site_occupancy
  I  I0  1  0.00000000  0.00000000  0.00000000  1
  I  I1  1  0.50000000  0.50000000  0.50000000  1
  I  I2  1  0.50000000  0.50000000  0.00000000  1
  I  I3  1  0.50000000  0.00000000  0.50000000  1
  Li  Li4  1  0.00000000  0.50000000  0.50000000  1
  Li  Li5  1  0.24648253  0.60909486  0.91126652  1
  F  F6  1  0.81360413  0.53199266  0.67465014  1
  F  F7  1  0.64293350  0.33788747  0.51227519  1
  F  F8  1  0.18518432  0.72891496  0.59737727  1
  Ti  Ti9  1  0.19972595  0.68489708  0.77685771  1
  O  O10  1  0.90530574  0.34391218  0.64732804  1
  O  O11  1  0.27555982  0.17554071  0.49869342  1
