# generated using pymatgen
data_Li2Cu2As6Cl2F3
_symmetry_space_group_name_H-M   'P 1'
_cell_length_a   6.94385398
_cell_length_b   6.89040164
_cell_length_c   7.94046805
_cell_angle_alpha   92.81523800
_cell_angle_beta   95.11719786
_cell_angle_gamma   92.66322417
_symmetry_Int_Tables_number   1
_chemical_formula_structural   Li2Cu2As6Cl2F3
_chemical_formula_sum   'Li2 Cu2 As6 Cl2 F3'
_cell_volume   377.45426720
_cell_formula_units_Z   1
loop_
 _symmetry_equiv_pos_site_id
 _symmetry_equiv_pos_as_xyz
  1  'x, y, z'
loop_
 _atom_site_type_symbol
 _atom_site_label
 _atom_site_symmetry_multiplicity
 _atom_site_fract_x
 _atom_site_fract_y
 _atom_site_fract_z
 _atom_site_occupancy
  Li  Li0  1  0.00000000  0.00000000  0.00000000  1
  Li  Li1  1  0.50000000  0.50000000  0.50000000  1
  Cu  Cu2  1  0.25000000  0.25000000  0.25000000  1
  Cu  Cu3  1  0.75000000  0.25000000  0.00000000  1
  F  F4  1  0.25000000  0.75000000  0.50000000  1
  F  F5  1  0.27819257  0.45338935  0.33638886  1
  F  F6  1  0.19645323  0.03626042  0.17307312  1
  Cl  Cl7  1  0.67490666  0.49629109  0.02104817  1
  Cl  Cl8  1  0.25609400  0.32958675  0.14033839  1
  As  As9  1  0.78340659  0.08864047  0.59356681  1
  As  As10  1  0.27454075  0.71410519  0.79858985  1
  As  As11  1  0.45672620  0.39804145  0.76256734  1
  As  As12  1  0.81389158  0.84457090  0.01615739  1
  As  As13  1  0.16330369  0.99684075  0.26684255  1
  As  As14  1  0.75032904  0.93800170  0.68666304  1
