# generated using pymatgen
data_Li2TiAs6(IO)4
_symmetry_space_group_name_H-M   'P 1'
_cell_length_a   8.16192322
_cell_length_b   8.20238121
_cell_length_c   7.83084046
_cell_angle_alpha   90.24610267
_cell_angle_beta   91.17088175
_cell_angle_gamma   90.28136106
_symmetry_Int_Tables_number   1
_chemical_formula_structural   Li2TiAs6(IO)4
_chemical_formula_sum   'Li2 Ti1 As6 I4 O4'
_cell_volume   524.13203609
_cell_formula_units_Z   1
loop_
 _symmetry_equiv_pos_site_id
 _symmetry_equiv_pos_as_xyz
  1  'x, y, z'
loop_
 _atom_site_type_symbol
 _atom_site_label
 _atom_site_symmetry_multiplicity
 _atom_site_fract_x
 _atom_site_fract_y
 _atom_site_fract_z
 _atom_site_occupancy
  Li  Li0  1  0.12500000  0.00000000  0.25000000  1
  Li  Li1  1  0.00000000  0.00000000  0.00000000  1
  Ti  Ti2  1  0.37500000  0.00000000  0.25000000  1
  I  I3  1  0.25000000  0.25000000  0.25000000  1
  I  I4  1  0.00000000  0.25000000  0.12500000  1
  I  I5  1  0.22301158  0.98323241  0.98776433  1
  I  I6  1  0.54821243  0.63580767  0.39924065  1
  As  As7  1  0.89128509  0.82323652  0.59727294  1
  As  As8  1  0.52605150  0.90851148  0.54479057  1
  As  As9  1  0.28381600  0.41774125  0.15621253  1
  As  As10  1  0.28856800  0.94183453  0.91039622  1
  As  As11  1  0.55147965  0.31897943  0.64537075  1
  As  As12  1  0.88805830  0.12481639  0.13077648  1
  O  O13  1  0.65418456  0.32347955  0.77971273  1
  O  O14  1  0.71533695  0.12482488  0.31828181  1
  O  O15  1  0.13257260  0.69330942  0.63573503  1
  O  O16  1  0.23700225  0.76471769  0.30933392  1
