# generated using pymatgen
data_Li2Ti2(BrO)3
_symmetry_space_group_name_H-M   'P 1'
_cell_length_a   6.15261268
_cell_length_b   6.04848870
_cell_length_c   7.28897031
_cell_angle_alpha   95.60060268
_cell_angle_beta   96.13843705
_cell_angle_gamma   95.03833587
_symmetry_Int_Tables_number   1
_chemical_formula_structural   Li2Ti2(BrO)3
_chemical_formula_sum   'Li2 Ti2 Br3 O3'
_cell_volume   267.08256465
_cell_formula_units_Z   1
loop_
 _symmetry_equiv_pos_site_id
 _symmetry_equiv_pos_as_xyz
  1  'x, y, z'
loop_
 _atom_site_type_symbol
 _atom_site_label
 _atom_site_symmetry_multiplicity
 _atom_site_fract_x
 _atom_site_fract_y
 _atom_site_fract_z
 _atom_site_occupancy
  Li  Li0  1  0.00000000  0.00000000  0.00000000  1
  Li  Li1  1  0.33300000  0.66700000  0.25000000  1
  Br  Br2  1  0.66700000  0.33300000  0.50000000  1
  Br  Br3  1  0.00000000  0.00000000  0.75000000  1
  Br  Br4  1  0.07037802  0.79762894  0.53017613  1
  Ti  Ti5  1  0.17566275  0.16963866  0.96062370  1
  Ti  Ti6  1  0.04602893  0.68312810  0.53390906  1
  O  O7  1  0.85821941  0.59230688  0.09532041  1
  O  O8  1  0.81506375  0.08403263  0.72637628  1
  O  O9  1  0.06914175  0.46557321  0.58770061  1
