# generated using pymatgen
data_Li3TiI4N5
_symmetry_space_group_name_H-M   'P 1'
_cell_length_a   8.11721607
_cell_length_b   7.86066603
_cell_length_c   8.08061798
_cell_angle_alpha   91.83952674
_cell_angle_beta   90.65034995
_cell_angle_gamma   92.13362833
_symmetry_Int_Tables_number   1
_chemical_formula_structural   Li3TiI4N5
_chemical_formula_sum   'Li3 Ti1 I4 N5'
_cell_volume   514.93415579
_cell_formula_units_Z   1
loop_
 _symmetry_equiv_pos_site_id
 _symmetry_equiv_pos_as_xyz
  1  'x, y, z'
loop_
 _atom_site_type_symbol
 _atom_site_label
 _atom_site_symmetry_multiplicity
 _atom_site_fract_x
 _atom_site_fract_y
 _atom_site_fract_z
 _atom_site_occupancy
  I  I0  1  0.00000000  0.00000000  0.00000000  1
  I  I1  1  0.50000000  0.50000000  0.50000000  1
  I  I2  1  0.25000000  0.25000000  0.25000000  1
  I  I3  1  0.75000000  0.25000000  0.00000000  1
  Li  Li4  1  0.25000000  0.75000000  0.50000000  1
  Li  Li5  1  0.81097638  0.54300431  0.51258706  1
  Li  Li6  1  0.23594310  0.87971597  0.93075819  1
  Ti  Ti7  1  0.46021933  0.85958304  0.30853022  1
  N  N8  1  0.56258150  0.28291948  0.16861970  1
  N  N9  1  0.11554757  0.43144393  0.62305110  1
  N  N10  1  0.83318083  0.97613522  0.71296559  1
  N  N11  1  0.87252026  0.66820036  0.33257690  1
  N  N12  1  0.98231159  0.08513111  0.91530537  1
