# generated using pymatgen
data_Li3TiNi2(As3I2)2
_symmetry_space_group_name_H-M   'P 1'
_cell_length_a   7.83592743
_cell_length_b   7.60880101
_cell_length_c   8.29528307
_cell_angle_alpha   91.75783450
_cell_angle_beta   91.02065088
_cell_angle_gamma   92.03736956
_symmetry_Int_Tables_number   1
_chemical_formula_structural   Li3TiNi2(As3I2)2
_chemical_formula_sum   'Li3 Ti1 Ni2 As6 I4'
_cell_volume   493.94775134
_cell_formula_units_Z   1
loop_
 _symmetry_equiv_pos_site_id
 _symmetry_equiv_pos_as_xyz
  1  'x, y, z'
loop_
 _atom_site_type_symbol
 _atom_site_label
 _atom_site_symmetry_multiplicity
 _atom_site_fract_x
 _atom_site_fract_y
 _atom_site_fract_z
 _atom_site_occupancy
  I  I0  1  0.00000000  0.00000000  0.00000000  1
  I  I1  1  0.50000000  0.50000000  0.50000000  1
  I  I2  1  0.50000000  0.50000000  0.00000000  1
  I  I3  1  0.50000000  0.00000000  0.50000000  1
  Li  Li4  1  0.00000000  0.50000000  0.50000000  1
  Li  Li5  1  0.10057101  0.94106331  0.79043263  1
  Li  Li6  1  0.10130771  0.09226032  0.40070316  1
  Ni  Ni7  1  0.10388711  0.51595698  0.94655198  1
  Ni  Ni8  1  0.44626371  0.87151551  0.56642037  1
  Ti  Ti9  1  0.99049583  0.00473070  0.16860628  1
  As  As10  1  0.24789348  0.01943841  0.30038962  1
  As  As11  1  0.14615741  0.74548167  0.95088427  1
  As  As12  1  0.94373894  0.00596509  0.21032702  1
  As  As13  1  0.42922895  0.65161524  0.78330560  1
  As  As14  1  0.07877215  0.17079171  0.22862496  1
  As  As15  1  0.50113841  0.46184704  0.98750302  1
