# generated using pymatgen
data_LiTiCuNiP2
_symmetry_space_group_name_H-M   'P 1'
_cell_length_a   7.61224548
_cell_length_b   7.33604595
_cell_length_c   8.23944155
_cell_angle_alpha   92.01756460
_cell_angle_beta   91.34462139
_cell_angle_gamma   92.33774941
_symmetry_Int_Tables_number   1
_chemical_formula_structural   LiTiCuNiP2
_chemical_formula_sum   'Li2 Ti2 Cu2 Ni2 P4'
_cell_volume   459.31074818
_cell_formula_units_Z   2
loop_
 _symmetry_equiv_pos_site_id
 _symmetry_equiv_pos_as_xyz
  1  'x, y, z'
loop_
 _atom_site_type_symbol
 _atom_site_label
 _atom_site_symmetry_multiplicity
 _atom_site_fract_x
 _atom_site_fract_y
 _atom_site_fract_z
 _atom_site_occupancy
  P  P0  1  0.12500000  0.00000000  0.25000000  1
  P  P1  1  0.00000000  0.00000000  0.00000000  1
  P  P2  1  0.37500000  0.00000000  0.25000000  1
  P  P3  1  0.25000000  0.25000000  0.25000000  1
  Li  Li4  1  0.00000000  0.25000000  0.12500000  1
  Li  Li5  1  0.69559422  0.11950076  0.70529174  1
  Cu  Cu6  1  0.02315315  0.76026434  0.85179275  1
  Cu  Cu7  1  0.52190610  0.64722128  0.17379689  1
  Ni  Ni8  1  0.88343054  0.05769477  0.73776141  1
  Ni  Ni9  1  0.50680041  0.23086667  0.74471271  1
  Ti  Ti10  1  0.10924904  0.91724606  0.83277460  1
  Ti  Ti11  1  0.71254245  0.21225517  0.36098201  1
