# generated using pymatgen
data_Li2TiP6(O2F)2
_symmetry_space_group_name_H-M   'P 1'
_cell_length_a   8.69975130
_cell_length_b   8.50707549
_cell_length_c   7.48904571
_cell_angle_alpha   90.06703226
_cell_angle_beta   90.31891915
_cell_angle_gamma   90.07663578
_symmetry_Int_Tables_number   1
_chemical_formula_structural   Li2TiP6(O2F)2
_chemical_formula_sum   'Li2 Ti1 P6 O4 F2'
_cell_volume   554.25062083
_cell_formula_units_Z   1
loop_
 _symmetry_equiv_pos_site_id
 _symmetry_equiv_pos_as_xyz
  1  'x, y, z'
loop_
 _atom_site_type_symbol
 _atom_site_label
 _atom_site_symmetry_multiplicity
 _atom_site_fract_x
 _atom_site_fract_y
 _atom_site_fract_z
 _atom_site_occupancy
  P  P0  1  0.12500000  0.00000000  0.25000000  1
  P  P1  1  0.00000000  0.00000000  0.00000000  1
  P  P2  1  0.37500000  0.00000000  0.25000000  1
  P  P3  1  0.25000000  0.25000000  0.25000000  1
  P  P4  1  0.00000000  0.25000000  0.12500000  1
  P  P5  1  0.07493110  0.32065892  0.94068437  1
  Li  Li6  1  0.94145423  0.62131991  0.25477634  1
  Li  Li7  1  0.63509288  0.04263036  0.89573820  1
  F  F8  1  0.60932519  0.29645319  0.20518450  1
  F  F9  1  0.66752636  0.38317714  0.54021790  1
  Ti  Ti10  1  0.77160419  0.83240223  0.28370420  1
  O  O11  1  0.07933157  0.49387019  0.74858996  1
  O  O12  1  0.71877451  0.52188592  0.40355172  1
  O  O13  1  0.11261039  0.56709305  0.99982206  1
  O  O14  1  0.32115413  0.12125570  0.92181973  1
