# generated using pymatgen
data_Li4Ti3P4N5O2
_symmetry_space_group_name_H-M   'P 1'
_cell_length_a   4.85370619
_cell_length_b   4.63646726
_cell_length_c   6.23382226
_cell_angle_alpha   98.24987710
_cell_angle_beta   98.71120143
_cell_angle_gamma   102.48994975
_symmetry_Int_Tables_number   1
_chemical_formula_structural   Li4Ti3P4N5O2
_chemical_formula_sum   'Li4 Ti3 P4 N5 O2'
_cell_volume   133.10941037
_cell_formula_units_Z   1
loop_
 _symmetry_equiv_pos_site_id
 _symmetry_equiv_pos_as_xyz
  1  'x, y, z'
loop_
 _atom_site_type_symbol
 _atom_site_label
 _atom_site_symmetry_multiplicity
 _atom_site_fract_x
 _atom_site_fract_y
 _atom_site_fract_z
 _atom_site_occupancy
  P  P0  1  0.12500000  0.00000000  0.25000000  1
  P  P1  1  0.00000000  0.00000000  0.00000000  1
  P  P2  1  0.37500000  0.00000000  0.25000000  1
  P  P3  1  0.25000000  0.25000000  0.25000000  1
  Li  Li4  1  0.00000000  0.25000000  0.12500000  1
  Li  Li5  1  0.94061136  0.38238802  0.16128291  1
  Li  Li6  1  0.23652624  0.72412579  0.88666049  1
  Li  Li7  1  0.77569022  0.48425205  0.81555322  1
  Ti  Ti8  1  0.63229231  0.39524002  0.90723489  1
  Ti  Ti9  1  0.57949183  0.45883923  0.57796693  1
  Ti  Ti10  1  0.11427549  0.75849769  0.17708281  1
  O  O11  1  0.26845802  0.24543369  0.77200143  1
  O  O12  1  0.11906509  0.56440703  0.65578336  1
  N  N13  1  0.16208146  0.61605657  0.50561240  1
  N  N14  1  0.38142172  0.75028358  0.38331822  1
  N  N15  1  0.72318260  0.41468504  0.23025774  1
  N  N16  1  0.42827092  0.70228506  0.51419774  1
  N  N17  1  0.11814454  0.59392408  0.38894464  1
