# generated using pymatgen
data_Li2TiI4O3
_symmetry_space_group_name_H-M   'P 1'
_cell_length_a   8.33264003
_cell_length_b   8.18538269
_cell_length_c   7.38360671
_cell_angle_alpha   90.20001703
_cell_angle_beta   90.95162029
_cell_angle_gamma   90.22867288
_symmetry_Int_Tables_number   1
_chemical_formula_structural   Li2TiI4O3
_chemical_formula_sum   'Li2 Ti1 I4 O3'
_cell_volume   503.52849585
_cell_formula_units_Z   1
loop_
 _symmetry_equiv_pos_site_id
 _symmetry_equiv_pos_as_xyz
  1  'x, y, z'
loop_
 _atom_site_type_symbol
 _atom_site_label
 _atom_site_symmetry_multiplicity
 _atom_site_fract_x
 _atom_site_fract_y
 _atom_site_fract_z
 _atom_site_occupancy
  I  I0  1  0.12500000  0.00000000  0.25000000  1
  I  I1  1  0.00000000  0.00000000  0.00000000  1
  I  I2  1  0.37500000  0.00000000  0.25000000  1
  I  I3  1  0.25000000  0.25000000  0.25000000  1
  Li  Li4  1  0.00000000  0.25000000  0.12500000  1
  Li  Li5  1  0.58582358  0.69866415  0.52399863  1
  Ti  Ti6  1  0.75580367  0.54481486  0.07443547  1
  O  O7  1  0.53373594  0.67785076  0.30830349  1
  O  O8  1  0.58653251  0.39784594  0.19173827  1
  O  O9  1  0.22348851  0.97340868  0.69751076  1
