# generated using pymatgen
data_Li3LuCu2P4N5
_symmetry_space_group_name_H-M   'P 1'
_cell_length_a   7.95097307
_cell_length_b   7.71437565
_cell_length_c   8.00648887
_cell_angle_alpha   91.68337695
_cell_angle_beta   90.91923463
_cell_angle_gamma   91.95129105
_symmetry_Int_Tables_number   1
_chemical_formula_structural   Li3LuCu2P4N5
_chemical_formula_sum   'Li3 Lu1 Cu2 P4 N5'
_cell_volume   490.52436154
_cell_formula_units_Z   1
loop_
 _symmetry_equiv_pos_site_id
 _symmetry_equiv_pos_as_xyz
  1  'x, y, z'
loop_
 _atom_site_type_symbol
 _atom_site_label
 _atom_site_symmetry_multiplicity
 _atom_site_fract_x
 _atom_site_fract_y
 _atom_site_fract_z
 _atom_site_occupancy
  P  P0  1  0.00000000  0.00000000  0.00000000  1
  P  P1  1  0.50000000  0.50000000  0.50000000  1
  P  P2  1  0.50000000  0.50000000  0.00000000  1
  P  P3  1  0.50000000  0.00000000  0.50000000  1
  Lu  Lu4  1  0.00000000  0.50000000  0.50000000  1
  Li  Li5  1  0.24646065  0.21881100  0.93523175  1
  Li  Li6  1  0.92734661  0.98665931  0.35183510  1
  Li  Li7  1  0.45306799  0.72149313  0.92355403  1
  Cu  Cu8  1  0.67433562  0.39487440  0.74554358  1
  Cu  Cu9  1  0.59648721  0.01021540  0.11173257  1
  N  N10  1  0.75738101  0.38717902  0.67559800  1
  N  N11  1  0.44973336  0.24771812  0.48420548  1
  N  N12  1  0.95360533  0.79409051  0.44733620  1
  N  N13  1  0.73386168  0.66017751  0.39780277  1
  N  N14  1  0.68544327  0.54956026  0.34920388  1
