# generated using pymatgen
data_Li3LuTi(NiAs3)2
_symmetry_space_group_name_H-M   'P 1'
_cell_length_a   8.09511479
_cell_length_b   7.89514720
_cell_length_c   8.06187014
_cell_angle_alpha   91.30486030
_cell_angle_beta   90.75484885
_cell_angle_gamma   91.51237284
_symmetry_Int_Tables_number   1
_chemical_formula_structural   Li3LuTi(NiAs3)2
_chemical_formula_sum   'Li3 Lu1 Ti1 Ni2 As6'
_cell_volume   514.88926031
_cell_formula_units_Z   1
loop_
 _symmetry_equiv_pos_site_id
 _symmetry_equiv_pos_as_xyz
  1  'x, y, z'
loop_
 _atom_site_type_symbol
 _atom_site_label
 _atom_site_symmetry_multiplicity
 _atom_site_fract_x
 _atom_site_fract_y
 _atom_site_fract_z
 _atom_site_occupancy
  Lu  Lu0  1  0.00000000  0.00000000  0.00000000  1
  Li  Li1  1  0.50000000  0.50000000  0.50000000  1
  Li  Li2  1  0.25000000  0.25000000  0.25000000  1
  Li  Li3  1  0.75000000  0.25000000  0.00000000  1
  Ni  Ni4  1  0.25000000  0.75000000  0.50000000  1
  Ni  Ni5  1  0.84025468  0.54892580  0.22221150  1
  Ti  Ti6  1  0.05592500  0.52591804  0.52475911  1
  As  As7  1  0.26543518  0.45786892  0.78523034  1
  As  As8  1  0.97927350  0.08496026  0.30117726  1
  As  As9  1  0.53666364  0.28003916  0.73332752  1
  As  As10  1  0.13483525  0.79722513  0.41693820  1
  As  As11  1  0.21561933  0.27531132  0.71170994  1
  As  As12  1  0.97182429  0.75221977  0.29066215  1
