# generated using pymatgen
data_Li4Ti2P3S2F3
_symmetry_space_group_name_H-M   'P 1'
_cell_length_a   3.58689442
_cell_length_b   3.06775769
_cell_length_c   6.73414767
_cell_angle_alpha   103.12680516
_cell_angle_beta   105.11890574
_cell_angle_gamma   101.85763059
_symmetry_Int_Tables_number   1
_chemical_formula_structural   Li4Ti2P3S2F3
_chemical_formula_sum   'Li4 Ti2 P3 S2 F3'
_cell_volume   66.84804158
_cell_formula_units_Z   1
loop_
 _symmetry_equiv_pos_site_id
 _symmetry_equiv_pos_as_xyz
  1  'x, y, z'
loop_
 _atom_site_type_symbol
 _atom_site_label
 _atom_site_symmetry_multiplicity
 _atom_site_fract_x
 _atom_site_fract_y
 _atom_site_fract_z
 _atom_site_occupancy
  F  F0  1  0.00000000  0.00000000  0.00000000  1
  F  F1  1  0.50000000  0.50000000  0.50000000  1
  F  F2  1  0.25000000  0.25000000  0.25000000  1
  S  S3  1  0.75000000  0.25000000  0.00000000  1
  S  S4  1  0.25000000  0.75000000  0.50000000  1
  Ti  Ti5  1  0.73458273  0.08116179  0.27674927  1
  Ti  Ti6  1  0.74269807  0.18406201  0.84158510  1
  P  P7  1  0.43785485  0.33717259  0.38664548  1
  P  P8  1  0.28349496  0.24352905  0.43158498  1
  P  P9  1  0.72929521  0.16406662  0.44709194  1
  Li  Li10  1  0.03711912  0.31177320  0.62597956  1
  Li  Li11  1  0.40532029  0.62234290  0.26622885  1
  Li  Li12  1  0.50589887  0.77141808  0.13109904  1
  Li  Li13  1  0.54362656  0.85455921  0.99896679  1
