# generated using pymatgen
data_Li2TiCu2N5F3
_symmetry_space_group_name_H-M   'P 1'
_cell_length_a   7.78259911
_cell_length_b   7.68212403
_cell_length_c   8.33057277
_cell_angle_alpha   91.04052514
_cell_angle_beta   91.78640901
_cell_angle_gamma   91.19324800
_symmetry_Int_Tables_number   1
_chemical_formula_structural   Li2TiCu2N5F3
_chemical_formula_sum   'Li2 Ti1 Cu2 N5 F3'
_cell_volume   497.62086374
_cell_formula_units_Z   1
loop_
 _symmetry_equiv_pos_site_id
 _symmetry_equiv_pos_as_xyz
  1  'x, y, z'
loop_
 _atom_site_type_symbol
 _atom_site_label
 _atom_site_symmetry_multiplicity
 _atom_site_fract_x
 _atom_site_fract_y
 _atom_site_fract_z
 _atom_site_occupancy
  Li  Li0  1  0.00000000  0.00000000  0.00000000  1
  Li  Li1  1  0.50000000  0.50000000  0.50000000  1
  Cu  Cu2  1  0.50000000  0.50000000  0.00000000  1
  Cu  Cu3  1  0.50000000  0.00000000  0.50000000  1
  F  F4  1  0.00000000  0.50000000  0.50000000  1
  F  F5  1  0.01408057  0.80258345  0.49789844  1
  F  F6  1  0.84383103  0.11037305  0.81707152  1
  Ti  Ti7  1  0.81697185  0.22337676  0.30407137  1
  N  N8  1  0.59031796  0.22106793  0.58841845  1
  N  N9  1  0.62342759  0.61477971  0.39857136  1
  N  N10  1  0.91019440  0.15060801  0.90903203  1
  N  N11  1  0.43039366  0.74715308  0.92163279  1
  N  N12  1  0.97689921  0.92275402  0.96998987  1
