# generated using pymatgen
data_Li3Ti(IO)4
_symmetry_space_group_name_H-M   'P 1'
_cell_length_a   8.85801263
_cell_length_b   8.73795971
_cell_length_c   7.28872823
_cell_angle_alpha   90.00000000
_cell_angle_beta   90.00000000
_cell_angle_gamma   90.00000000
_symmetry_Int_Tables_number   1
_chemical_formula_structural   Li3Ti(IO)4
_chemical_formula_sum   'Li3 Ti1 I4 O4'
_cell_volume   564.15454460
_cell_formula_units_Z   1
loop_
 _symmetry_equiv_pos_site_id
 _symmetry_equiv_pos_as_xyz
  1  'x, y, z'
loop_
 _atom_site_type_symbol
 _atom_site_label
 _atom_site_symmetry_multiplicity
 _atom_site_fract_x
 _atom_site_fract_y
 _atom_site_fract_z
 _atom_site_occupancy
  I  I0  1  0.12500000  0.00000000  0.25000000  1
  I  I1  1  0.00000000  0.00000000  0.00000000  1
  I  I2  1  0.37500000  0.00000000  0.25000000  1
  I  I3  1  0.25000000  0.25000000  0.25000000  1
  Li  Li4  1  0.00000000  0.25000000  0.12500000  1
  Li  Li5  1  0.86981826  0.70059327  0.35590631  1
  Li  Li6  1  0.15934046  0.72428214  0.47336051  1
  Ti  Ti7  1  0.87936118  0.51822723  0.41872033  1
  O  O8  1  0.42254075  0.57268644  0.08912164  1
  O  O9  1  0.14641837  0.61631052  0.69289058  1
  O  O10  1  0.84981885  0.64830571  0.18135516  1
  O  O11  1  0.65220533  0.34551418  0.26926811  1
