# generated using pymatgen
data_LiTi2Cu2(As2S)3
_symmetry_space_group_name_H-M   'P 1'
_cell_length_a   7.04359744
_cell_length_b   7.18891670
_cell_length_c   8.14302061
_cell_angle_alpha   90.77584403
_cell_angle_beta   93.69123027
_cell_angle_gamma   90.88699690
_symmetry_Int_Tables_number   1
_chemical_formula_structural   LiTi2Cu2(As2S)3
_chemical_formula_sum   'Li1 Ti2 Cu2 As6 S3'
_cell_volume   411.38029451
_cell_formula_units_Z   1
loop_
 _symmetry_equiv_pos_site_id
 _symmetry_equiv_pos_as_xyz
  1  'x, y, z'
loop_
 _atom_site_type_symbol
 _atom_site_label
 _atom_site_symmetry_multiplicity
 _atom_site_fract_x
 _atom_site_fract_y
 _atom_site_fract_z
 _atom_site_occupancy
  S  S0  1  0.00000000  0.00000000  0.00000000  1
  S  S1  1  0.50000000  0.50000000  0.50000000  1
  S  S2  1  0.25000000  0.25000000  0.25000000  1
  Ti  Ti3  1  0.75000000  0.25000000  0.00000000  1
  Ti  Ti4  1  0.25000000  0.75000000  0.50000000  1
  As  As5  1  0.99288614  0.03929798  0.49535743  1
  As  As6  1  0.89975823  0.61783161  0.43815362  1
  As  As7  1  0.42229469  0.95950304  0.04479855  1
  As  As8  1  0.16747143  0.57642365  0.20309555  1
  As  As9  1  0.71689238  0.96517364  0.06682239  1
  As  As10  1  0.85715982  0.75921513  0.49688909  1
  Li  Li11  1  0.94723079  0.93808909  0.53819014  1
  Cu  Cu12  1  0.97882432  0.01186032  0.70180495  1
  Cu  Cu13  1  0.16808590  0.29620665  0.95925268  1
