# generated using pymatgen
data_Li2MnSb4P3
_symmetry_space_group_name_H-M   'P 1'
_cell_length_a   5.58428241
_cell_length_b   6.00709182
_cell_length_c   6.90299574
_cell_angle_alpha   97.06051298
_cell_angle_beta   93.69396912
_cell_angle_gamma   97.38539376
_symmetry_Int_Tables_number   1
_chemical_formula_structural   Li2MnSb4P3
_chemical_formula_sum   'Li2 Mn1 Sb4 P3'
_cell_volume   227.14212773
_cell_formula_units_Z   1
loop_
 _symmetry_equiv_pos_site_id
 _symmetry_equiv_pos_as_xyz
  1  'x, y, z'
loop_
 _atom_site_type_symbol
 _atom_site_label
 _atom_site_symmetry_multiplicity
 _atom_site_fract_x
 _atom_site_fract_y
 _atom_site_fract_z
 _atom_site_occupancy
  Mn  Mn0  1  0.00000000  0.00000000  0.00000000  1
  Sb  Sb1  1  0.50000000  0.50000000  0.50000000  1
  Sb  Sb2  1  0.50000000  0.50000000  0.00000000  1
  Sb  Sb3  1  0.50000000  0.00000000  0.50000000  1
  Sb  Sb4  1  0.00000000  0.50000000  0.50000000  1
  P  P5  1  0.81770629  0.79813364  0.81558611  1
  P  P6  1  0.00198468  0.71166544  0.27895354  1
  P  P7  1  0.92344788  0.51945086  0.77101145  1
  Li  Li8  1  0.31737427  0.90320279  0.02905590  1
  Li  Li9  1  0.89736776  0.88894143  0.24510324  1
