# generated using pymatgen
data_Li2Sb4P3
_symmetry_space_group_name_H-M   'P 1'
_cell_length_a   5.96454164
_cell_length_b   6.12198726
_cell_length_c   6.69589068
_cell_angle_alpha   99.00058841
_cell_angle_beta   91.81600347
_cell_angle_gamma   99.14403624
_symmetry_Int_Tables_number   1
_chemical_formula_structural   Li2Sb4P3
_chemical_formula_sum   'Li2 Sb4 P3'
_cell_volume   238.01872079
_cell_formula_units_Z   1
loop_
 _symmetry_equiv_pos_site_id
 _symmetry_equiv_pos_as_xyz
  1  'x, y, z'
loop_
 _atom_site_type_symbol
 _atom_site_label
 _atom_site_symmetry_multiplicity
 _atom_site_fract_x
 _atom_site_fract_y
 _atom_site_fract_z
 _atom_site_occupancy
  Sb  Sb0  1  0.12500000  0.12500000  0.12500000  1
  Sb  Sb1  1  0.50000000  0.50000000  0.50000000  1
  Sb  Sb2  1  0.25000000  0.25000000  0.25000000  1
  Sb  Sb3  1  0.75000000  0.75000000  0.75000000  1
  P  P4  1  0.59914551  0.57611987  0.21241973  1
  P  P5  1  0.82443912  0.62735161  0.60664483  1
  P  P6  1  0.76419136  0.21451879  0.15875339  1
  Li  Li7  1  0.71659876  0.31625694  0.31735582  1
  Li  Li8  1  0.80410428  0.52058354  0.77200220  1
