# generated using pymatgen
data_Li2As6P4N3
_symmetry_space_group_name_H-M   'P 1'
_cell_length_a   7.66260836
_cell_length_b   7.41579272
_cell_length_c   8.21356411
_cell_angle_alpha   91.70956888
_cell_angle_beta   91.46290612
_cell_angle_gamma   91.91906511
_symmetry_Int_Tables_number   1
_chemical_formula_structural   Li2As6P4N3
_chemical_formula_sum   'Li2 As6 P4 N3'
_cell_volume   466.09632131
_cell_formula_units_Z   1
loop_
 _symmetry_equiv_pos_site_id
 _symmetry_equiv_pos_as_xyz
  1  'x, y, z'
loop_
 _atom_site_type_symbol
 _atom_site_label
 _atom_site_symmetry_multiplicity
 _atom_site_fract_x
 _atom_site_fract_y
 _atom_site_fract_z
 _atom_site_occupancy
  P  P0  1  0.00000000  0.00000000  0.00000000  1
  P  P1  1  0.33300000  0.66700000  0.25000000  1
  P  P2  1  0.66700000  0.33300000  0.50000000  1
  P  P3  1  0.00000000  0.00000000  0.75000000  1
  Li  Li4  1  0.18488022  0.77415319  0.16601031  1
  Li  Li5  1  0.35413015  0.35488861  0.50466768  1
  As  As6  1  0.78584173  0.61428232  0.58154709  1
  As  As7  1  0.52997473  0.91166288  0.40965571  1
  As  As8  1  0.22685769  0.66925976  0.01484545  1
  As  As9  1  0.48214625  0.29220332  0.22679294  1
  As  As10  1  0.09910320  0.98134481  0.91045314  1
  As  As11  1  0.97616363  0.96651776  0.43878869  1
  N  N12  1  0.72075958  0.61396018  0.72585484  1
  N  N13  1  0.77659220  0.13751145  0.23352448  1
  N  N14  1  0.33155240  0.92398051  0.83015698  1
