# generated using pymatgen
data_Li3Ti(IO)4
_symmetry_space_group_name_H-M   'P 1'
_cell_length_a   8.46688752
_cell_length_b   8.32781482
_cell_length_c   7.92112730
_cell_angle_alpha   90.56797665
_cell_angle_beta   90.36009534
_cell_angle_gamma   90.65818333
_symmetry_Int_Tables_number   1
_chemical_formula_structural   Li3Ti(IO)4
_chemical_formula_sum   'Li3 Ti1 I4 O4'
_cell_volume   558.44827611
_cell_formula_units_Z   1
loop_
 _symmetry_equiv_pos_site_id
 _symmetry_equiv_pos_as_xyz
  1  'x, y, z'
loop_
 _atom_site_type_symbol
 _atom_site_label
 _atom_site_symmetry_multiplicity
 _atom_site_fract_x
 _atom_site_fract_y
 _atom_site_fract_z
 _atom_site_occupancy
  I  I0  1  0.00000000  0.00000000  0.00000000  1
  I  I1  1  0.50000000  0.50000000  0.50000000  1
  I  I2  1  0.50000000  0.50000000  0.00000000  1
  I  I3  1  0.50000000  0.00000000  0.50000000  1
  Li  Li4  1  0.00000000  0.50000000  0.50000000  1
  Li  Li5  1  0.40314477  0.84655528  0.32525066  1
  Li  Li6  1  0.92915290  0.90744066  0.56271806  1
  Ti  Ti7  1  0.57521841  0.63741800  0.58979592  1
  O  O8  1  0.04818821  0.32372124  0.91987597  1
  O  O9  1  0.59366061  0.71294652  0.33162057  1
  O  O10  1  0.41789278  0.41989790  0.11639886  1
  O  O11  1  0.21902925  0.16743381  0.49490528  1
