# generated using pymatgen
data_Li2LuI4F3
_symmetry_space_group_name_H-M   'P 1'
_cell_length_a   7.62060873
_cell_length_b   7.51393031
_cell_length_c   7.74401439
_cell_angle_alpha   92.88736164
_cell_angle_beta   93.56932850
_cell_angle_gamma   92.88427127
_symmetry_Int_Tables_number   1
_chemical_formula_structural   Li2LuI4F3
_chemical_formula_sum   'Li2 Lu1 I4 F3'
_cell_volume   441.36983296
_cell_formula_units_Z   1
loop_
 _symmetry_equiv_pos_site_id
 _symmetry_equiv_pos_as_xyz
  1  'x, y, z'
loop_
 _atom_site_type_symbol
 _atom_site_label
 _atom_site_symmetry_multiplicity
 _atom_site_fract_x
 _atom_site_fract_y
 _atom_site_fract_z
 _atom_site_occupancy
  F  F0  1  0.12500000  0.00000000  0.25000000  1
  F  F1  1  0.00000000  0.00000000  0.00000000  1
  F  F2  1  0.37500000  0.00000000  0.25000000  1
  I  I3  1  0.25000000  0.25000000  0.25000000  1
  I  I4  1  0.00000000  0.25000000  0.12500000  1
  I  I5  1  0.82749013  0.98206451  0.42776840  1
  I  I6  1  0.20147656  0.67411442  0.71475413  1
  Lu  Lu7  1  0.93987721  0.08882239  0.23264465  1
  Li  Li8  1  0.91313439  0.78106900  0.64952796  1
  Li  Li9  1  0.57669949  0.70726535  0.70887506  1
