# generated using pymatgen
data_Li2TiCu2S2O3
_symmetry_space_group_name_H-M   'P 1'
_cell_length_a   5.60057411
_cell_length_b   5.49998103
_cell_length_c   6.83121796
_cell_angle_alpha   96.47391217
_cell_angle_beta   99.32405362
_cell_angle_gamma   96.64435612
_symmetry_Int_Tables_number   1
_chemical_formula_structural   Li2TiCu2S2O3
_chemical_formula_sum   'Li2 Ti1 Cu2 S2 O3'
_cell_volume   204.38306499
_cell_formula_units_Z   1
loop_
 _symmetry_equiv_pos_site_id
 _symmetry_equiv_pos_as_xyz
  1  'x, y, z'
loop_
 _atom_site_type_symbol
 _atom_site_label
 _atom_site_symmetry_multiplicity
 _atom_site_fract_x
 _atom_site_fract_y
 _atom_site_fract_z
 _atom_site_occupancy
  Li  Li0  1  0.12500000  0.00000000  0.25000000  1
  Li  Li1  1  0.00000000  0.00000000  0.00000000  1
  Cu  Cu2  1  0.37500000  0.00000000  0.25000000  1
  Cu  Cu3  1  0.25000000  0.25000000  0.25000000  1
  S  S4  1  0.00000000  0.25000000  0.12500000  1
  S  S5  1  0.33226836  0.69583036  0.60523817  1
  Ti  Ti6  1  0.60954935  0.24668749  0.20013995  1
  O  O7  1  0.53483757  0.78839932  0.95553442  1
  O  O8  1  0.20602201  0.03840787  0.08032466  1
  O  O9  1  0.07480106  0.58438479  0.60489043  1
