# generated using pymatgen
data_Li2LuCu2(NiAs3)2
_symmetry_space_group_name_H-M   'P 1'
_cell_length_a   7.62652276
_cell_length_b   7.42699325
_cell_length_c   8.31891655
_cell_angle_alpha   91.57364100
_cell_angle_beta   91.40473715
_cell_angle_gamma   91.79336529
_symmetry_Int_Tables_number   1
_chemical_formula_structural   Li2LuCu2(NiAs3)2
_chemical_formula_sum   'Li2 Lu1 Cu2 Ni2 As6'
_cell_volume   470.64090736
_cell_formula_units_Z   1
loop_
 _symmetry_equiv_pos_site_id
 _symmetry_equiv_pos_as_xyz
  1  'x, y, z'
loop_
 _atom_site_type_symbol
 _atom_site_label
 _atom_site_symmetry_multiplicity
 _atom_site_fract_x
 _atom_site_fract_y
 _atom_site_fract_z
 _atom_site_occupancy
  Lu  Lu0  1  0.00000000  0.00000000  0.00000000  1
  Li  Li1  1  0.50000000  0.50000000  0.50000000  1
  Li  Li2  1  0.25000000  0.25000000  0.25000000  1
  Cu  Cu3  1  0.75000000  0.25000000  0.00000000  1
  Cu  Cu4  1  0.25000000  0.75000000  0.50000000  1
  Ni  Ni5  1  0.75642441  0.23683783  0.76421148  1
  Ni  Ni6  1  0.39388007  0.93008491  0.58051528  1
  As  As7  1  0.66855281  0.51271290  0.23683901  1
  As  As8  1  0.80151844  0.47533273  0.53230172  1
  As  As9  1  0.61047906  0.45818361  0.11994278  1
  As  As10  1  0.98725700  0.40267281  0.92867955  1
  As  As11  1  0.49518792  0.72375659  0.13008088  1
  As  As12  1  0.82903523  0.76193423  0.29591994  1
