# generated using pymatgen
data_Li2As6I4O5
_symmetry_space_group_name_H-M   'P 1'
_cell_length_a   7.92733489
_cell_length_b   7.76034990
_cell_length_c   8.03004357
_cell_angle_alpha   90.77353785
_cell_angle_beta   91.33213518
_cell_angle_gamma   90.89321714
_symmetry_Int_Tables_number   1
_chemical_formula_structural   Li2As6I4O5
_chemical_formula_sum   'Li2 As6 I4 O5'
_cell_volume   493.75837245
_cell_formula_units_Z   1
loop_
 _symmetry_equiv_pos_site_id
 _symmetry_equiv_pos_as_xyz
  1  'x, y, z'
loop_
 _atom_site_type_symbol
 _atom_site_label
 _atom_site_symmetry_multiplicity
 _atom_site_fract_x
 _atom_site_fract_y
 _atom_site_fract_z
 _atom_site_occupancy
  I  I0  1  0.00000000  0.00000000  0.00000000  1
  I  I1  1  0.33300000  0.66700000  0.25000000  1
  I  I2  1  0.66700000  0.33300000  0.50000000  1
  I  I3  1  0.00000000  0.00000000  0.75000000  1
  Li  Li4  1  0.67047808  0.99857696  0.66967175  1
  Li  Li5  1  0.90478951  0.19045554  0.85781447  1
  As  As6  1  0.76149369  0.19448367  0.30597769  1
  As  As7  1  0.11257946  0.28573019  0.07318924  1
  As  As8  1  0.56068928  0.75285617  0.01077934  1
  As  As9  1  0.92802983  0.33497789  0.27283953  1
  As  As10  1  0.63929641  0.15711277  0.33897823  1
  As  As11  1  0.48827527  0.16477940  0.92607723  1
  O  O12  1  0.09876960  0.48205310  0.52063083  1
  O  O13  1  0.78755193  0.85647978  0.00438737  1
  O  O14  1  0.32132823  0.74814413  0.07633734  1
  O  O15  1  0.34250993  0.76711007  0.80887852  1
  O  O16  1  0.76657841  0.39799193  0.67313727  1
