# generated using pymatgen
data_Li4Ti2S2F3
_symmetry_space_group_name_H-M   'P 1'
_cell_length_a   3.50748136
_cell_length_b   3.31454112
_cell_length_c   6.12875867
_cell_angle_alpha   98.08979704
_cell_angle_beta   108.41833106
_cell_angle_gamma   97.54806461
_symmetry_Int_Tables_number   1
_chemical_formula_structural   Li4Ti2S2F3
_chemical_formula_sum   'Li4 Ti2 S2 F3'
_cell_volume   65.74563847
_cell_formula_units_Z   1
loop_
 _symmetry_equiv_pos_site_id
 _symmetry_equiv_pos_as_xyz
  1  'x, y, z'
loop_
 _atom_site_type_symbol
 _atom_site_label
 _atom_site_symmetry_multiplicity
 _atom_site_fract_x
 _atom_site_fract_y
 _atom_site_fract_z
 _atom_site_occupancy
  F  F0  1  0.12500000  0.12500000  0.12500000  1
  F  F1  1  0.50000000  0.50000000  0.50000000  1
  F  F2  1  0.25000000  0.25000000  0.25000000  1
  S  S3  1  0.75000000  0.75000000  0.75000000  1
  S  S4  1  0.97514594  0.59712442  0.58456152  1
  Ti  Ti5  1  0.14578127  0.61039542  0.10462022  1
  Ti  Ti6  1  0.10953796  0.15071542  0.99051100  1
  Li  Li7  1  0.19444811  0.39527970  0.56239629  1
  Li  Li8  1  0.31972942  0.56756829  0.66650785  1
  Li  Li9  1  0.81702833  0.33138175  0.69898094  1
  Li  Li10  1  0.18090581  0.39545897  0.31796884  1
