# generated using pymatgen
data_Li2TiI4O4F3
_symmetry_space_group_name_H-M   'P 1'
_cell_length_a   8.57527682
_cell_length_b   8.42542619
_cell_length_c   7.40110664
_cell_angle_alpha   90.35037473
_cell_angle_beta   90.42328168
_cell_angle_gamma   90.40526294
_symmetry_Int_Tables_number   1
_chemical_formula_structural   Li2TiI4O4F3
_chemical_formula_sum   'Li2 Ti1 I4 O4 F3'
_cell_volume   534.69449511
_cell_formula_units_Z   1
loop_
 _symmetry_equiv_pos_site_id
 _symmetry_equiv_pos_as_xyz
  1  'x, y, z'
loop_
 _atom_site_type_symbol
 _atom_site_label
 _atom_site_symmetry_multiplicity
 _atom_site_fract_x
 _atom_site_fract_y
 _atom_site_fract_z
 _atom_site_occupancy
  I  I0  1  0.12500000  0.00000000  0.25000000  1
  I  I1  1  0.00000000  0.00000000  0.00000000  1
  I  I2  1  0.37500000  0.00000000  0.25000000  1
  I  I3  1  0.25000000  0.25000000  0.25000000  1
  Li  Li4  1  0.00000000  0.25000000  0.12500000  1
  Li  Li5  1  0.60837708  0.56108535  0.34096523  1
  F  F6  1  0.03727901  0.99887038  0.67328398  1
  F  F7  1  0.77269404  0.34973551  0.72532254  1
  F  F8  1  0.89091217  0.58835543  0.69528989  1
  Ti  Ti9  1  0.30058381  0.06985522  0.82241474  1
  O  O10  1  0.30846699  0.02477399  0.32755686  1
  O  O11  1  0.68369508  0.74472600  0.25007139  1
  O  O12  1  0.33394031  0.71925946  0.42769110  1
  O  O13  1  0.67576783  0.41466281  0.32371576  1
