# generated using pymatgen
data_Li2TiI4O3
_symmetry_space_group_name_H-M   'P 1'
_cell_length_a   8.46519695
_cell_length_b   8.32498038
_cell_length_c   7.43607766
_cell_angle_alpha   90.14255161
_cell_angle_beta   90.67821727
_cell_angle_gamma   90.16297456
_symmetry_Int_Tables_number   1
_chemical_formula_structural   Li2TiI4O3
_chemical_formula_sum   'Li2 Ti1 I4 O3'
_cell_volume   523.99921650
_cell_formula_units_Z   1
loop_
 _symmetry_equiv_pos_site_id
 _symmetry_equiv_pos_as_xyz
  1  'x, y, z'
loop_
 _atom_site_type_symbol
 _atom_site_label
 _atom_site_symmetry_multiplicity
 _atom_site_fract_x
 _atom_site_fract_y
 _atom_site_fract_z
 _atom_site_occupancy
  I  I0  1  0.12500000  0.12500000  0.12500000  1
  I  I1  1  0.50000000  0.50000000  0.50000000  1
  I  I2  1  0.25000000  0.25000000  0.25000000  1
  I  I3  1  0.75000000  0.75000000  0.75000000  1
  Li  Li4  1  0.83454005  0.52921898  0.87337262  1
  Li  Li5  1  0.85401640  0.94974843  0.43020293  1
  Ti  Ti6  1  0.66476621  0.60749785  0.42949218  1
  O  O7  1  0.24698048  0.99288586  0.82087005  1
  O  O8  1  0.57711990  0.94986016  0.23926090  1
  O  O9  1  0.08610209  0.74966547  0.73290329  1
