# generated using pymatgen
data_Li3Ti(IO)4
_symmetry_space_group_name_H-M   'P 1'
_cell_length_a   8.62263464
_cell_length_b   8.45742870
_cell_length_c   7.49933588
_cell_angle_alpha   90.61564218
_cell_angle_beta   90.21765536
_cell_angle_gamma   90.71407040
_symmetry_Int_Tables_number   1
_chemical_formula_structural   Li3Ti(IO)4
_chemical_formula_sum   'Li3 Ti1 I4 O4'
_cell_volume   546.81318130
_cell_formula_units_Z   1
loop_
 _symmetry_equiv_pos_site_id
 _symmetry_equiv_pos_as_xyz
  1  'x, y, z'
loop_
 _atom_site_type_symbol
 _atom_site_label
 _atom_site_symmetry_multiplicity
 _atom_site_fract_x
 _atom_site_fract_y
 _atom_site_fract_z
 _atom_site_occupancy
  I  I0  1  0.00000000  0.00000000  0.00000000  1
  I  I1  1  0.50000000  0.50000000  0.50000000  1
  I  I2  1  0.50000000  0.50000000  0.00000000  1
  I  I3  1  0.50000000  0.00000000  0.50000000  1
  Li  Li4  1  0.00000000  0.50000000  0.50000000  1
  Li  Li5  1  0.61221433  0.83931858  0.21788964  1
  Li  Li6  1  0.33497643  0.79936986  0.38789384  1
  Ti  Ti7  1  0.52610198  0.50673922  0.58976946  1
  O  O8  1  0.25281413  0.44750648  0.01400953  1
  O  O9  1  0.49502763  0.82226085  0.02968846  1
  O  O10  1  0.38071289  0.06941285  0.10576433  1
  O  O11  1  0.83592897  0.19978652  0.29645663  1
