# generated using pymatgen
data_Li2N5
_symmetry_space_group_name_H-M   'P 1'
_cell_length_a   7.68340388
_cell_length_b   7.60862103
_cell_length_c   7.77072815
_cell_angle_alpha   93.51309921
_cell_angle_beta   93.89326133
_cell_angle_gamma   93.47178944
_symmetry_Int_Tables_number   1
_chemical_formula_structural   Li2N5
_chemical_formula_sum   'Li2 N5'
_cell_volume   451.42120982
_cell_formula_units_Z   1
loop_
 _symmetry_equiv_pos_site_id
 _symmetry_equiv_pos_as_xyz
  1  'x, y, z'
loop_
 _atom_site_type_symbol
 _atom_site_label
 _atom_site_symmetry_multiplicity
 _atom_site_fract_x
 _atom_site_fract_y
 _atom_site_fract_z
 _atom_site_occupancy
  Li  Li0  1  0.00000000  0.00000000  0.00000000  1
  Li  Li1  1  0.33300000  0.66700000  0.25000000  1
  N  N2  1  0.66700000  0.33300000  0.50000000  1
  N  N3  1  0.00000000  0.00000000  0.75000000  1
  N  N4  1  0.12526481  0.86186982  0.84443447  1
  N  N5  1  0.23434841  0.01184900  0.57211423  1
  N  N6  1  0.28182028  0.23985407  0.86668409  1
