# generated using pymatgen
data_Li2TiCu2S3I4
_symmetry_space_group_name_H-M   'P 1'
_cell_length_a   7.76744801
_cell_length_b   7.76464585
_cell_length_c   7.57353914
_cell_angle_alpha   90.51311102
_cell_angle_beta   92.44122640
_cell_angle_gamma   90.58662291
_symmetry_Int_Tables_number   1
_chemical_formula_structural   Li2TiCu2S3I4
_chemical_formula_sum   'Li2 Ti1 Cu2 S3 I4'
_cell_volume   456.31274688
_cell_formula_units_Z   1
loop_
 _symmetry_equiv_pos_site_id
 _symmetry_equiv_pos_as_xyz
  1  'x, y, z'
loop_
 _atom_site_type_symbol
 _atom_site_label
 _atom_site_symmetry_multiplicity
 _atom_site_fract_x
 _atom_site_fract_y
 _atom_site_fract_z
 _atom_site_occupancy
  I  I0  1  0.00000000  0.00000000  0.00000000  1
  I  I1  1  0.50000000  0.50000000  0.50000000  1
  I  I2  1  0.50000000  0.50000000  0.00000000  1
  I  I3  1  0.50000000  0.00000000  0.50000000  1
  Li  Li4  1  0.00000000  0.50000000  0.50000000  1
  Li  Li5  1  0.23844068  0.70582418  0.57282717  1
  Cu  Cu6  1  0.55788989  0.05242364  0.25975590  1
  Cu  Cu7  1  0.71833010  0.30262646  0.32054573  1
  S  S8  1  0.40229195  0.13232402  0.75430645  1
  S  S9  1  0.57371356  0.31136331  0.47990458  1
  S  S10  1  0.59780245  0.40929095  0.02172784  1
  Ti  Ti11  1  0.75870948  0.56941933  0.52190729  1
