# generated using pymatgen
data_Li2LuCu2(SO)2
_symmetry_space_group_name_H-M   'P 1'
_cell_length_a   6.41519360
_cell_length_b   6.64499955
_cell_length_c   7.38124341
_cell_angle_alpha   96.28615402
_cell_angle_beta   98.44076253
_cell_angle_gamma   96.48867959
_symmetry_Int_Tables_number   1
_chemical_formula_structural   Li2LuCu2(SO)2
_chemical_formula_sum   'Li2 Lu1 Cu2 S2 O2'
_cell_volume   306.69742027
_cell_formula_units_Z   1
loop_
 _symmetry_equiv_pos_site_id
 _symmetry_equiv_pos_as_xyz
  1  'x, y, z'
loop_
 _atom_site_type_symbol
 _atom_site_label
 _atom_site_symmetry_multiplicity
 _atom_site_fract_x
 _atom_site_fract_y
 _atom_site_fract_z
 _atom_site_occupancy
  Lu  Lu0  1  0.00000000  0.00000000  0.00000000  1
  Li  Li1  1  0.50000000  0.50000000  0.50000000  1
  Li  Li2  1  0.25000000  0.25000000  0.25000000  1
  Cu  Cu3  1  0.75000000  0.25000000  0.00000000  1
  Cu  Cu4  1  0.25000000  0.75000000  0.50000000  1
  S  S5  1  0.01183034  0.59787416  0.38657831  1
  S  S6  1  0.33854871  0.94130444  0.28487645  1
  O  O7  1  0.15989049  0.54877993  0.36596269  1
  O  O8  1  0.53567053  0.88274625  0.03658140  1
