# generated using pymatgen
data_Li2LuCu2As6N5
_symmetry_space_group_name_H-M   'P 1'
_cell_length_a   7.41140760
_cell_length_b   7.41246520
_cell_length_c   8.40542993
_cell_angle_alpha   92.02639801
_cell_angle_beta   92.71475981
_cell_angle_gamma   92.16254729
_symmetry_Int_Tables_number   1
_chemical_formula_structural   Li2LuCu2As6N5
_chemical_formula_sum   'Li2 Lu1 Cu2 As6 N5'
_cell_volume   460.60139326
_cell_formula_units_Z   1
loop_
 _symmetry_equiv_pos_site_id
 _symmetry_equiv_pos_as_xyz
  1  'x, y, z'
loop_
 _atom_site_type_symbol
 _atom_site_label
 _atom_site_symmetry_multiplicity
 _atom_site_fract_x
 _atom_site_fract_y
 _atom_site_fract_z
 _atom_site_occupancy
  Lu  Lu0  1  0.12500000  0.00000000  0.25000000  1
  As  As1  1  0.00000000  0.00000000  0.00000000  1
  As  As2  1  0.37500000  0.00000000  0.25000000  1
  As  As3  1  0.25000000  0.25000000  0.25000000  1
  As  As4  1  0.00000000  0.25000000  0.12500000  1
  As  As5  1  0.07666853  0.07074685  0.38749116  1
  As  As6  1  0.63277282  0.16702335  0.04675731  1
  Li  Li7  1  0.29607925  0.49157496  0.59932178  1
  Li  Li8  1  0.03737907  0.77748451  0.77174496  1
  N  N9  1  0.90960668  0.21433400  0.60134065  1
  N  N10  1  0.63003595  0.40651981  0.19569993  1
  N  N11  1  0.09597931  0.61693808  0.67345039  1
  N  N12  1  0.57254419  0.35437527  0.48565649  1
  N  N13  1  0.84582020  0.17000359  0.67310805  1
  Cu  Cu14  1  0.87222585  0.60308583  0.87997912  1
  Cu  Cu15  1  0.47984422  0.95961150  0.26363060  1
