# generated using pymatgen
data_Li3TiAs6I4O5
_symmetry_space_group_name_H-M   'P 1'
_cell_length_a   8.57665602
_cell_length_b   8.44474014
_cell_length_c   8.50894646
_cell_angle_alpha   90.00000000
_cell_angle_beta   90.00000000
_cell_angle_gamma   90.00000000
_symmetry_Int_Tables_number   1
_chemical_formula_structural   Li3TiAs6I4O5
_chemical_formula_sum   'Li3 Ti1 As6 I4 O5'
_cell_volume   616.28283687
_cell_formula_units_Z   1
loop_
 _symmetry_equiv_pos_site_id
 _symmetry_equiv_pos_as_xyz
  1  'x, y, z'
loop_
 _atom_site_type_symbol
 _atom_site_label
 _atom_site_symmetry_multiplicity
 _atom_site_fract_x
 _atom_site_fract_y
 _atom_site_fract_z
 _atom_site_occupancy
  I  I0  1  0.00000000  0.00000000  0.00000000  1
  I  I1  1  0.50000000  0.50000000  0.50000000  1
  I  I2  1  0.25000000  0.25000000  0.25000000  1
  I  I3  1  0.75000000  0.25000000  0.00000000  1
  Li  Li4  1  0.25000000  0.75000000  0.50000000  1
  Li  Li5  1  0.58499901  0.49077153  0.33366917  1
  Li  Li6  1  0.41665309  0.27234434  0.92479208  1
  Ti  Ti7  1  0.87967918  0.01789347  0.01790762  1
  As  As8  1  0.57677659  0.81030330  0.73464992  1
  As  As9  1  0.57040727  0.98785472  0.20306220  1
  As  As10  1  0.50055977  0.84108597  0.69846028  1
  As  As11  1  0.43881080  0.89646664  0.41307052  1
  As  As12  1  0.91732648  0.14787582  0.89648392  1
  As  As13  1  0.85007984  0.77095142  0.25885971  1
  O  O14  1  0.85296511  0.73203015  0.15268153  1
  O  O15  1  0.90720678  0.89056950  0.46822926  1
  O  O16  1  0.77358877  0.65142317  0.02978130  1
  O  O17  1  0.37267529  0.58411980  0.33174701  1
  O  O18  1  0.27899639  0.75253920  0.16784558  1
