# generated using pymatgen
data_Li3Ni2P3SeCl2
_symmetry_space_group_name_H-M   'P 1'
_cell_length_a   7.30848427
_cell_length_b   7.05139845
_cell_length_c   7.92028093
_cell_angle_alpha   94.01546290
_cell_angle_beta   94.54037439
_cell_angle_gamma   94.02594421
_symmetry_Int_Tables_number   1
_chemical_formula_structural   Li3Ni2P3SeCl2
_chemical_formula_sum   'Li3 Ni2 P3 Se1 Cl2'
_cell_volume   404.71278942
_cell_formula_units_Z   1
loop_
 _symmetry_equiv_pos_site_id
 _symmetry_equiv_pos_as_xyz
  1  'x, y, z'
loop_
 _atom_site_type_symbol
 _atom_site_label
 _atom_site_symmetry_multiplicity
 _atom_site_fract_x
 _atom_site_fract_y
 _atom_site_fract_z
 _atom_site_occupancy
  P  P0  1  0.00000000  0.00000000  0.00000000  1
  P  P1  1  0.50000000  0.50000000  0.50000000  1
  P  P2  1  0.50000000  0.50000000  0.00000000  1
  Li  Li3  1  0.50000000  0.00000000  0.50000000  1
  Li  Li4  1  0.00000000  0.50000000  0.50000000  1
  Li  Li5  1  0.84507457  0.48125129  0.02060280  1
  Se  Se6  1  0.17898075  0.52573817  0.84114480  1
  Cl  Cl7  1  0.80692381  0.45871604  0.36972698  1
  Cl  Cl8  1  0.83355902  0.61852137  0.44985655  1
  Ni  Ni9  1  0.33849765  0.33719748  0.33225665  1
  Ni  Ni10  1  0.75191822  0.26557910  0.78015500  1
