# generated using pymatgen
data_Li2Ti2As6P5F2
_symmetry_space_group_name_H-M   'P 1'
_cell_length_a   7.17755334
_cell_length_b   7.04857289
_cell_length_c   7.80185346
_cell_angle_alpha   91.60382168
_cell_angle_beta   93.52629008
_cell_angle_gamma   91.56048704
_symmetry_Int_Tables_number   1
_chemical_formula_structural   Li2Ti2As6P5F2
_chemical_formula_sum   'Li2 Ti2 As6 P5 F2'
_cell_volume   393.64003079
_cell_formula_units_Z   1
loop_
 _symmetry_equiv_pos_site_id
 _symmetry_equiv_pos_as_xyz
  1  'x, y, z'
loop_
 _atom_site_type_symbol
 _atom_site_label
 _atom_site_symmetry_multiplicity
 _atom_site_fract_x
 _atom_site_fract_y
 _atom_site_fract_z
 _atom_site_occupancy
  F  F0  1  0.00000000  0.00000000  0.00000000  1
  F  F1  1  0.50000000  0.50000000  0.50000000  1
  Ti  Ti2  1  0.25000000  0.25000000  0.25000000  1
  Ti  Ti3  1  0.75000000  0.25000000  0.00000000  1
  P  P4  1  0.25000000  0.75000000  0.50000000  1
  P  P5  1  0.69830434  0.07017138  0.04674130  1
  P  P6  1  0.94029285  0.14437185  0.22437716  1
  P  P7  1  0.70273051  0.20176614  0.26006787  1
  P  P8  1  0.22268342  0.63681560  0.56623449  1
  As  As9  1  0.92862656  0.43491451  0.30796501  1
  As  As10  1  0.37754897  0.73718538  0.70284143  1
  As  As11  1  0.67496394  0.57448526  0.44384467  1
  As  As12  1  0.97977038  0.75941612  0.79750921  1
  As  As13  1  0.04264853  0.08313729  0.23618578  1
  As  As14  1  0.42758626  0.57275066  0.63168180  1
  Li  Li15  1  0.33139898  0.00155937  0.67047015  1
  Li  Li16  1  0.61064898  0.41469230  0.82574900  1
