# generated using pymatgen
data_Li3TiN5
_symmetry_space_group_name_H-M   'P 1'
_cell_length_a   8.05371212
_cell_length_b   7.86987841
_cell_length_c   8.48316115
_cell_angle_alpha   91.35881403
_cell_angle_beta   90.73489349
_cell_angle_gamma   91.57509985
_symmetry_Int_Tables_number   1
_chemical_formula_structural   Li3TiN5
_chemical_formula_sum   'Li3 Ti1 N5'
_cell_volume   537.27430455
_cell_formula_units_Z   1
loop_
 _symmetry_equiv_pos_site_id
 _symmetry_equiv_pos_as_xyz
  1  'x, y, z'
loop_
 _atom_site_type_symbol
 _atom_site_label
 _atom_site_symmetry_multiplicity
 _atom_site_fract_x
 _atom_site_fract_y
 _atom_site_fract_z
 _atom_site_occupancy
  Li  Li0  1  0.12500000  0.00000000  0.25000000  1
  Li  Li1  1  0.00000000  0.00000000  0.00000000  1
  Li  Li2  1  0.37500000  0.00000000  0.25000000  1
  Ti  Ti3  1  0.25000000  0.25000000  0.25000000  1
  N  N4  1  0.00000000  0.25000000  0.12500000  1
  N  N5  1  0.33647805  0.69532464  0.63976281  1
  N  N6  1  0.52394393  0.75695546  0.79150798  1
  N  N7  1  0.40752971  0.18069662  0.12685857  1
  N  N8  1  0.83152207  0.91540006  0.94123951  1
