# generated using pymatgen
data_Li2TiP4F2
_symmetry_space_group_name_H-M   'P 1'
_cell_length_a   6.85740102
_cell_length_b   6.80073676
_cell_length_c   7.48471874
_cell_angle_alpha   93.93865056
_cell_angle_beta   95.47830099
_cell_angle_gamma   93.56326501
_symmetry_Int_Tables_number   1
_chemical_formula_structural   Li2TiP4F2
_chemical_formula_sum   'Li2 Ti1 P4 F2'
_cell_volume   345.80709251
_cell_formula_units_Z   1
loop_
 _symmetry_equiv_pos_site_id
 _symmetry_equiv_pos_as_xyz
  1  'x, y, z'
loop_
 _atom_site_type_symbol
 _atom_site_label
 _atom_site_symmetry_multiplicity
 _atom_site_fract_x
 _atom_site_fract_y
 _atom_site_fract_z
 _atom_site_occupancy
  P  P0  1  0.00000000  0.00000000  0.00000000  1
  P  P1  1  0.50000000  0.50000000  0.50000000  1
  P  P2  1  0.25000000  0.25000000  0.25000000  1
  P  P3  1  0.75000000  0.25000000  0.00000000  1
  Li  Li4  1  0.25000000  0.75000000  0.50000000  1
  Li  Li5  1  0.18918548  0.04248293  0.15235870  1
  F  F6  1  0.41385763  0.82683176  0.25982332  1
  F  F7  1  0.11975642  0.30131507  0.76015734  1
  Ti  Ti8  1  0.12456099  0.15302281  0.75822053  1
