# generated using pymatgen
data_Li2LuCu2(As3P2)2
_symmetry_space_group_name_H-M   'P 1'
_cell_length_a   7.41208215
_cell_length_b   7.26593941
_cell_length_c   7.93080864
_cell_angle_alpha   91.40942406
_cell_angle_beta   92.54339640
_cell_angle_gamma   91.44669122
_symmetry_Int_Tables_number   1
_chemical_formula_structural   Li2LuCu2(As3P2)2
_chemical_formula_sum   'Li2 Lu1 Cu2 As6 P4'
_cell_volume   426.42135079
_cell_formula_units_Z   1
loop_
 _symmetry_equiv_pos_site_id
 _symmetry_equiv_pos_as_xyz
  1  'x, y, z'
loop_
 _atom_site_type_symbol
 _atom_site_label
 _atom_site_symmetry_multiplicity
 _atom_site_fract_x
 _atom_site_fract_y
 _atom_site_fract_z
 _atom_site_occupancy
  P  P0  1  0.00000000  0.00000000  0.00000000  1
  P  P1  1  0.50000000  0.50000000  0.50000000  1
  P  P2  1  0.50000000  0.50000000  0.00000000  1
  P  P3  1  0.50000000  0.00000000  0.50000000  1
  Lu  Lu4  1  0.00000000  0.50000000  0.50000000  1
  As  As5  1  0.29875453  0.58127981  0.29710239  1
  As  As6  1  0.65496577  0.85066708  0.18102745  1
  As  As7  1  0.31740863  0.90204093  0.81861168  1
  As  As8  1  0.98804728  0.20034924  0.87065968  1
  As  As9  1  0.69172045  0.11573780  0.32076813  1
  As  As10  1  0.27512896  0.99182248  0.99651864  1
  Li  Li11  1  0.42108853  0.87764182  0.13292033  1
  Li  Li12  1  0.03922036  0.24887476  0.82348409  1
  Cu  Cu13  1  0.55676195  0.26167454  0.74307590  1
  Cu  Cu14  1  0.53005695  0.31068049  0.90590833  1
