# generated using pymatgen
data_Li2Ti(As3P2)2
_symmetry_space_group_name_H-M   'P 1'
_cell_length_a   8.41305718
_cell_length_b   8.26885512
_cell_length_c   7.50601123
_cell_angle_alpha   90.48018242
_cell_angle_beta   90.61143168
_cell_angle_gamma   90.52080484
_symmetry_Int_Tables_number   1
_chemical_formula_structural   Li2Ti(As3P2)2
_chemical_formula_sum   'Li2 Ti1 As6 P4'
_cell_volume   522.09574273
_cell_formula_units_Z   1
loop_
 _symmetry_equiv_pos_site_id
 _symmetry_equiv_pos_as_xyz
  1  'x, y, z'
loop_
 _atom_site_type_symbol
 _atom_site_label
 _atom_site_symmetry_multiplicity
 _atom_site_fract_x
 _atom_site_fract_y
 _atom_site_fract_z
 _atom_site_occupancy
  P  P0  1  0.00000000  0.00000000  0.00000000  1
  P  P1  1  0.33300000  0.66700000  0.25000000  1
  P  P2  1  0.66700000  0.33300000  0.50000000  1
  P  P3  1  0.00000000  0.00000000  0.75000000  1
  Li  Li4  1  0.31755759  0.89434481  0.39983987  1
  Li  Li5  1  0.62973576  0.16683223  0.16891417  1
  Ti  Ti6  1  0.46471185  0.37450511  0.13954588  1
  As  As7  1  0.41335222  0.92983521  0.71383750  1
  As  As8  1  0.93321245  0.22373646  0.53893971  1
  As  As9  1  0.10664621  0.62116616  0.47163762  1
  As  As10  1  0.91325555  0.23674856  0.99601797  1
  As  As11  1  0.01272555  0.74411712  0.08073005  1
  As  As12  1  0.26465002  0.22753339  0.81871160  1
