# generated using pymatgen
data_Li3Lu(NiAs3)2
_symmetry_space_group_name_H-M   'P 1'
_cell_length_a   7.17363640
_cell_length_b   6.93892389
_cell_length_c   8.15929561
_cell_angle_alpha   93.31161780
_cell_angle_beta   93.10837716
_cell_angle_gamma   93.34969385
_symmetry_Int_Tables_number   1
_chemical_formula_structural   Li3Lu(NiAs3)2
_chemical_formula_sum   'Li3 Lu1 Ni2 As6'
_cell_volume   404.10028830
_cell_formula_units_Z   1
loop_
 _symmetry_equiv_pos_site_id
 _symmetry_equiv_pos_as_xyz
  1  'x, y, z'
loop_
 _atom_site_type_symbol
 _atom_site_label
 _atom_site_symmetry_multiplicity
 _atom_site_fract_x
 _atom_site_fract_y
 _atom_site_fract_z
 _atom_site_occupancy
  Lu  Lu0  1  0.00000000  0.00000000  0.00000000  1
  Li  Li1  1  0.50000000  0.50000000  0.50000000  1
  Li  Li2  1  0.25000000  0.25000000  0.25000000  1
  Li  Li3  1  0.75000000  0.25000000  0.00000000  1
  Ni  Ni4  1  0.25000000  0.75000000  0.50000000  1
  Ni  Ni5  1  0.08057304  0.23601963  0.15416640  1
  As  As6  1  0.62074097  0.73256257  0.53420405  1
  As  As7  1  0.03370691  0.55422074  0.58935200  1
  As  As8  1  0.98165650  0.41520506  0.94183846  1
  As  As9  1  0.75899398  0.24688620  0.46721327  1
  As  As10  1  0.14788315  0.88763926  0.02702600  1
  As  As11  1  0.10127308  0.72229012  0.34994029  1
