# generated using pymatgen
data_Li2Ti(I2F)2
_symmetry_space_group_name_H-M   'P 1'
_cell_length_a   7.29731342
_cell_length_b   7.23749796
_cell_length_c   7.62207444
_cell_angle_alpha   90.82925079
_cell_angle_beta   93.94532339
_cell_angle_gamma   90.94805508
_symmetry_Int_Tables_number   1
_chemical_formula_structural   Li2Ti(I2F)2
_chemical_formula_sum   'Li2 Ti1 I4 F2'
_cell_volume   401.49631422
_cell_formula_units_Z   1
loop_
 _symmetry_equiv_pos_site_id
 _symmetry_equiv_pos_as_xyz
  1  'x, y, z'
loop_
 _atom_site_type_symbol
 _atom_site_label
 _atom_site_symmetry_multiplicity
 _atom_site_fract_x
 _atom_site_fract_y
 _atom_site_fract_z
 _atom_site_occupancy
  I  I0  1  0.00000000  0.00000000  0.00000000  1
  I  I1  1  0.33300000  0.66700000  0.25000000  1
  I  I2  1  0.66700000  0.33300000  0.50000000  1
  I  I3  1  0.00000000  0.00000000  0.75000000  1
  Li  Li4  1  0.84610653  0.58783750  0.22136527  1
  Li  Li5  1  0.41840399  0.48743878  0.06960257  1
  F  F6  1  0.13634227  0.98172258  0.55031629  1
  F  F7  1  0.69069543  0.01596821  0.28239086  1
  Ti  Ti8  1  0.56927063  0.77796987  0.46531766  1
