# generated using pymatgen
data_Li3LuTiCu2N5
_symmetry_space_group_name_H-M   'P 1'
_cell_length_a   6.61122888
_cell_length_b   6.39009726
_cell_length_c   7.59562085
_cell_angle_alpha   96.97028465
_cell_angle_beta   98.52250200
_cell_angle_gamma   96.74127671
_symmetry_Int_Tables_number   1
_chemical_formula_structural   Li3LuTiCu2N5
_chemical_formula_sum   'Li3 Lu1 Ti1 Cu2 N5'
_cell_volume   311.98934705
_cell_formula_units_Z   1
loop_
 _symmetry_equiv_pos_site_id
 _symmetry_equiv_pos_as_xyz
  1  'x, y, z'
loop_
 _atom_site_type_symbol
 _atom_site_label
 _atom_site_symmetry_multiplicity
 _atom_site_fract_x
 _atom_site_fract_y
 _atom_site_fract_z
 _atom_site_occupancy
  Lu  Lu0  1  0.00000000  0.00000000  0.00000000  1
  Li  Li1  1  0.50000000  0.50000000  0.50000000  1
  Li  Li2  1  0.50000000  0.50000000  0.00000000  1
  Li  Li3  1  0.50000000  0.00000000  0.50000000  1
  Cu  Cu4  1  0.00000000  0.50000000  0.50000000  1
  Cu  Cu5  1  0.90651123  0.99956202  0.78122770  1
  Ti  Ti6  1  0.44805392  0.09348919  0.71777401  1
  N  N7  1  0.88805991  0.27455998  0.67141914  1
  N  N8  1  0.69125862  0.07154115  0.78591375  1
  N  N9  1  0.93705627  0.04920107  0.82172166  1
  N  N10  1  0.44715904  0.52319712  0.07348977  1
  N  N11  1  0.95219248  0.58327948  0.24698584  1
