# generated using pymatgen
data_Li3Ti(IO)4
_symmetry_space_group_name_H-M   'P 1'
_cell_length_a   8.86180248
_cell_length_b   8.74190935
_cell_length_c   7.27229202
_cell_angle_alpha   90.00000000
_cell_angle_beta   90.00000000
_cell_angle_gamma   90.00000000
_symmetry_Int_Tables_number   1
_chemical_formula_structural   Li3Ti(IO)4
_chemical_formula_sum   'Li3 Ti1 I4 O4'
_cell_volume   563.37772816
_cell_formula_units_Z   1
loop_
 _symmetry_equiv_pos_site_id
 _symmetry_equiv_pos_as_xyz
  1  'x, y, z'
loop_
 _atom_site_type_symbol
 _atom_site_label
 _atom_site_symmetry_multiplicity
 _atom_site_fract_x
 _atom_site_fract_y
 _atom_site_fract_z
 _atom_site_occupancy
  I  I0  1  0.00000000  0.00000000  0.00000000  1
  I  I1  1  0.33300000  0.66700000  0.25000000  1
  I  I2  1  0.66700000  0.33300000  0.50000000  1
  I  I3  1  0.00000000  0.00000000  0.75000000  1
  Li  Li4  1  0.23013059  0.90625153  0.80609650  1
  Li  Li5  1  0.80476996  0.24446872  0.65375529  1
  Li  Li6  1  0.59414458  0.06887738  0.08045108  1
  Ti  Ti7  1  0.97523568  0.69186490  0.96604237  1
  O  O8  1  0.46809041  0.84779230  0.85332906  1
  O  O9  1  0.82426138  0.34828263  0.40104902  1
  O  O10  1  0.17505905  0.29566548  0.05312606  1
  O  O11  1  0.34840219  0.83546716  0.27023396  1
