# generated using pymatgen
data_Li2TiI4(OF)3
_symmetry_space_group_name_H-M   'P 1'
_cell_length_a   8.42602917
_cell_length_b   8.28357651
_cell_length_c   7.35329062
_cell_angle_alpha   90.16569449
_cell_angle_beta   90.78832406
_cell_angle_gamma   90.18943305
_symmetry_Int_Tables_number   1
_chemical_formula_structural   Li2TiI4(OF)3
_chemical_formula_sum   'Li2 Ti1 I4 O3 F3'
_cell_volume   513.18885995
_cell_formula_units_Z   1
loop_
 _symmetry_equiv_pos_site_id
 _symmetry_equiv_pos_as_xyz
  1  'x, y, z'
loop_
 _atom_site_type_symbol
 _atom_site_label
 _atom_site_symmetry_multiplicity
 _atom_site_fract_x
 _atom_site_fract_y
 _atom_site_fract_z
 _atom_site_occupancy
  I  I0  1  0.00000000  0.00000000  0.00000000  1
  I  I1  1  0.50000000  0.50000000  0.50000000  1
  I  I2  1  0.50000000  0.50000000  0.00000000  1
  I  I3  1  0.50000000  0.00000000  0.50000000  1
  Li  Li4  1  0.00000000  0.50000000  0.50000000  1
  Li  Li5  1  0.78783715  0.57111594  0.74614254  1
  F  F6  1  0.23048249  0.47087936  0.38784998  1
  F  F7  1  0.76259809  0.57871302  0.36735971  1
  F  F8  1  0.46219478  0.51556413  0.62783455  1
  Ti  Ti9  1  0.18122286  0.89943700  0.43409208  1
  O  O10  1  0.21174962  0.03392076  0.45330958  1
  O  O11  1  0.81169621  0.74188110  0.86225512  1
  O  O12  1  0.42015868  0.25166960  0.83212060  1
