# generated using pymatgen
data_Li2Mn2Sb4P3
_symmetry_space_group_name_H-M   'P 1'
_cell_length_a   7.26456771
_cell_length_b   7.91334492
_cell_length_c   7.49313254
_cell_angle_alpha   90.82248025
_cell_angle_beta   90.97430385
_cell_angle_gamma   90.93608407
_symmetry_Int_Tables_number   1
_chemical_formula_structural   Li2Mn2Sb4P3
_chemical_formula_sum   'Li2 Mn2 Sb4 P3'
_cell_volume   430.59204805
_cell_formula_units_Z   1
loop_
 _symmetry_equiv_pos_site_id
 _symmetry_equiv_pos_as_xyz
  1  'x, y, z'
loop_
 _atom_site_type_symbol
 _atom_site_label
 _atom_site_symmetry_multiplicity
 _atom_site_fract_x
 _atom_site_fract_y
 _atom_site_fract_z
 _atom_site_occupancy
  Mn  Mn0  1  0.00000000  0.00000000  0.00000000  1
  Mn  Mn1  1  0.50000000  0.50000000  0.50000000  1
  Sb  Sb2  1  0.25000000  0.25000000  0.25000000  1
  Sb  Sb3  1  0.75000000  0.25000000  0.00000000  1
  Sb  Sb4  1  0.25000000  0.75000000  0.50000000  1
  Sb  Sb5  1  0.68327458  0.60061214  0.98135186  1
  P  P6  1  0.33272831  0.97690877  0.47461212  1
  P  P7  1  0.99313227  0.33771836  0.53263293  1
  P  P8  1  0.42837810  0.54372036  0.62758901  1
  Li  Li9  1  0.87531298  0.57820868  0.16203926  1
  Li  Li10  1  0.56401704  0.08195639  0.00389147  1
