# generated using pymatgen
data_Li5Ti2O2
_symmetry_space_group_name_H-M   'P 1'
_cell_length_a   6.31013687
_cell_length_b   6.21712630
_cell_length_c   6.08917373
_cell_angle_alpha   92.83019088
_cell_angle_beta   95.88648292
_cell_angle_gamma   95.74571726
_symmetry_Int_Tables_number   1
_chemical_formula_structural   Li5Ti2O2
_chemical_formula_sum   'Li5 Ti2 O2'
_cell_volume   236.00072988
_cell_formula_units_Z   1
loop_
 _symmetry_equiv_pos_site_id
 _symmetry_equiv_pos_as_xyz
  1  'x, y, z'
loop_
 _atom_site_type_symbol
 _atom_site_label
 _atom_site_symmetry_multiplicity
 _atom_site_fract_x
 _atom_site_fract_y
 _atom_site_fract_z
 _atom_site_occupancy
  Li  Li0  1  0.12500000  0.12500000  0.12500000  1
  Li  Li1  1  0.50000000  0.50000000  0.50000000  1
  Li  Li2  1  0.25000000  0.25000000  0.25000000  1
  Li  Li3  1  0.75000000  0.75000000  0.75000000  1
  Li  Li4  1  0.92675286  0.44899612  0.45337250  1
  Ti  Ti5  1  0.90698230  0.10589732  0.10128308  1
  Ti  Ti6  1  0.17582165  0.60559201  0.16821998  1
  O  O7  1  0.91160963  0.55874344  0.55866691  1
  O  O8  1  0.38514453  0.42839749  0.47829540  1
