# generated using pymatgen
data_Li3Ti(IO)4
_symmetry_space_group_name_H-M   'P 1'
_cell_length_a   8.38854656
_cell_length_b   8.17723558
_cell_length_c   7.49187704
_cell_angle_alpha   90.78227570
_cell_angle_beta   90.58043150
_cell_angle_gamma   90.90619897
_symmetry_Int_Tables_number   1
_chemical_formula_structural   Li3Ti(IO)4
_chemical_formula_sum   'Li3 Ti1 I4 O4'
_cell_volume   513.76653519
_cell_formula_units_Z   1
loop_
 _symmetry_equiv_pos_site_id
 _symmetry_equiv_pos_as_xyz
  1  'x, y, z'
loop_
 _atom_site_type_symbol
 _atom_site_label
 _atom_site_symmetry_multiplicity
 _atom_site_fract_x
 _atom_site_fract_y
 _atom_site_fract_z
 _atom_site_occupancy
  I  I0  1  0.12500000  0.12500000  0.12500000  1
  I  I1  1  0.50000000  0.50000000  0.50000000  1
  I  I2  1  0.25000000  0.25000000  0.25000000  1
  I  I3  1  0.75000000  0.75000000  0.75000000  1
  Li  Li4  1  0.34968504  0.40244108  0.61505077  1
  Li  Li5  1  0.15003996  0.04663247  0.85181669  1
  Li  Li6  1  0.87595459  0.65962329  0.99707292  1
  Ti  Ti7  1  0.49746817  0.21302398  0.92221321  1
  O  O8  1  0.56064284  0.15010233  0.42085910  1
  O  O9  1  0.42309530  0.28942119  0.17240446  1
  O  O10  1  0.48564858  0.83205337  0.60897710  1
  O  O11  1  0.96543569  0.03968770  0.13646636  1
