# generated using pymatgen
data_Li2Ti3Sb2SeO
_symmetry_space_group_name_H-M   'P 1'
_cell_length_a   7.20359495
_cell_length_b   7.14245418
_cell_length_c   6.91916337
_cell_angle_alpha   94.11844328
_cell_angle_beta   95.57821512
_cell_angle_gamma   95.30006080
_symmetry_Int_Tables_number   1
_chemical_formula_structural   Li2Ti3Sb2SeO
_chemical_formula_sum   'Li2 Ti3 Sb2 Se1 O1'
_cell_volume   351.62505194
_cell_formula_units_Z   1
loop_
 _symmetry_equiv_pos_site_id
 _symmetry_equiv_pos_as_xyz
  1  'x, y, z'
loop_
 _atom_site_type_symbol
 _atom_site_label
 _atom_site_symmetry_multiplicity
 _atom_site_fract_x
 _atom_site_fract_y
 _atom_site_fract_z
 _atom_site_occupancy
  Li  Li0  1  0.00000000  0.00000000  0.00000000  1
  Li  Li1  1  0.50000000  0.50000000  0.50000000  1
  Sb  Sb2  1  0.50000000  0.50000000  0.00000000  1
  Sb  Sb3  1  0.50000000  0.00000000  0.50000000  1
  Se  Se4  1  0.00000000  0.50000000  0.50000000  1
  Ti  Ti5  1  0.47962637  0.36115416  0.82497720  1
  Ti  Ti6  1  0.86914574  0.42533794  0.90020850  1
  Ti  Ti7  1  0.92717317  0.77792302  0.05725208  1
  O  O8  1  0.85802258  0.87547536  0.52607551  1
