# generated using pymatgen
data_Li2TiI4(OF)3
_symmetry_space_group_name_H-M   'P 1'
_cell_length_a   8.39505901
_cell_length_b   8.25101299
_cell_length_c   7.36334419
_cell_angle_alpha   90.17707670
_cell_angle_beta   90.84247715
_cell_angle_gamma   90.20244595
_symmetry_Int_Tables_number   1
_chemical_formula_structural   Li2TiI4(OF)3
_chemical_formula_sum   'Li2 Ti1 I4 O3 F3'
_cell_volume   509.98137913
_cell_formula_units_Z   1
loop_
 _symmetry_equiv_pos_site_id
 _symmetry_equiv_pos_as_xyz
  1  'x, y, z'
loop_
 _atom_site_type_symbol
 _atom_site_label
 _atom_site_symmetry_multiplicity
 _atom_site_fract_x
 _atom_site_fract_y
 _atom_site_fract_z
 _atom_site_occupancy
  I  I0  1  0.00000000  0.00000000  0.00000000  1
  I  I1  1  0.50000000  0.50000000  0.50000000  1
  I  I2  1  0.50000000  0.50000000  0.00000000  1
  I  I3  1  0.50000000  0.00000000  0.50000000  1
  Li  Li4  1  0.00000000  0.50000000  0.50000000  1
  Li  Li5  1  0.77332725  0.32229131  0.10933344  1
  F  F6  1  0.32470996  0.53674094  0.06671711  1
  F  F7  1  0.58625041  0.66968084  0.82745930  1
  F  F8  1  0.37568234  0.58377377  0.57737320  1
  Ti  Ti9  1  0.70142230  0.81357606  0.44785971  1
  O  O10  1  0.58231593  0.20585820  0.34947105  1
  O  O11  1  0.71467610  0.07177452  0.72463106  1
  O  O12  1  0.81072512  0.15244441  0.49916555  1
