# generated using pymatgen
data_Li2LuNi2(As2P)3
_symmetry_space_group_name_H-M   'P 1'
_cell_length_a   6.73755134
_cell_length_b   6.34966061
_cell_length_c   7.86159375
_cell_angle_alpha   93.61081398
_cell_angle_beta   93.84831799
_cell_angle_gamma   93.77169317
_symmetry_Int_Tables_number   1
_chemical_formula_structural   Li2LuNi2(As2P)3
_chemical_formula_sum   'Li2 Lu1 Ni2 As6 P3'
_cell_volume   334.07491833
_cell_formula_units_Z   1
loop_
 _symmetry_equiv_pos_site_id
 _symmetry_equiv_pos_as_xyz
  1  'x, y, z'
loop_
 _atom_site_type_symbol
 _atom_site_label
 _atom_site_symmetry_multiplicity
 _atom_site_fract_x
 _atom_site_fract_y
 _atom_site_fract_z
 _atom_site_occupancy
  P  P0  1  0.00000000  0.00000000  0.00000000  1
  P  P1  1  0.50000000  0.50000000  0.50000000  1
  P  P2  1  0.50000000  0.50000000  0.00000000  1
  Lu  Lu3  1  0.50000000  0.00000000  0.50000000  1
  Li  Li4  1  0.00000000  0.50000000  0.50000000  1
  Li  Li5  1  0.25349361  0.33368762  0.91938629  1
  Ni  Ni6  1  0.97795252  0.61910452  0.99753696  1
  Ni  Ni7  1  0.38864608  0.02211001  0.24895248  1
  As  As8  1  0.26017317  0.43305449  0.35160853  1
  As  As9  1  0.03979944  0.83639984  0.96644973  1
  As  As10  1  0.34163258  0.56888577  0.43950871  1
  As  As11  1  0.19694346  0.64298376  0.68566361  1
  As  As12  1  0.99306701  0.88538509  0.89370971  1
  As  As13  1  0.64474778  0.46534392  0.74863487  1
