# generated using pymatgen
data_LiSb2Se2OF2
_symmetry_space_group_name_H-M   'P 1'
_cell_length_a   8.70717659
_cell_length_b   8.59033293
_cell_length_c   7.32376619
_cell_angle_alpha   90.00000000
_cell_angle_beta   90.00000000
_cell_angle_gamma   90.00000000
_symmetry_Int_Tables_number   1
_chemical_formula_structural   LiSb2Se2OF2
_chemical_formula_sum   'Li1 Sb2 Se2 O1 F2'
_cell_volume   547.79973702
_cell_formula_units_Z   1
loop_
 _symmetry_equiv_pos_site_id
 _symmetry_equiv_pos_as_xyz
  1  'x, y, z'
loop_
 _atom_site_type_symbol
 _atom_site_label
 _atom_site_symmetry_multiplicity
 _atom_site_fract_x
 _atom_site_fract_y
 _atom_site_fract_z
 _atom_site_occupancy
  Li  Li0  1  0.00000000  0.00000000  0.00000000  1
  Sb  Sb1  1  0.50000000  0.50000000  0.50000000  1
  Sb  Sb2  1  0.50000000  0.50000000  0.00000000  1
  Se  Se3  1  0.50000000  0.00000000  0.50000000  1
  Se  Se4  1  0.00000000  0.50000000  0.50000000  1
  F  F5  1  0.52917443  0.45588163  0.03341121  1
  F  F6  1  0.33083484  0.51772077  0.92129869  1
  O  O7  1  0.84510228  0.32101148  0.77571090  1
