# generated using pymatgen
data_Li3Ti2Se3(BrO)3
_symmetry_space_group_name_H-M   'P 1'
_cell_length_a   4.73229040
_cell_length_b   4.55233158
_cell_length_c   7.20784348
_cell_angle_alpha   100.04649312
_cell_angle_beta   101.01127308
_cell_angle_gamma   99.03788566
_symmetry_Int_Tables_number   1
_chemical_formula_structural   Li3Ti2Se3(BrO)3
_chemical_formula_sum   'Li3 Ti2 Se3 Br3 O3'
_cell_volume   147.14132744
_cell_formula_units_Z   1
loop_
 _symmetry_equiv_pos_site_id
 _symmetry_equiv_pos_as_xyz
  1  'x, y, z'
loop_
 _atom_site_type_symbol
 _atom_site_label
 _atom_site_symmetry_multiplicity
 _atom_site_fract_x
 _atom_site_fract_y
 _atom_site_fract_z
 _atom_site_occupancy
  Se  Se0  1  0.00000000  0.00000000  0.00000000  1
  Se  Se1  1  0.50000000  0.50000000  0.50000000  1
  Se  Se2  1  0.50000000  0.50000000  0.00000000  1
  Li  Li3  1  0.50000000  0.00000000  0.50000000  1
  Li  Li4  1  0.00000000  0.50000000  0.50000000  1
  Li  Li5  1  0.66320144  0.16798270  0.35120578  1
  Ti  Ti6  1  0.40922906  0.26912788  0.44889873  1
  Ti  Ti7  1  0.76899822  0.54217171  0.73706042  1
  O  O8  1  0.83645737  0.10528891  0.21607689  1
  O  O9  1  0.02604772  0.24778271  0.78507867  1
  O  O10  1  0.05539574  0.89026618  0.34021367  1
  Br  Br11  1  0.49007711  0.03644316  0.49239152  1
  Br  Br12  1  0.35466570  0.63203660  0.72065993  1
  Br  Br13  1  0.79376177  0.55728382  0.21221391  1
