# generated using pymatgen
data_Li3Ti2I4O3
_symmetry_space_group_name_H-M   'P 1'
_cell_length_a   8.40917406
_cell_length_b   8.93188500
_cell_length_c   7.33291432
_cell_angle_alpha   90.00000000
_cell_angle_beta   90.00000000
_cell_angle_gamma   90.00000000
_symmetry_Int_Tables_number   1
_chemical_formula_structural   Li3Ti2I4O3
_chemical_formula_sum   'Li3 Ti2 I4 O3'
_cell_volume   550.77354959
_cell_formula_units_Z   1
loop_
 _symmetry_equiv_pos_site_id
 _symmetry_equiv_pos_as_xyz
  1  'x, y, z'
loop_
 _atom_site_type_symbol
 _atom_site_label
 _atom_site_symmetry_multiplicity
 _atom_site_fract_x
 _atom_site_fract_y
 _atom_site_fract_z
 _atom_site_occupancy
  I  I0  1  0.00000000  0.00000000  0.00000000  1
  I  I1  1  0.50000000  0.50000000  0.50000000  1
  I  I2  1  0.50000000  0.50000000  0.00000000  1
  I  I3  1  0.50000000  0.00000000  0.50000000  1
  Li  Li4  1  0.00000000  0.50000000  0.50000000  1
  Li  Li5  1  0.38415987  0.15071169  0.32273095  1
  Li  Li6  1  0.57496744  0.72038947  0.25848943  1
  Ti  Ti7  1  0.61572973  0.42088424  0.71235956  1
  Ti  Ti8  1  0.30802924  0.04107097  0.18591808  1
  O  O9  1  0.02692733  0.25968566  0.51121960  1
  O  O10  1  0.22814866  0.98219006  0.59852032  1
  O  O11  1  0.75254917  0.67089174  0.46679655  1
