# generated using pymatgen
data_LiMn3(SbP)4
_symmetry_space_group_name_H-M   'P 1'
_cell_length_a   6.56007448
_cell_length_b   7.03995448
_cell_length_c   6.86593870
_cell_angle_alpha   90.19262809
_cell_angle_beta   90.68193706
_cell_angle_gamma   90.52228079
_symmetry_Int_Tables_number   1
_chemical_formula_structural   LiMn3(SbP)4
_chemical_formula_sum   'Li1 Mn3 Sb4 P4'
_cell_volume   317.04953559
_cell_formula_units_Z   1
loop_
 _symmetry_equiv_pos_site_id
 _symmetry_equiv_pos_as_xyz
  1  'x, y, z'
loop_
 _atom_site_type_symbol
 _atom_site_label
 _atom_site_symmetry_multiplicity
 _atom_site_fract_x
 _atom_site_fract_y
 _atom_site_fract_z
 _atom_site_occupancy
  Mn  Mn0  1  0.00000000  0.00000000  0.00000000  1
  Mn  Mn1  1  0.50000000  0.50000000  0.50000000  1
  Mn  Mn2  1  0.25000000  0.25000000  0.25000000  1
  Sb  Sb3  1  0.75000000  0.25000000  0.00000000  1
  Sb  Sb4  1  0.25000000  0.75000000  0.50000000  1
  Sb  Sb5  1  0.46497011  0.61741104  0.86303623  1
  Sb  Sb6  1  0.79376801  0.77928528  0.62344327  1
  P  P7  1  0.39411563  0.67808141  0.35926498  1
  P  P8  1  0.57490019  0.00004005  0.36183613  1
  P  P9  1  0.96532837  0.40608328  0.91396715  1
  P  P10  1  0.17855204  0.74449756  0.63471105  1
  Li  Li11  1  0.25619826  0.00324312  0.48379736  1
