# generated using pymatgen
data_Li2Lu(As3P2)2
_symmetry_space_group_name_H-M   'P 1'
_cell_length_a   7.53845514
_cell_length_b   7.33022423
_cell_length_c   8.26485683
_cell_angle_alpha   91.73649783
_cell_angle_beta   91.49036289
_cell_angle_gamma   91.95700132
_symmetry_Int_Tables_number   1
_chemical_formula_structural   Li2Lu(As3P2)2
_chemical_formula_sum   'Li2 Lu1 As6 P4'
_cell_volume   456.06093572
_cell_formula_units_Z   1
loop_
 _symmetry_equiv_pos_site_id
 _symmetry_equiv_pos_as_xyz
  1  'x, y, z'
loop_
 _atom_site_type_symbol
 _atom_site_label
 _atom_site_symmetry_multiplicity
 _atom_site_fract_x
 _atom_site_fract_y
 _atom_site_fract_z
 _atom_site_occupancy
  P  P0  1  0.12500000  0.00000000  0.25000000  1
  P  P1  1  0.00000000  0.00000000  0.00000000  1
  P  P2  1  0.37500000  0.00000000  0.25000000  1
  P  P3  1  0.25000000  0.25000000  0.25000000  1
  Lu  Lu4  1  0.00000000  0.25000000  0.12500000  1
  Li  Li5  1  0.24972932  0.74977852  0.87403933  1
  Li  Li6  1  0.25448995  0.95654523  0.03338511  1
  As  As7  1  0.96129438  0.46777311  0.84703143  1
  As  As8  1  0.73654289  0.76438331  0.52232624  1
  As  As9  1  0.00808466  0.44506867  0.85961500  1
  As  As10  1  0.61902219  0.95662984  0.20211073  1
  As  As11  1  0.79845897  0.70495808  0.81237292  1
  As  As12  1  0.73644948  0.46750510  0.92823452  1
