# generated using pymatgen
data_Li2TiI4(O2F)2
_symmetry_space_group_name_H-M   'P 1'
_cell_length_a   7.57367657
_cell_length_b   7.41659136
_cell_length_c   7.19645610
_cell_angle_alpha   90.97382508
_cell_angle_beta   91.97921301
_cell_angle_gamma   90.65728415
_symmetry_Int_Tables_number   1
_chemical_formula_structural   Li2TiI4(O2F)2
_chemical_formula_sum   'Li2 Ti1 I4 O4 F2'
_cell_volume   403.90224056
_cell_formula_units_Z   1
loop_
 _symmetry_equiv_pos_site_id
 _symmetry_equiv_pos_as_xyz
  1  'x, y, z'
loop_
 _atom_site_type_symbol
 _atom_site_label
 _atom_site_symmetry_multiplicity
 _atom_site_fract_x
 _atom_site_fract_y
 _atom_site_fract_z
 _atom_site_occupancy
  I  I0  1  0.00000000  0.00000000  0.00000000  1
  I  I1  1  0.50000000  0.50000000  0.50000000  1
  I  I2  1  0.25000000  0.25000000  0.25000000  1
  I  I3  1  0.75000000  0.25000000  0.00000000  1
  Li  Li4  1  0.25000000  0.75000000  0.50000000  1
  Li  Li5  1  0.74669707  0.33896574  0.98669727  1
  F  F6  1  0.15654993  0.71078019  0.82883230  1
  F  F7  1  0.84881268  0.58378691  0.20059849  1
  Ti  Ti8  1  0.64551023  0.99664772  0.03395613  1
  O  O9  1  0.65601293  0.70496401  0.84582015  1
  O  O10  1  0.11058325  0.00717859  0.64378612  1
  O  O11  1  0.20859654  0.72047433  0.46076891  1
  O  O12  1  0.52208127  0.49010636  0.47585439  1
