# generated using pymatgen
data_Li3Mn2P5O3
_symmetry_space_group_name_H-M   'P 1'
_cell_length_a   8.07348228
_cell_length_b   7.66775729
_cell_length_c   7.19256887
_cell_angle_alpha   90.00000000
_cell_angle_beta   90.00000000
_cell_angle_gamma   90.00000000
_symmetry_Int_Tables_number   1
_chemical_formula_structural   Li3Mn2P5O3
_chemical_formula_sum   'Li3 Mn2 P5 O3'
_cell_volume   445.25959077
_cell_formula_units_Z   1
loop_
 _symmetry_equiv_pos_site_id
 _symmetry_equiv_pos_as_xyz
  1  'x, y, z'
loop_
 _atom_site_type_symbol
 _atom_site_label
 _atom_site_symmetry_multiplicity
 _atom_site_fract_x
 _atom_site_fract_y
 _atom_site_fract_z
 _atom_site_occupancy
  P  P0  1  0.12500000  0.12500000  0.12500000  1
  P  P1  1  0.50000000  0.50000000  0.50000000  1
  P  P2  1  0.25000000  0.25000000  0.25000000  1
  P  P3  1  0.75000000  0.75000000  0.75000000  1
  P  P4  1  0.30138674  0.01415752  0.95157018  1
  Li  Li5  1  0.25546263  0.15013515  0.80164937  1
  Li  Li6  1  0.79710910  0.02704985  0.84692336  1
  Li  Li7  1  0.45295616  0.34744278  0.78740807  1
  Mn  Mn8  1  0.43771478  0.21082215  0.60189316  1
  Mn  Mn9  1  0.59367896  0.50674940  0.50493785  1
  O  O10  1  0.64539656  0.78127415  0.21416171  1
  O  O11  1  0.16304212  0.74958014  0.08001826  1
  O  O12  1  0.72143017  0.86523879  0.24634691  1
