# generated using pymatgen
data_Li3TiI4F3
_symmetry_space_group_name_H-M   'P 1'
_cell_length_a   7.15480319
_cell_length_b   6.90365163
_cell_length_c   7.56623946
_cell_angle_alpha   95.44915203
_cell_angle_beta   96.25510874
_cell_angle_gamma   95.34311695
_symmetry_Int_Tables_number   1
_chemical_formula_structural   Li3TiI4F3
_chemical_formula_sum   'Li3 Ti1 I4 F3'
_cell_volume   367.79792508
_cell_formula_units_Z   1
loop_
 _symmetry_equiv_pos_site_id
 _symmetry_equiv_pos_as_xyz
  1  'x, y, z'
loop_
 _atom_site_type_symbol
 _atom_site_label
 _atom_site_symmetry_multiplicity
 _atom_site_fract_x
 _atom_site_fract_y
 _atom_site_fract_z
 _atom_site_occupancy
  I  I0  1  0.00000000  0.00000000  0.00000000  1
  I  I1  1  0.33300000  0.66700000  0.25000000  1
  I  I2  1  0.66700000  0.33300000  0.50000000  1
  I  I3  1  0.00000000  0.00000000  0.75000000  1
  Li  Li4  1  0.85235178  0.96768772  0.31571998  1
  Li  Li5  1  0.32699314  0.35183275  0.11582244  1
  Li  Li6  1  0.20665175  0.02940737  0.29635966  1
  F  F7  1  0.44297982  0.87660036  0.83955223  1
  F  F8  1  0.39506306  0.70935855  0.50204164  1
  F  F9  1  0.47602889  0.95427074  0.77751113  1
  Ti  Ti10  1  0.25464655  0.76717210  0.00681704  1
