# generated using pymatgen
data_Li2Cu2(PN)5
_symmetry_space_group_name_H-M   'P 1'
_cell_length_a   7.41750354
_cell_length_b   7.43782337
_cell_length_c   8.40811352
_cell_angle_alpha   91.87270842
_cell_angle_beta   92.67342648
_cell_angle_gamma   92.00219457
_symmetry_Int_Tables_number   1
_chemical_formula_structural   Li2Cu2(PN)5
_chemical_formula_sum   'Li2 Cu2 P5 N5'
_cell_volume   462.81497920
_cell_formula_units_Z   1
loop_
 _symmetry_equiv_pos_site_id
 _symmetry_equiv_pos_as_xyz
  1  'x, y, z'
loop_
 _atom_site_type_symbol
 _atom_site_label
 _atom_site_symmetry_multiplicity
 _atom_site_fract_x
 _atom_site_fract_y
 _atom_site_fract_z
 _atom_site_occupancy
  P  P0  1  0.00000000  0.00000000  0.00000000  1
  P  P1  1  0.50000000  0.50000000  0.50000000  1
  P  P2  1  0.25000000  0.25000000  0.25000000  1
  P  P3  1  0.75000000  0.25000000  0.00000000  1
  P  P4  1  0.25000000  0.75000000  0.50000000  1
  Li  Li5  1  0.07856070  0.29722298  0.72561739  1
  Li  Li6  1  0.42379051  0.94731595  0.96855326  1
  N  N7  1  0.97165160  0.00047663  0.45908555  1
  N  N8  1  0.58671558  0.35702683  0.30546069  1
  N  N9  1  0.53905360  0.96861866  0.07826256  1
  N  N10  1  0.64902732  0.17505883  0.31790406  1
  N  N11  1  0.52137175  0.52354240  0.84345386  1
  Cu  Cu12  1  0.25171482  0.55779151  0.30489842  1
  Cu  Cu13  1  0.81093901  0.47650339  0.52272534  1
