# generated using pymatgen
data_Li3Ti2N3O4F3
_symmetry_space_group_name_H-M   'P 1'
_cell_length_a   6.07905488
_cell_length_b   5.72404298
_cell_length_c   7.64015917
_cell_angle_alpha   99.77205507
_cell_angle_beta   101.55619707
_cell_angle_gamma   99.44569586
_symmetry_Int_Tables_number   1
_chemical_formula_structural   Li3Ti2N3O4F3
_chemical_formula_sum   'Li3 Ti2 N3 O4 F3'
_cell_volume   251.22283768
_cell_formula_units_Z   1
loop_
 _symmetry_equiv_pos_site_id
 _symmetry_equiv_pos_as_xyz
  1  'x, y, z'
loop_
 _atom_site_type_symbol
 _atom_site_label
 _atom_site_symmetry_multiplicity
 _atom_site_fract_x
 _atom_site_fract_y
 _atom_site_fract_z
 _atom_site_occupancy
  Li  Li0  1  0.00000000  0.00000000  0.00000000  1
  Li  Li1  1  0.50000000  0.50000000  0.50000000  1
  Li  Li2  1  0.50000000  0.50000000  0.00000000  1
  F  F3  1  0.50000000  0.00000000  0.50000000  1
  F  F4  1  0.00000000  0.50000000  0.50000000  1
  F  F5  1  0.03373352  0.76458459  0.75260468  1
  Ti  Ti6  1  0.98641344  0.21964334  0.13962554  1
  Ti  Ti7  1  0.00119877  0.15984887  0.09250863  1
  O  O8  1  0.97406770  0.13079358  0.56997695  1
  O  O9  1  0.56078348  0.86544096  0.46096513  1
  O  O10  1  0.56151496  0.76964835  0.73131813  1
  O  O11  1  0.31664976  0.82924477  0.59121149  1
  N  N12  1  0.98873004  0.50619509  0.73472979  1
  N  N13  1  0.29782407  0.31509344  0.75108478  1
  N  N14  1  0.73492493  0.35300924  0.13040664  1
