# generated using pymatgen
data_LiZnTe3As3O2
_symmetry_space_group_name_H-M   'P 1'
_cell_length_a   8.11227006
_cell_length_b   8.47526621
_cell_length_c   7.75222069
_cell_angle_alpha   90.20769553
_cell_angle_beta   90.98815225
_cell_angle_gamma   90.23745145
_symmetry_Int_Tables_number   1
_chemical_formula_structural   LiZnTe3As3O2
_chemical_formula_sum   'Li2 Zn2 Te6 As6 O4'
_cell_volume   532.90597099
_cell_formula_units_Z   2
loop_
 _symmetry_equiv_pos_site_id
 _symmetry_equiv_pos_as_xyz
  1  'x, y, z'
loop_
 _atom_site_type_symbol
 _atom_site_label
 _atom_site_symmetry_multiplicity
 _atom_site_fract_x
 _atom_site_fract_y
 _atom_site_fract_z
 _atom_site_occupancy
  Li  Li0  1  0.12500000  0.00000000  0.25000000  1
  Li  Li1  1  0.00000000  0.00000000  0.00000000  1
  Zn  Zn2  1  0.37500000  0.00000000  0.25000000  1
  Zn  Zn3  1  0.25000000  0.25000000  0.25000000  1
  Te  Te4  1  0.00000000  0.25000000  0.12500000  1
  Te  Te5  1  0.08891768  0.01226972  0.40396038  1
  Te  Te6  1  0.17094949  0.32662848  0.77863747  1
  Te  Te7  1  0.51051316  0.31736435  0.32219501  1
  Te  Te8  1  0.11521639  0.58931667  0.75393925  1
  Te  Te9  1  0.31295275  0.25223362  0.85657800  1
  As  As10  1  0.18085560  0.07177442  0.86391445  1
  As  As11  1  0.71741318  0.81605793  0.92529627  1
  As  As12  1  0.80569531  0.30164850  0.17738646  1
  As  As13  1  0.28601548  0.38968842  0.07583668  1
  As  As14  1  0.58398081  0.50016442  0.08509893  1
  As  As15  1  0.30607042  0.43736595  0.00346148  1
  O  O16  1  0.36366619  0.78460436  0.39691229  1
  O  O17  1  0.12637300  0.13123322  0.42241680  1
  O  O18  1  0.02275618  0.38206433  0.73727049  1
  O  O19  1  0.59742445  0.77867816  0.22699381  1
