# generated using pymatgen
data_Li2Cu2As6F3
_symmetry_space_group_name_H-M   'P 1'
_cell_length_a   7.50514551
_cell_length_b   7.60706980
_cell_length_c   8.47482973
_cell_angle_alpha   90.46688999
_cell_angle_beta   92.46667266
_cell_angle_gamma   90.52544882
_symmetry_Int_Tables_number   1
_chemical_formula_structural   Li2Cu2As6F3
_chemical_formula_sum   'Li2 Cu2 As6 F3'
_cell_volume   483.36006042
_cell_formula_units_Z   1
loop_
 _symmetry_equiv_pos_site_id
 _symmetry_equiv_pos_as_xyz
  1  'x, y, z'
loop_
 _atom_site_type_symbol
 _atom_site_label
 _atom_site_symmetry_multiplicity
 _atom_site_fract_x
 _atom_site_fract_y
 _atom_site_fract_z
 _atom_site_occupancy
  F  F0  1  0.12500000  0.00000000  0.25000000  1
  F  F1  1  0.00000000  0.00000000  0.00000000  1
  F  F2  1  0.37500000  0.00000000  0.25000000  1
  As  As3  1  0.25000000  0.25000000  0.25000000  1
  As  As4  1  0.00000000  0.25000000  0.12500000  1
  As  As5  1  0.03940852  0.12091525  0.66192821  1
  As  As6  1  0.17176572  0.59229678  0.25551366  1
  As  As7  1  0.06349820  0.73891546  0.34901498  1
  As  As8  1  0.14812934  0.20955447  0.17985573  1
  Li  Li9  1  0.06706870  0.89626524  0.21308733  1
  Li  Li10  1  0.98968672  0.72010310  0.53163691  1
  Cu  Cu11  1  0.13158395  0.19082727  0.95110430  1
  Cu  Cu12  1  0.69006627  0.41579693  0.75592448  1
