# generated using pymatgen
data_Li2TiNi2I4O3
_symmetry_space_group_name_H-M   'P 1'
_cell_length_a   8.46116190
_cell_length_b   8.32160740
_cell_length_c   7.81321167
_cell_angle_alpha   90.10960945
_cell_angle_beta   90.52148847
_cell_angle_gamma   90.12531287
_symmetry_Int_Tables_number   1
_chemical_formula_structural   Li2TiNi2I4O3
_chemical_formula_sum   'Li2 Ti1 Ni2 I4 O3'
_cell_volume   550.10675649
_cell_formula_units_Z   1
loop_
 _symmetry_equiv_pos_site_id
 _symmetry_equiv_pos_as_xyz
  1  'x, y, z'
loop_
 _atom_site_type_symbol
 _atom_site_label
 _atom_site_symmetry_multiplicity
 _atom_site_fract_x
 _atom_site_fract_y
 _atom_site_fract_z
 _atom_site_occupancy
  I  I0  1  0.00000000  0.00000000  0.00000000  1
  I  I1  1  0.50000000  0.50000000  0.50000000  1
  I  I2  1  0.25000000  0.25000000  0.25000000  1
  I  I3  1  0.75000000  0.25000000  0.00000000  1
  Li  Li4  1  0.25000000  0.75000000  0.50000000  1
  Li  Li5  1  0.46897066  0.75403026  0.74871837  1
  Ni  Ni6  1  0.82491113  0.50750931  0.63021870  1
  Ni  Ni7  1  0.24794309  0.00673652  0.09334993  1
  Ti  Ti8  1  0.16668207  0.07154312  0.09943137  1
  O  O9  1  0.95229996  0.53243448  0.08604563  1
  O  O10  1  0.47332765  0.46762433  0.07962332  1
  O  O11  1  0.08120463  0.87682351  0.09185112  1
