# generated using pymatgen
data_Li3Ni2Te6O5
_symmetry_space_group_name_H-M   'P 1'
_cell_length_a   7.12793492
_cell_length_b   6.95469006
_cell_length_c   8.36228415
_cell_angle_alpha   95.40893141
_cell_angle_beta   96.36227137
_cell_angle_gamma   95.27275257
_symmetry_Int_Tables_number   1
_chemical_formula_structural   Li3Ni2Te6O5
_chemical_formula_sum   'Li3 Ni2 Te6 O5'
_cell_volume   407.95233396
_cell_formula_units_Z   1
loop_
 _symmetry_equiv_pos_site_id
 _symmetry_equiv_pos_as_xyz
  1  'x, y, z'
loop_
 _atom_site_type_symbol
 _atom_site_label
 _atom_site_symmetry_multiplicity
 _atom_site_fract_x
 _atom_site_fract_y
 _atom_site_fract_z
 _atom_site_occupancy
  Li  Li0  1  0.00000000  0.00000000  0.00000000  1
  Li  Li1  1  0.50000000  0.50000000  0.50000000  1
  Li  Li2  1  0.50000000  0.50000000  0.00000000  1
  Ni  Ni3  1  0.50000000  0.00000000  0.50000000  1
  Ni  Ni4  1  0.00000000  0.50000000  0.50000000  1
  Te  Te5  1  0.92463967  0.62708971  0.19560355  1
  Te  Te6  1  0.67600832  0.62153055  0.23514625  1
  Te  Te7  1  0.41068957  0.79428106  0.00890169  1
  Te  Te8  1  0.48528317  0.83285444  0.35727978  1
  Te  Te9  1  0.58033792  0.65514669  0.97429884  1
  Te  Te10  1  0.59464493  0.38634193  0.12363736  1
  O  O11  1  0.56798951  0.17231569  0.91071078  1
  O  O12  1  0.71801336  0.77025160  0.35867776  1
  O  O13  1  0.56691877  0.48348394  0.49698105  1
  O  O14  1  0.89916514  0.14391782  0.49821040  1
  O  O15  1  0.77765029  0.47915507  0.92536239  1
