# generated using pymatgen
data_Li3LuCu2Ni2O7
_symmetry_space_group_name_H-M   'P 1'
_cell_length_a   7.62343378
_cell_length_b   7.41717545
_cell_length_c   8.43623950
_cell_angle_alpha   91.69929633
_cell_angle_beta   91.30355056
_cell_angle_gamma   91.96832724
_symmetry_Int_Tables_number   1
_chemical_formula_structural   Li3LuCu2Ni2O7
_chemical_formula_sum   'Li3 Lu1 Cu2 Ni2 O7'
_cell_volume   476.39563183
_cell_formula_units_Z   1
loop_
 _symmetry_equiv_pos_site_id
 _symmetry_equiv_pos_as_xyz
  1  'x, y, z'
loop_
 _atom_site_type_symbol
 _atom_site_label
 _atom_site_symmetry_multiplicity
 _atom_site_fract_x
 _atom_site_fract_y
 _atom_site_fract_z
 _atom_site_occupancy
  Lu  Lu0  1  0.00000000  0.00000000  0.00000000  1
  Li  Li1  1  0.50000000  0.50000000  0.50000000  1
  Li  Li2  1  0.50000000  0.50000000  0.00000000  1
  Li  Li3  1  0.50000000  0.00000000  0.50000000  1
  Cu  Cu4  1  0.00000000  0.50000000  0.50000000  1
  Cu  Cu5  1  0.04014680  0.18716990  0.01951161  1
  Ni  Ni6  1  0.25936867  0.80445091  0.73739821  1
  Ni  Ni7  1  0.61552818  0.48412612  0.00969508  1
  O  O8  1  0.78553159  0.52382041  0.71252998  1
  O  O9  1  0.27118836  0.77291681  0.39927493  1
  O  O10  1  0.11693026  0.57722367  0.48407805  1
  O  O11  1  0.21334167  0.41202278  0.87356031  1
  O  O12  1  0.59285199  0.40706687  0.13730302  1
  O  O13  1  0.48484146  0.67188976  0.84647836  1
  O  O14  1  0.03843703  0.87280473  0.03985293  1
