# generated using pymatgen
data_Li3Ti2SeF2
_symmetry_space_group_name_H-M   'P 1'
_cell_length_a   5.17294046
_cell_length_b   4.80516502
_cell_length_c   6.85118821
_cell_angle_alpha   102.67145143
_cell_angle_beta   106.76290324
_cell_angle_gamma   101.89184130
_symmetry_Int_Tables_number   1
_chemical_formula_structural   Li3Ti2SeF2
_chemical_formula_sum   'Li3 Ti2 Se1 F2'
_cell_volume   152.33544445
_cell_formula_units_Z   1
loop_
 _symmetry_equiv_pos_site_id
 _symmetry_equiv_pos_as_xyz
  1  'x, y, z'
loop_
 _atom_site_type_symbol
 _atom_site_label
 _atom_site_symmetry_multiplicity
 _atom_site_fract_x
 _atom_site_fract_y
 _atom_site_fract_z
 _atom_site_occupancy
  Li  Li0  1  0.00000000  0.00000000  0.00000000  1
  Li  Li1  1  0.33300000  0.66700000  0.25000000  1
  Li  Li2  1  0.66700000  0.33300000  0.50000000  1
  Se  Se3  1  0.00000000  0.00000000  0.75000000  1
  F  F4  1  0.51528979  0.69233964  0.64500943  1
  F  F5  1  0.10161222  0.83869506  0.37932423  1
  Ti  Ti6  1  0.98578570  0.67009532  0.73252140  1
  Ti  Ti7  1  0.42596096  0.05013735  0.91541224  1
