# generated using pymatgen
data_Li3Cu2As6(IO)4
_symmetry_space_group_name_H-M   'P 1'
_cell_length_a   7.88346217
_cell_length_b   7.70885649
_cell_length_c   8.10225047
_cell_angle_alpha   91.92893746
_cell_angle_beta   91.63368582
_cell_angle_gamma   92.08974469
_symmetry_Int_Tables_number   1
_chemical_formula_structural   Li3Cu2As6(IO)4
_chemical_formula_sum   'Li3 Cu2 As6 I4 O4'
_cell_volume   491.56951499
_cell_formula_units_Z   1
loop_
 _symmetry_equiv_pos_site_id
 _symmetry_equiv_pos_as_xyz
  1  'x, y, z'
loop_
 _atom_site_type_symbol
 _atom_site_label
 _atom_site_symmetry_multiplicity
 _atom_site_fract_x
 _atom_site_fract_y
 _atom_site_fract_z
 _atom_site_occupancy
  I  I0  1  0.00000000  0.00000000  0.00000000  1
  I  I1  1  0.50000000  0.50000000  0.50000000  1
  I  I2  1  0.50000000  0.50000000  0.00000000  1
  I  I3  1  0.50000000  0.00000000  0.50000000  1
  Li  Li4  1  0.00000000  0.50000000  0.50000000  1
  Li  Li5  1  0.56484065  0.38153268  0.27164821  1
  Li  Li6  1  0.01143007  0.75297833  0.76446847  1
  Cu  Cu7  1  0.45626540  0.32388620  0.23439954  1
  Cu  Cu8  1  0.60542650  0.33836166  0.06056626  1
  As  As9  1  0.88213283  0.66199059  0.41974960  1
  As  As10  1  0.46677870  0.78141173  0.06756232  1
  As  As11  1  0.46659704  0.76096539  0.53626287  1
  As  As12  1  0.66518469  0.22740666  0.84336813  1
  As  As13  1  0.99506502  0.01945933  0.63349622  1
  As  As14  1  0.44686198  0.45608528  0.99368486  1
  O  O15  1  0.54122394  0.21722543  0.88588452  1
  O  O16  1  0.08546814  0.81392048  0.16309372  1
  O  O17  1  0.99630825  0.85281912  0.13070695  1
  O  O18  1  0.57647402  0.02814540  0.49242608  1
