# generated using pymatgen
data_Li2Te6As6I4F3
_symmetry_space_group_name_H-M   'P 1'
_cell_length_a   7.09948437
_cell_length_b   7.03838914
_cell_length_c   8.15397083
_cell_angle_alpha   94.10997710
_cell_angle_beta   96.46606003
_cell_angle_gamma   93.91108131
_symmetry_Int_Tables_number   1
_chemical_formula_structural   Li2Te6As6I4F3
_chemical_formula_sum   'Li2 Te6 As6 I4 F3'
_cell_volume   402.61439536
_cell_formula_units_Z   1
loop_
 _symmetry_equiv_pos_site_id
 _symmetry_equiv_pos_as_xyz
  1  'x, y, z'
loop_
 _atom_site_type_symbol
 _atom_site_label
 _atom_site_symmetry_multiplicity
 _atom_site_fract_x
 _atom_site_fract_y
 _atom_site_fract_z
 _atom_site_occupancy
  I  I0  1  0.00000000  0.00000000  0.00000000  1
  I  I1  1  0.50000000  0.50000000  0.50000000  1
  I  I2  1  0.50000000  0.50000000  0.00000000  1
  I  I3  1  0.50000000  0.00000000  0.50000000  1
  Li  Li4  1  0.00000000  0.50000000  0.50000000  1
  Li  Li5  1  0.67016059  0.72716614  0.58899025  1
  F  F6  1  0.72060349  0.11897900  0.15966150  1
  F  F7  1  0.90871527  0.31576120  0.29967865  1
  F  F8  1  0.45260837  0.60514120  0.93844610  1
  Te  Te9  1  0.38362734  0.57345362  0.48226473  1
  Te  Te10  1  0.75948540  0.89562251  0.80340624  1
  Te  Te11  1  0.38064406  0.51156297  0.35588404  1
  Te  Te12  1  0.02568722  0.73697398  0.62275634  1
  Te  Te13  1  0.81786022  0.37130840  0.26819983  1
  Te  Te14  1  0.44081202  0.96559759  0.42489718  1
  As  As15  1  0.90244036  0.99040777  0.82026031  1
  As  As16  1  0.01321705  0.36441913  0.52331109  1
  As  As17  1  0.00342858  0.50066979  0.90363606  1
  As  As18  1  0.49861787  0.95415512  0.97908892  1
  As  As19  1  0.51680470  0.15261105  0.38190695  1
  As  As20  1  0.95986825  0.84348687  0.17770789  1
