# generated using pymatgen
data_Li2LuTi2(As3P2)2
_symmetry_space_group_name_H-M   'P 1'
_cell_length_a   7.25550492
_cell_length_b   6.98479487
_cell_length_c   7.75290747
_cell_angle_alpha   92.02796168
_cell_angle_beta   92.63476910
_cell_angle_gamma   92.08658156
_symmetry_Int_Tables_number   1
_chemical_formula_structural   Li2LuTi2(As3P2)2
_chemical_formula_sum   'Li2 Lu1 Ti2 As6 P4'
_cell_volume   391.95751869
_cell_formula_units_Z   1
loop_
 _symmetry_equiv_pos_site_id
 _symmetry_equiv_pos_as_xyz
  1  'x, y, z'
loop_
 _atom_site_type_symbol
 _atom_site_label
 _atom_site_symmetry_multiplicity
 _atom_site_fract_x
 _atom_site_fract_y
 _atom_site_fract_z
 _atom_site_occupancy
  P  P0  1  0.12500000  0.00000000  0.25000000  1
  P  P1  1  0.00000000  0.00000000  0.00000000  1
  P  P2  1  0.37500000  0.00000000  0.25000000  1
  P  P3  1  0.25000000  0.25000000  0.25000000  1
  Lu  Lu4  1  0.00000000  0.25000000  0.12500000  1
  Li  Li5  1  0.55290739  0.24704844  0.91396769  1
  Li  Li6  1  0.31627485  0.89481440  0.33117385  1
  Ti  Ti7  1  0.18097513  0.72671954  0.31115741  1
  Ti  Ti8  1  0.46386032  0.88876116  0.38024004  1
  As  As9  1  0.72631468  0.88354534  0.91474435  1
  As  As10  1  0.07135766  0.50706994  0.69261301  1
  As  As11  1  0.46492351  0.47368226  0.53057952  1
  As  As12  1  0.89659407  0.10525946  0.68542149  1
  As  As13  1  0.90633434  0.60820938  0.71830642  1
  As  As14  1  0.97184903  0.14816361  0.08787789  1
