# generated using pymatgen
data_Li2Ti(IO)4
_symmetry_space_group_name_H-M   'P 1'
_cell_length_a   7.41285881
_cell_length_b   7.34773479
_cell_length_c   7.34442652
_cell_angle_alpha   90.76227257
_cell_angle_beta   93.62666137
_cell_angle_gamma   90.87148109
_symmetry_Int_Tables_number   1
_chemical_formula_structural   Li2Ti(IO)4
_chemical_formula_sum   'Li2 Ti1 I4 O4'
_cell_volume   399.14608884
_cell_formula_units_Z   1
loop_
 _symmetry_equiv_pos_site_id
 _symmetry_equiv_pos_as_xyz
  1  'x, y, z'
loop_
 _atom_site_type_symbol
 _atom_site_label
 _atom_site_symmetry_multiplicity
 _atom_site_fract_x
 _atom_site_fract_y
 _atom_site_fract_z
 _atom_site_occupancy
  I  I0  1  0.00000000  0.00000000  0.00000000  1
  I  I1  1  0.50000000  0.50000000  0.50000000  1
  I  I2  1  0.50000000  0.50000000  0.00000000  1
  I  I3  1  0.50000000  0.00000000  0.50000000  1
  Li  Li4  1  0.00000000  0.50000000  0.50000000  1
  Li  Li5  1  0.75339284  0.54231395  0.11998321  1
  Ti  Ti6  1  0.82055137  0.05208525  0.32701665  1
  O  O7  1  0.47781542  0.05834481  0.53183736  1
  O  O8  1  0.56883794  0.21764621  0.96987083  1
  O  O9  1  0.38751062  0.90443495  0.16663200  1
  O  O10  1  0.02718993  0.60576223  0.32868006  1
