# generated using pymatgen
data_Li2Lu(NiAs3)2
_symmetry_space_group_name_H-M   'P 1'
_cell_length_a   7.24577441
_cell_length_b   7.17051026
_cell_length_c   8.11595925
_cell_angle_alpha   93.94458681
_cell_angle_beta   94.49109096
_cell_angle_gamma   93.95004269
_symmetry_Int_Tables_number   1
_chemical_formula_structural   Li2Lu(NiAs3)2
_chemical_formula_sum   'Li2 Lu1 Ni2 As6'
_cell_volume   418.21030693
_cell_formula_units_Z   1
loop_
 _symmetry_equiv_pos_site_id
 _symmetry_equiv_pos_as_xyz
  1  'x, y, z'
loop_
 _atom_site_type_symbol
 _atom_site_label
 _atom_site_symmetry_multiplicity
 _atom_site_fract_x
 _atom_site_fract_y
 _atom_site_fract_z
 _atom_site_occupancy
  Ni  Ni0  1  0.12500000  0.00000000  0.25000000  1
  Ni  Ni1  1  0.00000000  0.00000000  0.00000000  1
  Lu  Lu2  1  0.37500000  0.00000000  0.25000000  1
  As  As3  1  0.25000000  0.25000000  0.25000000  1
  As  As4  1  0.00000000  0.25000000  0.12500000  1
  As  As5  1  0.42422373  0.45116417  0.38955036  1
  As  As6  1  0.27965526  0.50594648  0.33264810  1
  As  As7  1  0.19757370  0.52318113  0.69857099  1
  As  As8  1  0.42485810  0.38592950  0.27958162  1
  Li  Li9  1  0.09916079  0.60733250  0.70498054  1
  Li  Li10  1  0.72065236  0.81824525  0.04704877  1
