# generated using pymatgen
data_LiCuAs3P2
_symmetry_space_group_name_H-M   'P 1'
_cell_length_a   7.51891273
_cell_length_b   7.42912261
_cell_length_c   8.16507869
_cell_angle_alpha   91.33338669
_cell_angle_beta   91.74786272
_cell_angle_gamma   91.54175252
_symmetry_Int_Tables_number   1
_chemical_formula_structural   LiCuAs3P2
_chemical_formula_sum   'Li2 Cu2 As6 P4'
_cell_volume   455.58279546
_cell_formula_units_Z   2
loop_
 _symmetry_equiv_pos_site_id
 _symmetry_equiv_pos_as_xyz
  1  'x, y, z'
loop_
 _atom_site_type_symbol
 _atom_site_label
 _atom_site_symmetry_multiplicity
 _atom_site_fract_x
 _atom_site_fract_y
 _atom_site_fract_z
 _atom_site_occupancy
  P  P0  1  0.00000000  0.00000000  0.00000000  1
  P  P1  1  0.33300000  0.66700000  0.25000000  1
  P  P2  1  0.66700000  0.33300000  0.50000000  1
  P  P3  1  0.00000000  0.00000000  0.75000000  1
  Li  Li4  1  0.08973568  0.54017487  0.75211735  1
  Li  Li5  1  0.52922362  0.52771715  0.27440029  1
  Cu  Cu6  1  0.50585169  0.89627398  0.60683652  1
  Cu  Cu7  1  0.50410415  0.69897943  0.21993750  1
  As  As8  1  0.66946716  0.79184438  0.12114168  1
  As  As9  1  0.35427306  0.79244214  0.18830733  1
  As  As10  1  0.28362747  0.88119068  0.33395892  1
  As  As11  1  0.56084465  0.58404500  0.81234932  1
  As  As12  1  0.81896619  0.32886679  0.41714249  1
  As  As13  1  0.39342966  0.07626121  0.72234208  1
