# generated using pymatgen
data_Li3Ti(IO)4
_symmetry_space_group_name_H-M   'P 1'
_cell_length_a   7.45369967
_cell_length_b   7.26167976
_cell_length_c   7.16919832
_cell_angle_alpha   95.34999497
_cell_angle_beta   96.90895479
_cell_angle_gamma   95.01826672
_symmetry_Int_Tables_number   1
_chemical_formula_structural   Li3Ti(IO)4
_chemical_formula_sum   'Li3 Ti1 I4 O4'
_cell_volume   381.63022709
_cell_formula_units_Z   1
loop_
 _symmetry_equiv_pos_site_id
 _symmetry_equiv_pos_as_xyz
  1  'x, y, z'
loop_
 _atom_site_type_symbol
 _atom_site_label
 _atom_site_symmetry_multiplicity
 _atom_site_fract_x
 _atom_site_fract_y
 _atom_site_fract_z
 _atom_site_occupancy
  I  I0  1  0.12500000  0.12500000  0.12500000  1
  I  I1  1  0.50000000  0.50000000  0.50000000  1
  I  I2  1  0.25000000  0.25000000  0.25000000  1
  I  I3  1  0.75000000  0.75000000  0.75000000  1
  Li  Li4  1  0.62989847  0.60515124  0.67750542  1
  Li  Li5  1  0.94054522  0.42848306  0.12475486  1
  Li  Li6  1  0.18244497  0.18519541  0.82464225  1
  Ti  Ti7  1  0.09303567  0.61775767  0.69143482  1
  O  O8  1  0.22346537  0.08928814  0.74838580  1
  O  O9  1  0.84649778  0.28622967  0.74258541  1
  O  O10  1  0.49065558  0.78068577  0.11682863  1
  O  O11  1  0.89397709  0.20486006  0.62074041  1
