# generated using pymatgen
data_Li3Ti2S3O3F2
_symmetry_space_group_name_H-M   'P 1'
_cell_length_a   6.55295231
_cell_length_b   6.40426121
_cell_length_c   7.12311774
_cell_angle_alpha   91.08933662
_cell_angle_beta   95.18273280
_cell_angle_gamma   91.24540263
_symmetry_Int_Tables_number   1
_chemical_formula_structural   Li3Ti2S3O3F2
_chemical_formula_sum   'Li3 Ti2 S3 O3 F2'
_cell_volume   297.57606714
_cell_formula_units_Z   1
loop_
 _symmetry_equiv_pos_site_id
 _symmetry_equiv_pos_as_xyz
  1  'x, y, z'
loop_
 _atom_site_type_symbol
 _atom_site_label
 _atom_site_symmetry_multiplicity
 _atom_site_fract_x
 _atom_site_fract_y
 _atom_site_fract_z
 _atom_site_occupancy
  Li  Li0  1  0.12500000  0.00000000  0.25000000  1
  Li  Li1  1  0.00000000  0.00000000  0.00000000  1
  Li  Li2  1  0.37500000  0.00000000  0.25000000  1
  F  F3  1  0.25000000  0.25000000  0.25000000  1
  F  F4  1  0.00000000  0.25000000  0.12500000  1
  S  S5  1  0.35707955  0.79641018  0.47967166  1
  S  S6  1  0.30224533  0.51221805  0.66165024  1
  S  S7  1  0.65988905  0.05156585  0.52409346  1
  Ti  Ti8  1  0.61707565  0.03221934  0.22295660  1
  Ti  Ti9  1  0.29738923  0.17354522  0.86285132  1
  O  O10  1  0.55249983  0.31970575  0.06202114  1
  O  O11  1  0.65157866  0.34502545  0.62674903  1
  O  O12  1  0.07791480  0.62430987  0.32720984  1
