# generated using pymatgen
data_Li3Ni2Te6I4O5
_symmetry_space_group_name_H-M   'P 1'
_cell_length_a   6.45833780
_cell_length_b   6.28599865
_cell_length_c   7.62366830
_cell_angle_alpha   99.48561853
_cell_angle_beta   102.11095623
_cell_angle_gamma   98.92327201
_symmetry_Int_Tables_number   1
_chemical_formula_structural   Li3Ni2Te6I4O5
_chemical_formula_sum   'Li3 Ni2 Te6 I4 O5'
_cell_volume   292.64203171
_cell_formula_units_Z   1
loop_
 _symmetry_equiv_pos_site_id
 _symmetry_equiv_pos_as_xyz
  1  'x, y, z'
loop_
 _atom_site_type_symbol
 _atom_site_label
 _atom_site_symmetry_multiplicity
 _atom_site_fract_x
 _atom_site_fract_y
 _atom_site_fract_z
 _atom_site_occupancy
  I  I0  1  0.00000000  0.00000000  0.00000000  1
  I  I1  1  0.50000000  0.50000000  0.50000000  1
  I  I2  1  0.25000000  0.25000000  0.25000000  1
  I  I3  1  0.75000000  0.25000000  0.00000000  1
  Li  Li4  1  0.25000000  0.75000000  0.50000000  1
  Li  Li5  1  0.17703696  0.60079805  0.25477993  1
  Li  Li6  1  0.64483754  0.39308721  0.33290338  1
  Ni  Ni7  1  0.84715084  0.91577713  0.69549596  1
  Ni  Ni8  1  0.53748960  0.15214500  0.33712200  1
  Te  Te9  1  0.13389892  0.39617710  0.77412692  1
  Te  Te10  1  0.44355862  0.27276532  0.19058979  1
  Te  Te11  1  0.98101662  0.21618939  0.34748604  1
  Te  Te12  1  0.48036725  0.73429571  0.88932680  1
  Te  Te13  1  0.26455739  0.72904463  0.78863638  1
  Te  Te14  1  0.65818416  0.86096215  0.86159528  1
  O  O15  1  0.38577415  0.34526096  0.31081400  1
  O  O16  1  0.67655110  0.02425987  0.05327370  1
  O  O17  1  0.21528323  0.68009999  0.53070209  1
  O  O18  1  0.79747892  0.51913970  0.94326964  1
  O  O19  1  0.39806541  0.84690344  0.76599904  1
