# generated using pymatgen
data_Li2Ti(CuS)2
_symmetry_space_group_name_H-M   'P 1'
_cell_length_a   6.87803715
_cell_length_b   6.69841388
_cell_length_c   7.57564401
_cell_angle_alpha   93.42936813
_cell_angle_beta   94.41402673
_cell_angle_gamma   93.94496396
_symmetry_Int_Tables_number   1
_chemical_formula_structural   Li2Ti(CuS)2
_chemical_formula_sum   'Li2 Ti1 Cu2 S2'
_cell_volume   346.42021576
_cell_formula_units_Z   1
loop_
 _symmetry_equiv_pos_site_id
 _symmetry_equiv_pos_as_xyz
  1  'x, y, z'
loop_
 _atom_site_type_symbol
 _atom_site_label
 _atom_site_symmetry_multiplicity
 _atom_site_fract_x
 _atom_site_fract_y
 _atom_site_fract_z
 _atom_site_occupancy
  Li  Li0  1  0.12500000  0.12500000  0.12500000  1
  Li  Li1  1  0.50000000  0.50000000  0.50000000  1
  Cu  Cu2  1  0.25000000  0.25000000  0.25000000  1
  Cu  Cu3  1  0.75000000  0.75000000  0.75000000  1
  S  S4  1  0.67117388  0.47043530  0.09746939  1
  S  S5  1  0.40842223  0.03793368  0.76980884  1
  Ti  Ti6  1  0.48700431  0.57127463  0.80229624  1
