# generated using pymatgen
data_Li4Ti2P2SeF3
_symmetry_space_group_name_H-M   'P 1'
_cell_length_a   5.33165610
_cell_length_b   5.06779696
_cell_length_c   6.61029949
_cell_angle_alpha   98.55613059
_cell_angle_beta   101.05126649
_cell_angle_gamma   99.06201125
_symmetry_Int_Tables_number   1
_chemical_formula_structural   Li4Ti2P2SeF3
_chemical_formula_sum   'Li4 Ti2 P2 Se1 F3'
_cell_volume   170.13165558
_cell_formula_units_Z   1
loop_
 _symmetry_equiv_pos_site_id
 _symmetry_equiv_pos_as_xyz
  1  'x, y, z'
loop_
 _atom_site_type_symbol
 _atom_site_label
 _atom_site_symmetry_multiplicity
 _atom_site_fract_x
 _atom_site_fract_y
 _atom_site_fract_z
 _atom_site_occupancy
  P  P0  1  0.12500000  0.00000000  0.25000000  1
  P  P1  1  0.00000000  0.00000000  0.00000000  1
  Li  Li2  1  0.37500000  0.00000000  0.25000000  1
  Li  Li3  1  0.25000000  0.25000000  0.25000000  1
  Li  Li4  1  0.00000000  0.25000000  0.12500000  1
  Li  Li5  1  0.78414974  0.68891346  0.93411552  1
  F  F6  1  0.88524855  0.37528330  0.50049980  1
  F  F7  1  0.39810142  0.37130331  0.32580117  1
  F  F8  1  0.65265532  0.72868088  0.95571424  1
  Se  Se9  1  0.64374653  0.70040875  0.64809342  1
  Ti  Ti10  1  0.32588712  0.67219502  0.61279990  1
  Ti  Ti11  1  0.75595638  0.21604767  0.09118686  1
