# generated using pymatgen
data_Li3TiAs6I4O5
_symmetry_space_group_name_H-M   'P 1'
_cell_length_a   8.35608696
_cell_length_b   8.21152164
_cell_length_c   8.05627911
_cell_angle_alpha   90.75236659
_cell_angle_beta   90.47699795
_cell_angle_gamma   90.87185828
_symmetry_Int_Tables_number   1
_chemical_formula_structural   Li3TiAs6I4O5
_chemical_formula_sum   'Li3 Ti1 As6 I4 O5'
_cell_volume   552.65942696
_cell_formula_units_Z   1
loop_
 _symmetry_equiv_pos_site_id
 _symmetry_equiv_pos_as_xyz
  1  'x, y, z'
loop_
 _atom_site_type_symbol
 _atom_site_label
 _atom_site_symmetry_multiplicity
 _atom_site_fract_x
 _atom_site_fract_y
 _atom_site_fract_z
 _atom_site_occupancy
  I  I0  1  0.00000000  0.00000000  0.00000000  1
  I  I1  1  0.50000000  0.50000000  0.50000000  1
  I  I2  1  0.50000000  0.50000000  0.00000000  1
  I  I3  1  0.50000000  0.00000000  0.50000000  1
  Li  Li4  1  0.00000000  0.50000000  0.50000000  1
  Li  Li5  1  0.99725656  0.74810018  0.40510996  1
  Li  Li6  1  0.69810676  0.33111809  0.65138688  1
  Ti  Ti7  1  0.18374427  0.65451385  0.61336694  1
  As  As8  1  0.50290313  0.44312192  0.15137679  1
  As  As9  1  0.03722094  0.05226990  0.56108044  1
  As  As10  1  0.56497247  0.08336454  0.53953999  1
  As  As11  1  0.98642805  0.36560788  0.59003250  1
  As  As12  1  0.41525300  0.10523772  0.67454868  1
  As  As13  1  0.90196992  0.00677702  0.92288687  1
  O  O14  1  0.48199766  0.28561708  0.52951591  1
  O  O15  1  0.24170131  0.27529612  0.56640236  1
  O  O16  1  0.76381530  0.42372691  0.32686743  1
  O  O17  1  0.82891379  0.68547403  0.12377420  1
  O  O18  1  0.60367703  0.52751218  0.38095302  1
