# generated using pymatgen
data_LiCuNiAs3P2
_symmetry_space_group_name_H-M   'P 1'
_cell_length_a   7.51411630
_cell_length_b   7.45376975
_cell_length_c   8.19276716
_cell_angle_alpha   91.24533626
_cell_angle_beta   91.80503480
_cell_angle_gamma   91.43929161
_symmetry_Int_Tables_number   1
_chemical_formula_structural   LiCuNiAs3P2
_chemical_formula_sum   'Li2 Cu2 Ni2 As6 P4'
_cell_volume   458.37563498
_cell_formula_units_Z   2
loop_
 _symmetry_equiv_pos_site_id
 _symmetry_equiv_pos_as_xyz
  1  'x, y, z'
loop_
 _atom_site_type_symbol
 _atom_site_label
 _atom_site_symmetry_multiplicity
 _atom_site_fract_x
 _atom_site_fract_y
 _atom_site_fract_z
 _atom_site_occupancy
  Ni  Ni0  1  0.00000000  0.00000000  0.00000000  1
  Ni  Ni1  1  0.50000000  0.50000000  0.50000000  1
  P  P2  1  0.25000000  0.25000000  0.25000000  1
  P  P3  1  0.75000000  0.25000000  0.00000000  1
  P  P4  1  0.25000000  0.75000000  0.50000000  1
  P  P5  1  0.41312123  0.61076830  0.66533941  1
  As  As6  1  0.91822206  0.32669023  0.58634966  1
  As  As7  1  0.44992420  0.56930237  0.46169518  1
  As  As8  1  0.06666698  0.05826738  0.36147269  1
  As  As9  1  0.49437505  0.00808426  0.69456404  1
  As  As10  1  0.68693268  0.00507539  0.12716659  1
  As  As11  1  0.02164928  0.84665599  0.50772943  1
  Li  Li12  1  0.93103483  0.11680740  0.52975612  1
  Li  Li13  1  0.60547898  0.11388145  0.57882108  1
  Cu  Cu14  1  0.24424391  0.47619014  0.70822183  1
  Cu  Cu15  1  0.21427823  0.68369558  0.17253487  1
