# generated using pymatgen
data_Li2Mo2P3N
_symmetry_space_group_name_H-M   'P 1'
_cell_length_a   3.62040500
_cell_length_b   3.73674186
_cell_length_c   5.24412354
_cell_angle_alpha   103.17836559
_cell_angle_beta   95.97668962
_cell_angle_gamma   101.35489319
_symmetry_Int_Tables_number   1
_chemical_formula_structural   Li2Mo2P3N
_chemical_formula_sum   'Li2 Mo2 P3 N1'
_cell_volume   66.89462872
_cell_formula_units_Z   1
loop_
 _symmetry_equiv_pos_site_id
 _symmetry_equiv_pos_as_xyz
  1  'x, y, z'
loop_
 _atom_site_type_symbol
 _atom_site_label
 _atom_site_symmetry_multiplicity
 _atom_site_fract_x
 _atom_site_fract_y
 _atom_site_fract_z
 _atom_site_occupancy
  P  P0  1  0.12500000  0.00000000  0.25000000  1
  P  P1  1  0.00000000  0.00000000  0.00000000  1
  P  P2  1  0.37500000  0.00000000  0.25000000  1
  Mo  Mo3  1  0.25000000  0.25000000  0.25000000  1
  Mo  Mo4  1  0.00000000  0.25000000  0.12500000  1
  Li  Li5  1  0.16176207  0.40963525  0.92838050  1
  Li  Li6  1  0.81170849  0.60871844  0.59798965  1
  N  N7  1  0.41625777  0.72551564  0.65466277  1
