# generated using pymatgen
data_Li3TiCu2(PN)5
_symmetry_space_group_name_H-M   'P 1'
_cell_length_a   8.21270326
_cell_length_b   8.06170086
_cell_length_c   7.80714453
_cell_angle_alpha   91.49425988
_cell_angle_beta   91.30971224
_cell_angle_gamma   91.57924994
_symmetry_Int_Tables_number   1
_chemical_formula_structural   Li3TiCu2(PN)5
_chemical_formula_sum   'Li3 Ti1 Cu2 P5 N5'
_cell_volume   516.38239546
_cell_formula_units_Z   1
loop_
 _symmetry_equiv_pos_site_id
 _symmetry_equiv_pos_as_xyz
  1  'x, y, z'
loop_
 _atom_site_type_symbol
 _atom_site_label
 _atom_site_symmetry_multiplicity
 _atom_site_fract_x
 _atom_site_fract_y
 _atom_site_fract_z
 _atom_site_occupancy
  P  P0  1  0.12500000  0.00000000  0.25000000  1
  P  P1  1  0.00000000  0.00000000  0.00000000  1
  P  P2  1  0.37500000  0.00000000  0.25000000  1
  P  P3  1  0.25000000  0.25000000  0.25000000  1
  P  P4  1  0.00000000  0.25000000  0.12500000  1
  Li  Li5  1  0.51283215  0.67329809  0.27388287  1
  Li  Li6  1  0.42045080  0.99627437  0.99411420  1
  Li  Li7  1  0.94234163  0.66034924  0.50916619  1
  Cu  Cu8  1  0.19298192  0.54936238  0.64063403  1
  Cu  Cu9  1  0.59912891  0.14123546  0.26962076  1
  Ti  Ti10  1  0.61690782  0.12458338  0.04214490  1
  N  N11  1  0.87493401  0.18167409  0.93875575  1
  N  N12  1  0.93858185  0.89845381  0.00066038  1
  N  N13  1  0.76291929  0.80454913  0.46244035  1
  N  N14  1  0.44394264  0.57354329  0.52081457  1
  N  N15  1  0.72098349  0.81624256  0.40059363  1
