# generated using pymatgen
data_Li2TiAs7N5
_symmetry_space_group_name_H-M   'P 1'
_cell_length_a   7.82866860
_cell_length_b   7.58962017
_cell_length_c   8.03368358
_cell_angle_alpha   91.82323251
_cell_angle_beta   91.11125499
_cell_angle_gamma   92.05712139
_symmetry_Int_Tables_number   1
_chemical_formula_structural   Li2TiAs7N5
_chemical_formula_sum   'Li2 Ti1 As7 N5'
_cell_volume   476.68443272
_cell_formula_units_Z   1
loop_
 _symmetry_equiv_pos_site_id
 _symmetry_equiv_pos_as_xyz
  1  'x, y, z'
loop_
 _atom_site_type_symbol
 _atom_site_label
 _atom_site_symmetry_multiplicity
 _atom_site_fract_x
 _atom_site_fract_y
 _atom_site_fract_z
 _atom_site_occupancy
  Li  Li0  1  0.00000000  0.00000000  0.00000000  1
  Li  Li1  1  0.50000000  0.50000000  0.50000000  1
  Ti  Ti2  1  0.50000000  0.50000000  0.00000000  1
  As  As3  1  0.50000000  0.00000000  0.50000000  1
  As  As4  1  0.00000000  0.50000000  0.50000000  1
  As  As5  1  0.01738526  0.26221030  0.05026502  1
  As  As6  1  0.44618892  0.35732651  0.35539842  1
  As  As7  1  0.14862299  0.26163293  0.86840387  1
  As  As8  1  0.58341134  0.20135002  0.31427064  1
  As  As9  1  0.70958139  0.82054634  0.07258316  1
  N  N10  1  0.75772895  0.86424472  0.97827482  1
  N  N11  1  0.73797371  0.97760083  0.13526789  1
  N  N12  1  0.72266645  0.70863418  0.78659683  1
  N  N13  1  0.22283331  0.89866541  0.23187206  1
  N  N14  1  0.75138862  0.61186358  0.42640044  1
