# generated using pymatgen
data_LiCuAs3P2
_symmetry_space_group_name_H-M   'P 1'
_cell_length_a   7.41708406
_cell_length_b   7.26999135
_cell_length_c   7.93276637
_cell_angle_alpha   91.40676046
_cell_angle_beta   92.52241676
_cell_angle_gamma   91.44572772
_symmetry_Int_Tables_number   1
_chemical_formula_structural   LiCuAs3P2
_chemical_formula_sum   'Li2 Cu2 As6 P4'
_cell_volume   427.06018925
_cell_formula_units_Z   2
loop_
 _symmetry_equiv_pos_site_id
 _symmetry_equiv_pos_as_xyz
  1  'x, y, z'
loop_
 _atom_site_type_symbol
 _atom_site_label
 _atom_site_symmetry_multiplicity
 _atom_site_fract_x
 _atom_site_fract_y
 _atom_site_fract_z
 _atom_site_occupancy
  P  P0  1  0.00000000  0.00000000  0.00000000  1
  P  P1  1  0.50000000  0.50000000  0.50000000  1
  P  P2  1  0.50000000  0.50000000  0.00000000  1
  P  P3  1  0.50000000  0.00000000  0.50000000  1
  As  As4  1  0.00000000  0.50000000  0.50000000  1
  As  As5  1  0.91688894  0.12434567  0.31612670  1
  As  As6  1  0.51709857  0.13012799  0.48124928  1
  As  As7  1  0.58413293  0.49845202  0.55313009  1
  As  As8  1  0.77979688  0.44048448  0.67432020  1
  As  As9  1  0.63536074  0.10663194  0.12119140  1
  Li  Li10  1  0.19502888  0.65315252  0.08066213  1
  Li  Li11  1  0.44020191  0.92159435  0.27080598  1
  Cu  Cu12  1  0.89215011  0.73275455  0.55065889  1
  Cu  Cu13  1  0.57091258  0.65485209  0.04263512  1
