# generated using pymatgen
data_Li2LuCu2(NiAs3)2
_symmetry_space_group_name_H-M   'P 1'
_cell_length_a   7.49365275
_cell_length_b   7.55892456
_cell_length_c   8.31089753
_cell_angle_alpha   90.86967696
_cell_angle_beta   92.04895435
_cell_angle_gamma   91.00215132
_symmetry_Int_Tables_number   1
_chemical_formula_structural   Li2LuCu2(NiAs3)2
_chemical_formula_sum   'Li2 Lu1 Cu2 Ni2 As6'
_cell_volume   470.33032880
_cell_formula_units_Z   1
loop_
 _symmetry_equiv_pos_site_id
 _symmetry_equiv_pos_as_xyz
  1  'x, y, z'
loop_
 _atom_site_type_symbol
 _atom_site_label
 _atom_site_symmetry_multiplicity
 _atom_site_fract_x
 _atom_site_fract_y
 _atom_site_fract_z
 _atom_site_occupancy
  Ni  Ni0  1  0.12500000  0.00000000  0.25000000  1
  Ni  Ni1  1  0.00000000  0.00000000  0.00000000  1
  Lu  Lu2  1  0.37500000  0.00000000  0.25000000  1
  As  As3  1  0.25000000  0.25000000  0.25000000  1
  As  As4  1  0.00000000  0.25000000  0.12500000  1
  As  As5  1  0.18470511  0.28305298  0.35634698  1
  As  As6  1  0.21226214  0.30339282  0.31023693  1
  As  As7  1  0.18100949  0.83693541  0.02954260  1
  As  As8  1  0.30191177  0.89035048  0.70769026  1
  Li  Li9  1  0.95879450  0.24967476  0.15649229  1
  Li  Li10  1  0.12855726  0.80095375  0.10144900  1
  Cu  Cu11  1  0.68825765  0.78080532  0.38045084  1
  Cu  Cu12  1  0.42195255  0.91988605  0.20009794  1
