# generated using pymatgen
data_Li2As6P5N3
_symmetry_space_group_name_H-M   'P 1'
_cell_length_a   7.57449781
_cell_length_b   7.55209643
_cell_length_c   8.49237186
_cell_angle_alpha   91.26582461
_cell_angle_beta   91.83507621
_cell_angle_gamma   91.46296963
_symmetry_Int_Tables_number   1
_chemical_formula_structural   Li2As6P5N3
_chemical_formula_sum   'Li2 As6 P5 N3'
_cell_volume   485.25700875
_cell_formula_units_Z   1
loop_
 _symmetry_equiv_pos_site_id
 _symmetry_equiv_pos_as_xyz
  1  'x, y, z'
loop_
 _atom_site_type_symbol
 _atom_site_label
 _atom_site_symmetry_multiplicity
 _atom_site_fract_x
 _atom_site_fract_y
 _atom_site_fract_z
 _atom_site_occupancy
  P  P0  1  0.12500000  0.12500000  0.12500000  1
  P  P1  1  0.50000000  0.50000000  0.50000000  1
  P  P2  1  0.25000000  0.25000000  0.25000000  1
  P  P3  1  0.75000000  0.75000000  0.75000000  1
  P  P4  1  0.43004586  0.85863901  0.43451184  1
  As  As5  1  0.01943926  0.90039632  0.01610310  1
  As  As6  1  0.67119125  0.11918371  0.01554159  1
  As  As7  1  0.96279536  0.36525925  0.84531160  1
  As  As8  1  0.41150036  0.27096634  0.58856452  1
  As  As9  1  0.78529042  0.48591355  0.58897917  1
  As  As10  1  0.46460797  0.49700207  0.57446178  1
  Li  Li11  1  0.39817875  0.62340570  0.71106019  1
  Li  Li12  1  0.23339640  0.80525616  0.77994326  1
  N  N13  1  0.22892801  0.30287675  0.44889034  1
  N  N14  1  0.94074772  0.81174960  0.36885631  1
  N  N15  1  0.50118402  0.97377236  0.41164178  1
