# generated using pymatgen
data_Li2TiAs6(PI)4
_symmetry_space_group_name_H-M   'P 1'
_cell_length_a   7.73427402
_cell_length_b   7.52682551
_cell_length_c   7.90247704
_cell_angle_alpha   91.54597558
_cell_angle_beta   91.33339962
_cell_angle_gamma   91.69601391
_symmetry_Int_Tables_number   1
_chemical_formula_structural   Li2TiAs6(PI)4
_chemical_formula_sum   'Li2 Ti1 As6 P4 I4'
_cell_volume   459.53670357
_cell_formula_units_Z   1
loop_
 _symmetry_equiv_pos_site_id
 _symmetry_equiv_pos_as_xyz
  1  'x, y, z'
loop_
 _atom_site_type_symbol
 _atom_site_label
 _atom_site_symmetry_multiplicity
 _atom_site_fract_x
 _atom_site_fract_y
 _atom_site_fract_z
 _atom_site_occupancy
  I  I0  1  0.00000000  0.00000000  0.00000000  1
  I  I1  1  0.50000000  0.50000000  0.50000000  1
  I  I2  1  0.25000000  0.25000000  0.25000000  1
  I  I3  1  0.75000000  0.25000000  0.00000000  1
  P  P4  1  0.25000000  0.75000000  0.50000000  1
  P  P5  1  0.30232441  0.36600762  0.43867399  1
  P  P6  1  0.49310757  0.88621648  0.44454660  1
  P  P7  1  0.24938543  0.03018757  0.35313072  1
  Li  Li8  1  0.80494302  0.71734317  0.96391169  1
  Li  Li9  1  0.57312587  0.09855300  0.23646290  1
  Ti  Ti10  1  0.52966660  0.45772747  0.98518019  1
  As  As11  1  0.03036209  0.31427387  0.58470548  1
  As  As12  1  0.15440917  0.17938151  0.24600284  1
  As  As13  1  0.34080269  0.18726757  0.52216918  1
  As  As14  1  0.53970318  0.10845273  0.67300366  1
  As  As15  1  0.48529784  0.38413838  0.94924423  1
  As  As16  1  0.08299538  0.74392410  0.07086040  1
