# generated using pymatgen
data_Li2Ti(PO)4
_symmetry_space_group_name_H-M   'P 1'
_cell_length_a   7.67560204
_cell_length_b   7.62653524
_cell_length_c   7.24475955
_cell_angle_alpha   90.37714015
_cell_angle_beta   91.05605170
_cell_angle_gamma   89.93606751
_symmetry_Int_Tables_number   1
_chemical_formula_structural   Li2Ti(PO)4
_chemical_formula_sum   'Li2 Ti1 P4 O4'
_cell_volume   424.01411004
_cell_formula_units_Z   1
loop_
 _symmetry_equiv_pos_site_id
 _symmetry_equiv_pos_as_xyz
  1  'x, y, z'
loop_
 _atom_site_type_symbol
 _atom_site_label
 _atom_site_symmetry_multiplicity
 _atom_site_fract_x
 _atom_site_fract_y
 _atom_site_fract_z
 _atom_site_occupancy
  P  P0  1  0.00000000  0.00000000  0.00000000  1
  P  P1  1  0.50000000  0.50000000  0.50000000  1
  P  P2  1  0.50000000  0.50000000  0.00000000  1
  P  P3  1  0.50000000  0.00000000  0.50000000  1
  Li  Li4  1  0.00000000  0.50000000  0.50000000  1
  Li  Li5  1  0.99589335  0.08227636  0.23265793  1
  Ti  Ti6  1  0.61935624  0.60726622  0.77250283  1
  O  O7  1  0.42754962  0.71758810  0.41465631  1
  O  O8  1  0.91443470  0.54546662  0.19219814  1
  O  O9  1  0.60718996  0.13850759  0.60278783  1
  O  O10  1  0.73748211  0.95061456  0.09642595  1
