# generated using pymatgen
data_LiTiS3O4
_symmetry_space_group_name_H-M   'P 1'
_cell_length_a   7.89819882
_cell_length_b   7.81394902
_cell_length_c   7.36209683
_cell_angle_alpha   90.50180736
_cell_angle_beta   92.38744700
_cell_angle_gamma   90.57369980
_symmetry_Int_Tables_number   1
_chemical_formula_structural   LiTiS3O4
_chemical_formula_sum   'Li1 Ti1 S3 O4'
_cell_volume   453.92378002
_cell_formula_units_Z   1
loop_
 _symmetry_equiv_pos_site_id
 _symmetry_equiv_pos_as_xyz
  1  'x, y, z'
loop_
 _atom_site_type_symbol
 _atom_site_label
 _atom_site_symmetry_multiplicity
 _atom_site_fract_x
 _atom_site_fract_y
 _atom_site_fract_z
 _atom_site_occupancy
  Li  Li0  1  0.00000000  0.00000000  0.00000000  1
  S  S1  1  0.50000000  0.50000000  0.50000000  1
  S  S2  1  0.50000000  0.50000000  0.00000000  1
  S  S3  1  0.50000000  0.00000000  0.50000000  1
  Ti  Ti4  1  0.00000000  0.50000000  0.50000000  1
  O  O5  1  0.88444436  0.14347504  0.67705856  1
  O  O6  1  0.93730624  0.98935687  0.70825853  1
  O  O7  1  0.67796279  0.37092594  0.44663400  1
  O  O8  1  0.97657942  0.21247238  0.39475726  1
