# generated using pymatgen
data_Li2Ti2S3(O2F)2
_symmetry_space_group_name_H-M   'P 1'
_cell_length_a   4.79875437
_cell_length_b   4.55576281
_cell_length_c   6.85307177
_cell_angle_alpha   102.49958956
_cell_angle_beta   107.89363473
_cell_angle_gamma   101.82828481
_symmetry_Int_Tables_number   1
_chemical_formula_structural   Li2Ti2S3(O2F)2
_chemical_formula_sum   'Li2 Ti2 S3 O4 F2'
_cell_volume   133.12027778
_cell_formula_units_Z   1
loop_
 _symmetry_equiv_pos_site_id
 _symmetry_equiv_pos_as_xyz
  1  'x, y, z'
loop_
 _atom_site_type_symbol
 _atom_site_label
 _atom_site_symmetry_multiplicity
 _atom_site_fract_x
 _atom_site_fract_y
 _atom_site_fract_z
 _atom_site_occupancy
  Li  Li0  1  0.00000000  0.00000000  0.00000000  1
  Li  Li1  1  0.50000000  0.50000000  0.50000000  1
  F  F2  1  0.25000000  0.25000000  0.25000000  1
  F  F3  1  0.75000000  0.25000000  0.00000000  1
  S  S4  1  0.25000000  0.75000000  0.50000000  1
  S  S5  1  0.95006549  0.08127449  0.65741281  1
  S  S6  1  0.06043624  0.25475517  0.30504886  1
  Ti  Ti7  1  0.70639359  0.18207612  0.45452982  1
  Ti  Ti8  1  0.65145213  0.20704722  0.11433652  1
  O  O9  1  0.46052111  0.12136032  0.73717990  1
  O  O10  1  0.19089177  0.87972665  0.88811081  1
  O  O11  1  0.95098305  0.93809922  0.39211859  1
  O  O12  1  0.36450616  0.25713441  0.10847266  1
