# generated using pymatgen
data_LiTiCu(AsP)3
_symmetry_space_group_name_H-M   'P 1'
_cell_length_a   7.39680321
_cell_length_b   7.27864174
_cell_length_c   8.44157055
_cell_angle_alpha   93.29174133
_cell_angle_beta   94.32502085
_cell_angle_gamma   93.27701533
_symmetry_Int_Tables_number   1
_chemical_formula_structural   LiTiCu(AsP)3
_chemical_formula_sum   'Li2 Ti2 Cu2 As6 P6'
_cell_volume   451.57705783
_cell_formula_units_Z   2
loop_
 _symmetry_equiv_pos_site_id
 _symmetry_equiv_pos_as_xyz
  1  'x, y, z'
loop_
 _atom_site_type_symbol
 _atom_site_label
 _atom_site_symmetry_multiplicity
 _atom_site_fract_x
 _atom_site_fract_y
 _atom_site_fract_z
 _atom_site_occupancy
  P  P0  1  0.00000000  0.00000000  0.00000000  1
  P  P1  1  0.50000000  0.50000000  0.50000000  1
  P  P2  1  0.50000000  0.50000000  0.00000000  1
  P  P3  1  0.50000000  0.00000000  0.50000000  1
  P  P4  1  0.00000000  0.50000000  0.50000000  1
  P  P5  1  0.92971306  0.41327539  0.71054949  1
  Li  Li6  1  0.40856336  0.70844966  0.96414055  1
  Li  Li7  1  0.06122519  0.43498167  0.94313206  1
  Cu  Cu8  1  0.96670732  0.75164234  0.62406298  1
  Cu  Cu9  1  0.38167829  0.75448607  0.46226070  1
  Ti  Ti10  1  0.00205882  0.19931112  0.64443351  1
  Ti  Ti11  1  0.39550615  0.06233835  0.90531874  1
  As  As12  1  0.20412807  0.78434056  0.70494411  1
  As  As13  1  0.77186708  0.02916401  0.12000985  1
  As  As14  1  0.13902871  0.64572333  0.56633714  1
  As  As15  1  0.50723715  0.19411297  0.65544057  1
  As  As16  1  0.14980862  0.53334546  0.49595128  1
  As  As17  1  0.79348846  0.55640179  0.63540234  1
