# generated using pymatgen
data_Li2TiS3F2
_symmetry_space_group_name_H-M   'P 1'
_cell_length_a   6.73968892
_cell_length_b   6.70109250
_cell_length_c   7.31991767
_cell_angle_alpha   91.12353958
_cell_angle_beta   95.34546012
_cell_angle_gamma   91.28450576
_symmetry_Int_Tables_number   1
_chemical_formula_structural   Li2TiS3F2
_chemical_formula_sum   'Li2 Ti1 S3 F2'
_cell_volume   328.99287826
_cell_formula_units_Z   1
loop_
 _symmetry_equiv_pos_site_id
 _symmetry_equiv_pos_as_xyz
  1  'x, y, z'
loop_
 _atom_site_type_symbol
 _atom_site_label
 _atom_site_symmetry_multiplicity
 _atom_site_fract_x
 _atom_site_fract_y
 _atom_site_fract_z
 _atom_site_occupancy
  Li  Li0  1  0.00000000  0.00000000  0.00000000  1
  Li  Li1  1  0.33300000  0.66700000  0.25000000  1
  F  F2  1  0.66700000  0.33300000  0.50000000  1
  F  F3  1  0.00000000  0.00000000  0.75000000  1
  S  S4  1  0.72365053  0.42906508  0.40432882  1
  S  S5  1  0.31077209  0.09268079  0.53932603  1
  S  S6  1  0.20893817  0.18466055  0.81850098  1
  Ti  Ti7  1  0.43591492  0.54127441  0.50422268  1
