# generated using pymatgen
data_LiTiCu2I4F3
_symmetry_space_group_name_H-M   'P 1'
_cell_length_a   7.26331933
_cell_length_b   7.25747212
_cell_length_c   7.73804201
_cell_angle_alpha   90.71228945
_cell_angle_beta   93.38885690
_cell_angle_gamma   90.81433704
_symmetry_Int_Tables_number   1
_chemical_formula_structural   LiTiCu2I4F3
_chemical_formula_sum   'Li1 Ti1 Cu2 I4 F3'
_cell_volume   407.10762944
_cell_formula_units_Z   1
loop_
 _symmetry_equiv_pos_site_id
 _symmetry_equiv_pos_as_xyz
  1  'x, y, z'
loop_
 _atom_site_type_symbol
 _atom_site_label
 _atom_site_symmetry_multiplicity
 _atom_site_fract_x
 _atom_site_fract_y
 _atom_site_fract_z
 _atom_site_occupancy
  I  I0  1  0.00000000  0.00000000  0.00000000  1
  I  I1  1  0.50000000  0.50000000  0.50000000  1
  I  I2  1  0.50000000  0.50000000  0.00000000  1
  I  I3  1  0.50000000  0.00000000  0.50000000  1
  Li  Li4  1  0.00000000  0.50000000  0.50000000  1
  Cu  Cu5  1  0.25730232  0.96483325  0.05049935  1
  Cu  Cu6  1  0.07442880  0.38939806  0.69739036  1
  F  F7  1  0.86202862  0.12465959  0.24982103  1
  F  F8  1  0.01476265  0.11542130  0.00979881  1
  F  F9  1  0.22887031  0.46280888  0.52744132  1
  Ti  Ti10  1  0.84199279  0.31649289  0.87436926  1
