# generated using pymatgen
data_Li2LuI4N5
_symmetry_space_group_name_H-M   'P 1'
_cell_length_a   7.60354448
_cell_length_b   7.42204021
_cell_length_c   8.04173989
_cell_angle_alpha   92.34496920
_cell_angle_beta   92.51372447
_cell_angle_gamma   92.48854822
_symmetry_Int_Tables_number   1
_chemical_formula_structural   Li2LuI4N5
_chemical_formula_sum   'Li2 Lu1 I4 N5'
_cell_volume   452.54471577
_cell_formula_units_Z   1
loop_
 _symmetry_equiv_pos_site_id
 _symmetry_equiv_pos_as_xyz
  1  'x, y, z'
loop_
 _atom_site_type_symbol
 _atom_site_label
 _atom_site_symmetry_multiplicity
 _atom_site_fract_x
 _atom_site_fract_y
 _atom_site_fract_z
 _atom_site_occupancy
  I  I0  1  0.00000000  0.00000000  0.00000000  1
  I  I1  1  0.50000000  0.50000000  0.50000000  1
  I  I2  1  0.50000000  0.50000000  0.00000000  1
  I  I3  1  0.50000000  0.00000000  0.50000000  1
  Lu  Lu4  1  0.00000000  0.50000000  0.50000000  1
  Li  Li5  1  0.92761783  0.02498983  0.26561612  1
  Li  Li6  1  0.37533226  0.36797047  0.80910029  1
  N  N7  1  0.67202246  0.99982464  0.98342501  1
  N  N8  1  0.20623575  0.84383826  0.27702253  1
  N  N9  1  0.84884898  0.45808576  0.92817130  1
  N  N10  1  0.25465152  0.71308762  0.10254763  1
  N  N11  1  0.94372159  0.56749998  0.71721741  1
