# generated using pymatgen
data_Li3(IO)4
_symmetry_space_group_name_H-M   'P 1'
_cell_length_a   8.68442900
_cell_length_b   8.94371551
_cell_length_c   7.29882655
_cell_angle_alpha   90.00000000
_cell_angle_beta   90.00000000
_cell_angle_gamma   90.00000000
_symmetry_Int_Tables_number   1
_chemical_formula_structural   Li3(IO)4
_chemical_formula_sum   'Li3 I4 O4'
_cell_volume   566.90761197
_cell_formula_units_Z   1
loop_
 _symmetry_equiv_pos_site_id
 _symmetry_equiv_pos_as_xyz
  1  'x, y, z'
loop_
 _atom_site_type_symbol
 _atom_site_label
 _atom_site_symmetry_multiplicity
 _atom_site_fract_x
 _atom_site_fract_y
 _atom_site_fract_z
 _atom_site_occupancy
  I  I0  1  0.12500000  0.12500000  0.12500000  1
  I  I1  1  0.50000000  0.50000000  0.50000000  1
  I  I2  1  0.25000000  0.25000000  0.25000000  1
  I  I3  1  0.75000000  0.75000000  0.75000000  1
  Li  Li4  1  0.85736898  0.12994845  0.31437808  1
  Li  Li5  1  0.00103823  0.52880986  0.92552136  1
  Li  Li6  1  0.19284794  0.24213075  0.71437469  1
  O  O7  1  0.03199244  0.23005458  0.64033076  1
  O  O8  1  0.11109791  0.31276131  0.88775880  1
  O  O9  1  0.48899927  0.14852370  0.52343355  1
  O  O10  1  0.03196053  0.30308146  0.83500379  1
