# generated using pymatgen
data_Li3Zn2Te6(IO)4
_symmetry_space_group_name_H-M   'P 1'
_cell_length_a   8.59417627
_cell_length_b   9.08415372
_cell_length_c   7.23980888
_cell_angle_alpha   90.00000000
_cell_angle_beta   90.00000000
_cell_angle_gamma   90.00000000
_symmetry_Int_Tables_number   1
_chemical_formula_structural   Li3Zn2Te6(IO)4
_chemical_formula_sum   'Li3 Zn2 Te6 I4 O4'
_cell_volume   565.21780327
_cell_formula_units_Z   1
loop_
 _symmetry_equiv_pos_site_id
 _symmetry_equiv_pos_as_xyz
  1  'x, y, z'
loop_
 _atom_site_type_symbol
 _atom_site_label
 _atom_site_symmetry_multiplicity
 _atom_site_fract_x
 _atom_site_fract_y
 _atom_site_fract_z
 _atom_site_occupancy
  I  I0  1  0.12500000  0.00000000  0.25000000  1
  I  I1  1  0.00000000  0.00000000  0.00000000  1
  I  I2  1  0.37500000  0.00000000  0.25000000  1
  I  I3  1  0.25000000  0.25000000  0.25000000  1
  Li  Li4  1  0.00000000  0.25000000  0.12500000  1
  Li  Li5  1  0.10282854  0.35529746  0.93333684  1
  Li  Li6  1  0.15282022  0.53094004  0.63155799  1
  Zn  Zn7  1  0.15266364  0.06057271  0.57563838  1
  Zn  Zn8  1  0.28665475  0.99033381  0.80734771  1
  Te  Te9  1  0.06238490  0.54213603  0.14102119  1
  Te  Te10  1  0.29799570  0.04824885  0.55751269  1
  Te  Te11  1  0.34320893  0.78728852  0.68212332  1
  Te  Te12  1  0.28750701  0.72831625  0.79819164  1
  Te  Te13  1  0.31008676  0.40353929  0.94847738  1
  Te  Te14  1  0.28837170  0.92103035  0.79899204  1
  O  O15  1  0.59640821  0.99431547  0.29175120  1
  O  O16  1  0.27051668  0.79355995  0.96848385  1
  O  O17  1  0.99228527  0.06074340  0.59996966  1
  O  O18  1  0.76490464  0.31980241  0.51926410  1
