# generated using pymatgen
data_Li2LuTi(CuP2)2
_symmetry_space_group_name_H-M   'P 1'
_cell_length_a   6.87036072
_cell_length_b   6.62347658
_cell_length_c   7.78716540
_cell_angle_alpha   94.22838951
_cell_angle_beta   94.45835080
_cell_angle_gamma   94.04937872
_symmetry_Int_Tables_number   1
_chemical_formula_structural   Li2LuTi(CuP2)2
_chemical_formula_sum   'Li2 Lu1 Ti1 Cu2 P4'
_cell_volume   351.28604554
_cell_formula_units_Z   1
loop_
 _symmetry_equiv_pos_site_id
 _symmetry_equiv_pos_as_xyz
  1  'x, y, z'
loop_
 _atom_site_type_symbol
 _atom_site_label
 _atom_site_symmetry_multiplicity
 _atom_site_fract_x
 _atom_site_fract_y
 _atom_site_fract_z
 _atom_site_occupancy
  P  P0  1  0.12500000  0.00000000  0.25000000  1
  P  P1  1  0.00000000  0.00000000  0.00000000  1
  P  P2  1  0.37500000  0.00000000  0.25000000  1
  P  P3  1  0.25000000  0.25000000  0.25000000  1
  Lu  Lu4  1  0.00000000  0.25000000  0.12500000  1
  Li  Li5  1  0.39666261  0.86620335  0.67189215  1
  Li  Li6  1  0.44733340  0.77530148  0.29282290  1
  Cu  Cu7  1  0.16034077  0.44001382  0.49648871  1
  Cu  Cu8  1  0.61593752  0.18535781  0.23961122  1
  Ti  Ti9  1  0.61169256  0.74808868  0.31945770  1
