# generated using pymatgen
data_Li2MnSb4P3N5
_symmetry_space_group_name_H-M   'P 1'
_cell_length_a   7.09705590
_cell_length_b   7.58595280
_cell_length_c   8.00584513
_cell_angle_alpha   92.02218497
_cell_angle_beta   92.39546494
_cell_angle_gamma   92.30149617
_symmetry_Int_Tables_number   1
_chemical_formula_structural   Li2MnSb4P3N5
_chemical_formula_sum   'Li2 Mn1 Sb4 P3 N5'
_cell_volume   429.99904209
_cell_formula_units_Z   1
loop_
 _symmetry_equiv_pos_site_id
 _symmetry_equiv_pos_as_xyz
  1  'x, y, z'
loop_
 _atom_site_type_symbol
 _atom_site_label
 _atom_site_symmetry_multiplicity
 _atom_site_fract_x
 _atom_site_fract_y
 _atom_site_fract_z
 _atom_site_occupancy
  N  N0  1  0.00000000  0.00000000  0.00000000  1
  N  N1  1  0.50000000  0.50000000  0.50000000  1
  N  N2  1  0.25000000  0.25000000  0.25000000  1
  N  N3  1  0.75000000  0.25000000  0.00000000  1
  N  N4  1  0.25000000  0.75000000  0.50000000  1
  Mn  Mn5  1  0.30268843  0.33866040  0.71965735  1
  Sb  Sb6  1  0.17539962  0.81591264  0.91787442  1
  Sb  Sb7  1  0.64286649  0.62755598  0.53501163  1
  Sb  Sb8  1  0.56723260  0.52324386  0.09537441  1
  Sb  Sb9  1  0.70483549  0.32622348  0.82675539  1
  P  P10  1  0.01422630  0.18422588  0.97676405  1
  P  P11  1  0.61445922  0.36168728  0.02043014  1
  P  P12  1  0.23738694  0.59454442  0.99615385  1
  Li  Li13  1  0.97765898  0.94334381  0.78400961  1
  Li  Li14  1  0.31194756  0.58911067  0.06825498  1
