# generated using pymatgen
data_Li2LuP4N5
_symmetry_space_group_name_H-M   'P 1'
_cell_length_a   7.06266771
_cell_length_b   7.01521680
_cell_length_c   8.02532099
_cell_angle_alpha   95.12578782
_cell_angle_beta   95.81920715
_cell_angle_gamma   95.05805929
_symmetry_Int_Tables_number   1
_chemical_formula_structural   Li2LuP4N5
_chemical_formula_sum   'Li2 Lu1 P4 N5'
_cell_volume   392.09159347
_cell_formula_units_Z   1
loop_
 _symmetry_equiv_pos_site_id
 _symmetry_equiv_pos_as_xyz
  1  'x, y, z'
loop_
 _atom_site_type_symbol
 _atom_site_label
 _atom_site_symmetry_multiplicity
 _atom_site_fract_x
 _atom_site_fract_y
 _atom_site_fract_z
 _atom_site_occupancy
  P  P0  1  0.00000000  0.00000000  0.00000000  1
  P  P1  1  0.50000000  0.50000000  0.50000000  1
  P  P2  1  0.50000000  0.50000000  0.00000000  1
  P  P3  1  0.50000000  0.00000000  0.50000000  1
  Lu  Lu4  1  0.00000000  0.50000000  0.50000000  1
  Li  Li5  1  0.10376053  0.76911858  0.49512548  1
  Li  Li6  1  0.57996303  0.44801823  0.94408070  1
  N  N7  1  0.95593402  0.08146937  0.76756915  1
  N  N8  1  0.17894655  0.71766508  0.14385117  1
  N  N9  1  0.94931806  0.28772406  0.28371743  1
  N  N10  1  0.56661351  0.00071863  0.66921337  1
  N  N11  1  0.02585657  0.39501243  0.86339196  1
