# generated using pymatgen
data_Li3(Te3O2)2
_symmetry_space_group_name_H-M   'P 1'
_cell_length_a   8.15344072
_cell_length_b   8.32652524
_cell_length_c   7.79348157
_cell_angle_alpha   90.77356318
_cell_angle_beta   90.59044008
_cell_angle_gamma   90.89604413
_symmetry_Int_Tables_number   1
_chemical_formula_structural   Li3(Te3O2)2
_chemical_formula_sum   'Li3 Te6 O4'
_cell_volume   528.95595795
_cell_formula_units_Z   1
loop_
 _symmetry_equiv_pos_site_id
 _symmetry_equiv_pos_as_xyz
  1  'x, y, z'
loop_
 _atom_site_type_symbol
 _atom_site_label
 _atom_site_symmetry_multiplicity
 _atom_site_fract_x
 _atom_site_fract_y
 _atom_site_fract_z
 _atom_site_occupancy
  Li  Li0  1  0.00000000  0.00000000  0.00000000  1
  Li  Li1  1  0.50000000  0.50000000  0.50000000  1
  Li  Li2  1  0.50000000  0.50000000  0.00000000  1
  Te  Te3  1  0.50000000  0.00000000  0.50000000  1
  Te  Te4  1  0.00000000  0.50000000  0.50000000  1
  Te  Te5  1  0.12433194  0.10186292  0.26933458  1
  Te  Te6  1  0.19879130  0.45391545  0.49299401  1
  Te  Te7  1  0.27543590  0.56653988  0.82778641  1
  Te  Te8  1  0.92392442  0.15325704  0.24636795  1
  O  O9  1  0.63230616  0.17804518  0.02024382  1
  O  O10  1  0.93911652  0.47681639  0.50694011  1
  O  O11  1  0.20361230  0.67833733  0.35917571  1
  O  O12  1  0.20706120  0.54413579  0.23442945  1
