# generated using pymatgen
data_Li3LuCu2As6N5
_symmetry_space_group_name_H-M   'P 1'
_cell_length_a   7.46827884
_cell_length_b   7.27028273
_cell_length_c   8.41091580
_cell_angle_alpha   92.77214295
_cell_angle_beta   92.34782657
_cell_angle_gamma   93.00324459
_symmetry_Int_Tables_number   1
_chemical_formula_structural   Li3LuCu2As6N5
_chemical_formula_sum   'Li3 Lu1 Cu2 As6 N5'
_cell_volume   455.08898339
_cell_formula_units_Z   1
loop_
 _symmetry_equiv_pos_site_id
 _symmetry_equiv_pos_as_xyz
  1  'x, y, z'
loop_
 _atom_site_type_symbol
 _atom_site_label
 _atom_site_symmetry_multiplicity
 _atom_site_fract_x
 _atom_site_fract_y
 _atom_site_fract_z
 _atom_site_occupancy
  Lu  Lu0  1  0.12500000  0.00000000  0.25000000  1
  Li  Li1  1  0.00000000  0.00000000  0.00000000  1
  Li  Li2  1  0.37500000  0.00000000  0.25000000  1
  Li  Li3  1  0.25000000  0.25000000  0.25000000  1
  Cu  Cu4  1  0.00000000  0.25000000  0.12500000  1
  Cu  Cu5  1  0.40814547  0.15436534  0.22095888  1
  As  As6  1  0.31964415  0.90201265  0.68178116  1
  As  As7  1  0.52867971  0.87885395  0.65846402  1
  As  As8  1  0.82463146  0.77304764  0.92259067  1
  As  As9  1  0.73235443  0.09759090  0.49745317  1
  As  As10  1  0.99395393  0.24633916  0.39101946  1
  As  As11  1  0.79094317  0.37827249  0.63182674  1
  N  N12  1  0.53955800  0.92557480  0.75213874  1
  N  N13  1  0.71407725  0.63672768  0.22346852  1
  N  N14  1  0.89000351  0.58828436  0.61808407  1
  N  N15  1  0.57054003  0.23014921  0.94889404  1
  N  N16  1  0.01205451  0.45011672  0.93481823  1
