# generated using pymatgen
data_LiNiI2O2F
_symmetry_space_group_name_H-M   'P 1'
_cell_length_a   7.24835866
_cell_length_b   7.16978303
_cell_length_c   8.08892766
_cell_angle_alpha   93.01517885
_cell_angle_beta   93.85174162
_cell_angle_gamma   93.64453483
_symmetry_Int_Tables_number   1
_chemical_formula_structural   LiNiI2O2F
_chemical_formula_sum   'Li2 Ni2 I4 O4 F2'
_cell_volume   417.89371451
_cell_formula_units_Z   2
loop_
 _symmetry_equiv_pos_site_id
 _symmetry_equiv_pos_as_xyz
  1  'x, y, z'
loop_
 _atom_site_type_symbol
 _atom_site_label
 _atom_site_symmetry_multiplicity
 _atom_site_fract_x
 _atom_site_fract_y
 _atom_site_fract_z
 _atom_site_occupancy
  I  I0  1  0.00000000  0.00000000  0.00000000  1
  I  I1  1  0.50000000  0.50000000  0.50000000  1
  I  I2  1  0.25000000  0.25000000  0.25000000  1
  I  I3  1  0.75000000  0.25000000  0.00000000  1
  Li  Li4  1  0.25000000  0.75000000  0.50000000  1
  Li  Li5  1  0.70946267  0.65748882  0.36603074  1
  F  F6  1  0.86018971  0.23443395  0.84241932  1
  F  F7  1  0.79738884  0.60446868  0.90950228  1
  Ni  Ni8  1  0.75528191  0.75334400  0.37234395  1
  Ni  Ni9  1  0.41150030  0.59977052  0.51826948  1
  O  O10  1  0.34968099  0.12216076  0.55024597  1
  O  O11  1  0.74185406  0.02593134  0.57898943  1
  O  O12  1  0.24294124  0.27172389  0.40208507  1
  O  O13  1  0.72611235  0.75213018  0.44180543  1
