# generated using pymatgen
data_Li3LuCu2(NiP2)2
_symmetry_space_group_name_H-M   'P 1'
_cell_length_a   7.54132301
_cell_length_b   7.31396420
_cell_length_c   8.03571032
_cell_angle_alpha   91.74478326
_cell_angle_beta   91.48073858
_cell_angle_gamma   92.02047890
_symmetry_Int_Tables_number   1
_chemical_formula_structural   Li3LuCu2(NiP2)2
_chemical_formula_sum   'Li3 Lu1 Cu2 Ni2 P4'
_cell_volume   442.58374482
_cell_formula_units_Z   1
loop_
 _symmetry_equiv_pos_site_id
 _symmetry_equiv_pos_as_xyz
  1  'x, y, z'
loop_
 _atom_site_type_symbol
 _atom_site_label
 _atom_site_symmetry_multiplicity
 _atom_site_fract_x
 _atom_site_fract_y
 _atom_site_fract_z
 _atom_site_occupancy
  P  P0  1  0.12500000  0.00000000  0.25000000  1
  P  P1  1  0.00000000  0.00000000  0.00000000  1
  P  P2  1  0.37500000  0.00000000  0.25000000  1
  P  P3  1  0.25000000  0.25000000  0.25000000  1
  Lu  Lu4  1  0.00000000  0.25000000  0.12500000  1
  Li  Li5  1  0.08917863  0.91265214  0.42131747  1
  Li  Li6  1  0.53735001  0.42346069  0.69078442  1
  Li  Li7  1  0.22857502  0.18880229  0.54908574  1
  Cu  Cu8  1  0.49457347  0.55814850  0.82285851  1
  Cu  Cu9  1  0.90540231  0.00649220  0.65941831  1
  Ni  Ni10  1  0.03259446  0.59004095  0.73291500  1
  Ni  Ni11  1  0.96700217  0.70161017  0.58495205  1
