# generated using pymatgen
data_Li3TiI4N5O4
_symmetry_space_group_name_H-M   'P 1'
_cell_length_a   8.52800628
_cell_length_b   8.34763016
_cell_length_c   7.65260009
_cell_angle_alpha   90.81102512
_cell_angle_beta   90.28673144
_cell_angle_gamma   90.94069096
_symmetry_Int_Tables_number   1
_chemical_formula_structural   Li3TiI4N5O4
_chemical_formula_sum   'Li3 Ti1 I4 N5 O4'
_cell_volume   544.64274771
_cell_formula_units_Z   1
loop_
 _symmetry_equiv_pos_site_id
 _symmetry_equiv_pos_as_xyz
  1  'x, y, z'
loop_
 _atom_site_type_symbol
 _atom_site_label
 _atom_site_symmetry_multiplicity
 _atom_site_fract_x
 _atom_site_fract_y
 _atom_site_fract_z
 _atom_site_occupancy
  I  I0  1  0.00000000  0.00000000  0.00000000  1
  I  I1  1  0.50000000  0.50000000  0.50000000  1
  I  I2  1  0.25000000  0.25000000  0.25000000  1
  I  I3  1  0.75000000  0.25000000  0.00000000  1
  Li  Li4  1  0.25000000  0.75000000  0.50000000  1
  Li  Li5  1  0.16615994  0.46902221  0.35755930  1
  Li  Li6  1  0.54079741  0.24657185  0.16473928  1
  Ti  Ti7  1  0.18747223  0.51207564  0.92744063  1
  O  O8  1  0.19372180  0.12452627  0.92200491  1
  O  O9  1  0.29103596  0.81573087  0.72124822  1
  O  O10  1  0.20062276  0.79543632  0.79326437  1
  O  O11  1  0.54266159  0.73545582  0.77984854  1
  N  N12  1  0.23546767  0.83522886  0.17446868  1
  N  N13  1  0.73582412  0.64842408  0.71322795  1
  N  N14  1  0.27811952  0.90258688  0.40730185  1
  N  N15  1  0.95452363  0.01991268  0.73078217  1
  N  N16  1  0.04467167  0.06565578  0.36651712  1
