# generated using pymatgen
data_Li2LuTiP4F3
_symmetry_space_group_name_H-M   'P 1'
_cell_length_a   7.49643743
_cell_length_b   7.43321842
_cell_length_c   7.61079728
_cell_angle_alpha   92.99067348
_cell_angle_beta   94.32588802
_cell_angle_gamma   92.89551381
_symmetry_Int_Tables_number   1
_chemical_formula_structural   Li2LuTiP4F3
_chemical_formula_sum   'Li2 Lu1 Ti1 P4 F3'
_cell_volume   421.67790407
_cell_formula_units_Z   1
loop_
 _symmetry_equiv_pos_site_id
 _symmetry_equiv_pos_as_xyz
  1  'x, y, z'
loop_
 _atom_site_type_symbol
 _atom_site_label
 _atom_site_symmetry_multiplicity
 _atom_site_fract_x
 _atom_site_fract_y
 _atom_site_fract_z
 _atom_site_occupancy
  F  F0  1  0.12500000  0.00000000  0.25000000  1
  F  F1  1  0.00000000  0.00000000  0.00000000  1
  F  F2  1  0.37500000  0.00000000  0.25000000  1
  Ti  Ti3  1  0.25000000  0.25000000  0.25000000  1
  P  P4  1  0.00000000  0.25000000  0.12500000  1
  P  P5  1  0.50447669  0.90162048  0.26392073  1
  P  P6  1  0.88269443  0.73647363  0.80089281  1
  P  P7  1  0.12151214  0.35452592  0.88287704  1
  Li  Li8  1  0.10270324  0.58771413  0.93951774  1
  Li  Li9  1  0.36976365  0.82270047  0.08503450  1
  Lu  Lu10  1  0.57171276  0.55044008  0.18458358  1
