# generated using pymatgen
data_Li2TiI4O3F2
_symmetry_space_group_name_H-M   'P 1'
_cell_length_a   7.95614855
_cell_length_b   7.89593422
_cell_length_c   7.17198215
_cell_angle_alpha   91.90399702
_cell_angle_beta   92.88763610
_cell_angle_gamma   92.33673701
_symmetry_Int_Tables_number   1
_chemical_formula_structural   Li2TiI4O3F2
_chemical_formula_sum   'Li2 Ti1 I4 O3 F2'
_cell_volume   449.32538500
_cell_formula_units_Z   1
loop_
 _symmetry_equiv_pos_site_id
 _symmetry_equiv_pos_as_xyz
  1  'x, y, z'
loop_
 _atom_site_type_symbol
 _atom_site_label
 _atom_site_symmetry_multiplicity
 _atom_site_fract_x
 _atom_site_fract_y
 _atom_site_fract_z
 _atom_site_occupancy
  I  I0  1  0.12500000  0.00000000  0.25000000  1
  I  I1  1  0.00000000  0.00000000  0.00000000  1
  I  I2  1  0.37500000  0.00000000  0.25000000  1
  I  I3  1  0.25000000  0.25000000  0.25000000  1
  Li  Li4  1  0.00000000  0.25000000  0.12500000  1
  Li  Li5  1  0.42153758  0.94812720  0.31586930  1
  F  F6  1  0.44437051  0.39823641  0.50415819  1
  F  F7  1  0.15130047  0.24658322  0.97108741  1
  Ti  Ti8  1  0.51086686  0.04317275  0.07956577  1
  O  O9  1  0.85190112  0.89358265  0.23849180  1
  O  O10  1  0.44905424  0.23136503  0.75749944  1
  O  O11  1  0.23652748  0.57643089  0.54947783  1
