# generated using pymatgen
data_Li2Cu2Ni2As6O7
_symmetry_space_group_name_H-M   'P 1'
_cell_length_a   7.90209026
_cell_length_b   7.74021877
_cell_length_c   8.26107959
_cell_angle_alpha   90.84957612
_cell_angle_beta   91.32340030
_cell_angle_gamma   90.98154667
_symmetry_Int_Tables_number   1
_chemical_formula_structural   Li2Cu2Ni2As6O7
_chemical_formula_sum   'Li2 Cu2 Ni2 As6 O7'
_cell_volume   505.01243111
_cell_formula_units_Z   1
loop_
 _symmetry_equiv_pos_site_id
 _symmetry_equiv_pos_as_xyz
  1  'x, y, z'
loop_
 _atom_site_type_symbol
 _atom_site_label
 _atom_site_symmetry_multiplicity
 _atom_site_fract_x
 _atom_site_fract_y
 _atom_site_fract_z
 _atom_site_occupancy
  Li  Li0  1  0.00000000  0.00000000  0.00000000  1
  Li  Li1  1  0.50000000  0.50000000  0.50000000  1
  Cu  Cu2  1  0.50000000  0.50000000  0.00000000  1
  Cu  Cu3  1  0.50000000  0.00000000  0.50000000  1
  Ni  Ni4  1  0.00000000  0.50000000  0.50000000  1
  Ni  Ni5  1  0.38007266  0.31757667  0.35985327  1
  As  As6  1  0.58832714  0.89797939  0.75352157  1
  As  As7  1  0.66860699  0.45695471  0.60408135  1
  As  As8  1  0.80470326  0.38203990  0.19325038  1
  As  As9  1  0.11472323  0.53200182  0.31813815  1
  As  As10  1  0.95195564  0.10377960  0.68005943  1
  As  As11  1  0.21757903  0.54732009  0.04809082  1
  O  O12  1  0.79071702  0.10966308  0.51389613  1
  O  O13  1  0.98623962  0.81172633  0.78606520  1
  O  O14  1  0.46875136  0.69190952  0.86184939  1
  O  O15  1  0.73651579  0.18766641  0.16429901  1
  O  O16  1  0.57231225  0.60540010  0.74414013  1
  O  O17  1  0.48251975  0.01135992  0.01677427  1
  O  O18  1  0.25744086  0.93806496  0.16065355  1
