# generated using pymatgen
data_LiMnSb2P
_symmetry_space_group_name_H-M   'P 1'
_cell_length_a   5.35186386
_cell_length_b   5.59927821
_cell_length_c   6.67647123
_cell_angle_alpha   98.81167465
_cell_angle_beta   98.76603677
_cell_angle_gamma   95.97634814
_symmetry_Int_Tables_number   1
_chemical_formula_structural   LiMnSb2P
_chemical_formula_sum   'Li2 Mn2 Sb4 P2'
_cell_volume   193.72883479
_cell_formula_units_Z   2
loop_
 _symmetry_equiv_pos_site_id
 _symmetry_equiv_pos_as_xyz
  1  'x, y, z'
loop_
 _atom_site_type_symbol
 _atom_site_label
 _atom_site_symmetry_multiplicity
 _atom_site_fract_x
 _atom_site_fract_y
 _atom_site_fract_z
 _atom_site_occupancy
  Mn  Mn0  1  0.00000000  0.00000000  0.00000000  1
  Mn  Mn1  1  0.50000000  0.50000000  0.50000000  1
  Sb  Sb2  1  0.25000000  0.25000000  0.25000000  1
  Sb  Sb3  1  0.75000000  0.25000000  0.00000000  1
  Sb  Sb4  1  0.25000000  0.75000000  0.50000000  1
  Sb  Sb5  1  0.10814512  0.38465410  0.98998863  1
  P  P6  1  0.06584403  0.57210496  0.27405977  1
  P  P7  1  0.64569796  0.12954450  0.01499425  1
  Li  Li8  1  0.85123608  0.70172203  0.34073510  1
  Li  Li9  1  0.01770175  0.92044522  0.92430400  1
