# generated using pymatgen
data_Li2As6O7
_symmetry_space_group_name_H-M   'P 1'
_cell_length_a   7.64972095
_cell_length_b   7.60770093
_cell_length_c   8.82672304
_cell_angle_alpha   91.21906573
_cell_angle_beta   91.48719574
_cell_angle_gamma   91.40998479
_symmetry_Int_Tables_number   1
_chemical_formula_structural   Li2As6O7
_chemical_formula_sum   'Li2 As6 O7'
_cell_volume   513.23498765
_cell_formula_units_Z   1
loop_
 _symmetry_equiv_pos_site_id
 _symmetry_equiv_pos_as_xyz
  1  'x, y, z'
loop_
 _atom_site_type_symbol
 _atom_site_label
 _atom_site_symmetry_multiplicity
 _atom_site_fract_x
 _atom_site_fract_y
 _atom_site_fract_z
 _atom_site_occupancy
  O  O0  1  0.12500000  0.12500000  0.12500000  1
  O  O1  1  0.50000000  0.50000000  0.50000000  1
  O  O2  1  0.25000000  0.25000000  0.25000000  1
  O  O3  1  0.75000000  0.75000000  0.75000000  1
  O  O4  1  0.26015388  0.79638910  0.82387434  1
  O  O5  1  0.10418124  0.32312085  0.21963817  1
  O  O6  1  0.62872163  0.18795748  0.52357180  1
  As  As7  1  0.86922919  0.95731023  0.69490848  1
  As  As8  1  0.11866231  0.84666872  0.57537330  1
  As  As9  1  0.52403671  0.52891077  0.21860582  1
  As  As10  1  0.13648072  0.15723733  0.03584354  1
  As  As11  1  0.18811489  0.44980623  0.23205279  1
  As  As12  1  0.72661935  0.34045184  0.99383025  1
  Li  Li13  1  0.89380697  0.07939993  0.45960068  1
  Li  Li14  1  0.76488934  0.70526979  0.94666706  1
