# generated using pymatgen
data_Li3LuNi2I4O5
_symmetry_space_group_name_H-M   'P 1'
_cell_length_a   7.27241046
_cell_length_b   7.07712050
_cell_length_c   8.20237205
_cell_angle_alpha   94.06122916
_cell_angle_beta   94.57827344
_cell_angle_gamma   94.07769944
_symmetry_Int_Tables_number   1
_chemical_formula_structural   Li3LuNi2I4O5
_chemical_formula_sum   'Li3 Lu1 Ni2 I4 O5'
_cell_volume   418.50097198
_cell_formula_units_Z   1
loop_
 _symmetry_equiv_pos_site_id
 _symmetry_equiv_pos_as_xyz
  1  'x, y, z'
loop_
 _atom_site_type_symbol
 _atom_site_label
 _atom_site_symmetry_multiplicity
 _atom_site_fract_x
 _atom_site_fract_y
 _atom_site_fract_z
 _atom_site_occupancy
  I  I0  1  0.12500000  0.00000000  0.25000000  1
  I  I1  1  0.00000000  0.00000000  0.00000000  1
  I  I2  1  0.37500000  0.00000000  0.25000000  1
  I  I3  1  0.25000000  0.25000000  0.25000000  1
  Lu  Lu4  1  0.00000000  0.25000000  0.12500000  1
  Li  Li5  1  0.72195984  0.83041168  0.97551708  1
  Li  Li6  1  0.04728053  0.85749674  0.65331569  1
  Li  Li7  1  0.67650412  0.07407091  0.63508066  1
  Ni  Ni8  1  0.09671980  0.85809792  0.48297815  1
  Ni  Ni9  1  0.17514679  0.05191910  0.98944049  1
  O  O10  1  0.67826340  0.55597501  0.07892303  1
  O  O11  1  0.21403737  0.39791666  0.10512904  1
  O  O12  1  0.87363025  0.88474667  0.10052521  1
  O  O13  1  0.60194945  0.05614535  0.91008706  1
  O  O14  1  0.43207379  0.11756263  0.94365852  1
