# generated using pymatgen
data_LiCu2As6S3O7
_symmetry_space_group_name_H-M   'P 1'
_cell_length_a   7.36597911
_cell_length_b   7.29619743
_cell_length_c   8.63028525
_cell_angle_alpha   91.39671629
_cell_angle_beta   92.41186611
_cell_angle_gamma   91.61278710
_symmetry_Int_Tables_number   1
_chemical_formula_structural   LiCu2As6S3O7
_chemical_formula_sum   'Li1 Cu2 As6 S3 O7'
_cell_volume   463.07674292
_cell_formula_units_Z   1
loop_
 _symmetry_equiv_pos_site_id
 _symmetry_equiv_pos_as_xyz
  1  'x, y, z'
loop_
 _atom_site_type_symbol
 _atom_site_label
 _atom_site_symmetry_multiplicity
 _atom_site_fract_x
 _atom_site_fract_y
 _atom_site_fract_z
 _atom_site_occupancy
  Li  Li0  1  0.00000000  0.00000000  0.00000000  1
  Cu  Cu1  1  0.50000000  0.50000000  0.50000000  1
  Cu  Cu2  1  0.50000000  0.50000000  0.00000000  1
  S  S3  1  0.50000000  0.00000000  0.50000000  1
  S  S4  1  0.00000000  0.50000000  0.50000000  1
  S  S5  1  0.12951377  0.73262379  0.84134139  1
  As  As6  1  0.79060440  0.30258889  0.34906014  1
  As  As7  1  0.18188101  0.38831515  0.19017817  1
  As  As8  1  0.27767379  0.87820576  0.87017204  1
  As  As9  1  0.10534093  0.28700605  0.29852889  1
  As  As10  1  0.95246792  0.70376840  0.19402226  1
  As  As11  1  0.75653987  0.23130477  0.43886220  1
  O  O12  1  0.67022298  0.12688324  0.69493956  1
  O  O13  1  0.66295058  0.60029188  0.10444002  1
  O  O14  1  0.14652393  0.62234588  0.27856034  1
  O  O15  1  0.45316477  0.21088938  0.77292182  1
  O  O16  1  0.42362499  0.12511273  0.78261873  1
  O  O17  1  0.02196893  0.63225746  0.11023544  1
  O  O18  1  0.22443189  0.01088670  0.23518932  1
