# generated using pymatgen
data_Li3TiP3SeI4
_symmetry_space_group_name_H-M   'P 1'
_cell_length_a   6.48396899
_cell_length_b   6.16650908
_cell_length_c   7.31112206
_cell_angle_alpha   97.21241576
_cell_angle_beta   98.27255607
_cell_angle_gamma   96.78230601
_symmetry_Int_Tables_number   1
_chemical_formula_structural   Li3TiP3SeI4
_chemical_formula_sum   'Li3 Ti1 P3 Se1 I4'
_cell_volume   284.21971759
_cell_formula_units_Z   1
loop_
 _symmetry_equiv_pos_site_id
 _symmetry_equiv_pos_as_xyz
  1  'x, y, z'
loop_
 _atom_site_type_symbol
 _atom_site_label
 _atom_site_symmetry_multiplicity
 _atom_site_fract_x
 _atom_site_fract_y
 _atom_site_fract_z
 _atom_site_occupancy
  P  P0  1  0.00000000  0.00000000  0.00000000  1
  P  P1  1  0.50000000  0.50000000  0.50000000  1
  P  P2  1  0.25000000  0.25000000  0.25000000  1
  I  I3  1  0.75000000  0.25000000  0.00000000  1
  I  I4  1  0.25000000  0.75000000  0.50000000  1
  I  I5  1  0.04113941  0.50485871  0.39794297  1
  I  I6  1  0.81031284  0.21071888  0.23874704  1
  Li  Li7  1  0.89894121  0.72089215  0.54584989  1
  Li  Li8  1  0.58025170  0.89795184  0.43237602  1
  Li  Li9  1  0.21733016  0.25167049  0.85873976  1
  Se  Se10  1  0.59609654  0.58988805  0.43000337  1
  Ti  Ti11  1  0.13522179  0.35571848  0.64922847  1
