# generated using pymatgen
data_Li2Mn2Sb4P3
_symmetry_space_group_name_H-M   'P 1'
_cell_length_a   6.45987812
_cell_length_b   7.02068709
_cell_length_c   7.35435345
_cell_angle_alpha   92.93833070
_cell_angle_beta   93.48072421
_cell_angle_gamma   93.34418313
_symmetry_Int_Tables_number   1
_chemical_formula_structural   Li2Mn2Sb4P3
_chemical_formula_sum   'Li2 Mn2 Sb4 P3'
_cell_volume   331.85514998
_cell_formula_units_Z   1
loop_
 _symmetry_equiv_pos_site_id
 _symmetry_equiv_pos_as_xyz
  1  'x, y, z'
loop_
 _atom_site_type_symbol
 _atom_site_label
 _atom_site_symmetry_multiplicity
 _atom_site_fract_x
 _atom_site_fract_y
 _atom_site_fract_z
 _atom_site_occupancy
  Mn  Mn0  1  0.12500000  0.12500000  0.12500000  1
  Mn  Mn1  1  0.50000000  0.50000000  0.50000000  1
  Sb  Sb2  1  0.25000000  0.25000000  0.25000000  1
  Sb  Sb3  1  0.75000000  0.75000000  0.75000000  1
  Sb  Sb4  1  0.71246047  0.76730886  0.19107481  1
  Sb  Sb5  1  0.86248082  0.86149811  0.60916754  1
  P  P6  1  0.75014605  0.00726601  0.72167258  1
  P  P7  1  0.17447738  0.06147964  0.39908681  1
  P  P8  1  0.93570520  0.90552202  0.67136967  1
  Li  Li9  1  0.20818232  0.36455915  0.18202108  1
  Li  Li10  1  0.51202418  0.80980371  0.71105039  1
