# generated using pymatgen
data_Li2LuCu2(As3P2)2
_symmetry_space_group_name_H-M   'P 1'
_cell_length_a   7.93318549
_cell_length_b   7.76484799
_cell_length_c   8.13345679
_cell_angle_alpha   91.10902017
_cell_angle_beta   91.11427055
_cell_angle_gamma   91.23742316
_symmetry_Int_Tables_number   1
_chemical_formula_structural   Li2LuCu2(As3P2)2
_chemical_formula_sum   'Li2 Lu1 Cu2 As6 P4'
_cell_volume   500.71119596
_cell_formula_units_Z   1
loop_
 _symmetry_equiv_pos_site_id
 _symmetry_equiv_pos_as_xyz
  1  'x, y, z'
loop_
 _atom_site_type_symbol
 _atom_site_label
 _atom_site_symmetry_multiplicity
 _atom_site_fract_x
 _atom_site_fract_y
 _atom_site_fract_z
 _atom_site_occupancy
  P  P0  1  0.12500000  0.00000000  0.25000000  1
  P  P1  1  0.00000000  0.00000000  0.00000000  1
  P  P2  1  0.37500000  0.00000000  0.25000000  1
  P  P3  1  0.25000000  0.25000000  0.25000000  1
  Lu  Lu4  1  0.00000000  0.25000000  0.12500000  1
  Li  Li5  1  0.52869695  0.26477044  0.68455660  1
  Li  Li6  1  0.56619316  0.73869962  0.31343286  1
  Cu  Cu7  1  0.13019478  0.94022405  0.58866985  1
  Cu  Cu8  1  0.82744481  0.24655259  0.57597977  1
  As  As9  1  0.03902707  0.67254299  0.53332919  1
  As  As10  1  0.15323098  0.38536571  0.91899808  1
  As  As11  1  0.02440996  0.49361703  0.35818105  1
  As  As12  1  0.85889084  0.52901013  0.48042582  1
  As  As13  1  0.30306295  0.48245609  0.38712920  1
  As  As14  1  0.10339575  0.97225159  0.24179815  1
