# generated using pymatgen
data_Li3TiI4O3
_symmetry_space_group_name_H-M   'P 1'
_cell_length_a   7.94676427
_cell_length_b   7.78695991
_cell_length_c   7.21734099
_cell_angle_alpha   93.09000647
_cell_angle_beta   94.10048993
_cell_angle_gamma   92.90492798
_symmetry_Int_Tables_number   1
_chemical_formula_structural   Li3TiI4O3
_chemical_formula_sum   'Li3 Ti1 I4 O3'
_cell_volume   444.15903815
_cell_formula_units_Z   1
loop_
 _symmetry_equiv_pos_site_id
 _symmetry_equiv_pos_as_xyz
  1  'x, y, z'
loop_
 _atom_site_type_symbol
 _atom_site_label
 _atom_site_symmetry_multiplicity
 _atom_site_fract_x
 _atom_site_fract_y
 _atom_site_fract_z
 _atom_site_occupancy
  I  I0  1  0.00000000  0.00000000  0.00000000  1
  I  I1  1  0.50000000  0.50000000  0.50000000  1
  I  I2  1  0.25000000  0.25000000  0.25000000  1
  I  I3  1  0.75000000  0.25000000  0.00000000  1
  Li  Li4  1  0.25000000  0.75000000  0.50000000  1
  Li  Li5  1  0.07191056  0.64503665  0.35730036  1
  Li  Li6  1  0.90913274  0.12287044  0.41561936  1
  Ti  Ti7  1  0.59852763  0.07784694  0.60192181  1
  O  O8  1  0.67513602  0.62900026  0.78380256  1
  O  O9  1  0.27565100  0.38840434  0.88419984  1
  O  O10  1  0.41093031  0.90990884  0.12863897  1
