# generated using pymatgen
data_Li2TiCu2As6N5
_symmetry_space_group_name_H-M   'P 1'
_cell_length_a   7.89000384
_cell_length_b   7.79242221
_cell_length_c   8.20460525
_cell_angle_alpha   91.36150955
_cell_angle_beta   91.23174478
_cell_angle_gamma   91.57635587
_symmetry_Int_Tables_number   1
_chemical_formula_structural   Li2TiCu2As6N5
_chemical_formula_sum   'Li2 Ti1 Cu2 As6 N5'
_cell_volume   503.98041444
_cell_formula_units_Z   1
loop_
 _symmetry_equiv_pos_site_id
 _symmetry_equiv_pos_as_xyz
  1  'x, y, z'
loop_
 _atom_site_type_symbol
 _atom_site_label
 _atom_site_symmetry_multiplicity
 _atom_site_fract_x
 _atom_site_fract_y
 _atom_site_fract_z
 _atom_site_occupancy
  Ti  Ti0  1  0.12500000  0.00000000  0.25000000  1
  As  As1  1  0.00000000  0.00000000  0.00000000  1
  As  As2  1  0.37500000  0.00000000  0.25000000  1
  As  As3  1  0.25000000  0.25000000  0.25000000  1
  As  As4  1  0.00000000  0.25000000  0.12500000  1
  As  As5  1  0.69818156  0.16030509  0.56176791  1
  As  As6  1  0.79254539  0.43789161  0.34023574  1
  Li  Li7  1  0.07921783  0.33047291  0.91821800  1
  Li  Li8  1  0.23721797  0.84165727  0.71844827  1
  N  N9  1  0.79226966  0.56935456  0.66068882  1
  N  N10  1  0.72577531  0.77767630  0.07658494  1
  N  N11  1  0.51679038  0.76828948  0.30133477  1
  N  N12  1  0.36218968  0.90200331  0.18926507  1
  N  N13  1  0.51696861  0.77263938  0.14317211  1
  Cu  Cu14  1  0.10270846  0.67439325  0.10033698  1
  Cu  Cu15  1  0.26900391  0.12821540  0.50646469  1
