# generated using pymatgen
data_Li(As2S)3
_symmetry_space_group_name_H-M   'P 1'
_cell_length_a   7.36730522
_cell_length_b   7.29716208
_cell_length_c   8.63172927
_cell_angle_alpha   91.39752454
_cell_angle_beta   92.40708889
_cell_angle_gamma   91.61374366
_symmetry_Int_Tables_number   1
_chemical_formula_structural   Li(As2S)3
_chemical_formula_sum   'Li1 As6 S3'
_cell_volume   463.30011390
_cell_formula_units_Z   1
loop_
 _symmetry_equiv_pos_site_id
 _symmetry_equiv_pos_as_xyz
  1  'x, y, z'
loop_
 _atom_site_type_symbol
 _atom_site_label
 _atom_site_symmetry_multiplicity
 _atom_site_fract_x
 _atom_site_fract_y
 _atom_site_fract_z
 _atom_site_occupancy
  Li  Li0  1  0.00000000  0.00000000  0.00000000  1
  S  S1  1  0.50000000  0.50000000  0.50000000  1
  S  S2  1  0.50000000  0.50000000  0.00000000  1
  S  S3  1  0.50000000  0.00000000  0.50000000  1
  As  As4  1  0.00000000  0.50000000  0.50000000  1
  As  As5  1  0.75276805  0.17478716  0.54282988  1
  As  As6  1  0.72327181  0.90415512  0.58901911  1
  As  As7  1  0.31912158  0.21505698  0.16638232  1
  As  As8  1  0.27240289  0.10992385  0.17083429  1
  As  As9  1  0.25226024  0.51996156  0.32179429  1
