# generated using pymatgen
data_Li2TiCu2P5O2
_symmetry_space_group_name_H-M   'P 1'
_cell_length_a   8.37204814
_cell_length_b   8.20592053
_cell_length_c   7.45396362
_cell_angle_alpha   90.15415263
_cell_angle_beta   90.73341140
_cell_angle_gamma   90.17623762
_symmetry_Int_Tables_number   1
_chemical_formula_structural   Li2TiCu2P5O2
_chemical_formula_sum   'Li2 Ti1 Cu2 P5 O2'
_cell_volume   512.04371370
_cell_formula_units_Z   1
loop_
 _symmetry_equiv_pos_site_id
 _symmetry_equiv_pos_as_xyz
  1  'x, y, z'
loop_
 _atom_site_type_symbol
 _atom_site_label
 _atom_site_symmetry_multiplicity
 _atom_site_fract_x
 _atom_site_fract_y
 _atom_site_fract_z
 _atom_site_occupancy
  P  P0  1  0.00000000  0.00000000  0.00000000  1
  P  P1  1  0.50000000  0.50000000  0.50000000  1
  P  P2  1  0.50000000  0.50000000  0.00000000  1
  P  P3  1  0.50000000  0.00000000  0.50000000  1
  P  P4  1  0.00000000  0.50000000  0.50000000  1
  Li  Li5  1  0.57909488  0.90239042  0.43783129  1
  Li  Li6  1  0.70351918  0.54287683  0.73239026  1
  Cu  Cu7  1  0.11778040  0.06685511  0.93133786  1
  Cu  Cu8  1  0.30875039  0.93997263  0.28182935  1
  Ti  Ti9  1  0.30564269  0.12372773  0.93356658  1
  O  O10  1  0.33646228  0.29197711  0.67702690  1
  O  O11  1  0.03061465  0.77361851  0.17621419  1
