# generated using pymatgen
data_Li2Lu(NiAs3)2
_symmetry_space_group_name_H-M   'P 1'
_cell_length_a   7.54959775
_cell_length_b   7.54496077
_cell_length_c   8.44343183
_cell_angle_alpha   91.08791172
_cell_angle_beta   91.79958299
_cell_angle_gamma   91.25650884
_symmetry_Int_Tables_number   1
_chemical_formula_structural   Li2Lu(NiAs3)2
_chemical_formula_sum   'Li2 Lu1 Ni2 As6'
_cell_volume   480.50388801
_cell_formula_units_Z   1
loop_
 _symmetry_equiv_pos_site_id
 _symmetry_equiv_pos_as_xyz
  1  'x, y, z'
loop_
 _atom_site_type_symbol
 _atom_site_label
 _atom_site_symmetry_multiplicity
 _atom_site_fract_x
 _atom_site_fract_y
 _atom_site_fract_z
 _atom_site_occupancy
  Ni  Ni0  1  0.00000000  0.00000000  0.00000000  1
  Ni  Ni1  1  0.50000000  0.50000000  0.50000000  1
  Lu  Lu2  1  0.50000000  0.50000000  0.00000000  1
  As  As3  1  0.50000000  0.00000000  0.50000000  1
  As  As4  1  0.00000000  0.50000000  0.50000000  1
  As  As5  1  0.74156468  0.66778383  0.63006349  1
  As  As6  1  0.46227973  0.35436608  0.14258140  1
  As  As7  1  0.53563977  0.46423657  0.51894510  1
  As  As8  1  0.48854160  0.85963999  0.71347816  1
  Li  Li9  1  0.69257645  0.17000729  0.88384417  1
  Li  Li10  1  0.35667370  0.77474810  0.08715886  1
