# generated using pymatgen
data_Li3TiNi2I4N5
_symmetry_space_group_name_H-M   'P 1'
_cell_length_a   8.41369741
_cell_length_b   8.22353926
_cell_length_c   8.03422031
_cell_angle_alpha   90.89774559
_cell_angle_beta   90.31739076
_cell_angle_gamma   91.04127621
_symmetry_Int_Tables_number   1
_chemical_formula_structural   Li3TiNi2I4N5
_chemical_formula_sum   'Li3 Ti1 Ni2 I4 N5'
_cell_volume   555.72122986
_cell_formula_units_Z   1
loop_
 _symmetry_equiv_pos_site_id
 _symmetry_equiv_pos_as_xyz
  1  'x, y, z'
loop_
 _atom_site_type_symbol
 _atom_site_label
 _atom_site_symmetry_multiplicity
 _atom_site_fract_x
 _atom_site_fract_y
 _atom_site_fract_z
 _atom_site_occupancy
  I  I0  1  0.00000000  0.00000000  0.00000000  1
  I  I1  1  0.50000000  0.50000000  0.50000000  1
  I  I2  1  0.50000000  0.50000000  0.00000000  1
  I  I3  1  0.50000000  0.00000000  0.50000000  1
  Li  Li4  1  0.00000000  0.50000000  0.50000000  1
  Li  Li5  1  0.76909655  0.67261015  0.99181793  1
  Li  Li6  1  0.55345991  0.99740095  0.70673654  1
  Ni  Ni7  1  0.33442333  0.41068017  0.93176222  1
  Ni  Ni8  1  0.90998587  0.79800953  0.23642162  1
  Ti  Ti9  1  0.84299501  0.03612274  0.72163535  1
  N  N10  1  0.57882428  0.88517656  0.23620620  1
  N  N11  1  0.26769266  0.43174038  0.03481219  1
  N  N12  1  0.19636809  0.86446454  0.86871347  1
  N  N13  1  0.12376168  0.87827885  0.33746732  1
  N  N14  1  0.18345312  0.71493487  0.28154172  1
