# generated using pymatgen
data_Li3LuNi2(As3I2)2
_symmetry_space_group_name_H-M   'P 1'
_cell_length_a   8.11725441
_cell_length_b   7.94570059
_cell_length_c   7.96531630
_cell_angle_alpha   91.03165179
_cell_angle_beta   90.78743221
_cell_angle_gamma   91.19499681
_symmetry_Int_Tables_number   1
_chemical_formula_structural   Li3LuNi2(As3I2)2
_chemical_formula_sum   'Li3 Lu1 Ni2 As6 I4'
_cell_volume   513.49496489
_cell_formula_units_Z   1
loop_
 _symmetry_equiv_pos_site_id
 _symmetry_equiv_pos_as_xyz
  1  'x, y, z'
loop_
 _atom_site_type_symbol
 _atom_site_label
 _atom_site_symmetry_multiplicity
 _atom_site_fract_x
 _atom_site_fract_y
 _atom_site_fract_z
 _atom_site_occupancy
  I  I0  1  0.00000000  0.00000000  0.00000000  1
  I  I1  1  0.50000000  0.50000000  0.50000000  1
  I  I2  1  0.50000000  0.50000000  0.00000000  1
  I  I3  1  0.50000000  0.00000000  0.50000000  1
  Lu  Lu4  1  0.00000000  0.50000000  0.50000000  1
  Li  Li5  1  0.35271779  0.10068477  0.71543137  1
  Li  Li6  1  0.53782211  0.59836455  0.11379558  1
  Li  Li7  1  0.45112694  0.56715692  0.20502966  1
  Ni  Ni8  1  0.99193271  0.88225161  0.95747057  1
  Ni  Ni9  1  0.83626065  0.36911443  0.45720694  1
  As  As10  1  0.15897121  0.65310841  0.94153802  1
  As  As11  1  0.69283353  0.57162058  0.72480388  1
  As  As12  1  0.65059372  0.29507779  0.34753785  1
  As  As13  1  0.17821158  0.98839658  0.11161616  1
  As  As14  1  0.67571783  0.78547051  0.40361703  1
  As  As15  1  0.64610113  0.64904549  0.11168998  1
