# generated using pymatgen
data_Li3TiI4
_symmetry_space_group_name_H-M   'P 1'
_cell_length_a   8.50745824
_cell_length_b   8.32327184
_cell_length_c   7.67400987
_cell_angle_alpha   90.86247156
_cell_angle_beta   90.30491991
_cell_angle_gamma   91.00036260
_symmetry_Int_Tables_number   1
_chemical_formula_structural   Li3TiI4
_chemical_formula_sum   'Li3 Ti1 I4'
_cell_volume   543.24292417
_cell_formula_units_Z   1
loop_
 _symmetry_equiv_pos_site_id
 _symmetry_equiv_pos_as_xyz
  1  'x, y, z'
loop_
 _atom_site_type_symbol
 _atom_site_label
 _atom_site_symmetry_multiplicity
 _atom_site_fract_x
 _atom_site_fract_y
 _atom_site_fract_z
 _atom_site_occupancy
  I  I0  1  0.12500000  0.12500000  0.12500000  1
  I  I1  1  0.50000000  0.50000000  0.50000000  1
  I  I2  1  0.25000000  0.25000000  0.25000000  1
  I  I3  1  0.75000000  0.75000000  0.75000000  1
  Li  Li4  1  0.81095000  0.62671446  0.03419780  1
  Li  Li5  1  0.39486736  0.46641436  0.09494207  1
  Li  Li6  1  0.13270019  0.04367390  0.21286430  1
  Ti  Ti7  1  0.43944168  0.37973440  0.71346075  1
