# generated using pymatgen
data_LiTi2P5F2
_symmetry_space_group_name_H-M   'P 1'
_cell_length_a   6.39617788
_cell_length_b   6.17677074
_cell_length_c   7.27343289
_cell_angle_alpha   92.13950579
_cell_angle_beta   96.06147009
_cell_angle_gamma   92.17202252
_symmetry_Int_Tables_number   1
_chemical_formula_structural   LiTi2P5F2
_chemical_formula_sum   'Li1 Ti2 P5 F2'
_cell_volume   285.29777367
_cell_formula_units_Z   1
loop_
 _symmetry_equiv_pos_site_id
 _symmetry_equiv_pos_as_xyz
  1  'x, y, z'
loop_
 _atom_site_type_symbol
 _atom_site_label
 _atom_site_symmetry_multiplicity
 _atom_site_fract_x
 _atom_site_fract_y
 _atom_site_fract_z
 _atom_site_occupancy
  P  P0  1  0.00000000  0.00000000  0.00000000  1
  P  P1  1  0.33300000  0.66700000  0.25000000  1
  P  P2  1  0.66700000  0.33300000  0.50000000  1
  P  P3  1  0.00000000  0.00000000  0.75000000  1
  P  P4  1  0.36274167  0.27040408  0.43733625  1
  Li  Li5  1  0.14461183  0.57536414  0.75498540  1
  F  F6  1  0.39216178  0.84778853  0.26194833  1
  F  F7  1  0.00278060  0.95896480  0.37603980  1
  Ti  Ti8  1  0.14977720  0.94549771  0.71566326  1
  Ti  Ti9  1  0.38097503  0.06247074  0.62889344  1
