# generated using pymatgen
data_Li3LuP5
_symmetry_space_group_name_H-M   'P 1'
_cell_length_a   6.70449566
_cell_length_b   6.44627096
_cell_length_c   8.03182348
_cell_angle_alpha   97.15816837
_cell_angle_beta   98.17176915
_cell_angle_gamma   97.01459593
_symmetry_Int_Tables_number   1
_chemical_formula_structural   Li3LuP5
_chemical_formula_sum   'Li3 Lu1 P5'
_cell_volume   337.45145299
_cell_formula_units_Z   1
loop_
 _symmetry_equiv_pos_site_id
 _symmetry_equiv_pos_as_xyz
  1  'x, y, z'
loop_
 _atom_site_type_symbol
 _atom_site_label
 _atom_site_symmetry_multiplicity
 _atom_site_fract_x
 _atom_site_fract_y
 _atom_site_fract_z
 _atom_site_occupancy
  P  P0  1  0.00000000  0.00000000  0.00000000  1
  P  P1  1  0.50000000  0.50000000  0.50000000  1
  P  P2  1  0.25000000  0.25000000  0.25000000  1
  P  P3  1  0.75000000  0.25000000  0.00000000  1
  P  P4  1  0.25000000  0.75000000  0.50000000  1
  Lu  Lu5  1  0.81715648  0.95919240  0.76396538  1
  Li  Li6  1  0.39695065  0.65384655  0.80947490  1
  Li  Li7  1  0.26130681  0.06139040  0.33133959  1
  Li  Li8  1  0.29480968  0.52814758  0.28250554  1
