# generated using pymatgen
data_LiCu2P8S3Cl2
_symmetry_space_group_name_H-M   'P 1'
_cell_length_a   5.85228344
_cell_length_b   5.64129152
_cell_length_c   7.53168533
_cell_angle_alpha   99.65393369
_cell_angle_beta   103.60318023
_cell_angle_gamma   99.15593481
_symmetry_Int_Tables_number   1
_chemical_formula_structural   LiCu2P8S3Cl2
_chemical_formula_sum   'Li1 Cu2 P8 S3 Cl2'
_cell_volume   233.08460610
_cell_formula_units_Z   1
loop_
 _symmetry_equiv_pos_site_id
 _symmetry_equiv_pos_as_xyz
  1  'x, y, z'
loop_
 _atom_site_type_symbol
 _atom_site_label
 _atom_site_symmetry_multiplicity
 _atom_site_fract_x
 _atom_site_fract_y
 _atom_site_fract_z
 _atom_site_occupancy
  Cl  Cl0  1  0.00000000  0.00000000  0.00000000  1
  Cl  Cl1  1  0.50000000  0.50000000  0.50000000  1
  S  S2  1  0.25000000  0.25000000  0.25000000  1
  S  S3  1  0.75000000  0.25000000  0.00000000  1
  S  S4  1  0.25000000  0.75000000  0.50000000  1
  P  P5  1  0.92862828  0.51384231  0.85031096  1
  P  P6  1  0.28816581  0.01424907  0.20585017  1
  P  P7  1  0.80999507  0.21043741  0.93709962  1
  P  P8  1  0.26402505  0.45631381  0.38474357  1
  P  P9  1  0.05803967  0.78001796  0.61687654  1
  P  P10  1  0.08463320  0.04698374  0.03746007  1
  P  P11  1  0.13009884  0.97688914  0.25394276  1
  P  P12  1  0.86773295  0.71133044  0.71282121  1
  Li  Li13  1  0.51225073  0.94932435  0.20804372  1
  Cu  Cu14  1  0.72197281  0.13770828  0.83169386  1
  Cu  Cu15  1  0.87005618  0.68172502  0.68117761  1
