# generated using pymatgen
data_Li3TiI4N5
_symmetry_space_group_name_H-M   'P 1'
_cell_length_a   8.11721607
_cell_length_b   7.86066603
_cell_length_c   8.08061798
_cell_angle_alpha   91.83952674
_cell_angle_beta   90.65034995
_cell_angle_gamma   92.13362833
_symmetry_Int_Tables_number   1
_chemical_formula_structural   Li3TiI4N5
_chemical_formula_sum   'Li3 Ti1 I4 N5'
_cell_volume   514.93415579
_cell_formula_units_Z   1
loop_
 _symmetry_equiv_pos_site_id
 _symmetry_equiv_pos_as_xyz
  1  'x, y, z'
loop_
 _atom_site_type_symbol
 _atom_site_label
 _atom_site_symmetry_multiplicity
 _atom_site_fract_x
 _atom_site_fract_y
 _atom_site_fract_z
 _atom_site_occupancy
  I  I0  1  0.00000000  0.00000000  0.00000000  1
  I  I1  1  0.50000000  0.50000000  0.50000000  1
  I  I2  1  0.50000000  0.50000000  0.00000000  1
  I  I3  1  0.50000000  0.00000000  0.50000000  1
  Li  Li4  1  0.00000000  0.50000000  0.50000000  1
  Li  Li5  1  0.02236302  0.81431959  0.89719965  1
  Li  Li6  1  0.90801812  0.71715829  0.18545609  1
  Ti  Ti7  1  0.83376374  0.32452031  0.56137283  1
  N  N8  1  0.90930051  0.57214625  0.18229515  1
  N  N9  1  0.28083331  0.82715934  0.41620513  1
  N  N10  1  0.48084824  0.31752968  0.98570074  1
  N  N11  1  0.50017391  0.21561093  0.24976856  1
  N  N12  1  0.44028573  0.18645852  0.71990446  1
