# generated using pymatgen
data_Li3Zn2Te6(IO)4
_symmetry_space_group_name_H-M   'P 1'
_cell_length_a   8.78173134
_cell_length_b   8.86751020
_cell_length_c   7.21800033
_cell_angle_alpha   90.00000000
_cell_angle_beta   90.00000000
_cell_angle_gamma   90.00000000
_symmetry_Int_Tables_number   1
_chemical_formula_structural   Li3Zn2Te6(IO)4
_chemical_formula_sum   'Li3 Zn2 Te6 I4 O4'
_cell_volume   562.08078696
_cell_formula_units_Z   1
loop_
 _symmetry_equiv_pos_site_id
 _symmetry_equiv_pos_as_xyz
  1  'x, y, z'
loop_
 _atom_site_type_symbol
 _atom_site_label
 _atom_site_symmetry_multiplicity
 _atom_site_fract_x
 _atom_site_fract_y
 _atom_site_fract_z
 _atom_site_occupancy
  I  I0  1  0.00000000  0.00000000  0.00000000  1
  I  I1  1  0.50000000  0.50000000  0.50000000  1
  I  I2  1  0.50000000  0.50000000  0.00000000  1
  I  I3  1  0.50000000  0.00000000  0.50000000  1
  Li  Li4  1  0.00000000  0.50000000  0.50000000  1
  Li  Li5  1  0.85283523  0.98647686  0.53672664  1
  Li  Li6  1  0.46846010  0.41657220  0.63350777  1
  Zn  Zn7  1  0.00217540  0.25014998  0.19992152  1
  Zn  Zn8  1  0.95058216  0.71657965  0.78053422  1
  Te  Te9  1  0.57567533  0.50467084  0.54291482  1
  Te  Te10  1  0.08936559  0.60122436  0.85640581  1
  Te  Te11  1  0.02625089  0.56449704  0.93059886  1
  Te  Te12  1  0.46356675  0.99681856  0.51188597  1
  Te  Te13  1  0.07558532  0.48344036  0.32739510  1
  Te  Te14  1  0.75889295  0.13746762  0.19635717  1
  O  O15  1  0.75620734  0.96173709  0.99725517  1
  O  O16  1  0.93106406  0.04784161  0.83007141  1
  O  O17  1  0.50645385  0.83815797  0.54934094  1
  O  O18  1  0.39328418  0.91611625  0.50855989  1
