# generated using pymatgen
data_LiSb2Mo2P3
_symmetry_space_group_name_H-M   'P 1'
_cell_length_a   4.73788762
_cell_length_b   4.88285413
_cell_length_c   5.72263662
_cell_angle_alpha   95.32317331
_cell_angle_beta   91.08851575
_cell_angle_gamma   95.63359099
_symmetry_Int_Tables_number   1
_chemical_formula_structural   LiSb2Mo2P3
_chemical_formula_sum   'Li1 Sb2 Mo2 P3'
_cell_volume   131.12942344
_cell_formula_units_Z   1
loop_
 _symmetry_equiv_pos_site_id
 _symmetry_equiv_pos_as_xyz
  1  'x, y, z'
loop_
 _atom_site_type_symbol
 _atom_site_label
 _atom_site_symmetry_multiplicity
 _atom_site_fract_x
 _atom_site_fract_y
 _atom_site_fract_z
 _atom_site_occupancy
  Sb  Sb0  1  0.12500000  0.00000000  0.25000000  1
  Sb  Sb1  1  0.00000000  0.00000000  0.00000000  1
  P  P2  1  0.37500000  0.00000000  0.25000000  1
  P  P3  1  0.25000000  0.25000000  0.25000000  1
  P  P4  1  0.00000000  0.25000000  0.12500000  1
  Mo  Mo5  1  0.73691458  0.86524807  0.69603236  1
  Mo  Mo6  1  0.09377913  0.77889807  0.94855052  1
  Li  Li7  1  0.82925868  0.48488912  0.83860607  1
