# generated using pymatgen
data_Li3TiI4(ClO2)2
_symmetry_space_group_name_H-M   'P 1'
_cell_length_a   6.42724580
_cell_length_b   6.11583652
_cell_length_c   7.27563763
_cell_angle_alpha   100.19620030
_cell_angle_beta   103.01820596
_cell_angle_gamma   99.59172758
_symmetry_Int_Tables_number   1
_chemical_formula_structural   Li3TiI4(ClO2)2
_chemical_formula_sum   'Li3 Ti1 I4 Cl2 O4'
_cell_volume   267.80528146
_cell_formula_units_Z   1
loop_
 _symmetry_equiv_pos_site_id
 _symmetry_equiv_pos_as_xyz
  1  'x, y, z'
loop_
 _atom_site_type_symbol
 _atom_site_label
 _atom_site_symmetry_multiplicity
 _atom_site_fract_x
 _atom_site_fract_y
 _atom_site_fract_z
 _atom_site_occupancy
  Cl  Cl0  1  0.00000000  0.00000000  0.00000000  1
  Cl  Cl1  1  0.50000000  0.50000000  0.50000000  1
  Li  Li2  1  0.50000000  0.50000000  0.00000000  1
  Li  Li3  1  0.50000000  0.00000000  0.50000000  1
  Li  Li4  1  0.00000000  0.50000000  0.50000000  1
  Ti  Ti5  1  0.77979716  0.65370073  0.59143799  1
  I  I6  1  0.75092605  0.25401350  0.01377893  1
  I  I7  1  0.06324240  0.31693350  0.57516448  1
  I  I8  1  0.38783071  0.88786016  0.83297654  1
  I  I9  1  0.40558460  0.80977807  0.47310399  1
  O  O10  1  0.56224585  0.31544173  0.81783302  1
  O  O11  1  0.52768283  0.77215829  0.22877064  1
  O  O12  1  0.49195986  0.87098682  0.46028031  1
  O  O13  1  0.90688345  0.57924288  0.82342815  1
