# generated using pymatgen
data_Li2LuCu2(As3P2)2
_symmetry_space_group_name_H-M   'P 1'
_cell_length_a   7.27933761
_cell_length_b   7.43167488
_cell_length_c   8.22499070
_cell_angle_alpha   92.28335153
_cell_angle_beta   94.00957667
_cell_angle_gamma   92.24807102
_symmetry_Int_Tables_number   1
_chemical_formula_structural   Li2LuCu2(As3P2)2
_chemical_formula_sum   'Li2 Lu1 Cu2 As6 P4'
_cell_volume   443.11721376
_cell_formula_units_Z   1
loop_
 _symmetry_equiv_pos_site_id
 _symmetry_equiv_pos_as_xyz
  1  'x, y, z'
loop_
 _atom_site_type_symbol
 _atom_site_label
 _atom_site_symmetry_multiplicity
 _atom_site_fract_x
 _atom_site_fract_y
 _atom_site_fract_z
 _atom_site_occupancy
  P  P0  1  0.00000000  0.00000000  0.00000000  1
  P  P1  1  0.50000000  0.50000000  0.50000000  1
  P  P2  1  0.25000000  0.25000000  0.25000000  1
  P  P3  1  0.75000000  0.25000000  0.00000000  1
  Lu  Lu4  1  0.25000000  0.75000000  0.50000000  1
  As  As5  1  0.98891610  0.06186945  0.88965792  1
  As  As6  1  0.76611828  0.30953211  0.44053442  1
  As  As7  1  0.01716173  0.95941460  0.76740063  1
  As  As8  1  0.29711632  0.75556678  0.85714961  1
  As  As9  1  0.73610384  0.53780200  0.72261239  1
  As  As10  1  0.20686149  0.09093299  0.06574733  1
  Li  Li11  1  0.35957992  0.10782186  0.05132986  1
  Li  Li12  1  0.95032618  0.27209983  0.60935622  1
  Cu  Cu13  1  0.74054497  0.82179888  0.48781627  1
  Cu  Cu14  1  0.18527382  0.18978236  0.90410987  1
