# generated using pymatgen
data_LiTi(CuO)2
_symmetry_space_group_name_H-M   'P 1'
_cell_length_a   6.27906273
_cell_length_b   6.40580291
_cell_length_c   7.40123606
_cell_angle_alpha   94.13187040
_cell_angle_beta   97.54395545
_cell_angle_gamma   95.03784690
_symmetry_Int_Tables_number   1
_chemical_formula_structural   LiTi(CuO)2
_chemical_formula_sum   'Li1 Ti1 Cu2 O2'
_cell_volume   292.92410477
_cell_formula_units_Z   1
loop_
 _symmetry_equiv_pos_site_id
 _symmetry_equiv_pos_as_xyz
  1  'x, y, z'
loop_
 _atom_site_type_symbol
 _atom_site_label
 _atom_site_symmetry_multiplicity
 _atom_site_fract_x
 _atom_site_fract_y
 _atom_site_fract_z
 _atom_site_occupancy
  Li  Li0  1  0.12500000  0.12500000  0.12500000  1
  Cu  Cu1  1  0.50000000  0.50000000  0.50000000  1
  Cu  Cu2  1  0.25000000  0.25000000  0.25000000  1
  Ti  Ti3  1  0.75000000  0.75000000  0.75000000  1
  O  O4  1  0.26410378  0.74819961  0.27548524  1
  O  O5  1  0.44950976  0.73454267  0.53859755  1
