# generated using pymatgen
data_Li2TiCu2O3
_symmetry_space_group_name_H-M   'P 1'
_cell_length_a   7.69481595
_cell_length_b   7.67518688
_cell_length_c   7.19668753
_cell_angle_alpha   92.78132639
_cell_angle_beta   93.94299322
_cell_angle_gamma   93.42059954
_symmetry_Int_Tables_number   1
_chemical_formula_structural   Li2TiCu2O3
_chemical_formula_sum   'Li2 Ti1 Cu2 O3'
_cell_volume   422.67731796
_cell_formula_units_Z   1
loop_
 _symmetry_equiv_pos_site_id
 _symmetry_equiv_pos_as_xyz
  1  'x, y, z'
loop_
 _atom_site_type_symbol
 _atom_site_label
 _atom_site_symmetry_multiplicity
 _atom_site_fract_x
 _atom_site_fract_y
 _atom_site_fract_z
 _atom_site_occupancy
  Li  Li0  1  0.00000000  0.00000000  0.00000000  1
  Li  Li1  1  0.50000000  0.50000000  0.50000000  1
  Cu  Cu2  1  0.25000000  0.25000000  0.25000000  1
  Cu  Cu3  1  0.75000000  0.25000000  0.00000000  1
  Ti  Ti4  1  0.25000000  0.75000000  0.50000000  1
  O  O5  1  0.08983156  0.30631878  0.83075160  1
  O  O6  1  0.31370404  0.17498800  0.80882569  1
  O  O7  1  0.73969929  0.35915192  0.21004425  1
