# generated using pymatgen
data_Li2TiCu2(SO)2
_symmetry_space_group_name_H-M   'P 1'
_cell_length_a   6.28659082
_cell_length_b   6.14996027
_cell_length_c   6.98336772
_cell_angle_alpha   93.97876741
_cell_angle_beta   96.33975602
_cell_angle_gamma   94.21782545
_symmetry_Int_Tables_number   1
_chemical_formula_structural   Li2TiCu2(SO)2
_chemical_formula_sum   'Li2 Ti1 Cu2 S2 O2'
_cell_volume   266.79560048
_cell_formula_units_Z   1
loop_
 _symmetry_equiv_pos_site_id
 _symmetry_equiv_pos_as_xyz
  1  'x, y, z'
loop_
 _atom_site_type_symbol
 _atom_site_label
 _atom_site_symmetry_multiplicity
 _atom_site_fract_x
 _atom_site_fract_y
 _atom_site_fract_z
 _atom_site_occupancy
  Li  Li0  1  0.12500000  0.00000000  0.25000000  1
  Li  Li1  1  0.00000000  0.00000000  0.00000000  1
  Cu  Cu2  1  0.37500000  0.00000000  0.25000000  1
  Cu  Cu3  1  0.25000000  0.25000000  0.25000000  1
  S  S4  1  0.00000000  0.25000000  0.12500000  1
  S  S5  1  0.95029719  0.55969984  0.31610736  1
  Ti  Ti6  1  0.46048647  0.52231677  0.59416371  1
  O  O7  1  0.38433748  0.03918306  0.48133804  1
  O  O8  1  0.72960118  0.25707934  0.76739352  1
