# generated using pymatgen
data_Li2Mn3Sb4P3
_symmetry_space_group_name_H-M   'P 1'
_cell_length_a   5.54777545
_cell_length_b   5.91059567
_cell_length_c   6.49889636
_cell_angle_alpha   99.56688833
_cell_angle_beta   90.47793078
_cell_angle_gamma   99.37660289
_symmetry_Int_Tables_number   1
_chemical_formula_structural   Li2Mn3Sb4P3
_chemical_formula_sum   'Li2 Mn3 Sb4 P3'
_cell_volume   207.19414617
_cell_formula_units_Z   1
loop_
 _symmetry_equiv_pos_site_id
 _symmetry_equiv_pos_as_xyz
  1  'x, y, z'
loop_
 _atom_site_type_symbol
 _atom_site_label
 _atom_site_symmetry_multiplicity
 _atom_site_fract_x
 _atom_site_fract_y
 _atom_site_fract_z
 _atom_site_occupancy
  Mn  Mn0  1  0.12500000  0.00000000  0.25000000  1
  Mn  Mn1  1  0.00000000  0.00000000  0.00000000  1
  Mn  Mn2  1  0.37500000  0.00000000  0.25000000  1
  Sb  Sb3  1  0.25000000  0.25000000  0.25000000  1
  Sb  Sb4  1  0.00000000  0.25000000  0.12500000  1
  Sb  Sb5  1  0.55136110  0.85319205  0.37743260  1
  Sb  Sb6  1  0.90873242  0.84819118  0.36535635  1
  P  P7  1  0.96813679  0.76158426  0.75005482  1
  P  P8  1  0.95983911  0.01063467  0.32471889  1
  P  P9  1  0.77062566  0.77626641  0.04243876  1
  Li  Li10  1  0.13089527  0.20369334  0.00724206  1
  Li  Li11  1  0.06647452  0.35019530  0.30296121  1
