# generated using pymatgen
data_Li3Ni2Te6(IO)4
_symmetry_space_group_name_H-M   'P 1'
_cell_length_a   7.58347172
_cell_length_b   7.43582674
_cell_length_c   7.42979967
_cell_angle_alpha   95.07278372
_cell_angle_beta   96.47677971
_cell_angle_gamma   94.77204822
_symmetry_Int_Tables_number   1
_chemical_formula_structural   Li3Ni2Te6(IO)4
_chemical_formula_sum   'Li3 Ni2 Te6 I4 O4'
_cell_volume   412.81610209
_cell_formula_units_Z   1
loop_
 _symmetry_equiv_pos_site_id
 _symmetry_equiv_pos_as_xyz
  1  'x, y, z'
loop_
 _atom_site_type_symbol
 _atom_site_label
 _atom_site_symmetry_multiplicity
 _atom_site_fract_x
 _atom_site_fract_y
 _atom_site_fract_z
 _atom_site_occupancy
  I  I0  1  0.00000000  0.00000000  0.00000000  1
  I  I1  1  0.50000000  0.50000000  0.50000000  1
  I  I2  1  0.25000000  0.25000000  0.25000000  1
  I  I3  1  0.75000000  0.25000000  0.00000000  1
  Li  Li4  1  0.25000000  0.75000000  0.50000000  1
  Li  Li5  1  0.07184957  0.43899292  0.24399070  1
  Li  Li6  1  0.69269506  0.06100341  0.27252048  1
  Ni  Ni7  1  0.67640680  0.61063445  0.07343228  1
  Ni  Ni8  1  0.15257604  0.33700800  0.07724319  1
  Te  Te9  1  0.16244989  0.86979973  0.60692918  1
  Te  Te10  1  0.38320203  0.77421073  0.20808648  1
  Te  Te11  1  0.71471404  0.03792969  0.31091408  1
  Te  Te12  1  0.62753351  0.68781821  0.51985519  1
  Te  Te13  1  0.09321238  0.02444500  0.56626238  1
  Te  Te14  1  0.63082462  0.63732714  0.38478452  1
  O  O15  1  0.14734050  0.15465219  0.45104644  1
  O  O16  1  0.10606005  0.90700908  0.82163472  1
  O  O17  1  0.99033686  0.13823839  0.30493027  1
  O  O18  1  0.03112944  0.96222989  0.43756562  1
