# generated using pymatgen
data_Li3Lu(NiAs3)2
_symmetry_space_group_name_H-M   'P 1'
_cell_length_a   7.98949762
_cell_length_b   7.81685391
_cell_length_c   8.33354907
_cell_angle_alpha   91.23809773
_cell_angle_beta   90.87394027
_cell_angle_gamma   91.43439812
_symmetry_Int_Tables_number   1
_chemical_formula_structural   Li3Lu(NiAs3)2
_chemical_formula_sum   'Li3 Lu1 Ni2 As6'
_cell_volume   520.10343198
_cell_formula_units_Z   1
loop_
 _symmetry_equiv_pos_site_id
 _symmetry_equiv_pos_as_xyz
  1  'x, y, z'
loop_
 _atom_site_type_symbol
 _atom_site_label
 _atom_site_symmetry_multiplicity
 _atom_site_fract_x
 _atom_site_fract_y
 _atom_site_fract_z
 _atom_site_occupancy
  Lu  Lu0  1  0.12500000  0.12500000  0.12500000  1
  Li  Li1  1  0.50000000  0.50000000  0.50000000  1
  Li  Li2  1  0.25000000  0.25000000  0.25000000  1
  Li  Li3  1  0.75000000  0.75000000  0.75000000  1
  Ni  Ni4  1  0.40160258  0.50008729  0.22348698  1
  Ni  Ni5  1  0.47362045  0.04223877  0.32945922  1
  As  As6  1  0.87118890  0.72343502  0.09884536  1
  As  As7  1  0.19653679  0.58935560  0.10098548  1
  As  As8  1  0.75545316  0.40264919  0.57725381  1
  As  As9  1  0.06793558  0.41677917  0.19545447  1
  As  As10  1  0.40665800  0.90943226  0.61097178  1
  As  As11  1  0.53885674  0.84007661  0.85161916  1
