# generated using pymatgen
data_Li2TiS3(IO)4
_symmetry_space_group_name_H-M   'P 1'
_cell_length_a   8.84784804
_cell_length_b   9.11050331
_cell_length_c   7.86129189
_cell_angle_alpha   90.00000000
_cell_angle_beta   90.00000000
_cell_angle_gamma   90.00000000
_symmetry_Int_Tables_number   1
_chemical_formula_structural   Li2TiS3(IO)4
_chemical_formula_sum   'Li2 Ti1 S3 I4 O4'
_cell_volume   633.68575929
_cell_formula_units_Z   1
loop_
 _symmetry_equiv_pos_site_id
 _symmetry_equiv_pos_as_xyz
  1  'x, y, z'
loop_
 _atom_site_type_symbol
 _atom_site_label
 _atom_site_symmetry_multiplicity
 _atom_site_fract_x
 _atom_site_fract_y
 _atom_site_fract_z
 _atom_site_occupancy
  I  I0  1  0.00000000  0.00000000  0.00000000  1
  I  I1  1  0.50000000  0.50000000  0.50000000  1
  I  I2  1  0.25000000  0.25000000  0.25000000  1
  I  I3  1  0.75000000  0.25000000  0.00000000  1
  Li  Li4  1  0.25000000  0.75000000  0.50000000  1
  Li  Li5  1  0.83245666  0.70803401  0.90211985  1
  Ti  Ti6  1  0.34591304  0.56787380  0.75020711  1
  S  S7  1  0.14392691  0.72942950  0.46976484  1
  S  S8  1  0.50937880  0.51727152  0.81488981  1
  S  S9  1  0.17992170  0.80458377  0.31145107  1
  O  O10  1  0.62054971  0.06278969  0.29659322  1
  O  O11  1  0.36377493  0.18620879  0.61574122  1
  O  O12  1  0.10993110  0.42121329  0.14790424  1
  O  O13  1  0.89276332  0.13343086  0.41418325  1
