# generated using pymatgen
data_Li2TiS3(I2F)2
_symmetry_space_group_name_H-M   'P 1'
_cell_length_a   5.92700716
_cell_length_b   5.76150305
_cell_length_c   7.05850289
_cell_angle_alpha   97.13796005
_cell_angle_beta   101.29984023
_cell_angle_gamma   96.81865833
_symmetry_Int_Tables_number   1
_chemical_formula_structural   Li2TiS3(I2F)2
_chemical_formula_sum   'Li2 Ti1 S3 I4 F2'
_cell_volume   231.98340720
_cell_formula_units_Z   1
loop_
 _symmetry_equiv_pos_site_id
 _symmetry_equiv_pos_as_xyz
  1  'x, y, z'
loop_
 _atom_site_type_symbol
 _atom_site_label
 _atom_site_symmetry_multiplicity
 _atom_site_fract_x
 _atom_site_fract_y
 _atom_site_fract_z
 _atom_site_occupancy
  I  I0  1  0.00000000  0.00000000  0.00000000  1
  I  I1  1  0.50000000  0.50000000  0.50000000  1
  I  I2  1  0.25000000  0.25000000  0.25000000  1
  I  I3  1  0.75000000  0.25000000  0.00000000  1
  Li  Li4  1  0.25000000  0.75000000  0.50000000  1
  Li  Li5  1  0.48020587  0.16913809  0.14381602  1
  F  F6  1  0.47522542  0.41557256  0.56820955  1
  F  F7  1  0.86265852  0.85992123  0.92128828  1
  S  S8  1  0.35834026  0.13008113  0.26493348  1
  S  S9  1  0.45436038  0.01040612  0.57241952  1
  S  S10  1  0.08571387  0.06071385  0.21618060  1
  Ti  Ti11  1  0.55228092  0.70399317  0.88111430  1
