# generated using pymatgen
data_LiCuAs3I2
_symmetry_space_group_name_H-M   'P 1'
_cell_length_a   8.15573546
_cell_length_b   8.53018465
_cell_length_c   7.70600384
_cell_angle_alpha   90.18896249
_cell_angle_beta   90.89902612
_cell_angle_gamma   90.21603458
_symmetry_Int_Tables_number   1
_chemical_formula_structural   LiCuAs3I2
_chemical_formula_sum   'Li2 Cu2 As6 I4'
_cell_volume   536.03331675
_cell_formula_units_Z   2
loop_
 _symmetry_equiv_pos_site_id
 _symmetry_equiv_pos_as_xyz
  1  'x, y, z'
loop_
 _atom_site_type_symbol
 _atom_site_label
 _atom_site_symmetry_multiplicity
 _atom_site_fract_x
 _atom_site_fract_y
 _atom_site_fract_z
 _atom_site_occupancy
  I  I0  1  0.00000000  0.00000000  0.00000000  1
  I  I1  1  0.33300000  0.66700000  0.25000000  1
  I  I2  1  0.66700000  0.33300000  0.50000000  1
  I  I3  1  0.00000000  0.00000000  0.75000000  1
  As  As4  1  0.56052402  0.33866580  0.34299009  1
  As  As5  1  0.25738935  0.41372396  0.73325055  1
  As  As6  1  0.47260613  0.81125178  0.83838184  1
  As  As7  1  0.15837154  0.83584850  0.67247195  1
  As  As8  1  0.77172449  0.31395505  0.98038975  1
  As  As9  1  0.04661334  0.71231189  0.09021387  1
  Li  Li10  1  0.77454733  0.92367458  0.95883251  1
  Li  Li11  1  0.51348037  0.66524863  0.20179715  1
  Cu  Cu12  1  0.24445778  0.53365897  0.34382209  1
  Cu  Cu13  1  0.29592734  0.12018587  0.46714434  1
