# generated using pymatgen
data_Li2LuTiN5
_symmetry_space_group_name_H-M   'P 1'
_cell_length_a   7.46048802
_cell_length_b   7.36773775
_cell_length_c   7.91735303
_cell_angle_alpha   94.13707052
_cell_angle_beta   94.35706605
_cell_angle_gamma   94.14020763
_symmetry_Int_Tables_number   1
_chemical_formula_structural   Li2LuTiN5
_chemical_formula_sum   'Li2 Lu1 Ti1 N5'
_cell_volume   431.48186349
_cell_formula_units_Z   1
loop_
 _symmetry_equiv_pos_site_id
 _symmetry_equiv_pos_as_xyz
  1  'x, y, z'
loop_
 _atom_site_type_symbol
 _atom_site_label
 _atom_site_symmetry_multiplicity
 _atom_site_fract_x
 _atom_site_fract_y
 _atom_site_fract_z
 _atom_site_occupancy
  Ti  Ti0  1  0.12500000  0.12500000  0.12500000  1
  Lu  Lu1  1  0.50000000  0.50000000  0.50000000  1
  Li  Li2  1  0.25000000  0.25000000  0.25000000  1
  Li  Li3  1  0.75000000  0.75000000  0.75000000  1
  N  N4  1  0.95845123  0.22504407  0.29191550  1
  N  N5  1  0.29455476  0.82224514  0.00660024  1
  N  N6  1  0.21697409  0.09547107  0.47089999  1
  N  N7  1  0.21471282  0.15259953  0.37692496  1
  N  N8  1  0.43266806  0.00003950  0.58666869  1
