# generated using pymatgen
data_Li3TiNi2As6O5
_symmetry_space_group_name_H-M   'P 1'
_cell_length_a   8.23671209
_cell_length_b   8.08634574
_cell_length_c   8.25096610
_cell_angle_alpha   90.92482487
_cell_angle_beta   90.58633594
_cell_angle_gamma   91.07170658
_symmetry_Int_Tables_number   1
_chemical_formula_structural   Li3TiNi2As6O5
_chemical_formula_sum   'Li3 Ti1 Ni2 As6 O5'
_cell_volume   549.35656813
_cell_formula_units_Z   1
loop_
 _symmetry_equiv_pos_site_id
 _symmetry_equiv_pos_as_xyz
  1  'x, y, z'
loop_
 _atom_site_type_symbol
 _atom_site_label
 _atom_site_symmetry_multiplicity
 _atom_site_fract_x
 _atom_site_fract_y
 _atom_site_fract_z
 _atom_site_occupancy
  Li  Li0  1  0.00000000  0.00000000  0.00000000  1
  Li  Li1  1  0.50000000  0.50000000  0.50000000  1
  Li  Li2  1  0.25000000  0.25000000  0.25000000  1
  Ni  Ni3  1  0.75000000  0.25000000  0.00000000  1
  Ni  Ni4  1  0.25000000  0.75000000  0.50000000  1
  Ti  Ti5  1  0.55250013  0.55711125  0.13137117  1
  As  As6  1  0.54354333  0.39685926  0.60770145  1
  As  As7  1  0.71705868  0.66531244  0.25526564  1
  As  As8  1  0.44827864  0.84837717  0.34261270  1
  As  As9  1  0.15587687  0.86937636  0.03946325  1
  As  As10  1  0.90961884  0.35097362  0.11145714  1
  As  As11  1  0.41725079  0.13325749  0.90777030  1
  O  O12  1  0.32360924  0.89960317  0.96571783  1
  O  O13  1  0.84142788  0.44525341  0.06719827  1
  O  O14  1  0.42860309  0.26302380  0.10865244  1
  O  O15  1  0.72476126  0.93117025  0.43163970  1
  O  O16  1  0.04992504  0.62738645  0.66354509  1
