# generated using pymatgen
data_LiCuAs3P4
_symmetry_space_group_name_H-M   'P 1'
_cell_length_a   6.34181207
_cell_length_b   6.22152054
_cell_length_c   7.83157929
_cell_angle_alpha   98.04945613
_cell_angle_beta   101.06260382
_cell_angle_gamma   97.61794678
_symmetry_Int_Tables_number   1
_chemical_formula_structural   LiCuAs3P4
_chemical_formula_sum   'Li2 Cu2 As6 P8'
_cell_volume   296.20180186
_cell_formula_units_Z   2
loop_
 _symmetry_equiv_pos_site_id
 _symmetry_equiv_pos_as_xyz
  1  'x, y, z'
loop_
 _atom_site_type_symbol
 _atom_site_label
 _atom_site_symmetry_multiplicity
 _atom_site_fract_x
 _atom_site_fract_y
 _atom_site_fract_z
 _atom_site_occupancy
  P  P0  1  0.12500000  0.12500000  0.12500000  1
  P  P1  1  0.50000000  0.50000000  0.50000000  1
  P  P2  1  0.25000000  0.25000000  0.25000000  1
  P  P3  1  0.75000000  0.75000000  0.75000000  1
  P  P4  1  0.60099405  0.65386012  0.95404230  1
  P  P5  1  0.30325967  0.22340075  0.14489462  1
  P  P6  1  0.35305489  0.56887150  0.69028515  1
  P  P7  1  0.87253123  0.30402793  0.75529635  1
  As  As8  1  0.60184441  0.00925293  0.72485907  1
  As  As9  1  0.13552446  0.73774822  0.76042030  1
  As  As10  1  0.55724169  0.55030276  0.93754960  1
  As  As11  1  0.22989067  0.55435889  0.44462225  1
  As  As12  1  0.94821750  0.72895983  0.09983906  1
  As  As13  1  0.62672279  0.00140615  0.39428695  1
  Li  Li14  1  0.92890221  0.64368982  0.86577932  1
  Li  Li15  1  0.44902717  0.59223043  0.04081488  1
  Cu  Cu16  1  0.78986040  0.70020409  0.94710310  1
  Cu  Cu17  1  0.66774269  0.04096773  0.91277506  1
