# generated using pymatgen
data_LiLuTi(I2F)2
_symmetry_space_group_name_H-M   'P 1'
_cell_length_a   6.73483770
_cell_length_b   6.76695747
_cell_length_c   7.62912224
_cell_angle_alpha   95.47749092
_cell_angle_beta   97.40716577
_cell_angle_gamma   95.58130645
_symmetry_Int_Tables_number   1
_chemical_formula_structural   LiLuTi(I2F)2
_chemical_formula_sum   'Li1 Lu1 Ti1 I4 F2'
_cell_volume   341.09582629
_cell_formula_units_Z   1
loop_
 _symmetry_equiv_pos_site_id
 _symmetry_equiv_pos_as_xyz
  1  'x, y, z'
loop_
 _atom_site_type_symbol
 _atom_site_label
 _atom_site_symmetry_multiplicity
 _atom_site_fract_x
 _atom_site_fract_y
 _atom_site_fract_z
 _atom_site_occupancy
  I  I0  1  0.00000000  0.00000000  0.00000000  1
  I  I1  1  0.50000000  0.50000000  0.50000000  1
  I  I2  1  0.25000000  0.25000000  0.25000000  1
  I  I3  1  0.75000000  0.25000000  0.00000000  1
  Lu  Lu4  1  0.25000000  0.75000000  0.50000000  1
  Li  Li5  1  0.13855396  0.53902938  0.77408447  1
  F  F6  1  0.69908200  0.27051018  0.09899302  1
  F  F7  1  0.75486369  0.02483538  0.15002526  1
  Ti  Ti8  1  0.89294244  0.32396231  0.15489362  1
