# generated using pymatgen
data_Li2Ti(IO)4
_symmetry_space_group_name_H-M   'P 1'
_cell_length_a   8.47652754
_cell_length_b   8.31666008
_cell_length_c   7.46468215
_cell_angle_alpha   90.46509564
_cell_angle_beta   90.56187403
_cell_angle_gamma   90.53795553
_symmetry_Int_Tables_number   1
_chemical_formula_structural   Li2Ti(IO)4
_chemical_formula_sum   'Li2 Ti1 I4 O4'
_cell_volume   526.16697362
_cell_formula_units_Z   1
loop_
 _symmetry_equiv_pos_site_id
 _symmetry_equiv_pos_as_xyz
  1  'x, y, z'
loop_
 _atom_site_type_symbol
 _atom_site_label
 _atom_site_symmetry_multiplicity
 _atom_site_fract_x
 _atom_site_fract_y
 _atom_site_fract_z
 _atom_site_occupancy
  I  I0  1  0.00000000  0.00000000  0.00000000  1
  I  I1  1  0.33300000  0.66700000  0.25000000  1
  I  I2  1  0.66700000  0.33300000  0.50000000  1
  I  I3  1  0.00000000  0.00000000  0.75000000  1
  Li  Li4  1  0.24175525  0.81787132  0.59328607  1
  Li  Li5  1  0.11446456  0.97884983  0.89866417  1
  Ti  Ti6  1  0.81223806  0.85767705  0.03624726  1
  O  O7  1  0.00256464  0.33088155  0.39241762  1
  O  O8  1  0.11394848  0.84084583  0.31295541  1
  O  O9  1  0.34619873  0.69304961  0.17332059  1
  O  O10  1  0.05949576  0.21422180  0.37238464  1
