# generated using pymatgen
data_Li3TiTe6(IO)4
_symmetry_space_group_name_H-M   'P 1'
_cell_length_a   8.68069380
_cell_length_b   8.94952769
_cell_length_c   7.29638404
_cell_angle_alpha   90.00000000
_cell_angle_beta   90.00000000
_cell_angle_gamma   90.00000000
_symmetry_Int_Tables_number   1
_chemical_formula_structural   Li3TiTe6(IO)4
_chemical_formula_sum   'Li3 Ti1 Te6 I4 O4'
_cell_volume   566.84228252
_cell_formula_units_Z   1
loop_
 _symmetry_equiv_pos_site_id
 _symmetry_equiv_pos_as_xyz
  1  'x, y, z'
loop_
 _atom_site_type_symbol
 _atom_site_label
 _atom_site_symmetry_multiplicity
 _atom_site_fract_x
 _atom_site_fract_y
 _atom_site_fract_z
 _atom_site_occupancy
  I  I0  1  0.00000000  0.00000000  0.00000000  1
  I  I1  1  0.50000000  0.50000000  0.50000000  1
  I  I2  1  0.50000000  0.50000000  0.00000000  1
  I  I3  1  0.50000000  0.00000000  0.50000000  1
  Li  Li4  1  0.00000000  0.50000000  0.50000000  1
  Li  Li5  1  0.58697291  0.11929613  0.34312050  1
  Li  Li6  1  0.45622013  0.60540361  0.22920260  1
  Te  Te7  1  0.68412694  0.30081084  0.63824122  1
  Te  Te8  1  0.03958986  0.85116948  0.54493095  1
  Te  Te9  1  0.31840769  0.82315554  0.04225371  1
  Te  Te10  1  0.91565041  0.99821799  0.99999505  1
  Te  Te11  1  0.91367633  0.46463707  0.63710427  1
  Te  Te12  1  0.92206377  0.87824141  0.92539950  1
  Ti  Ti13  1  0.16459886  0.72860001  0.87160620  1
  O  O14  1  0.94466888  0.83398812  0.50755834  1
  O  O15  1  0.67020777  0.83982892  0.38572893  1
  O  O16  1  0.84572258  0.91631293  0.34534606  1
  O  O17  1  0.31942188  0.54738317  0.08494279  1
