# generated using pymatgen
data_LiCu2As6P4F2
_symmetry_space_group_name_H-M   'P 1'
_cell_length_a   6.98857771
_cell_length_b   6.89668703
_cell_length_c   7.64322199
_cell_angle_alpha   92.80358132
_cell_angle_beta   94.50180734
_cell_angle_gamma   93.32019958
_symmetry_Int_Tables_number   1
_chemical_formula_structural   LiCu2As6P4F2
_chemical_formula_sum   'Li1 Cu2 As6 P4 F2'
_cell_volume   366.10600917
_cell_formula_units_Z   1
loop_
 _symmetry_equiv_pos_site_id
 _symmetry_equiv_pos_as_xyz
  1  'x, y, z'
loop_
 _atom_site_type_symbol
 _atom_site_label
 _atom_site_symmetry_multiplicity
 _atom_site_fract_x
 _atom_site_fract_y
 _atom_site_fract_z
 _atom_site_occupancy
  P  P0  1  0.00000000  0.00000000  0.00000000  1
  P  P1  1  0.50000000  0.50000000  0.50000000  1
  P  P2  1  0.25000000  0.25000000  0.25000000  1
  P  P3  1  0.75000000  0.25000000  0.00000000  1
  Li  Li4  1  0.25000000  0.75000000  0.50000000  1
  Cu  Cu5  1  0.04655069  0.68340961  0.96552485  1
  Cu  Cu6  1  0.91170559  0.56899219  0.06862400  1
  F  F7  1  0.30815879  0.55501390  0.91447158  1
  F  F8  1  0.50452521  0.49522345  0.78807721  1
  As  As9  1  0.69634148  0.20998865  0.13281802  1
  As  As10  1  0.78604198  0.06771327  0.28053059  1
  As  As11  1  0.51094640  0.57965856  0.32291562  1
  As  As12  1  0.06698671  0.81036751  0.96967351  1
  As  As13  1  0.36550804  0.53423717  0.60501519  1
  As  As14  1  0.82857080  0.81643044  0.27761406  1
