# generated using pymatgen
data_Li3Lu(NiAs3)2
_symmetry_space_group_name_H-M   'P 1'
_cell_length_a   7.70457971
_cell_length_b   7.51917393
_cell_length_c   8.83206226
_cell_angle_alpha   91.65434389
_cell_angle_beta   91.12844459
_cell_angle_gamma   91.91678839
_symmetry_Int_Tables_number   1
_chemical_formula_structural   Li3Lu(NiAs3)2
_chemical_formula_sum   'Li3 Lu1 Ni2 As6'
_cell_volume   511.05093833
_cell_formula_units_Z   1
loop_
 _symmetry_equiv_pos_site_id
 _symmetry_equiv_pos_as_xyz
  1  'x, y, z'
loop_
 _atom_site_type_symbol
 _atom_site_label
 _atom_site_symmetry_multiplicity
 _atom_site_fract_x
 _atom_site_fract_y
 _atom_site_fract_z
 _atom_site_occupancy
  Lu  Lu0  1  0.00000000  0.00000000  0.00000000  1
  Li  Li1  1  0.33300000  0.66700000  0.25000000  1
  Li  Li2  1  0.66700000  0.33300000  0.50000000  1
  Li  Li3  1  0.00000000  0.00000000  0.75000000  1
  Ni  Ni4  1  0.51885549  0.17699665  0.90597056  1
  Ni  Ni5  1  0.11634085  0.93882180  0.06156290  1
  As  As6  1  0.10114848  0.29979352  0.58726531  1
  As  As7  1  0.11725904  0.45932785  0.54068859  1
  As  As8  1  0.76142197  0.32553733  0.63457350  1
  As  As9  1  0.49796509  0.11134047  0.37602856  1
  As  As10  1  0.88680241  0.57388800  0.70865738  1
  As  As11  1  0.81973912  0.45905714  0.53063961  1
