# generated using pymatgen
data_Li2LuAs6(OF)3
_symmetry_space_group_name_H-M   'P 1'
_cell_length_a   5.95804984
_cell_length_b   5.48999738
_cell_length_c   7.22391388
_cell_angle_alpha   94.91177900
_cell_angle_beta   96.77336932
_cell_angle_gamma   94.60364241
_symmetry_Int_Tables_number   1
_chemical_formula_structural   Li2LuAs6(OF)3
_chemical_formula_sum   'Li2 Lu1 As6 O3 F3'
_cell_volume   232.80393594
_cell_formula_units_Z   1
loop_
 _symmetry_equiv_pos_site_id
 _symmetry_equiv_pos_as_xyz
  1  'x, y, z'
loop_
 _atom_site_type_symbol
 _atom_site_label
 _atom_site_symmetry_multiplicity
 _atom_site_fract_x
 _atom_site_fract_y
 _atom_site_fract_z
 _atom_site_occupancy
  Lu  Lu0  1  0.00000000  0.00000000  0.00000000  1
  Li  Li1  1  0.50000000  0.50000000  0.50000000  1
  Li  Li2  1  0.25000000  0.25000000  0.25000000  1
  F  F3  1  0.75000000  0.25000000  0.00000000  1
  F  F4  1  0.25000000  0.75000000  0.50000000  1
  F  F5  1  0.43840990  0.47629166  0.06109118  1
  As  As6  1  0.10355756  0.38140340  0.80866403  1
  As  As7  1  0.05676881  0.47604748  0.58409112  1
  As  As8  1  0.39526811  0.90103310  0.38882907  1
  As  As9  1  0.87011115  0.79700241  0.39595208  1
  As  As10  1  0.41084178  0.54468092  0.79444109  1
  As  As11  1  0.76868305  0.70102016  0.63135969  1
  O  O12  1  0.03023578  0.52353198  0.20459920  1
  O  O13  1  0.13346652  0.36552372  0.38240988  1
  O  O14  1  0.40336478  0.90466912  0.58253474  1
