# generated using pymatgen
data_Li3TiI4N5
_symmetry_space_group_name_H-M   'P 1'
_cell_length_a   8.63900944
_cell_length_b   8.47676291
_cell_length_c   7.48050321
_cell_angle_alpha   90.57599016
_cell_angle_beta   90.20363671
_cell_angle_gamma   90.66807886
_symmetry_Int_Tables_number   1
_chemical_formula_structural   Li3TiI4N5
_chemical_formula_sum   'Li3 Ti1 I4 N5'
_cell_volume   547.73488454
_cell_formula_units_Z   1
loop_
 _symmetry_equiv_pos_site_id
 _symmetry_equiv_pos_as_xyz
  1  'x, y, z'
loop_
 _atom_site_type_symbol
 _atom_site_label
 _atom_site_symmetry_multiplicity
 _atom_site_fract_x
 _atom_site_fract_y
 _atom_site_fract_z
 _atom_site_occupancy
  I  I0  1  0.00000000  0.00000000  0.00000000  1
  I  I1  1  0.50000000  0.50000000  0.50000000  1
  I  I2  1  0.25000000  0.25000000  0.25000000  1
  I  I3  1  0.75000000  0.25000000  0.00000000  1
  Li  Li4  1  0.25000000  0.75000000  0.50000000  1
  Li  Li5  1  0.02010492  0.35503854  0.74706512  1
  Li  Li6  1  0.06407468  0.38476911  0.76141508  1
  Ti  Ti7  1  0.42808889  0.87201691  0.14103092  1
  N  N8  1  0.83048516  0.04013211  0.19610089  1
  N  N9  1  0.05843529  0.75159863  0.24459332  1
  N  N10  1  0.51571634  0.29909214  0.28054342  1
  N  N11  1  0.76981128  0.62833101  0.32314522  1
  N  N12  1  0.02433825  0.97081231  0.19809268  1
