# generated using pymatgen
data_Li3LuTiAs6N5
_symmetry_space_group_name_H-M   'P 1'
_cell_length_a   8.29308633
_cell_length_b   8.14155788
_cell_length_c   7.79771807
_cell_angle_alpha   91.09702224
_cell_angle_beta   90.92910720
_cell_angle_gamma   91.18847627
_symmetry_Int_Tables_number   1
_chemical_formula_structural   Li3LuTiAs6N5
_chemical_formula_sum   'Li3 Lu1 Ti1 As6 N5'
_cell_volume   526.20891420
_cell_formula_units_Z   1
loop_
 _symmetry_equiv_pos_site_id
 _symmetry_equiv_pos_as_xyz
  1  'x, y, z'
loop_
 _atom_site_type_symbol
 _atom_site_label
 _atom_site_symmetry_multiplicity
 _atom_site_fract_x
 _atom_site_fract_y
 _atom_site_fract_z
 _atom_site_occupancy
  Lu  Lu0  1  0.00000000  0.00000000  0.00000000  1
  Li  Li1  1  0.50000000  0.50000000  0.50000000  1
  Li  Li2  1  0.25000000  0.25000000  0.25000000  1
  Li  Li3  1  0.75000000  0.25000000  0.00000000  1
  Ti  Ti4  1  0.25000000  0.75000000  0.50000000  1
  As  As5  1  0.61092164  0.28156428  0.38317619  1
  As  As6  1  0.72425231  0.64798295  0.81486550  1
  As  As7  1  0.05237870  0.69478736  0.09050239  1
  As  As8  1  0.34597107  0.76604853  0.81288967  1
  As  As9  1  0.09768462  0.68896959  0.98182485  1
  As  As10  1  0.71943208  0.90214591  0.84278148  1
  N  N11  1  0.32283918  0.35509448  0.98717497  1
  N  N12  1  0.35955063  0.92782798  0.78574032  1
  N  N13  1  0.99459708  0.24213614  0.62147928  1
  N  N14  1  0.75832128  0.49693082  0.30860624  1
  N  N15  1  0.87481367  0.42994589  0.42686744  1
