# generated using pymatgen
data_Li3TiP3(I2O)2
_symmetry_space_group_name_H-M   'P 1'
_cell_length_a   5.58002558
_cell_length_b   5.22795507
_cell_length_c   6.86848983
_cell_angle_alpha   99.77645844
_cell_angle_beta   102.06582644
_cell_angle_gamma   99.03439501
_symmetry_Int_Tables_number   1
_chemical_formula_structural   Li3TiP3(I2O)2
_chemical_formula_sum   'Li3 Ti1 P3 I4 O2'
_cell_volume   189.20399649
_cell_formula_units_Z   1
loop_
 _symmetry_equiv_pos_site_id
 _symmetry_equiv_pos_as_xyz
  1  'x, y, z'
loop_
 _atom_site_type_symbol
 _atom_site_label
 _atom_site_symmetry_multiplicity
 _atom_site_fract_x
 _atom_site_fract_y
 _atom_site_fract_z
 _atom_site_occupancy
  I  I0  1  0.00000000  0.00000000  0.00000000  1
  I  I1  1  0.50000000  0.50000000  0.50000000  1
  I  I2  1  0.25000000  0.25000000  0.25000000  1
  I  I3  1  0.75000000  0.25000000  0.00000000  1
  P  P4  1  0.25000000  0.75000000  0.50000000  1
  P  P5  1  0.28632290  0.25179018  0.72442323  1
  P  P6  1  0.39198691  0.75662876  0.21781030  1
  Li  Li7  1  0.25182772  0.58915902  0.20256024  1
  Li  Li8  1  0.92265045  0.82959247  0.01095184  1
  Li  Li9  1  0.42899204  0.61975962  0.02313937  1
  Ti  Ti10  1  0.69832234  0.10705393  0.56372950  1
  O  O11  1  0.25793219  0.91976870  0.59294125  1
  O  O12  1  0.40818479  0.54689213  0.57535211  1
