# generated using pymatgen
data_Li2Cu2SeO4F3
_symmetry_space_group_name_H-M   'P 1'
_cell_length_a   5.58149605
_cell_length_b   5.44397395
_cell_length_c   7.35396135
_cell_angle_alpha   100.73613998
_cell_angle_beta   104.51981721
_cell_angle_gamma   100.10924394
_symmetry_Int_Tables_number   1
_chemical_formula_structural   Li2Cu2SeO4F3
_chemical_formula_sum   'Li2 Cu2 Se1 O4 F3'
_cell_volume   206.64771244
_cell_formula_units_Z   1
loop_
 _symmetry_equiv_pos_site_id
 _symmetry_equiv_pos_as_xyz
  1  'x, y, z'
loop_
 _atom_site_type_symbol
 _atom_site_label
 _atom_site_symmetry_multiplicity
 _atom_site_fract_x
 _atom_site_fract_y
 _atom_site_fract_z
 _atom_site_occupancy
  Se  Se0  1  0.00000000  0.00000000  0.00000000  1
  F  F1  1  0.50000000  0.50000000  0.50000000  1
  F  F2  1  0.25000000  0.25000000  0.25000000  1
  F  F3  1  0.75000000  0.25000000  0.00000000  1
  O  O4  1  0.25000000  0.75000000  0.50000000  1
  O  O5  1  0.99705100  0.37740591  0.75834491  1
  O  O6  1  0.75152636  0.80260440  0.85560523  1
  O  O7  1  0.74528309  0.06494374  0.77450186  1
  Li  Li8  1  0.14563000  0.25477372  0.70643713  1
  Li  Li9  1  0.34639727  0.74107870  0.95688564  1
  Cu  Cu10  1  0.08522709  0.95427466  0.67018903  1
  Cu  Cu11  1  0.58626701  0.03120731  0.45197233  1
