# generated using pymatgen
data_Li3TiNi2(As3I2)2
_symmetry_space_group_name_H-M   'P 1'
_cell_length_a   6.72278423
_cell_length_b   6.49557222
_cell_length_c   7.61737559
_cell_angle_alpha   96.19116827
_cell_angle_beta   97.79139783
_cell_angle_gamma   95.98462590
_symmetry_Int_Tables_number   1
_chemical_formula_structural   Li3TiNi2(As3I2)2
_chemical_formula_sum   'Li3 Ti1 Ni2 As6 I4'
_cell_volume   325.24991153
_cell_formula_units_Z   1
loop_
 _symmetry_equiv_pos_site_id
 _symmetry_equiv_pos_as_xyz
  1  'x, y, z'
loop_
 _atom_site_type_symbol
 _atom_site_label
 _atom_site_symmetry_multiplicity
 _atom_site_fract_x
 _atom_site_fract_y
 _atom_site_fract_z
 _atom_site_occupancy
  I  I0  1  0.12500000  0.00000000  0.25000000  1
  I  I1  1  0.00000000  0.00000000  0.00000000  1
  I  I2  1  0.37500000  0.00000000  0.25000000  1
  I  I3  1  0.25000000  0.25000000  0.25000000  1
  Li  Li4  1  0.00000000  0.25000000  0.12500000  1
  Li  Li5  1  0.91984797  0.35241074  0.87981368  1
  Li  Li6  1  0.65648449  0.31545803  0.48085477  1
  Ni  Ni7  1  0.62275067  0.97587647  0.44234087  1
  Ni  Ni8  1  0.48769144  0.43171269  0.72963129  1
  Ti  Ti9  1  0.13078872  0.70389724  0.86826309  1
  As  As10  1  0.42385676  0.08666128  0.88643307  1
  As  As11  1  0.34026963  0.57676663  0.44275078  1
  As  As12  1  0.80236603  0.94732314  0.87272734  1
  As  As13  1  0.90310970  0.20507478  0.22583612  1
  As  As14  1  0.42196216  0.52985869  0.40690494  1
  As  As15  1  0.81568090  0.61580724  0.70006361  1
