# generated using pymatgen
data_Li3TiP3Se
_symmetry_space_group_name_H-M   'P 1'
_cell_length_a   6.75413289
_cell_length_b   6.37517946
_cell_length_c   6.98543260
_cell_angle_alpha   96.47461898
_cell_angle_beta   98.75069913
_cell_angle_gamma   96.09536487
_symmetry_Int_Tables_number   1
_chemical_formula_structural   Li3TiP3Se
_chemical_formula_sum   'Li3 Ti1 P3 Se1'
_cell_volume   293.04817264
_cell_formula_units_Z   1
loop_
 _symmetry_equiv_pos_site_id
 _symmetry_equiv_pos_as_xyz
  1  'x, y, z'
loop_
 _atom_site_type_symbol
 _atom_site_label
 _atom_site_symmetry_multiplicity
 _atom_site_fract_x
 _atom_site_fract_y
 _atom_site_fract_z
 _atom_site_occupancy
  P  P0  1  0.00000000  0.00000000  0.00000000  1
  P  P1  1  0.50000000  0.50000000  0.50000000  1
  P  P2  1  0.50000000  0.50000000  0.00000000  1
  Li  Li3  1  0.50000000  0.00000000  0.50000000  1
  Li  Li4  1  0.00000000  0.50000000  0.50000000  1
  Li  Li5  1  0.50798256  0.29553071  0.84674131  1
  Se  Se6  1  0.81305087  0.59291964  0.49336278  1
  Ti  Ti7  1  0.06134007  0.77066824  0.33925573  1
