# generated using pymatgen
data_Li3LuCu2(PN)5
_symmetry_space_group_name_H-M   'P 1'
_cell_length_a   7.35012949
_cell_length_b   7.15755788
_cell_length_c   8.37845375
_cell_angle_alpha   93.57132867
_cell_angle_beta   93.13025394
_cell_angle_gamma   93.77445763
_symmetry_Int_Tables_number   1
_chemical_formula_structural   Li3LuCu2(PN)5
_chemical_formula_sum   'Li3 Lu1 Cu2 P5 N5'
_cell_volume   438.20829178
_cell_formula_units_Z   1
loop_
 _symmetry_equiv_pos_site_id
 _symmetry_equiv_pos_as_xyz
  1  'x, y, z'
loop_
 _atom_site_type_symbol
 _atom_site_label
 _atom_site_symmetry_multiplicity
 _atom_site_fract_x
 _atom_site_fract_y
 _atom_site_fract_z
 _atom_site_occupancy
  P  P0  1  0.00000000  0.00000000  0.00000000  1
  P  P1  1  0.50000000  0.50000000  0.50000000  1
  P  P2  1  0.25000000  0.25000000  0.25000000  1
  P  P3  1  0.75000000  0.25000000  0.00000000  1
  P  P4  1  0.25000000  0.75000000  0.50000000  1
  Lu  Lu5  1  0.46637586  0.97793945  0.33357931  1
  Li  Li6  1  0.24257957  0.44334898  0.12105212  1
  Li  Li7  1  0.29150407  0.72948121  0.40070059  1
  Li  Li8  1  0.09798737  0.64268799  0.19651803  1
  Cu  Cu9  1  0.92353124  0.48287494  0.24534236  1
  Cu  Cu10  1  0.66353496  0.64512528  0.23939655  1
  N  N11  1  0.69884887  0.43733552  0.06967921  1
  N  N12  1  0.30663738  0.47032941  0.17362033  1
  N  N13  1  0.38576939  0.32971511  0.41708843  1
  N  N14  1  0.43379529  0.45613629  0.72533906  1
  N  N15  1  0.51550173  0.90817956  0.75953599  1
