# generated using pymatgen
data_Li3TiI4N5
_symmetry_space_group_name_H-M   'P 1'
_cell_length_a   8.53701024
_cell_length_b   8.35987356
_cell_length_c   7.67932200
_cell_angle_alpha   90.76104821
_cell_angle_beta   90.26906250
_cell_angle_gamma   90.88272379
_symmetry_Int_Tables_number   1
_chemical_formula_structural   Li3TiI4N5
_chemical_formula_sum   'Li3 Ti1 I4 N5'
_cell_volume   547.94039173
_cell_formula_units_Z   1
loop_
 _symmetry_equiv_pos_site_id
 _symmetry_equiv_pos_as_xyz
  1  'x, y, z'
loop_
 _atom_site_type_symbol
 _atom_site_label
 _atom_site_symmetry_multiplicity
 _atom_site_fract_x
 _atom_site_fract_y
 _atom_site_fract_z
 _atom_site_occupancy
  I  I0  1  0.00000000  0.00000000  0.00000000  1
  I  I1  1  0.50000000  0.50000000  0.50000000  1
  I  I2  1  0.50000000  0.50000000  0.00000000  1
  I  I3  1  0.50000000  0.00000000  0.50000000  1
  Li  Li4  1  0.00000000  0.50000000  0.50000000  1
  Li  Li5  1  0.59404907  0.75515318  0.41046351  1
  Li  Li6  1  0.10420473  0.62072742  0.42760227  1
  Ti  Ti7  1  0.65143723  0.50011346  0.96120196  1
  N  N8  1  0.89740420  0.63319018  0.59909393  1
  N  N9  1  0.92501881  0.34493139  0.20363613  1
  N  N10  1  0.41991851  0.34088864  0.90081131  1
  N  N11  1  0.48161914  0.97784128  0.72278721  1
  N  N12  1  0.56045498  0.79669324  0.80592955  1
