# generated using pymatgen
data_Li2LuCu2P4N5
_symmetry_space_group_name_H-M   'P 1'
_cell_length_a   7.18036208
_cell_length_b   7.07349496
_cell_length_c   8.16990278
_cell_angle_alpha   94.48935158
_cell_angle_beta   94.71827937
_cell_angle_gamma   94.53251920
_symmetry_Int_Tables_number   1
_chemical_formula_structural   Li2LuCu2P4N5
_chemical_formula_sum   'Li2 Lu1 Cu2 P4 N5'
_cell_volume   410.74839070
_cell_formula_units_Z   1
loop_
 _symmetry_equiv_pos_site_id
 _symmetry_equiv_pos_as_xyz
  1  'x, y, z'
loop_
 _atom_site_type_symbol
 _atom_site_label
 _atom_site_symmetry_multiplicity
 _atom_site_fract_x
 _atom_site_fract_y
 _atom_site_fract_z
 _atom_site_occupancy
  P  P0  1  0.12500000  0.00000000  0.25000000  1
  P  P1  1  0.00000000  0.00000000  0.00000000  1
  P  P2  1  0.37500000  0.00000000  0.25000000  1
  P  P3  1  0.25000000  0.25000000  0.25000000  1
  Lu  Lu4  1  0.00000000  0.25000000  0.12500000  1
  Li  Li5  1  0.74108607  0.60453029  0.22320994  1
  Li  Li6  1  0.73314940  0.43350581  0.98571350  1
  Cu  Cu7  1  0.29042433  0.53983104  0.77098478  1
  Cu  Cu8  1  0.69671637  0.45729109  0.99694213  1
  N  N9  1  0.98775502  0.22317619  0.11314440  1
  N  N10  1  0.95036162  0.71413681  0.25281691  1
  N  N11  1  0.29539224  0.85585877  0.40391073  1
  N  N12  1  0.47306680  0.93320038  0.13772098  1
  N  N13  1  0.34685457  0.38284480  0.57140976  1
