# generated using pymatgen
data_Li2Ti(CuP2)2
_symmetry_space_group_name_H-M   'P 1'
_cell_length_a   7.72730859
_cell_length_b   7.49528186
_cell_length_c   7.80386130
_cell_angle_alpha   91.73532970
_cell_angle_beta   91.39906853
_cell_angle_gamma   91.78587060
_symmetry_Int_Tables_number   1
_chemical_formula_structural   Li2Ti(CuP2)2
_chemical_formula_sum   'Li2 Ti1 Cu2 P4'
_cell_volume   451.41458457
_cell_formula_units_Z   1
loop_
 _symmetry_equiv_pos_site_id
 _symmetry_equiv_pos_as_xyz
  1  'x, y, z'
loop_
 _atom_site_type_symbol
 _atom_site_label
 _atom_site_symmetry_multiplicity
 _atom_site_fract_x
 _atom_site_fract_y
 _atom_site_fract_z
 _atom_site_occupancy
  P  P0  1  0.12500000  0.00000000  0.25000000  1
  P  P1  1  0.00000000  0.00000000  0.00000000  1
  P  P2  1  0.37500000  0.00000000  0.25000000  1
  P  P3  1  0.25000000  0.25000000  0.25000000  1
  Li  Li4  1  0.00000000  0.25000000  0.12500000  1
  Li  Li5  1  0.79665651  0.37593836  0.03449485  1
  Cu  Cu6  1  0.37373491  0.25987757  0.43519535  1
  Cu  Cu7  1  0.73083836  0.02135346  0.45327166  1
  Ti  Ti8  1  0.26740471  0.86977734  0.04669192  1
