# generated using pymatgen
data_LiCuNiAs3P2
_symmetry_space_group_name_H-M   'P 1'
_cell_length_a   7.49634639
_cell_length_b   7.54508292
_cell_length_c   8.29534790
_cell_angle_alpha   90.91912538
_cell_angle_beta   92.01684697
_cell_angle_gamma   91.05969255
_symmetry_Int_Tables_number   1
_chemical_formula_structural   LiCuNiAs3P2
_chemical_formula_sum   'Li2 Cu2 Ni2 As6 P4'
_cell_volume   468.75321477
_cell_formula_units_Z   2
loop_
 _symmetry_equiv_pos_site_id
 _symmetry_equiv_pos_as_xyz
  1  'x, y, z'
loop_
 _atom_site_type_symbol
 _atom_site_label
 _atom_site_symmetry_multiplicity
 _atom_site_fract_x
 _atom_site_fract_y
 _atom_site_fract_z
 _atom_site_occupancy
  P  P0  1  0.12500000  0.00000000  0.25000000  1
  P  P1  1  0.00000000  0.00000000  0.00000000  1
  P  P2  1  0.37500000  0.00000000  0.25000000  1
  P  P3  1  0.25000000  0.25000000  0.25000000  1
  Li  Li4  1  0.00000000  0.25000000  0.12500000  1
  Li  Li5  1  0.12915425  0.14571791  0.31875826  1
  Cu  Cu6  1  0.11082802  0.70658246  0.27837320  1
  Cu  Cu7  1  0.01076068  0.42052972  0.68642546  1
  Ni  Ni8  1  0.11659605  0.48038144  0.14085237  1
  Ni  Ni9  1  0.85278177  0.88035935  0.65016759  1
  As  As10  1  0.24534263  0.37163438  0.39514466  1
  As  As11  1  0.97850362  0.99918587  0.15578832  1
  As  As12  1  0.68698713  0.64747447  0.03378117  1
  As  As13  1  0.37579011  0.76274980  0.94928295  1
  As  As14  1  0.07290559  0.22034269  0.65459673  1
  As  As15  1  0.40389412  0.24822766  0.97824361  1
