# generated using pymatgen
data_Li3Cu2Ni2(PO)4
_symmetry_space_group_name_H-M   'P 1'
_cell_length_a   8.06112007
_cell_length_b   8.18791250
_cell_length_c   7.64277120
_cell_angle_alpha   90.88337811
_cell_angle_beta   90.74969315
_cell_angle_gamma   91.02296192
_symmetry_Int_Tables_number   1
_chemical_formula_structural   Li3Cu2Ni2(PO)4
_chemical_formula_sum   'Li3 Cu2 Ni2 P4 O4'
_cell_volume   504.26615164
_cell_formula_units_Z   1
loop_
 _symmetry_equiv_pos_site_id
 _symmetry_equiv_pos_as_xyz
  1  'x, y, z'
loop_
 _atom_site_type_symbol
 _atom_site_label
 _atom_site_symmetry_multiplicity
 _atom_site_fract_x
 _atom_site_fract_y
 _atom_site_fract_z
 _atom_site_occupancy
  P  P0  1  0.12500000  0.00000000  0.25000000  1
  P  P1  1  0.00000000  0.00000000  0.00000000  1
  P  P2  1  0.37500000  0.00000000  0.25000000  1
  P  P3  1  0.25000000  0.25000000  0.25000000  1
  Li  Li4  1  0.00000000  0.25000000  0.12500000  1
  Li  Li5  1  0.03685445  0.77578434  0.69148264  1
  Li  Li6  1  0.28283262  0.48271030  0.17175588  1
  Cu  Cu7  1  0.13809932  0.74560892  0.72402765  1
  Cu  Cu8  1  0.66451181  0.77382226  0.40988407  1
  Ni  Ni9  1  0.39420047  0.15032949  0.41260740  1
  Ni  Ni10  1  0.07657616  0.92589932  0.88936253  1
  O  O11  1  0.33948308  0.74757556  0.80713984  1
  O  O12  1  0.92185435  0.65676004  0.66580011  1
  O  O13  1  0.99833078  0.58839353  0.99163741  1
  O  O14  1  0.05865375  0.14889004  0.46749071  1
