# generated using pymatgen
data_Li3(As3I2)2
_symmetry_space_group_name_H-M   'P 1'
_cell_length_a   8.33624513
_cell_length_b   8.18045212
_cell_length_c   7.83231054
_cell_angle_alpha   90.69940261
_cell_angle_beta   90.53383530
_cell_angle_gamma   90.81014146
_symmetry_Int_Tables_number   1
_chemical_formula_structural   Li3(As3I2)2
_chemical_formula_sum   'Li3 As6 I4'
_cell_volume   534.00133960
_cell_formula_units_Z   1
loop_
 _symmetry_equiv_pos_site_id
 _symmetry_equiv_pos_as_xyz
  1  'x, y, z'
loop_
 _atom_site_type_symbol
 _atom_site_label
 _atom_site_symmetry_multiplicity
 _atom_site_fract_x
 _atom_site_fract_y
 _atom_site_fract_z
 _atom_site_occupancy
  I  I0  1  0.12500000  0.12500000  0.12500000  1
  I  I1  1  0.50000000  0.50000000  0.50000000  1
  I  I2  1  0.25000000  0.25000000  0.25000000  1
  I  I3  1  0.75000000  0.75000000  0.75000000  1
  Li  Li4  1  0.70077913  0.34782224  0.91287309  1
  Li  Li5  1  0.64219682  0.84426382  0.23039418  1
  Li  Li6  1  0.27103097  0.62922771  0.78409416  1
  As  As7  1  0.15739755  0.58510927  0.14235425  1
  As  As8  1  0.29487720  0.01593972  0.34756287  1
  As  As9  1  0.17173599  0.42985897  0.94486170  1
  As  As10  1  0.37043223  0.29375097  0.14854732  1
  As  As11  1  0.31410704  0.24390113  0.68829363  1
  As  As12  1  0.62992359  0.72648814  0.95488014  1
