# generated using pymatgen
data_Li2TiI4(OF)3
_symmetry_space_group_name_H-M   'P 1'
_cell_length_a   6.89561896
_cell_length_b   6.68697392
_cell_length_c   7.18613611
_cell_angle_alpha   95.59085836
_cell_angle_beta   97.89501286
_cell_angle_gamma   95.28416890
_symmetry_Int_Tables_number   1
_chemical_formula_structural   Li2TiI4(OF)3
_chemical_formula_sum   'Li2 Ti1 I4 O3 F3'
_cell_volume   324.78132254
_cell_formula_units_Z   1
loop_
 _symmetry_equiv_pos_site_id
 _symmetry_equiv_pos_as_xyz
  1  'x, y, z'
loop_
 _atom_site_type_symbol
 _atom_site_label
 _atom_site_symmetry_multiplicity
 _atom_site_fract_x
 _atom_site_fract_y
 _atom_site_fract_z
 _atom_site_occupancy
  I  I0  1  0.00000000  0.00000000  0.00000000  1
  I  I1  1  0.50000000  0.50000000  0.50000000  1
  I  I2  1  0.25000000  0.25000000  0.25000000  1
  I  I3  1  0.75000000  0.25000000  0.00000000  1
  Li  Li4  1  0.25000000  0.75000000  0.50000000  1
  Li  Li5  1  0.22382575  0.17209983  0.44796817  1
  F  F6  1  0.43243876  0.44403092  0.66344461  1
  F  F7  1  0.96117983  0.35388012  0.96839277  1
  F  F8  1  0.62860925  0.38071699  0.25398200  1
  Ti  Ti9  1  0.40089128  0.42990249  0.38182636  1
  O  O10  1  0.55382648  0.14660518  0.39105406  1
  O  O11  1  0.89521535  0.24459331  0.76732577  1
  O  O12  1  0.65564308  0.71204479  0.80493462  1
