# generated using pymatgen
data_Li3LuSeO4
_symmetry_space_group_name_H-M   'P 1'
_cell_length_a   6.01276683
_cell_length_b   5.73546604
_cell_length_c   7.56660511
_cell_angle_alpha   99.43378318
_cell_angle_beta   101.73027110
_cell_angle_gamma   99.03761266
_symmetry_Int_Tables_number   1
_chemical_formula_structural   Li3LuSeO4
_chemical_formula_sum   'Li3 Lu1 Se1 O4'
_cell_volume   247.09129109
_cell_formula_units_Z   1
loop_
 _symmetry_equiv_pos_site_id
 _symmetry_equiv_pos_as_xyz
  1  'x, y, z'
loop_
 _atom_site_type_symbol
 _atom_site_label
 _atom_site_symmetry_multiplicity
 _atom_site_fract_x
 _atom_site_fract_y
 _atom_site_fract_z
 _atom_site_occupancy
  Lu  Lu0  1  0.00000000  0.00000000  0.00000000  1
  Li  Li1  1  0.33300000  0.66700000  0.25000000  1
  Li  Li2  1  0.66700000  0.33300000  0.50000000  1
  Li  Li3  1  0.00000000  0.00000000  0.75000000  1
  Se  Se4  1  0.28309670  0.06122897  0.08283659  1
  O  O5  1  0.21341302  0.49020368  0.55933239  1
  O  O6  1  0.88881793  0.23306846  0.29700112  1
  O  O7  1  0.69252059  0.26608267  0.05225951  1
  O  O8  1  0.11577067  0.28106729  0.50911722  1
