# generated using pymatgen
data_Li2Cu2As6I4F3
_symmetry_space_group_name_H-M   'P 1'
_cell_length_a   6.92073676
_cell_length_b   6.83137611
_cell_length_c   7.88739871
_cell_angle_alpha   94.18937247
_cell_angle_beta   96.77250055
_cell_angle_gamma   93.98367203
_symmetry_Int_Tables_number   1
_chemical_formula_structural   Li2Cu2As6I4F3
_chemical_formula_sum   'Li2 Cu2 As6 I4 F3'
_cell_volume   368.16046674
_cell_formula_units_Z   1
loop_
 _symmetry_equiv_pos_site_id
 _symmetry_equiv_pos_as_xyz
  1  'x, y, z'
loop_
 _atom_site_type_symbol
 _atom_site_label
 _atom_site_symmetry_multiplicity
 _atom_site_fract_x
 _atom_site_fract_y
 _atom_site_fract_z
 _atom_site_occupancy
  I  I0  1  0.12500000  0.00000000  0.25000000  1
  I  I1  1  0.00000000  0.00000000  0.00000000  1
  I  I2  1  0.37500000  0.00000000  0.25000000  1
  I  I3  1  0.25000000  0.25000000  0.25000000  1
  Li  Li4  1  0.00000000  0.25000000  0.12500000  1
  Li  Li5  1  0.62448485  0.81418105  0.92433509  1
  Cu  Cu6  1  0.85435620  0.25916463  0.98688153  1
  Cu  Cu7  1  0.32557365  0.33612204  0.14224725  1
  F  F8  1  0.72622659  0.77719843  0.23377968  1
  F  F9  1  0.08471560  0.04533836  0.85492128  1
  F  F10  1  0.46415300  0.02556751  0.21042140  1
  As  As11  1  0.29431839  0.39648760  0.44169602  1
  As  As12  1  0.31380860  0.88143204  0.29032195  1
  As  As13  1  0.14017554  0.68816636  0.84667936  1
  As  As14  1  0.93053613  0.12063903  0.47423932  1
  As  As15  1  0.28868518  0.99658908  0.47443134  1
  As  As16  1  0.46619863  0.71473687  0.54224708  1
