# generated using pymatgen
data_Li3TiNi2I4O5
_symmetry_space_group_name_H-M   'P 1'
_cell_length_a   8.29699862
_cell_length_b   8.14970376
_cell_length_c   8.21233154
_cell_angle_alpha   90.80586535
_cell_angle_beta   90.51091599
_cell_angle_gamma   90.93385378
_symmetry_Int_Tables_number   1
_chemical_formula_structural   Li3TiNi2I4O5
_chemical_formula_sum   'Li3 Ti1 Ni2 I4 O5'
_cell_volume   555.15019051
_cell_formula_units_Z   1
loop_
 _symmetry_equiv_pos_site_id
 _symmetry_equiv_pos_as_xyz
  1  'x, y, z'
loop_
 _atom_site_type_symbol
 _atom_site_label
 _atom_site_symmetry_multiplicity
 _atom_site_fract_x
 _atom_site_fract_y
 _atom_site_fract_z
 _atom_site_occupancy
  I  I0  1  0.00000000  0.00000000  0.00000000  1
  I  I1  1  0.50000000  0.50000000  0.50000000  1
  I  I2  1  0.50000000  0.50000000  0.00000000  1
  I  I3  1  0.50000000  0.00000000  0.50000000  1
  Li  Li4  1  0.00000000  0.50000000  0.50000000  1
  Li  Li5  1  0.46128205  0.11110923  0.11676060  1
  Li  Li6  1  0.59569989  0.63598134  0.03179563  1
  Ni  Ni7  1  0.87620081  0.81547662  0.17596176  1
  Ni  Ni8  1  0.76365856  0.75537863  0.87973160  1
  Ti  Ti9  1  0.56628872  0.33312387  0.01451832  1
  O  O10  1  0.01932568  0.79443463  0.40527782  1
  O  O11  1  0.18937570  0.77795340  0.81216603  1
  O  O12  1  0.44369820  0.49314367  0.04644491  1
  O  O13  1  0.18321872  0.35533791  0.80154767  1
  O  O14  1  0.98407142  0.96854850  0.98241123  1
