# generated using pymatgen
data_Li3Cu2Ni2(P3Cl)2
_symmetry_space_group_name_H-M   'P 1'
_cell_length_a   6.57806188
_cell_length_b   6.27661299
_cell_length_c   7.71453155
_cell_angle_alpha   97.43254522
_cell_angle_beta   99.07137500
_cell_angle_gamma   97.20422144
_symmetry_Int_Tables_number   1
_chemical_formula_structural   Li3Cu2Ni2(P3Cl)2
_chemical_formula_sum   'Li3 Cu2 Ni2 P6 Cl2'
_cell_volume   308.41378487
_cell_formula_units_Z   1
loop_
 _symmetry_equiv_pos_site_id
 _symmetry_equiv_pos_as_xyz
  1  'x, y, z'
loop_
 _atom_site_type_symbol
 _atom_site_label
 _atom_site_symmetry_multiplicity
 _atom_site_fract_x
 _atom_site_fract_y
 _atom_site_fract_z
 _atom_site_occupancy
  Cl  Cl0  1  0.00000000  0.00000000  0.00000000  1
  Cl  Cl1  1  0.50000000  0.50000000  0.50000000  1
  Ni  Ni2  1  0.50000000  0.50000000  0.00000000  1
  Ni  Ni3  1  0.50000000  0.00000000  0.50000000  1
  P  P4  1  0.00000000  0.50000000  0.50000000  1
  P  P5  1  0.35610486  0.72518695  0.14845926  1
  P  P6  1  0.61930995  0.72191136  0.32034076  1
  P  P7  1  0.20463800  0.29379117  0.55810361  1
  P  P8  1  0.96135269  0.90080860  0.73915899  1
  P  P9  1  0.62754232  0.86682084  0.82330463  1
  Li  Li10  1  0.23447117  0.64608124  0.79050577  1
  Li  Li11  1  0.73111719  0.16900106  0.78830195  1
  Li  Li12  1  0.40421648  0.28327480  0.68690845  1
  Cu  Cu13  1  0.53836405  0.45645686  0.58075711  1
  Cu  Cu14  1  0.67382129  0.98569027  0.01015509  1
