# generated using pymatgen
data_Li3Ni2(As3I2)2
_symmetry_space_group_name_H-M   'P 1'
_cell_length_a   7.95034624
_cell_length_b   7.73113140
_cell_length_c   8.51811812
_cell_angle_alpha   91.74463831
_cell_angle_beta   90.82375964
_cell_angle_gamma   92.02278862
_symmetry_Int_Tables_number   1
_chemical_formula_structural   Li3Ni2(As3I2)2
_chemical_formula_sum   'Li3 Ni2 As6 I4'
_cell_volume   522.93621500
_cell_formula_units_Z   1
loop_
 _symmetry_equiv_pos_site_id
 _symmetry_equiv_pos_as_xyz
  1  'x, y, z'
loop_
 _atom_site_type_symbol
 _atom_site_label
 _atom_site_symmetry_multiplicity
 _atom_site_fract_x
 _atom_site_fract_y
 _atom_site_fract_z
 _atom_site_occupancy
  I  I0  1  0.00000000  0.00000000  0.00000000  1
  I  I1  1  0.33300000  0.66700000  0.25000000  1
  I  I2  1  0.66700000  0.33300000  0.50000000  1
  I  I3  1  0.00000000  0.00000000  0.75000000  1
  Li  Li4  1  0.82038757  0.36357533  0.72392268  1
  Li  Li5  1  0.51220000  0.81833740  0.93275834  1
  Li  Li6  1  0.12775643  0.05646569  0.29678117  1
  Ni  Ni7  1  0.97269356  0.16858868  0.06738501  1
  Ni  Ni8  1  0.28142194  0.21939383  0.81132004  1
  As  As9  1  0.35092855  0.76581178  0.89631395  1
  As  As10  1  0.90268009  0.36187451  0.50833551  1
  As  As11  1  0.10897873  0.53575763  0.10459732  1
  As  As12  1  0.69600919  0.36083979  0.63264597  1
  As  As13  1  0.68135665  0.89629343  0.68722331  1
  As  As14  1  0.08361653  0.49901153  0.80643185  1
