# generated using pymatgen
data_Li4TiNi2SeO4
_symmetry_space_group_name_H-M   'P 1'
_cell_length_a   6.47339748
_cell_length_b   6.23174142
_cell_length_c   7.52664917
_cell_angle_alpha   98.39585455
_cell_angle_beta   100.51142649
_cell_angle_gamma   97.98643109
_symmetry_Int_Tables_number   1
_chemical_formula_structural   Li4TiNi2SeO4
_chemical_formula_sum   'Li4 Ti1 Ni2 Se1 O4'
_cell_volume   291.02393924
_cell_formula_units_Z   1
loop_
 _symmetry_equiv_pos_site_id
 _symmetry_equiv_pos_as_xyz
  1  'x, y, z'
loop_
 _atom_site_type_symbol
 _atom_site_label
 _atom_site_symmetry_multiplicity
 _atom_site_fract_x
 _atom_site_fract_y
 _atom_site_fract_z
 _atom_site_occupancy
  Li  Li0  1  0.00000000  0.00000000  0.00000000  1
  Li  Li1  1  0.50000000  0.50000000  0.50000000  1
  Li  Li2  1  0.25000000  0.25000000  0.25000000  1
  Li  Li3  1  0.75000000  0.25000000  0.00000000  1
  Se  Se4  1  0.25000000  0.75000000  0.50000000  1
  Ni  Ni5  1  0.28374932  0.74922145  0.90305418  1
  Ni  Ni6  1  0.58451244  0.52920173  0.02004277  1
  Ti  Ti7  1  0.05753449  0.66251435  0.02032060  1
  O  O8  1  0.94786185  0.89798547  0.79246624  1
  O  O9  1  0.83262154  0.62979058  0.27670214  1
  O  O10  1  0.75401913  0.56207724  0.76770233  1
  O  O11  1  0.76305477  0.87588489  0.43016728  1
