# generated using pymatgen
data_Li2LuCu2(NiAs3)2
_symmetry_space_group_name_H-M   'P 1'
_cell_length_a   7.71067530
_cell_length_b   7.53275270
_cell_length_c   8.72981243
_cell_angle_alpha   91.52740416
_cell_angle_beta   91.22281149
_cell_angle_gamma   91.74044887
_symmetry_Int_Tables_number   1
_chemical_formula_structural   Li2LuCu2(NiAs3)2
_chemical_formula_sum   'Li2 Lu1 Cu2 Ni2 As6'
_cell_volume   506.51179469
_cell_formula_units_Z   1
loop_
 _symmetry_equiv_pos_site_id
 _symmetry_equiv_pos_as_xyz
  1  'x, y, z'
loop_
 _atom_site_type_symbol
 _atom_site_label
 _atom_site_symmetry_multiplicity
 _atom_site_fract_x
 _atom_site_fract_y
 _atom_site_fract_z
 _atom_site_occupancy
  Lu  Lu0  1  0.00000000  0.00000000  0.00000000  1
  Li  Li1  1  0.50000000  0.50000000  0.50000000  1
  Li  Li2  1  0.25000000  0.25000000  0.25000000  1
  Cu  Cu3  1  0.75000000  0.25000000  0.00000000  1
  Cu  Cu4  1  0.25000000  0.75000000  0.50000000  1
  Ni  Ni5  1  0.45432794  0.06713293  0.62565224  1
  Ni  Ni6  1  0.88798857  0.52679260  0.34825500  1
  As  As7  1  0.09895865  0.21116061  0.04647135  1
  As  As8  1  0.95914940  0.74482390  0.73105954  1
  As  As9  1  0.55076500  0.87526628  0.12851036  1
  As  As10  1  0.12559192  0.13564308  0.40111038  1
  As  As11  1  0.06363354  0.90398845  0.03735509  1
  As  As12  1  0.36765398  0.88626580  0.27504616  1
