# generated using pymatgen
data_Li3TiP3(ClO2)2
_symmetry_space_group_name_H-M   'P 1'
_cell_length_a   7.99995797
_cell_length_b   7.78616949
_cell_length_c   7.17637765
_cell_angle_alpha   93.35721933
_cell_angle_beta   94.28639802
_cell_angle_gamma   93.15818955
_symmetry_Int_Tables_number   1
_chemical_formula_structural   Li3TiP3(ClO2)2
_chemical_formula_sum   'Li3 Ti1 P3 Cl2 O4'
_cell_volume   444.19951568
_cell_formula_units_Z   1
loop_
 _symmetry_equiv_pos_site_id
 _symmetry_equiv_pos_as_xyz
  1  'x, y, z'
loop_
 _atom_site_type_symbol
 _atom_site_label
 _atom_site_symmetry_multiplicity
 _atom_site_fract_x
 _atom_site_fract_y
 _atom_site_fract_z
 _atom_site_occupancy
  P  P0  1  0.00000000  0.00000000  0.00000000  1
  P  P1  1  0.50000000  0.50000000  0.50000000  1
  P  P2  1  0.25000000  0.25000000  0.25000000  1
  Li  Li3  1  0.75000000  0.25000000  0.00000000  1
  Li  Li4  1  0.25000000  0.75000000  0.50000000  1
  Li  Li5  1  0.15459636  0.46351135  0.48711111  1
  Cl  Cl6  1  0.78760315  0.29157405  0.15432278  1
  Cl  Cl7  1  0.15734176  0.83122786  0.70329692  1
  Ti  Ti8  1  0.34172497  0.04399161  0.12796483  1
  O  O9  1  0.29645370  0.83782990  0.12055794  1
  O  O10  1  0.10735138  0.43849335  0.25608575  1
  O  O11  1  0.39368444  0.30621922  0.13948885  1
  O  O12  1  0.15384841  0.49551322  0.80701795  1
