# generated using pymatgen
data_Li3As6I4(OF)3
_symmetry_space_group_name_H-M   'P 1'
_cell_length_a   7.71831032
_cell_length_b   7.61415565
_cell_length_c   7.83768091
_cell_angle_alpha   91.62892853
_cell_angle_beta   93.16104277
_cell_angle_gamma   91.58006617
_symmetry_Int_Tables_number   1
_chemical_formula_structural   Li3As6I4(OF)3
_chemical_formula_sum   'Li3 As6 I4 O3 F3'
_cell_volume   459.52542117
_cell_formula_units_Z   1
loop_
 _symmetry_equiv_pos_site_id
 _symmetry_equiv_pos_as_xyz
  1  'x, y, z'
loop_
 _atom_site_type_symbol
 _atom_site_label
 _atom_site_symmetry_multiplicity
 _atom_site_fract_x
 _atom_site_fract_y
 _atom_site_fract_z
 _atom_site_occupancy
  I  I0  1  0.00000000  0.00000000  0.00000000  1
  I  I1  1  0.50000000  0.50000000  0.50000000  1
  I  I2  1  0.25000000  0.25000000  0.25000000  1
  I  I3  1  0.75000000  0.25000000  0.00000000  1
  Li  Li4  1  0.25000000  0.75000000  0.50000000  1
  Li  Li5  1  0.35980593  0.01096703  0.44805215  1
  Li  Li6  1  0.04875572  0.86334770  0.86756561  1
  F  F7  1  0.02715244  0.59481855  0.52957257  1
  F  F8  1  0.56122148  0.16507039  0.10266098  1
  F  F9  1  0.19638853  0.96165104  0.65219740  1
  As  As10  1  0.99162945  0.41696499  0.10052117  1
  As  As11  1  0.56097523  0.12832640  0.65699594  1
  As  As12  1  0.20458876  0.70887170  0.89690119  1
  As  As13  1  0.27916029  0.22302043  0.39110869  1
  As  As14  1  0.07263171  0.51173074  0.07194898  1
  As  As15  1  0.24153891  0.38547225  0.91803629  1
  O  O16  1  0.28313418  0.18489383  0.30034678  1
  O  O17  1  0.97060958  0.84992828  0.13302590  1
  O  O18  1  0.81041488  0.92524373  0.70787689  1
