# generated using pymatgen
data_LiTiSe3BrO3
_symmetry_space_group_name_H-M   'P 1'
_cell_length_a   5.37063468
_cell_length_b   5.84832494
_cell_length_c   7.22494186
_cell_angle_alpha   96.83804911
_cell_angle_beta   94.24660342
_cell_angle_gamma   98.46726933
_symmetry_Int_Tables_number   1
_chemical_formula_structural   LiTiSe3BrO3
_chemical_formula_sum   'Li1 Ti1 Se3 Br1 O3'
_cell_volume   221.88849770
_cell_formula_units_Z   1
loop_
 _symmetry_equiv_pos_site_id
 _symmetry_equiv_pos_as_xyz
  1  'x, y, z'
loop_
 _atom_site_type_symbol
 _atom_site_label
 _atom_site_symmetry_multiplicity
 _atom_site_fract_x
 _atom_site_fract_y
 _atom_site_fract_z
 _atom_site_occupancy
  Se  Se0  1  0.00000000  0.00000000  0.00000000  1
  Se  Se1  1  0.50000000  0.50000000  0.50000000  1
  Se  Se2  1  0.50000000  0.50000000  0.00000000  1
  Li  Li3  1  0.50000000  0.00000000  0.50000000  1
  Ti  Ti4  1  0.00000000  0.50000000  0.50000000  1
  O  O5  1  0.65686472  0.88584468  0.66892934  1
  O  O6  1  0.41241840  0.46612080  0.01032679  1
  O  O7  1  0.80398815  0.70518706  0.17928297  1
  Br  Br8  1  0.62250288  0.92846445  0.26666735  1
