# generated using pymatgen
data_LiMn2(Sb2P)2
_symmetry_space_group_name_H-M   'P 1'
_cell_length_a   4.87411771
_cell_length_b   5.23195666
_cell_length_c   6.41660994
_cell_angle_alpha   99.35417929
_cell_angle_beta   95.55935934
_cell_angle_gamma   98.90572400
_symmetry_Int_Tables_number   1
_chemical_formula_structural   LiMn2(Sb2P)2
_chemical_formula_sum   'Li1 Mn2 Sb4 P2'
_cell_volume   158.25379660
_cell_formula_units_Z   1
loop_
 _symmetry_equiv_pos_site_id
 _symmetry_equiv_pos_as_xyz
  1  'x, y, z'
loop_
 _atom_site_type_symbol
 _atom_site_label
 _atom_site_symmetry_multiplicity
 _atom_site_fract_x
 _atom_site_fract_y
 _atom_site_fract_z
 _atom_site_occupancy
  Mn  Mn0  1  0.12500000  0.12500000  0.12500000  1
  Mn  Mn1  1  0.50000000  0.50000000  0.50000000  1
  Sb  Sb2  1  0.25000000  0.25000000  0.25000000  1
  Sb  Sb3  1  0.75000000  0.75000000  0.75000000  1
  Sb  Sb4  1  0.52185690  0.05504542  0.98662738  1
  Sb  Sb5  1  0.17401514  0.48527374  0.46006284  1
  P  P6  1  0.09341989  0.84982097  0.10800876  1
  P  P7  1  0.12200462  0.94491333  0.43735472  1
  Li  Li8  1  0.52703629  0.95470843  0.49834010  1
