# generated using pymatgen
data_Li2Mn2Sb4P2N
_symmetry_space_group_name_H-M   'P 1'
_cell_length_a   3.75638185
_cell_length_b   4.02727932
_cell_length_c   6.52999933
_cell_angle_alpha   101.75181350
_cell_angle_beta   102.85750069
_cell_angle_gamma   100.79746559
_symmetry_Int_Tables_number   1
_chemical_formula_structural   Li2Mn2Sb4P2N
_chemical_formula_sum   'Li2 Mn2 Sb4 P2 N1'
_cell_volume   91.44613574
_cell_formula_units_Z   1
loop_
 _symmetry_equiv_pos_site_id
 _symmetry_equiv_pos_as_xyz
  1  'x, y, z'
loop_
 _atom_site_type_symbol
 _atom_site_label
 _atom_site_symmetry_multiplicity
 _atom_site_fract_x
 _atom_site_fract_y
 _atom_site_fract_z
 _atom_site_occupancy
  Mn  Mn0  1  0.12500000  0.00000000  0.25000000  1
  Mn  Mn1  1  0.00000000  0.00000000  0.00000000  1
  Sb  Sb2  1  0.37500000  0.00000000  0.25000000  1
  Sb  Sb3  1  0.25000000  0.25000000  0.25000000  1
  Sb  Sb4  1  0.00000000  0.25000000  0.12500000  1
  Sb  Sb5  1  0.46639157  0.64463224  0.98513966  1
  P  P6  1  0.59613157  0.86050530  0.09514351  1
  P  P7  1  0.78535205  0.01325081  0.27743512  1
  Li  Li8  1  0.43521767  0.29154277  0.99476036  1
  Li  Li9  1  0.50436684  0.64280072  0.64504845  1
  N  N10  1  0.56855242  0.38388511  0.75053768  1
