# generated using pymatgen
data_Li2TiP4I4N5
_symmetry_space_group_name_H-M   'P 1'
_cell_length_a   7.49375180
_cell_length_b   7.39270494
_cell_length_c   7.92562252
_cell_angle_alpha   94.02069818
_cell_angle_beta   94.16931806
_cell_angle_gamma   94.03857286
_symmetry_Int_Tables_number   1
_chemical_formula_structural   Li2TiP4I4N5
_chemical_formula_sum   'Li2 Ti1 P4 I4 N5'
_cell_volume   435.57204316
_cell_formula_units_Z   1
loop_
 _symmetry_equiv_pos_site_id
 _symmetry_equiv_pos_as_xyz
  1  'x, y, z'
loop_
 _atom_site_type_symbol
 _atom_site_label
 _atom_site_symmetry_multiplicity
 _atom_site_fract_x
 _atom_site_fract_y
 _atom_site_fract_z
 _atom_site_occupancy
  Ti  Ti0  1  0.12500000  0.00000000  0.25000000  1
  P  P1  1  0.00000000  0.00000000  0.00000000  1
  P  P2  1  0.37500000  0.00000000  0.25000000  1
  P  P3  1  0.25000000  0.25000000  0.25000000  1
  P  P4  1  0.00000000  0.25000000  0.12500000  1
  I  I5  1  0.60157776  0.19797059  0.65897866  1
  I  I6  1  0.29993995  0.22411426  0.02350801  1
  I  I7  1  0.81902011  0.30307752  0.51281969  1
  I  I8  1  0.17829492  0.86719726  0.30406208  1
  Li  Li9  1  0.48072912  0.76240287  0.23103030  1
  Li  Li10  1  0.08725482  0.77110216  0.33582218  1
  N  N11  1  0.18030162  0.38324589  0.55774684  1
  N  N12  1  0.00637982  0.38059456  0.01684521  1
  N  N13  1  0.54820562  0.29692548  0.77481281  1
  N  N14  1  0.72808428  0.46898640  0.21584955  1
  N  N15  1  0.04425470  0.47814482  0.47637099  1
