# generated using pymatgen
data_Li3Ti(CuS)2
_symmetry_space_group_name_H-M   'P 1'
_cell_length_a   6.82602731
_cell_length_b   6.39491912
_cell_length_c   7.53022032
_cell_angle_alpha   93.24043501
_cell_angle_beta   93.69506321
_cell_angle_gamma   92.87252429
_symmetry_Int_Tables_number   1
_chemical_formula_structural   Li3Ti(CuS)2
_chemical_formula_sum   'Li3 Ti1 Cu2 S2'
_cell_volume   327.02351827
_cell_formula_units_Z   1
loop_
 _symmetry_equiv_pos_site_id
 _symmetry_equiv_pos_as_xyz
  1  'x, y, z'
loop_
 _atom_site_type_symbol
 _atom_site_label
 _atom_site_symmetry_multiplicity
 _atom_site_fract_x
 _atom_site_fract_y
 _atom_site_fract_z
 _atom_site_occupancy
  Li  Li0  1  0.12500000  0.12500000  0.12500000  1
  Li  Li1  1  0.50000000  0.50000000  0.50000000  1
  Li  Li2  1  0.25000000  0.25000000  0.25000000  1
  Cu  Cu3  1  0.75000000  0.75000000  0.75000000  1
  Cu  Cu4  1  0.54181214  0.47602424  0.89706167  1
  S  S5  1  0.50739208  0.26687207  0.80396765  1
  S  S6  1  0.11626627  0.94203786  0.93939338  1
  Ti  Ti7  1  0.74896987  0.47591669  0.47470920  1
