# generated using pymatgen
data_LiZnCuAs3
_symmetry_space_group_name_H-M   'P 1'
_cell_length_a   7.93695721
_cell_length_b   8.25375877
_cell_length_c   7.93863119
_cell_angle_alpha   90.28325317
_cell_angle_beta   91.34763255
_cell_angle_gamma   90.32383401
_symmetry_Int_Tables_number   1
_chemical_formula_structural   LiZnCuAs3
_chemical_formula_sum   'Li2 Zn2 Cu2 As6'
_cell_volume   519.89873302
_cell_formula_units_Z   2
loop_
 _symmetry_equiv_pos_site_id
 _symmetry_equiv_pos_as_xyz
  1  'x, y, z'
loop_
 _atom_site_type_symbol
 _atom_site_label
 _atom_site_symmetry_multiplicity
 _atom_site_fract_x
 _atom_site_fract_y
 _atom_site_fract_z
 _atom_site_occupancy
  Li  Li0  1  0.12500000  0.12500000  0.12500000  1
  Li  Li1  1  0.50000000  0.50000000  0.50000000  1
  Cu  Cu2  1  0.25000000  0.25000000  0.25000000  1
  Cu  Cu3  1  0.75000000  0.75000000  0.75000000  1
  Zn  Zn4  1  0.00229322  0.17759356  0.11851631  1
  Zn  Zn5  1  0.60761878  0.62936931  0.41014537  1
  As  As6  1  0.03237526  0.44543431  0.95130572  1
  As  As7  1  0.99212429  0.43864758  0.67814900  1
  As  As8  1  0.71395974  0.28015835  0.03868737  1
  As  As9  1  0.34680161  0.79600926  0.91624670  1
  As  As10  1  0.54994173  0.12216119  0.22659379  1
  As  As11  1  0.98345993  0.73167524  0.42598590  1
