# generated using pymatgen
data_Li2Mn2Sb4P3
_symmetry_space_group_name_H-M   'P 1'
_cell_length_a   5.80280818
_cell_length_b   6.29178661
_cell_length_c   7.24103328
_cell_angle_alpha   94.66603013
_cell_angle_beta   95.52734382
_cell_angle_gamma   95.31051839
_symmetry_Int_Tables_number   1
_chemical_formula_structural   Li2Mn2Sb4P3
_chemical_formula_sum   'Li2 Mn2 Sb4 P3'
_cell_volume   260.92273152
_cell_formula_units_Z   1
loop_
 _symmetry_equiv_pos_site_id
 _symmetry_equiv_pos_as_xyz
  1  'x, y, z'
loop_
 _atom_site_type_symbol
 _atom_site_label
 _atom_site_symmetry_multiplicity
 _atom_site_fract_x
 _atom_site_fract_y
 _atom_site_fract_z
 _atom_site_occupancy
  Mn  Mn0  1  0.00000000  0.00000000  0.00000000  1
  Mn  Mn1  1  0.50000000  0.50000000  0.50000000  1
  Sb  Sb2  1  0.50000000  0.50000000  0.00000000  1
  Sb  Sb3  1  0.50000000  0.00000000  0.50000000  1
  Sb  Sb4  1  0.00000000  0.50000000  0.50000000  1
  Sb  Sb5  1  0.79830404  0.19285006  0.60804160  1
  P  P6  1  0.83202804  0.75433744  0.26399314  1
  P  P7  1  0.42092869  0.91490701  0.37890042  1
  P  P8  1  0.99875069  0.86584335  0.52994137  1
  Li  Li9  1  0.27924999  0.12678359  0.47754740  1
  Li  Li10  1  0.96866647  0.48587879  0.07593386  1
