# generated using pymatgen
data_Li2MnSb4P3
_symmetry_space_group_name_H-M   'P 1'
_cell_length_a   4.61682615
_cell_length_b   4.70380294
_cell_length_c   6.73867276
_cell_angle_alpha   100.39530204
_cell_angle_beta   96.39471616
_cell_angle_gamma   101.00676902
_symmetry_Int_Tables_number   1
_chemical_formula_structural   Li2MnSb4P3
_chemical_formula_sum   'Li2 Mn1 Sb4 P3'
_cell_volume   139.67057623
_cell_formula_units_Z   1
loop_
 _symmetry_equiv_pos_site_id
 _symmetry_equiv_pos_as_xyz
  1  'x, y, z'
loop_
 _atom_site_type_symbol
 _atom_site_label
 _atom_site_symmetry_multiplicity
 _atom_site_fract_x
 _atom_site_fract_y
 _atom_site_fract_z
 _atom_site_occupancy
  Mn  Mn0  1  0.00000000  0.00000000  0.00000000  1
  Sb  Sb1  1  0.50000000  0.50000000  0.50000000  1
  Sb  Sb2  1  0.50000000  0.50000000  0.00000000  1
  Sb  Sb3  1  0.50000000  0.00000000  0.50000000  1
  Sb  Sb4  1  0.00000000  0.50000000  0.50000000  1
  P  P5  1  0.74469956  0.24295931  0.04013546  1
  P  P6  1  0.48200713  0.39975167  0.37006226  1
  P  P7  1  0.06302673  0.96759009  0.31181489  1
  Li  Li8  1  0.22700815  0.62295538  0.76151731  1
  Li  Li9  1  0.39578899  0.48076882  0.95341360  1
