# generated using pymatgen
data_Li2TiI4F3
_symmetry_space_group_name_H-M   'P 1'
_cell_length_a   8.47025631
_cell_length_b   8.30975271
_cell_length_c   7.46871962
_cell_angle_alpha   90.47238118
_cell_angle_beta   90.57067556
_cell_angle_gamma   90.54638239
_symmetry_Int_Tables_number   1
_chemical_formula_structural   Li2TiI4F3
_chemical_formula_sum   'Li2 Ti1 I4 F3'
_cell_volume   525.62306293
_cell_formula_units_Z   1
loop_
 _symmetry_equiv_pos_site_id
 _symmetry_equiv_pos_as_xyz
  1  'x, y, z'
loop_
 _atom_site_type_symbol
 _atom_site_label
 _atom_site_symmetry_multiplicity
 _atom_site_fract_x
 _atom_site_fract_y
 _atom_site_fract_z
 _atom_site_occupancy
  I  I0  1  0.12500000  0.12500000  0.12500000  1
  I  I1  1  0.50000000  0.50000000  0.50000000  1
  I  I2  1  0.25000000  0.25000000  0.25000000  1
  I  I3  1  0.75000000  0.75000000  0.75000000  1
  Li  Li4  1  0.02268144  0.57990320  0.55900538  1
  Li  Li5  1  0.74055443  0.45383524  0.55009403  1
  F  F6  1  0.60020176  0.10635928  0.65838079  1
  F  F7  1  0.61758399  0.41846718  0.97250564  1
  F  F8  1  0.76041434  0.60497759  0.72045597  1
  Ti  Ti9  1  0.42610512  0.79253902  0.95163392  1
