# generated using pymatgen
data_Li2TiI4O3
_symmetry_space_group_name_H-M   'P 1'
_cell_length_a   7.53228696
_cell_length_b   7.53034045
_cell_length_c   7.05836373
_cell_angle_alpha   93.23788372
_cell_angle_beta   94.59023926
_cell_angle_gamma   93.98209416
_symmetry_Int_Tables_number   1
_chemical_formula_structural   Li2TiI4O3
_chemical_formula_sum   'Li2 Ti1 I4 O3'
_cell_volume   397.33209892
_cell_formula_units_Z   1
loop_
 _symmetry_equiv_pos_site_id
 _symmetry_equiv_pos_as_xyz
  1  'x, y, z'
loop_
 _atom_site_type_symbol
 _atom_site_label
 _atom_site_symmetry_multiplicity
 _atom_site_fract_x
 _atom_site_fract_y
 _atom_site_fract_z
 _atom_site_occupancy
  I  I0  1  0.00000000  0.00000000  0.00000000  1
  I  I1  1  0.33300000  0.66700000  0.25000000  1
  I  I2  1  0.66700000  0.33300000  0.50000000  1
  I  I3  1  0.00000000  0.00000000  0.75000000  1
  Li  Li4  1  0.99481743  0.28162826  0.41889614  1
  Li  Li5  1  0.43258762  0.23094578  0.67198053  1
  Ti  Ti6  1  0.43526991  0.30742389  0.31705000  1
  O  O7  1  0.64120309  0.96897742  0.11655397  1
  O  O8  1  0.64966030  0.89723164  0.24338439  1
  O  O9  1  0.64732477  0.45351233  0.87663162  1
