# generated using pymatgen
data_Li3LuZn2N5O4
_symmetry_space_group_name_H-M   'P 1'
_cell_length_a   8.14461647
_cell_length_b   8.38794193
_cell_length_c   7.65127970
_cell_angle_alpha   91.29056705
_cell_angle_beta   91.13117637
_cell_angle_gamma   91.36397154
_symmetry_Int_Tables_number   1
_chemical_formula_structural   Li3LuZn2N5O4
_chemical_formula_sum   'Li3 Lu1 Zn2 N5 O4'
_cell_volume   522.32098863
_cell_formula_units_Z   1
loop_
 _symmetry_equiv_pos_site_id
 _symmetry_equiv_pos_as_xyz
  1  'x, y, z'
loop_
 _atom_site_type_symbol
 _atom_site_label
 _atom_site_symmetry_multiplicity
 _atom_site_fract_x
 _atom_site_fract_y
 _atom_site_fract_z
 _atom_site_occupancy
  Lu  Lu0  1  0.00000000  0.00000000  0.00000000  1
  Li  Li1  1  0.50000000  0.50000000  0.50000000  1
  Li  Li2  1  0.50000000  0.50000000  0.00000000  1
  Li  Li3  1  0.50000000  0.00000000  0.50000000  1
  Zn  Zn4  1  0.00000000  0.50000000  0.50000000  1
  Zn  Zn5  1  0.77110192  0.10223309  0.62504234  1
  O  O6  1  0.81513630  0.13538744  0.70000293  1
  O  O7  1  0.97484221  0.74641499  0.89773430  1
  O  O8  1  0.89356779  0.49919379  0.65664038  1
  O  O9  1  0.05261524  0.45820063  0.81404098  1
  N  N10  1  0.52590502  0.52708070  0.04583082  1
  N  N11  1  0.09296839  0.96298904  0.74589256  1
  N  N12  1  0.67018760  0.16807197  0.85448691  1
  N  N13  1  0.75596141  0.17937493  0.89821109  1
  N  N14  1  0.35309629  0.47892814  0.93285475  1
