# generated using pymatgen
data_Li2TiI4N5O3
_symmetry_space_group_name_H-M   'P 1'
_cell_length_a   8.07018537
_cell_length_b   7.86038785
_cell_length_c   7.78191502
_cell_angle_alpha   91.07557308
_cell_angle_beta   91.07202644
_cell_angle_gamma   91.24492531
_symmetry_Int_Tables_number   1
_chemical_formula_structural   Li2TiI4N5O3
_chemical_formula_sum   'Li2 Ti1 I4 N5 O3'
_cell_volume   493.35039333
_cell_formula_units_Z   1
loop_
 _symmetry_equiv_pos_site_id
 _symmetry_equiv_pos_as_xyz
  1  'x, y, z'
loop_
 _atom_site_type_symbol
 _atom_site_label
 _atom_site_symmetry_multiplicity
 _atom_site_fract_x
 _atom_site_fract_y
 _atom_site_fract_z
 _atom_site_occupancy
  I  I0  1  0.12500000  0.00000000  0.25000000  1
  I  I1  1  0.00000000  0.00000000  0.00000000  1
  I  I2  1  0.37500000  0.00000000  0.25000000  1
  I  I3  1  0.25000000  0.25000000  0.25000000  1
  Li  Li4  1  0.00000000  0.25000000  0.12500000  1
  Li  Li5  1  0.92736560  0.98249252  0.09758310  1
  Ti  Ti6  1  0.18637795  0.77419914  0.46726798  1
  O  O7  1  0.27907740  0.22417932  0.98584616  1
  O  O8  1  0.88014255  0.32665523  0.08170399  1
  O  O9  1  0.80640225  0.42705322  0.01524190  1
  N  N10  1  0.94076595  0.95817931  0.31431829  1
  N  N11  1  0.51409938  0.05040156  0.83484622  1
  N  N12  1  0.48453688  0.99138153  0.61922937  1
  N  N13  1  0.66978548  0.39175578  0.72458449  1
  N  N14  1  0.12658279  0.72236030  0.26600084  1
