# generated using pymatgen
data_Li4LuVP4N5
_symmetry_space_group_name_H-M   'P 1'
_cell_length_a   5.75505057
_cell_length_b   4.92309317
_cell_length_c   7.38220853
_cell_angle_alpha   100.15459724
_cell_angle_beta   93.59007653
_cell_angle_gamma   101.77810351
_symmetry_Int_Tables_number   1
_chemical_formula_structural   Li4LuVP4N5
_chemical_formula_sum   'Li4 Lu1 V1 P4 N5'
_cell_volume   200.48848124
_cell_formula_units_Z   1
loop_
 _symmetry_equiv_pos_site_id
 _symmetry_equiv_pos_as_xyz
  1  'x, y, z'
loop_
 _atom_site_type_symbol
 _atom_site_label
 _atom_site_symmetry_multiplicity
 _atom_site_fract_x
 _atom_site_fract_y
 _atom_site_fract_z
 _atom_site_occupancy
  P  P0  1  0.12500000  0.00000000  0.25000000  1
  P  P1  1  0.00000000  0.00000000  0.00000000  1
  P  P2  1  0.37500000  0.00000000  0.25000000  1
  P  P3  1  0.25000000  0.25000000  0.25000000  1
  Lu  Lu4  1  0.00000000  0.25000000  0.12500000  1
  Li  Li5  1  0.12641797  0.88193625  0.56601147  1
  Li  Li6  1  0.70037903  0.55159516  0.23302450  1
  Li  Li7  1  0.86315562  0.94850990  0.29879818  1
  Li  Li8  1  0.12563039  0.14537418  0.10459440  1
  V  V9  1  0.27774235  0.26321360  0.10960858  1
  N  N10  1  0.05777430  0.57565056  0.83594099  1
  N  N11  1  0.86115737  0.53183349  0.32667572  1
  N  N12  1  0.00665196  0.95378638  0.17064096  1
  N  N13  1  0.48894252  0.59034988  0.53444292  1
  N  N14  1  0.84781127  0.55302055  0.21605561  1
