# generated using pymatgen
data_Li3Zn2Te6(IO)4
_symmetry_space_group_name_H-M   'P 1'
_cell_length_a   8.73265407
_cell_length_b   8.86867466
_cell_length_c   7.33036167
_cell_angle_alpha   90.00000000
_cell_angle_beta   90.00000000
_cell_angle_gamma   90.00000000
_symmetry_Int_Tables_number   1
_chemical_formula_structural   Li3Zn2Te6(IO)4
_chemical_formula_sum   'Li3 Zn2 Te6 I4 O4'
_cell_volume   567.71501786
_cell_formula_units_Z   1
loop_
 _symmetry_equiv_pos_site_id
 _symmetry_equiv_pos_as_xyz
  1  'x, y, z'
loop_
 _atom_site_type_symbol
 _atom_site_label
 _atom_site_symmetry_multiplicity
 _atom_site_fract_x
 _atom_site_fract_y
 _atom_site_fract_z
 _atom_site_occupancy
  I  I0  1  0.00000000  0.00000000  0.00000000  1
  I  I1  1  0.50000000  0.50000000  0.50000000  1
  I  I2  1  0.50000000  0.50000000  0.00000000  1
  I  I3  1  0.50000000  0.00000000  0.50000000  1
  Li  Li4  1  0.00000000  0.50000000  0.50000000  1
  Li  Li5  1  0.59874410  0.28731286  0.15623202  1
  Li  Li6  1  0.62505847  0.29101145  0.38292009  1
  Zn  Zn7  1  0.03537955  0.93678182  0.38547778  1
  Zn  Zn8  1  0.09802807  0.29147637  0.02212483  1
  Te  Te9  1  0.58432742  0.18377200  0.79906140  1
  Te  Te10  1  0.69600773  0.28160446  0.46514135  1
  Te  Te11  1  0.72989242  0.79775425  0.45887990  1
  Te  Te12  1  0.74493758  0.84967904  0.70817884  1
  Te  Te13  1  0.15150822  0.23985494  0.72391828  1
  Te  Te14  1  0.95841257  0.34626288  0.48789042  1
  O  O15  1  0.58276432  0.68256182  0.90474324  1
  O  O16  1  0.15130419  0.31907714  0.67139883  1
  O  O17  1  0.13722885  0.02348442  0.16926383  1
  O  O18  1  0.02543831  0.44886191  0.72294647  1
