# generated using pymatgen
data_Li2TiCu2(As2P)3
_symmetry_space_group_name_H-M   'P 1'
_cell_length_a   6.62493132
_cell_length_b   6.45337054
_cell_length_c   7.45775770
_cell_angle_alpha   94.09829320
_cell_angle_beta   95.28032661
_cell_angle_gamma   93.73931687
_symmetry_Int_Tables_number   1
_chemical_formula_structural   Li2TiCu2(As2P)3
_chemical_formula_sum   'Li2 Ti1 Cu2 As6 P3'
_cell_volume   315.84920886
_cell_formula_units_Z   1
loop_
 _symmetry_equiv_pos_site_id
 _symmetry_equiv_pos_as_xyz
  1  'x, y, z'
loop_
 _atom_site_type_symbol
 _atom_site_label
 _atom_site_symmetry_multiplicity
 _atom_site_fract_x
 _atom_site_fract_y
 _atom_site_fract_z
 _atom_site_occupancy
  Ti  Ti0  1  0.12500000  0.00000000  0.25000000  1
  P  P1  1  0.00000000  0.00000000  0.00000000  1
  P  P2  1  0.37500000  0.00000000  0.25000000  1
  P  P3  1  0.25000000  0.25000000  0.25000000  1
  As  As4  1  0.00000000  0.25000000  0.12500000  1
  As  As5  1  0.27785299  0.42053823  0.43192306  1
  As  As6  1  0.64351076  0.57436344  0.04780290  1
  As  As7  1  0.68561250  0.07241564  0.94198058  1
  As  As8  1  0.25658150  0.49803604  0.64189138  1
  As  As9  1  0.97007157  0.59003640  0.06657991  1
  Li  Li10  1  0.72425113  0.16487484  0.72178807  1
  Li  Li11  1  0.95027036  0.64187333  0.61100309  1
  Cu  Cu12  1  0.14914326  0.69896714  0.78509207  1
  Cu  Cu13  1  0.43409673  0.22291356  0.65303225  1
