# generated using pymatgen
data_Li2Ti(As2O)3
_symmetry_space_group_name_H-M   'P 1'
_cell_length_a   7.82283426
_cell_length_b   7.78983749
_cell_length_c   7.82923391
_cell_angle_alpha   90.37547296
_cell_angle_beta   91.78638631
_cell_angle_gamma   90.42926585
_symmetry_Int_Tables_number   1
_chemical_formula_structural   Li2Ti(As2O)3
_chemical_formula_sum   'Li2 Ti1 As6 O3'
_cell_volume   476.84636156
_cell_formula_units_Z   1
loop_
 _symmetry_equiv_pos_site_id
 _symmetry_equiv_pos_as_xyz
  1  'x, y, z'
loop_
 _atom_site_type_symbol
 _atom_site_label
 _atom_site_symmetry_multiplicity
 _atom_site_fract_x
 _atom_site_fract_y
 _atom_site_fract_z
 _atom_site_occupancy
  Li  Li0  1  0.00000000  0.00000000  0.00000000  1
  Li  Li1  1  0.50000000  0.50000000  0.50000000  1
  Ti  Ti2  1  0.25000000  0.25000000  0.25000000  1
  As  As3  1  0.75000000  0.25000000  0.00000000  1
  As  As4  1  0.25000000  0.75000000  0.50000000  1
  As  As5  1  0.50681917  0.45315913  0.14461428  1
  As  As6  1  0.73632582  0.48030765  0.08403825  1
  As  As7  1  0.93899680  0.72677697  0.20716504  1
  As  As8  1  0.38359329  0.73966597  0.78332758  1
  O  O9  1  0.10782334  0.47864746  0.68683781  1
  O  O10  1  0.96033973  0.08448303  0.21868428  1
  O  O11  1  0.50303379  0.09636716  0.79772196  1
