# generated using pymatgen
data_Li2Cu2I4F3
_symmetry_space_group_name_H-M   'P 1'
_cell_length_a   7.73802943
_cell_length_b   7.76010685
_cell_length_c   7.97528048
_cell_angle_alpha   90.40160229
_cell_angle_beta   91.91070171
_cell_angle_gamma   90.45913865
_symmetry_Int_Tables_number   1
_chemical_formula_structural   Li2Cu2I4F3
_chemical_formula_sum   'Li2 Cu2 I4 F3'
_cell_volume   478.60480654
_cell_formula_units_Z   1
loop_
 _symmetry_equiv_pos_site_id
 _symmetry_equiv_pos_as_xyz
  1  'x, y, z'
loop_
 _atom_site_type_symbol
 _atom_site_label
 _atom_site_symmetry_multiplicity
 _atom_site_fract_x
 _atom_site_fract_y
 _atom_site_fract_z
 _atom_site_occupancy
  F  F0  1  0.00000000  0.00000000  0.00000000  1
  F  F1  1  0.33300000  0.66700000  0.25000000  1
  F  F2  1  0.66700000  0.33300000  0.50000000  1
  I  I3  1  0.00000000  0.00000000  0.75000000  1
  I  I4  1  0.00559336  0.29389269  0.64703813  1
  I  I5  1  0.83668329  0.40163422  0.74453187  1
  I  I6  1  0.73242405  0.44864072  0.97556808  1
  Li  Li7  1  0.05765391  0.85804688  0.90873484  1
  Li  Li8  1  0.04681754  0.95662027  0.89251056  1
  Cu  Cu9  1  0.54246493  0.92468056  0.33084803  1
  Cu  Cu10  1  0.47421146  0.01624542  0.27318649  1
