# generated using pymatgen
data_Li2LuCu2As6N5
_symmetry_space_group_name_H-M   'P 1'
_cell_length_a   7.43349784
_cell_length_b   7.50435713
_cell_length_c   8.41515461
_cell_angle_alpha   91.46946361
_cell_angle_beta   92.56497769
_cell_angle_gamma   91.58146728
_symmetry_Int_Tables_number   1
_chemical_formula_structural   Li2LuCu2As6N5
_chemical_formula_sum   'Li2 Lu1 Cu2 As6 N5'
_cell_volume   468.60902027
_cell_formula_units_Z   1
loop_
 _symmetry_equiv_pos_site_id
 _symmetry_equiv_pos_as_xyz
  1  'x, y, z'
loop_
 _atom_site_type_symbol
 _atom_site_label
 _atom_site_symmetry_multiplicity
 _atom_site_fract_x
 _atom_site_fract_y
 _atom_site_fract_z
 _atom_site_occupancy
  Lu  Lu0  1  0.00000000  0.00000000  0.00000000  1
  As  As1  1  0.50000000  0.50000000  0.50000000  1
  As  As2  1  0.50000000  0.50000000  0.00000000  1
  As  As3  1  0.50000000  0.00000000  0.50000000  1
  As  As4  1  0.00000000  0.50000000  0.50000000  1
  As  As5  1  0.60844875  0.80027381  0.53897341  1
  As  As6  1  0.18472057  0.91686199  0.92939350  1
  Li  Li7  1  0.42722990  0.61805909  0.99487309  1
  Li  Li8  1  0.07928993  0.45866875  0.41062421  1
  N  N9  1  0.54224914  0.76041585  0.19567518  1
  N  N10  1  0.98518241  0.95293138  0.09546727  1
  N  N11  1  0.62490317  0.07019508  0.89814781  1
  N  N12  1  0.55331221  0.68241084  0.65560434  1
  N  N13  1  0.94870888  0.94368144  0.42026503  1
  Cu  Cu14  1  0.48983894  0.67840961  0.86233004  1
  Cu  Cu15  1  0.89333488  0.89020622  0.83981663  1
