# generated using pymatgen
data_Li3TiI4N5O4
_symmetry_space_group_name_H-M   'P 1'
_cell_length_a   8.24183961
_cell_length_b   8.06760988
_cell_length_c   7.42354977
_cell_angle_alpha   91.55866514
_cell_angle_beta   91.41755062
_cell_angle_gamma   91.52372352
_symmetry_Int_Tables_number   1
_chemical_formula_structural   Li3TiI4N5O4
_chemical_formula_sum   'Li3 Ti1 I4 N5 O4'
_cell_volume   493.08902262
_cell_formula_units_Z   1
loop_
 _symmetry_equiv_pos_site_id
 _symmetry_equiv_pos_as_xyz
  1  'x, y, z'
loop_
 _atom_site_type_symbol
 _atom_site_label
 _atom_site_symmetry_multiplicity
 _atom_site_fract_x
 _atom_site_fract_y
 _atom_site_fract_z
 _atom_site_occupancy
  I  I0  1  0.00000000  0.00000000  0.00000000  1
  I  I1  1  0.50000000  0.50000000  0.50000000  1
  I  I2  1  0.25000000  0.25000000  0.25000000  1
  I  I3  1  0.75000000  0.25000000  0.00000000  1
  Li  Li4  1  0.25000000  0.75000000  0.50000000  1
  Li  Li5  1  0.97179373  0.11791966  0.43817493  1
  Li  Li6  1  0.43328055  0.04289559  0.46756274  1
  Ti  Ti7  1  0.12908805  0.35296520  0.13636993  1
  O  O8  1  0.58907574  0.54236755  0.07601243  1
  O  O9  1  0.34702623  0.87111636  0.17823782  1
  O  O10  1  0.30930838  0.24801517  0.48376401  1
  O  O11  1  0.54939492  0.76178049  0.63084255  1
  N  N12  1  0.73172925  0.02811744  0.13662786  1
  N  N13  1  0.34288766  0.49830252  0.59492224  1
  N  N14  1  0.92613182  0.32375176  0.12435902  1
  N  N15  1  0.85909580  0.36385949  0.70990733  1
  N  N16  1  0.50176058  0.31677575  0.38940505  1
