# generated using pymatgen
data_Li3Ti(IO)4
_symmetry_space_group_name_H-M   'P 1'
_cell_length_a   8.86375593
_cell_length_b   8.74394517
_cell_length_c   7.26382007
_cell_angle_alpha   90.00000000
_cell_angle_beta   90.00000000
_cell_angle_gamma   90.00000000
_symmetry_Int_Tables_number   1
_chemical_formula_structural   Li3Ti(IO)4
_chemical_formula_sum   'Li3 Ti1 I4 O4'
_cell_volume   562.97653321
_cell_formula_units_Z   1
loop_
 _symmetry_equiv_pos_site_id
 _symmetry_equiv_pos_as_xyz
  1  'x, y, z'
loop_
 _atom_site_type_symbol
 _atom_site_label
 _atom_site_symmetry_multiplicity
 _atom_site_fract_x
 _atom_site_fract_y
 _atom_site_fract_z
 _atom_site_occupancy
  I  I0  1  0.00000000  0.00000000  0.00000000  1
  I  I1  1  0.33300000  0.66700000  0.25000000  1
  I  I2  1  0.66700000  0.33300000  0.50000000  1
  I  I3  1  0.00000000  0.00000000  0.75000000  1
  Li  Li4  1  0.40814156  0.90045575  0.01902424  1
  Li  Li5  1  0.69138633  0.26988639  0.45713132  1
  Li  Li6  1  0.16521461  0.13864424  0.36961289  1
  Ti  Ti7  1  0.00604373  0.10164542  0.75300284  1
  O  O8  1  0.09776937  0.45409672  0.51900988  1
  O  O9  1  0.18084041  0.83052914  0.30814497  1
  O  O10  1  0.61232268  0.51239443  0.41343969  1
  O  O11  1  0.88551326  0.19585648  0.70619288  1
