# generated using pymatgen
data_Li4TiP3SeCl2
_symmetry_space_group_name_H-M   'P 1'
_cell_length_a   6.65282009
_cell_length_b   6.28918187
_cell_length_c   6.82109780
_cell_angle_alpha   98.78468099
_cell_angle_beta   101.21601999
_cell_angle_gamma   98.26388894
_symmetry_Int_Tables_number   1
_chemical_formula_structural   Li4TiP3SeCl2
_chemical_formula_sum   'Li4 Ti1 P3 Se1 Cl2'
_cell_volume   272.20115892
_cell_formula_units_Z   1
loop_
 _symmetry_equiv_pos_site_id
 _symmetry_equiv_pos_as_xyz
  1  'x, y, z'
loop_
 _atom_site_type_symbol
 _atom_site_label
 _atom_site_symmetry_multiplicity
 _atom_site_fract_x
 _atom_site_fract_y
 _atom_site_fract_z
 _atom_site_occupancy
  P  P0  1  0.12500000  0.00000000  0.25000000  1
  P  P1  1  0.00000000  0.00000000  0.00000000  1
  P  P2  1  0.37500000  0.00000000  0.25000000  1
  Li  Li3  1  0.25000000  0.25000000  0.25000000  1
  Li  Li4  1  0.00000000  0.25000000  0.12500000  1
  Li  Li5  1  0.74195281  0.56495517  0.26366747  1
  Li  Li6  1  0.58050900  0.74296182  0.44741671  1
  Se  Se7  1  0.18303675  0.75487845  0.48557278  1
  Cl  Cl8  1  0.53887685  0.57264972  0.01884324  1
  Cl  Cl9  1  0.91630748  0.15944584  0.31921498  1
  Ti  Ti10  1  0.61560331  0.16537919  0.07707338  1
