# generated using pymatgen
data_Li2Ti2P5
_symmetry_space_group_name_H-M   'P 1'
_cell_length_a   7.12639864
_cell_length_b   6.94134476
_cell_length_c   7.69253872
_cell_angle_alpha   91.79807534
_cell_angle_beta   93.73893322
_cell_angle_gamma   91.73522117
_symmetry_Int_Tables_number   1
_chemical_formula_structural   Li2Ti2P5
_chemical_formula_sum   'Li2 Ti2 P5'
_cell_volume   379.32889339
_cell_formula_units_Z   1
loop_
 _symmetry_equiv_pos_site_id
 _symmetry_equiv_pos_as_xyz
  1  'x, y, z'
loop_
 _atom_site_type_symbol
 _atom_site_label
 _atom_site_symmetry_multiplicity
 _atom_site_fract_x
 _atom_site_fract_y
 _atom_site_fract_z
 _atom_site_occupancy
  Ti  Ti0  1  0.12500000  0.12500000  0.12500000  1
  Ti  Ti1  1  0.50000000  0.50000000  0.50000000  1
  P  P2  1  0.25000000  0.25000000  0.25000000  1
  P  P3  1  0.75000000  0.75000000  0.75000000  1
  P  P4  1  0.59015771  0.35698873  0.80668245  1
  P  P5  1  0.09213985  0.07546485  0.99841380  1
  P  P6  1  0.28210904  0.22282303  0.98922405  1
  Li  Li7  1  0.16849389  0.78500572  0.70976412  1
  Li  Li8  1  0.87872383  0.87714231  0.24635622  1
