# generated using pymatgen
data_Li3Ti(IO)4
_symmetry_space_group_name_H-M   'P 1'
_cell_length_a   7.75536273
_cell_length_b   7.54922510
_cell_length_c   7.36816331
_cell_angle_alpha   94.54275292
_cell_angle_beta   95.80005212
_cell_angle_gamma   94.27343983
_symmetry_Int_Tables_number   1
_chemical_formula_structural   Li3Ti(IO)4
_chemical_formula_sum   'Li3 Ti1 I4 O4'
_cell_volume   426.34347047
_cell_formula_units_Z   1
loop_
 _symmetry_equiv_pos_site_id
 _symmetry_equiv_pos_as_xyz
  1  'x, y, z'
loop_
 _atom_site_type_symbol
 _atom_site_label
 _atom_site_symmetry_multiplicity
 _atom_site_fract_x
 _atom_site_fract_y
 _atom_site_fract_z
 _atom_site_occupancy
  Li  Li0  1  0.00000000  0.00000000  0.00000000  1
  Li  Li1  1  0.50000000  0.50000000  0.50000000  1
  Li  Li2  1  0.25000000  0.25000000  0.25000000  1
  Ti  Ti3  1  0.75000000  0.25000000  0.00000000  1
  I  I4  1  0.25000000  0.75000000  0.50000000  1
  I  I5  1  0.25360483  0.39554791  0.25253337  1
  I  I6  1  0.71700321  0.25992770  0.64955095  1
  I  I7  1  0.23178011  0.68690036  0.41020678  1
  O  O8  1  0.35922534  0.13773279  0.18247629  1
  O  O9  1  0.12230811  0.41064631  0.01304821  1
  O  O10  1  0.67564351  0.49838694  0.44645019  1
  O  O11  1  0.73022222  0.91100602  0.52546332  1
