# generated using pymatgen
data_LiMn(Sb2P)2
_symmetry_space_group_name_H-M   'P 1'
_cell_length_a   5.56888976
_cell_length_b   5.78118683
_cell_length_c   7.05709347
_cell_angle_alpha   95.83774300
_cell_angle_beta   96.59928608
_cell_angle_gamma   95.89949136
_symmetry_Int_Tables_number   1
_chemical_formula_structural   LiMn(Sb2P)2
_chemical_formula_sum   'Li1 Mn1 Sb4 P2'
_cell_volume   223.01432699
_cell_formula_units_Z   1
loop_
 _symmetry_equiv_pos_site_id
 _symmetry_equiv_pos_as_xyz
  1  'x, y, z'
loop_
 _atom_site_type_symbol
 _atom_site_label
 _atom_site_symmetry_multiplicity
 _atom_site_fract_x
 _atom_site_fract_y
 _atom_site_fract_z
 _atom_site_occupancy
  Mn  Mn0  1  0.12500000  0.12500000  0.12500000  1
  Sb  Sb1  1  0.50000000  0.50000000  0.50000000  1
  Sb  Sb2  1  0.25000000  0.25000000  0.25000000  1
  Sb  Sb3  1  0.75000000  0.75000000  0.75000000  1
  Sb  Sb4  1  0.19441615  0.93121685  0.85355131  1
  P  P5  1  0.53703905  0.95653153  0.98098248  1
  P  P6  1  0.83361575  0.13405762  0.66528099  1
  Li  Li7  1  0.19273987  0.98617372  0.76935484  1
