# generated using pymatgen
data_Li3Ni2Te6(IO)4
_symmetry_space_group_name_H-M   'P 1'
_cell_length_a   5.65859226
_cell_length_b   5.41804251
_cell_length_c   7.25568883
_cell_angle_alpha   102.48173110
_cell_angle_beta   106.03316972
_cell_angle_gamma   101.72373836
_symmetry_Int_Tables_number   1
_chemical_formula_structural   Li3Ni2Te6(IO)4
_chemical_formula_sum   'Li3 Ni2 Te6 I4 O4'
_cell_volume   200.38394285
_cell_formula_units_Z   1
loop_
 _symmetry_equiv_pos_site_id
 _symmetry_equiv_pos_as_xyz
  1  'x, y, z'
loop_
 _atom_site_type_symbol
 _atom_site_label
 _atom_site_symmetry_multiplicity
 _atom_site_fract_x
 _atom_site_fract_y
 _atom_site_fract_z
 _atom_site_occupancy
  I  I0  1  0.00000000  0.00000000  0.00000000  1
  I  I1  1  0.50000000  0.50000000  0.50000000  1
  I  I2  1  0.50000000  0.50000000  0.00000000  1
  I  I3  1  0.50000000  0.00000000  0.50000000  1
  Li  Li4  1  0.00000000  0.50000000  0.50000000  1
  Li  Li5  1  0.53773805  0.40793364  0.90521139  1
  Li  Li6  1  0.46745569  0.46225936  0.36890321  1
  Ni  Ni7  1  0.17378238  0.56886281  0.00252461  1
  Ni  Ni8  1  0.43521985  0.42396072  0.97386609  1
  Te  Te9  1  0.05609733  0.43280541  0.71037654  1
  Te  Te10  1  0.41893334  0.07881350  0.83241551  1
  Te  Te11  1  0.16062850  0.50122394  0.05186478  1
  Te  Te12  1  0.38156956  0.16001208  0.54795201  1
  Te  Te13  1  0.52049156  0.76904703  0.49595128  1
  Te  Te14  1  0.66830960  0.75046044  0.87468693  1
  O  O15  1  0.91033412  0.14616519  0.32916685  1
  O  O16  1  0.58064080  0.12302271  0.36583908  1
  O  O17  1  0.06038362  0.24483763  0.25705143  1
  O  O18  1  0.52793423  0.83352236  0.14147860  1
