# generated using pymatgen
data_Li3TiAs6(IO)4
_symmetry_space_group_name_H-M   'P 1'
_cell_length_a   6.57247563
_cell_length_b   6.35085357
_cell_length_c   7.63502372
_cell_angle_alpha   97.11318754
_cell_angle_beta   99.07032682
_cell_angle_gamma   96.80359084
_symmetry_Int_Tables_number   1
_chemical_formula_structural   Li3TiAs6(IO)4
_chemical_formula_sum   'Li3 Ti1 As6 I4 O4'
_cell_volume   309.17321916
_cell_formula_units_Z   1
loop_
 _symmetry_equiv_pos_site_id
 _symmetry_equiv_pos_as_xyz
  1  'x, y, z'
loop_
 _atom_site_type_symbol
 _atom_site_label
 _atom_site_symmetry_multiplicity
 _atom_site_fract_x
 _atom_site_fract_y
 _atom_site_fract_z
 _atom_site_occupancy
  I  I0  1  0.12500000  0.00000000  0.25000000  1
  I  I1  1  0.00000000  0.00000000  0.00000000  1
  I  I2  1  0.37500000  0.00000000  0.25000000  1
  I  I3  1  0.25000000  0.25000000  0.25000000  1
  Li  Li4  1  0.00000000  0.25000000  0.12500000  1
  Li  Li5  1  0.65499152  0.90314560  0.67555509  1
  Li  Li6  1  0.98198218  0.36042423  0.66563455  1
  Ti  Ti7  1  0.24172721  0.98755750  0.50169677  1
  As  As8  1  0.85730809  0.94708909  0.31485572  1
  As  As9  1  0.44519942  0.58365997  0.96942379  1
  As  As10  1  0.45453333  0.39820730  0.06130315  1
  As  As11  1  0.73038626  0.05899672  0.40261051  1
  As  As12  1  0.02819296  0.70402184  0.09266702  1
  As  As13  1  0.41040028  0.41986697  0.96521285  1
  O  O14  1  0.86716883  0.95151122  0.75892181  1
  O  O15  1  0.13403723  0.91630956  0.23016999  1
  O  O16  1  0.91403846  0.59124543  0.81371930  1
  O  O17  1  0.66616903  0.34035255  0.77845415  1
