# generated using pymatgen
data_LiAs3I2
_symmetry_space_group_name_H-M   'P 1'
_cell_length_a   7.68027620
_cell_length_b   7.72942994
_cell_length_c   8.31905137
_cell_angle_alpha   90.92027707
_cell_angle_beta   91.76839972
_cell_angle_gamma   91.06196702
_symmetry_Int_Tables_number   1
_chemical_formula_structural   LiAs3I2
_chemical_formula_sum   'Li2 As6 I4'
_cell_volume   493.46511369
_cell_formula_units_Z   2
loop_
 _symmetry_equiv_pos_site_id
 _symmetry_equiv_pos_as_xyz
  1  'x, y, z'
loop_
 _atom_site_type_symbol
 _atom_site_label
 _atom_site_symmetry_multiplicity
 _atom_site_fract_x
 _atom_site_fract_y
 _atom_site_fract_z
 _atom_site_occupancy
  I  I0  1  0.00000000  0.00000000  0.00000000  1
  I  I1  1  0.50000000  0.50000000  0.50000000  1
  I  I2  1  0.25000000  0.25000000  0.25000000  1
  I  I3  1  0.75000000  0.25000000  0.00000000  1
  As  As4  1  0.25000000  0.75000000  0.50000000  1
  As  As5  1  0.63205358  0.28979736  0.16943010  1
  As  As6  1  0.80700512  0.52013539  0.15930305  1
  As  As7  1  0.61322532  0.90910641  0.31515545  1
  As  As8  1  0.31767273  0.15342508  0.73109996  1
  As  As9  1  0.76617535  0.77203278  0.60170782  1
  Li  Li10  1  0.78938459  0.27790487  0.00753156  1
  Li  Li11  1  0.24888978  0.71782764  0.29534525  1
