# generated using pymatgen
data_Li2LuCu2(PN)5
_symmetry_space_group_name_H-M   'P 1'
_cell_length_a   7.11947535
_cell_length_b   6.81147506
_cell_length_c   7.77258829
_cell_angle_alpha   93.02140209
_cell_angle_beta   93.91436818
_cell_angle_gamma   93.03833554
_symmetry_Int_Tables_number   1
_chemical_formula_structural   Li2LuCu2(PN)5
_chemical_formula_sum   'Li2 Lu1 Cu2 P5 N5'
_cell_volume   374.91632459
_cell_formula_units_Z   1
loop_
 _symmetry_equiv_pos_site_id
 _symmetry_equiv_pos_as_xyz
  1  'x, y, z'
loop_
 _atom_site_type_symbol
 _atom_site_label
 _atom_site_symmetry_multiplicity
 _atom_site_fract_x
 _atom_site_fract_y
 _atom_site_fract_z
 _atom_site_occupancy
  P  P0  1  0.00000000  0.00000000  0.00000000  1
  P  P1  1  0.50000000  0.50000000  0.50000000  1
  P  P2  1  0.50000000  0.50000000  0.00000000  1
  P  P3  1  0.50000000  0.00000000  0.50000000  1
  P  P4  1  0.00000000  0.50000000  0.50000000  1
  Lu  Lu5  1  0.67081797  0.16174517  0.97855607  1
  Li  Li6  1  0.56018430  0.27779019  0.41989239  1
  Li  Li7  1  0.98555014  0.98180893  0.63839477  1
  Cu  Cu8  1  0.13047838  0.48793733  0.67311735  1
  Cu  Cu9  1  0.17519968  0.07731230  0.65058281  1
  N  N10  1  0.35893697  0.94238962  0.78136460  1
  N  N11  1  0.26629898  0.12568903  0.85145653  1
  N  N12  1  0.30837855  0.45658609  0.76504267  1
  N  N13  1  0.01868038  0.29787119  0.50627706  1
  N  N14  1  0.72870241  0.33115887  0.86856551  1
