# generated using pymatgen
data_Li2S2I4Br5O3
_symmetry_space_group_name_H-M   'P 1'
_cell_length_a   6.55025611
_cell_length_b   6.12015149
_cell_length_c   6.90134986
_cell_angle_alpha   94.23858628
_cell_angle_beta   95.89966935
_cell_angle_gamma   93.89650663
_symmetry_Int_Tables_number   1
_chemical_formula_structural   Li2S2I4Br5O3
_chemical_formula_sum   'Li2 S2 I4 Br5 O3'
_cell_volume   273.64995875
_cell_formula_units_Z   1
loop_
 _symmetry_equiv_pos_site_id
 _symmetry_equiv_pos_as_xyz
  1  'x, y, z'
loop_
 _atom_site_type_symbol
 _atom_site_label
 _atom_site_symmetry_multiplicity
 _atom_site_fract_x
 _atom_site_fract_y
 _atom_site_fract_z
 _atom_site_occupancy
  I  I0  1  0.00000000  0.00000000  0.00000000  1
  I  I1  1  0.50000000  0.50000000  0.50000000  1
  I  I2  1  0.50000000  0.50000000  0.00000000  1
  I  I3  1  0.50000000  0.00000000  0.50000000  1
  Li  Li4  1  0.00000000  0.50000000  0.50000000  1
  Li  Li5  1  0.62182630  0.59770910  0.97926005  1
  Br  Br6  1  0.51048887  0.08042503  0.91491740  1
  Br  Br7  1  0.62616041  0.02320856  0.87135511  1
  Br  Br8  1  0.63052709  0.28731171  0.54852095  1
  Br  Br9  1  0.58443851  0.97074063  0.58592684  1
  Br  Br10  1  0.95419856  0.85273381  0.33294269  1
  S  S11  1  0.65902430  0.42043081  0.32887960  1
  S  S12  1  0.53121933  0.51018640  0.46193500  1
  O  O13  1  0.85601124  0.65717623  0.89247150  1
  O  O14  1  0.40580084  0.84129869  0.34231015  1
  O  O15  1  0.19477515  0.03918012  0.61486148  1
