# generated using pymatgen
data_Li2Cu2As6P5
_symmetry_space_group_name_H-M   'P 1'
_cell_length_a   7.90077031
_cell_length_b   7.64979358
_cell_length_c   8.36034314
_cell_angle_alpha   91.42697720
_cell_angle_beta   91.22637509
_cell_angle_gamma   91.65239796
_symmetry_Int_Tables_number   1
_chemical_formula_structural   Li2Cu2As6P5
_chemical_formula_sum   'Li2 Cu2 As6 P5'
_cell_volume   504.80247956
_cell_formula_units_Z   1
loop_
 _symmetry_equiv_pos_site_id
 _symmetry_equiv_pos_as_xyz
  1  'x, y, z'
loop_
 _atom_site_type_symbol
 _atom_site_label
 _atom_site_symmetry_multiplicity
 _atom_site_fract_x
 _atom_site_fract_y
 _atom_site_fract_z
 _atom_site_occupancy
  P  P0  1  0.00000000  0.00000000  0.00000000  1
  P  P1  1  0.33300000  0.66700000  0.25000000  1
  P  P2  1  0.66700000  0.33300000  0.50000000  1
  P  P3  1  0.00000000  0.00000000  0.75000000  1
  P  P4  1  0.27722660  0.74526897  0.37275313  1
  Li  Li5  1  0.01224530  0.19837149  0.72103102  1
  Li  Li6  1  0.20407594  0.26213843  0.94328590  1
  Cu  Cu7  1  0.97349158  0.84302752  0.38490869  1
  Cu  Cu8  1  0.30715028  0.04597851  0.30961124  1
  As  As9  1  0.99358047  0.40325721  0.95926891  1
  As  As10  1  0.25480013  0.89700337  0.16291195  1
  As  As11  1  0.38561280  0.84837507  0.75408943  1
  As  As12  1  0.27233318  0.19241743  0.10288863  1
  As  As13  1  0.73777147  0.00634308  0.98545700  1
  As  As14  1  0.41321116  0.60308992  0.18511733  1
