# generated using pymatgen
data_LiCuAs3P2
_symmetry_space_group_name_H-M   'P 1'
_cell_length_a   7.18049669
_cell_length_b   6.99442068
_cell_length_c   7.99550745
_cell_angle_alpha   92.44392946
_cell_angle_beta   92.67505410
_cell_angle_gamma   92.42191898
_symmetry_Int_Tables_number   1
_chemical_formula_structural   LiCuAs3P2
_chemical_formula_sum   'Li2 Cu2 As6 P4'
_cell_volume   400.36516133
_cell_formula_units_Z   2
loop_
 _symmetry_equiv_pos_site_id
 _symmetry_equiv_pos_as_xyz
  1  'x, y, z'
loop_
 _atom_site_type_symbol
 _atom_site_label
 _atom_site_symmetry_multiplicity
 _atom_site_fract_x
 _atom_site_fract_y
 _atom_site_fract_z
 _atom_site_occupancy
  P  P0  1  0.12500000  0.12500000  0.12500000  1
  P  P1  1  0.50000000  0.50000000  0.50000000  1
  P  P2  1  0.25000000  0.25000000  0.25000000  1
  P  P3  1  0.75000000  0.75000000  0.75000000  1
  Li  Li4  1  0.36165446  0.20789976  0.93527165  1
  Li  Li5  1  0.82442852  0.82542635  0.59392325  1
  Cu  Cu6  1  0.56638429  0.05765640  0.84161837  1
  Cu  Cu7  1  0.92826318  0.49110765  0.54427071  1
  As  As8  1  0.99973347  0.01390173  0.53663059  1
  As  As9  1  0.14457798  0.11028939  0.10905868  1
  As  As10  1  0.77586068  0.74483579  0.19352948  1
  As  As11  1  0.04061996  0.64329585  0.97522392  1
  As  As12  1  0.70933714  0.84915928  0.46475498  1
  As  As13  1  0.89989617  0.75274397  0.87505225  1
