# generated using pymatgen
data_Li2TiI4(OF)2
_symmetry_space_group_name_H-M   'P 1'
_cell_length_a   6.74553826
_cell_length_b   6.76295701
_cell_length_c   7.12602111
_cell_angle_alpha   94.40746186
_cell_angle_beta   96.68443587
_cell_angle_gamma   95.40918875
_symmetry_Int_Tables_number   1
_chemical_formula_structural   Li2TiI4(OF)2
_chemical_formula_sum   'Li2 Ti1 I4 O2 F2'
_cell_volume   320.16950560
_cell_formula_units_Z   1
loop_
 _symmetry_equiv_pos_site_id
 _symmetry_equiv_pos_as_xyz
  1  'x, y, z'
loop_
 _atom_site_type_symbol
 _atom_site_label
 _atom_site_symmetry_multiplicity
 _atom_site_fract_x
 _atom_site_fract_y
 _atom_site_fract_z
 _atom_site_occupancy
  I  I0  1  0.00000000  0.00000000  0.00000000  1
  I  I1  1  0.50000000  0.50000000  0.50000000  1
  I  I2  1  0.25000000  0.25000000  0.25000000  1
  I  I3  1  0.75000000  0.25000000  0.00000000  1
  Li  Li4  1  0.25000000  0.75000000  0.50000000  1
  Li  Li5  1  0.46015277  0.33661276  0.66331251  1
  F  F6  1  0.19594242  0.87049449  0.72642453  1
  F  F7  1  0.29971967  0.97680851  0.27584075  1
  Ti  Ti8  1  0.68176125  0.38144153  0.18001800  1
  O  O9  1  0.36229774  0.32146838  0.24796988  1
  O  O10  1  0.86013573  0.44270325  0.67176899  1
