# generated using pymatgen
data_Li3TiI4O4F3
_symmetry_space_group_name_H-M   'P 1'
_cell_length_a   6.73001871
_cell_length_b   6.50079423
_cell_length_c   7.05014941
_cell_angle_alpha   98.15649025
_cell_angle_beta   100.53324774
_cell_angle_gamma   97.65074430
_symmetry_Int_Tables_number   1
_chemical_formula_structural   Li3TiI4O4F3
_chemical_formula_sum   'Li3 Ti1 I4 O4 F3'
_cell_volume   296.14511622
_cell_formula_units_Z   1
loop_
 _symmetry_equiv_pos_site_id
 _symmetry_equiv_pos_as_xyz
  1  'x, y, z'
loop_
 _atom_site_type_symbol
 _atom_site_label
 _atom_site_symmetry_multiplicity
 _atom_site_fract_x
 _atom_site_fract_y
 _atom_site_fract_z
 _atom_site_occupancy
  I  I0  1  0.00000000  0.00000000  0.00000000  1
  I  I1  1  0.50000000  0.50000000  0.50000000  1
  I  I2  1  0.50000000  0.50000000  0.00000000  1
  I  I3  1  0.50000000  0.00000000  0.50000000  1
  Li  Li4  1  0.00000000  0.50000000  0.50000000  1
  Li  Li5  1  0.51443147  0.16870937  0.15711427  1
  Li  Li6  1  0.42638935  0.35246983  0.15345793  1
  F  F7  1  0.26614101  0.09029187  0.02719851  1
  F  F8  1  0.07965063  0.72546678  0.04793936  1
  F  F9  1  0.85525020  0.79100013  0.72517257  1
  Ti  Ti10  1  0.35820933  0.00983874  0.83373952  1
  O  O11  1  0.97537539  0.67983109  0.75532407  1
  O  O12  1  0.24041145  0.71378188  0.24210188  1
  O  O13  1  0.78084202  0.12962933  0.72385949  1
  O  O14  1  0.82398278  0.84334563  0.80799435  1
