# generated using pymatgen
data_Li2TiP4F2
_symmetry_space_group_name_H-M   'P 1'
_cell_length_a   6.71310374
_cell_length_b   6.35355483
_cell_length_c   7.40719163
_cell_angle_alpha   93.94407269
_cell_angle_beta   95.24111834
_cell_angle_gamma   93.71625357
_symmetry_Int_Tables_number   1
_chemical_formula_structural   Li2TiP4F2
_chemical_formula_sum   'Li2 Ti1 P4 F2'
_cell_volume   313.06128493
_cell_formula_units_Z   1
loop_
 _symmetry_equiv_pos_site_id
 _symmetry_equiv_pos_as_xyz
  1  'x, y, z'
loop_
 _atom_site_type_symbol
 _atom_site_label
 _atom_site_symmetry_multiplicity
 _atom_site_fract_x
 _atom_site_fract_y
 _atom_site_fract_z
 _atom_site_occupancy
  P  P0  1  0.12500000  0.12500000  0.12500000  1
  P  P1  1  0.50000000  0.50000000  0.50000000  1
  P  P2  1  0.25000000  0.25000000  0.25000000  1
  P  P3  1  0.75000000  0.75000000  0.75000000  1
  Li  Li4  1  0.71978391  0.85548410  0.12271586  1
  Li  Li5  1  0.83374711  0.26423037  0.23562194  1
  F  F6  1  0.78591918  0.82236492  0.30915725  1
  F  F7  1  0.50614492  0.16358401  0.61134309  1
  Ti  Ti8  1  0.25301710  0.01176409  0.86074293  1
