# generated using pymatgen
data_Li3Ti(IO)4
_symmetry_space_group_name_H-M   'P 1'
_cell_length_a   8.58610657
_cell_length_b   8.41429893
_cell_length_c   7.54134682
_cell_angle_alpha   90.70409586
_cell_angle_beta   90.24892745
_cell_angle_gamma   90.81666597
_symmetry_Int_Tables_number   1
_chemical_formula_structural   Li3Ti(IO)4
_chemical_formula_sum   'Li3 Ti1 I4 O4'
_cell_volume   544.73060616
_cell_formula_units_Z   1
loop_
 _symmetry_equiv_pos_site_id
 _symmetry_equiv_pos_as_xyz
  1  'x, y, z'
loop_
 _atom_site_type_symbol
 _atom_site_label
 _atom_site_symmetry_multiplicity
 _atom_site_fract_x
 _atom_site_fract_y
 _atom_site_fract_z
 _atom_site_occupancy
  I  I0  1  0.00000000  0.00000000  0.00000000  1
  I  I1  1  0.33300000  0.66700000  0.25000000  1
  I  I2  1  0.66700000  0.33300000  0.50000000  1
  I  I3  1  0.00000000  0.00000000  0.75000000  1
  Li  Li4  1  0.69301299  0.26697969  0.66307045  1
  Li  Li5  1  0.20072896  0.63618262  0.33594224  1
  Li  Li6  1  0.23778380  0.32832071  0.69704193  1
  Ti  Ti7  1  0.05150689  0.56349793  0.99168514  1
  O  O8  1  0.46690479  0.71231305  0.38996988  1
  O  O9  1  0.67171013  0.94156404  0.29523615  1
  O  O10  1  0.39218336  0.19273454  0.48522030  1
  O  O11  1  0.42864118  0.66477547  0.41490776  1
