# generated using pymatgen
data_LiCuNiAs3
_symmetry_space_group_name_H-M   'P 1'
_cell_length_a   7.28763264
_cell_length_b   7.26712599
_cell_length_c   7.87257390
_cell_angle_alpha   91.00082822
_cell_angle_beta   91.85413715
_cell_angle_gamma   90.87822835
_symmetry_Int_Tables_number   1
_chemical_formula_structural   LiCuNiAs3
_chemical_formula_sum   'Li2 Cu2 Ni2 As6'
_cell_volume   416.59809586
_cell_formula_units_Z   2
loop_
 _symmetry_equiv_pos_site_id
 _symmetry_equiv_pos_as_xyz
  1  'x, y, z'
loop_
 _atom_site_type_symbol
 _atom_site_label
 _atom_site_symmetry_multiplicity
 _atom_site_fract_x
 _atom_site_fract_y
 _atom_site_fract_z
 _atom_site_occupancy
  Ni  Ni0  1  0.00000000  0.00000000  0.00000000  1
  Ni  Ni1  1  0.50000000  0.50000000  0.50000000  1
  As  As2  1  0.25000000  0.25000000  0.25000000  1
  As  As3  1  0.75000000  0.25000000  0.00000000  1
  As  As4  1  0.25000000  0.75000000  0.50000000  1
  As  As5  1  0.45160310  0.28984732  0.97071659  1
  As  As6  1  0.24680247  0.82674698  0.34919826  1
  As  As7  1  0.02098062  0.40419998  0.28243677  1
  Li  Li8  1  0.27621620  0.00910954  0.27818816  1
  Li  Li9  1  0.19257282  0.89504704  0.50585366  1
  Cu  Cu10  1  0.40385809  0.81443023  0.71812835  1
  Cu  Cu11  1  0.31560540  0.74863781  0.65427629  1
