# generated using pymatgen
data_LiNiAs3
_symmetry_space_group_name_H-M   'P 1'
_cell_length_a   7.65096124
_cell_length_b   7.60728527
_cell_length_c   8.82948462
_cell_angle_alpha   91.22421763
_cell_angle_beta   91.48150532
_cell_angle_gamma   91.41598871
_symmetry_Int_Tables_number   1
_chemical_formula_structural   LiNiAs3
_chemical_formula_sum   'Li2 Ni2 As6'
_cell_volume   513.44972172
_cell_formula_units_Z   2
loop_
 _symmetry_equiv_pos_site_id
 _symmetry_equiv_pos_as_xyz
  1  'x, y, z'
loop_
 _atom_site_type_symbol
 _atom_site_label
 _atom_site_symmetry_multiplicity
 _atom_site_fract_x
 _atom_site_fract_y
 _atom_site_fract_z
 _atom_site_occupancy
  Ni  Ni0  1  0.00000000  0.00000000  0.00000000  1
  Ni  Ni1  1  0.50000000  0.50000000  0.50000000  1
  As  As2  1  0.50000000  0.50000000  0.00000000  1
  As  As3  1  0.50000000  0.00000000  0.50000000  1
  As  As4  1  0.00000000  0.50000000  0.50000000  1
  As  As5  1  0.71978236  0.49134401  0.82598941  1
  As  As6  1  0.23441568  0.52182204  0.45178820  1
  As  As7  1  0.71568305  0.66320545  0.60986505  1
  Li  Li8  1  0.77092095  0.39084376  0.93562283  1
  Li  Li9  1  0.40286305  0.50818659  0.69209632  1
