# generated using pymatgen
data_Li3TiNi2I4O5
_symmetry_space_group_name_H-M   'P 1'
_cell_length_a   8.43223381
_cell_length_b   8.29154570
_cell_length_c   8.00649769
_cell_angle_alpha   90.60263562
_cell_angle_beta   90.38206901
_cell_angle_gamma   90.69834687
_symmetry_Int_Tables_number   1
_chemical_formula_structural   Li3TiNi2I4O5
_chemical_formula_sum   'Li3 Ti1 Ni2 I4 O5'
_cell_volume   559.69883820
_cell_formula_units_Z   1
loop_
 _symmetry_equiv_pos_site_id
 _symmetry_equiv_pos_as_xyz
  1  'x, y, z'
loop_
 _atom_site_type_symbol
 _atom_site_label
 _atom_site_symmetry_multiplicity
 _atom_site_fract_x
 _atom_site_fract_y
 _atom_site_fract_z
 _atom_site_occupancy
  I  I0  1  0.12500000  0.00000000  0.25000000  1
  I  I1  1  0.00000000  0.00000000  0.00000000  1
  I  I2  1  0.37500000  0.00000000  0.25000000  1
  I  I3  1  0.25000000  0.25000000  0.25000000  1
  Li  Li4  1  0.00000000  0.25000000  0.12500000  1
  Li  Li5  1  0.24927316  0.88579973  0.66960544  1
  Li  Li6  1  0.32759986  0.44880941  0.80742418  1
  Ni  Ni7  1  0.75455307  0.02999559  0.20992786  1
  Ni  Ni8  1  0.17347434  0.64508875  0.65376519  1
  Ti  Ti9  1  0.98640045  0.60780874  0.32173302  1
  O  O10  1  0.46720013  0.87741855  0.25390648  1
  O  O11  1  0.81404046  0.30006666  0.29622105  1
  O  O12  1  0.01853663  0.15902825  0.24270821  1
  O  O13  1  0.02276136  0.92024523  0.97762880  1
  O  O14  1  0.67704082  0.95125459  0.13678253  1
