# generated using pymatgen
data_Li2Lu(CuP2)2
_symmetry_space_group_name_H-M   'P 1'
_cell_length_a   7.11258735
_cell_length_b   7.03993527
_cell_length_c   8.08664483
_cell_angle_alpha   94.85584570
_cell_angle_beta   95.35225263
_cell_angle_gamma   94.83515337
_symmetry_Int_Tables_number   1
_chemical_formula_structural   Li2Lu(CuP2)2
_chemical_formula_sum   'Li2 Lu1 Cu2 P4'
_cell_volume   399.96531156
_cell_formula_units_Z   1
loop_
 _symmetry_equiv_pos_site_id
 _symmetry_equiv_pos_as_xyz
  1  'x, y, z'
loop_
 _atom_site_type_symbol
 _atom_site_label
 _atom_site_symmetry_multiplicity
 _atom_site_fract_x
 _atom_site_fract_y
 _atom_site_fract_z
 _atom_site_occupancy
  P  P0  1  0.12500000  0.12500000  0.12500000  1
  P  P1  1  0.50000000  0.50000000  0.50000000  1
  P  P2  1  0.25000000  0.25000000  0.25000000  1
  P  P3  1  0.75000000  0.75000000  0.75000000  1
  Lu  Lu4  1  0.61829643  0.78794159  0.32332959  1
  Li  Li5  1  0.29569795  0.01063066  0.61932812  1
  Li  Li6  1  0.80540223  0.84637493  0.10382461  1
  Cu  Cu7  1  0.50343690  0.72443043  0.32217600  1
  Cu  Cu8  1  0.30420359  0.75579351  0.16098175  1
