# generated using pymatgen
data_Li2Ni2As6I4O5
_symmetry_space_group_name_H-M   'P 1'
_cell_length_a   6.77669849
_cell_length_b   6.71948652
_cell_length_c   7.87750522
_cell_angle_alpha   96.65998742
_cell_angle_beta   99.03141474
_cell_angle_gamma   96.29588785
_symmetry_Int_Tables_number   1
_chemical_formula_structural   Li2Ni2As6I4O5
_chemical_formula_sum   'Li2 Ni2 As6 I4 O5'
_cell_volume   348.86951225
_cell_formula_units_Z   1
loop_
 _symmetry_equiv_pos_site_id
 _symmetry_equiv_pos_as_xyz
  1  'x, y, z'
loop_
 _atom_site_type_symbol
 _atom_site_label
 _atom_site_symmetry_multiplicity
 _atom_site_fract_x
 _atom_site_fract_y
 _atom_site_fract_z
 _atom_site_occupancy
  Ni  Ni0  1  0.00000000  0.00000000  0.00000000  1
  Ni  Ni1  1  0.50000000  0.50000000  0.50000000  1
  I  I2  1  0.25000000  0.25000000  0.25000000  1
  I  I3  1  0.75000000  0.25000000  0.00000000  1
  I  I4  1  0.25000000  0.75000000  0.50000000  1
  I  I5  1  0.60946067  0.74320469  0.46763424  1
  O  O6  1  0.69894018  0.45138091  0.98469365  1
  O  O7  1  0.47472379  0.48383261  0.18450792  1
  O  O8  1  0.11119381  0.43239531  0.31555510  1
  O  O9  1  0.60268947  0.26572244  0.49319815  1
  O  O10  1  0.47493443  0.52243083  0.33357096  1
  As  As11  1  0.68567147  0.59265369  0.04314217  1
  As  As12  1  0.58700707  0.58180200  0.56074110  1
  As  As13  1  0.04254816  0.94356136  0.87573449  1
  As  As14  1  0.19882525  0.94942374  0.21881830  1
  As  As15  1  0.39223085  0.44370793  0.45267196  1
  As  As16  1  0.38553331  0.10793750  0.09234003  1
  Li  Li17  1  0.82679752  0.54924404  0.31845578  1
  Li  Li18  1  0.93330102  0.38913092  0.14079788  1
