# generated using pymatgen
data_Li3Lu(NiAs3)2
_symmetry_space_group_name_H-M   'P 1'
_cell_length_a   7.69746779
_cell_length_b   7.51023442
_cell_length_c   8.79737095
_cell_angle_alpha   91.65828369
_cell_angle_beta   91.14379150
_cell_angle_gamma   91.92130544
_symmetry_Int_Tables_number   1
_chemical_formula_structural   Li3Lu(NiAs3)2
_chemical_formula_sum   'Li3 Lu1 Ni2 As6'
_cell_volume   507.96382581
_cell_formula_units_Z   1
loop_
 _symmetry_equiv_pos_site_id
 _symmetry_equiv_pos_as_xyz
  1  'x, y, z'
loop_
 _atom_site_type_symbol
 _atom_site_label
 _atom_site_symmetry_multiplicity
 _atom_site_fract_x
 _atom_site_fract_y
 _atom_site_fract_z
 _atom_site_occupancy
  Lu  Lu0  1  0.00000000  0.00000000  0.00000000  1
  Li  Li1  1  0.50000000  0.50000000  0.50000000  1
  Li  Li2  1  0.25000000  0.25000000  0.25000000  1
  Li  Li3  1  0.75000000  0.25000000  0.00000000  1
  Ni  Ni4  1  0.25000000  0.75000000  0.50000000  1
  Ni  Ni5  1  0.93774867  0.45212181  0.98018318  1
  As  As6  1  0.94250020  0.37504141  0.90412279  1
  As  As7  1  0.90916620  0.87414942  0.58836785  1
  As  As8  1  0.88952664  0.82946715  0.24847859  1
  As  As9  1  0.26472525  0.58959679  0.37381946  1
  As  As10  1  0.40796069  0.84658240  0.53833884  1
  As  As11  1  0.43160727  0.39713727  0.95170144  1
