# generated using pymatgen
data_Li2TiP5N3
_symmetry_space_group_name_H-M   'P 1'
_cell_length_a   8.05878364
_cell_length_b   7.77513046
_cell_length_c   8.21024977
_cell_angle_alpha   91.80369141
_cell_angle_beta   90.76453455
_cell_angle_gamma   92.09158520
_symmetry_Int_Tables_number   1
_chemical_formula_structural   Li2TiP5N3
_chemical_formula_sum   'Li2 Ti1 P5 N3'
_cell_volume   513.78706348
_cell_formula_units_Z   1
loop_
 _symmetry_equiv_pos_site_id
 _symmetry_equiv_pos_as_xyz
  1  'x, y, z'
loop_
 _atom_site_type_symbol
 _atom_site_label
 _atom_site_symmetry_multiplicity
 _atom_site_fract_x
 _atom_site_fract_y
 _atom_site_fract_z
 _atom_site_occupancy
  P  P0  1  0.00000000  0.00000000  0.00000000  1
  P  P1  1  0.50000000  0.50000000  0.50000000  1
  P  P2  1  0.25000000  0.25000000  0.25000000  1
  P  P3  1  0.75000000  0.25000000  0.00000000  1
  P  P4  1  0.25000000  0.75000000  0.50000000  1
  Li  Li5  1  0.76274331  0.07391399  0.36005951  1
  Li  Li6  1  0.83153550  0.47668693  0.36749008  1
  Ti  Ti7  1  0.73091855  0.14212088  0.46128115  1
  N  N8  1  0.48627940  0.83963258  0.53684467  1
  N  N9  1  0.65668843  0.47065020  0.47398146  1
  N  N10  1  0.54843724  0.48942036  0.10475537  1
