# generated using pymatgen
data_Li2TiNi2(PO)4
_symmetry_space_group_name_H-M   'P 1'
_cell_length_a   7.73765068
_cell_length_b   7.58419384
_cell_length_c   7.57193594
_cell_angle_alpha   90.78694440
_cell_angle_beta   91.59939462
_cell_angle_gamma   90.53114886
_symmetry_Int_Tables_number   1
_chemical_formula_structural   Li2TiNi2(PO)4
_chemical_formula_sum   'Li2 Ti1 Ni2 P4 O4'
_cell_volume   444.11457217
_cell_formula_units_Z   1
loop_
 _symmetry_equiv_pos_site_id
 _symmetry_equiv_pos_as_xyz
  1  'x, y, z'
loop_
 _atom_site_type_symbol
 _atom_site_label
 _atom_site_symmetry_multiplicity
 _atom_site_fract_x
 _atom_site_fract_y
 _atom_site_fract_z
 _atom_site_occupancy
  P  P0  1  0.00000000  0.00000000  0.00000000  1
  P  P1  1  0.50000000  0.50000000  0.50000000  1
  P  P2  1  0.50000000  0.50000000  0.00000000  1
  P  P3  1  0.50000000  0.00000000  0.50000000  1
  Li  Li4  1  0.00000000  0.50000000  0.50000000  1
  Li  Li5  1  0.93207162  0.03507407  0.00480796  1
  Ni  Ni6  1  0.63870375  0.09025016  0.18514975  1
  Ni  Ni7  1  0.51053333  0.49410425  0.18485537  1
  Ti  Ti8  1  0.60945418  0.33557624  0.76877970  1
  O  O9  1  0.26357500  0.17452127  0.82058677  1
  O  O10  1  0.69815453  0.59979875  0.66859518  1
  O  O11  1  0.17894187  0.61656690  0.43221320  1
  O  O12  1  0.61150548  0.84141171  0.09049349  1
