# generated using pymatgen
data_Li2TiS3I4
_symmetry_space_group_name_H-M   'P 1'
_cell_length_a   7.61237345
_cell_length_b   7.62312997
_cell_length_c   7.69883289
_cell_angle_alpha   90.57628505
_cell_angle_beta   92.74178923
_cell_angle_gamma   90.65884769
_symmetry_Int_Tables_number   1
_chemical_formula_structural   Li2TiS3I4
_chemical_formula_sum   'Li2 Ti1 S3 I4'
_cell_volume   446.19803242
_cell_formula_units_Z   1
loop_
 _symmetry_equiv_pos_site_id
 _symmetry_equiv_pos_as_xyz
  1  'x, y, z'
loop_
 _atom_site_type_symbol
 _atom_site_label
 _atom_site_symmetry_multiplicity
 _atom_site_fract_x
 _atom_site_fract_y
 _atom_site_fract_z
 _atom_site_occupancy
  I  I0  1  0.12500000  0.12500000  0.12500000  1
  I  I1  1  0.50000000  0.50000000  0.50000000  1
  I  I2  1  0.25000000  0.25000000  0.25000000  1
  I  I3  1  0.75000000  0.75000000  0.75000000  1
  Li  Li4  1  0.09512492  0.59200460  0.50833055  1
  Li  Li5  1  0.12493802  0.02626078  0.50890315  1
  S  S6  1  0.20091913  0.96862918  0.57363673  1
  S  S7  1  0.24250929  0.90522655  0.83477850  1
  S  S8  1  0.72833326  0.24722678  0.69535235  1
  Ti  Ti9  1  0.21415187  0.44773904  0.09937253  1
