# generated using pymatgen
data_LiMn2Mo2P3O
_symmetry_space_group_name_H-M   'P 1'
_cell_length_a   5.06414542
_cell_length_b   5.12163445
_cell_length_c   5.58664880
_cell_angle_alpha   95.04309636
_cell_angle_beta   89.02368793
_cell_angle_gamma   94.15201216
_symmetry_Int_Tables_number   1
_chemical_formula_structural   LiMn2Mo2P3O
_chemical_formula_sum   'Li1 Mn2 Mo2 P3 O1'
_cell_volume   143.95118824
_cell_formula_units_Z   1
loop_
 _symmetry_equiv_pos_site_id
 _symmetry_equiv_pos_as_xyz
  1  'x, y, z'
loop_
 _atom_site_type_symbol
 _atom_site_label
 _atom_site_symmetry_multiplicity
 _atom_site_fract_x
 _atom_site_fract_y
 _atom_site_fract_z
 _atom_site_occupancy
  O  O0  1  0.00000000  0.00000000  0.00000000  1
  Mn  Mn1  1  0.50000000  0.50000000  0.50000000  1
  Mn  Mn2  1  0.50000000  0.50000000  0.00000000  1
  P  P3  1  0.50000000  0.00000000  0.50000000  1
  P  P4  1  0.00000000  0.50000000  0.50000000  1
  P  P5  1  0.45199955  0.28602123  0.82618223  1
  Mo  Mo6  1  0.97082633  0.89328227  0.46762705  1
  Mo  Mo7  1  0.54366135  0.59020685  0.60449494  1
  Li  Li8  1  0.46596981  0.99483045  0.51328555  1
