# generated using pymatgen
data_Li3Ti(PI)4
_symmetry_space_group_name_H-M   'P 1'
_cell_length_a   7.52642025
_cell_length_b   7.25965392
_cell_length_c   7.93052816
_cell_angle_alpha   93.30393157
_cell_angle_beta   92.56726291
_cell_angle_gamma   93.37334392
_symmetry_Int_Tables_number   1
_chemical_formula_structural   Li3Ti(PI)4
_chemical_formula_sum   'Li3 Ti1 P4 I4'
_cell_volume   431.34296272
_cell_formula_units_Z   1
loop_
 _symmetry_equiv_pos_site_id
 _symmetry_equiv_pos_as_xyz
  1  'x, y, z'
loop_
 _atom_site_type_symbol
 _atom_site_label
 _atom_site_symmetry_multiplicity
 _atom_site_fract_x
 _atom_site_fract_y
 _atom_site_fract_z
 _atom_site_occupancy
  I  I0  1  0.00000000  0.00000000  0.00000000  1
  I  I1  1  0.50000000  0.50000000  0.50000000  1
  I  I2  1  0.25000000  0.25000000  0.25000000  1
  I  I3  1  0.75000000  0.25000000  0.00000000  1
  P  P4  1  0.25000000  0.75000000  0.50000000  1
  P  P5  1  0.22245887  0.06780152  0.13377813  1
  P  P6  1  0.17282174  0.89493193  0.43054513  1
  P  P7  1  0.28474894  0.07744356  0.07545272  1
  Li  Li8  1  0.45920211  0.09798925  0.29562673  1
  Li  Li9  1  0.21415027  0.95966513  0.85445730  1
  Li  Li10  1  0.46589945  0.84340939  0.57358882  1
  Ti  Ti11  1  0.65407760  0.76945640  0.83183409  1
