# generated using pymatgen
data_LiLuNi2S3F2
_symmetry_space_group_name_H-M   'P 1'
_cell_length_a   6.67869207
_cell_length_b   6.57729586
_cell_length_c   8.06324920
_cell_angle_alpha   92.09816911
_cell_angle_beta   94.44583684
_cell_angle_gamma   92.41965097
_symmetry_Int_Tables_number   1
_chemical_formula_structural   LiLuNi2S3F2
_chemical_formula_sum   'Li1 Lu1 Ni2 S3 F2'
_cell_volume   352.53670355
_cell_formula_units_Z   1
loop_
 _symmetry_equiv_pos_site_id
 _symmetry_equiv_pos_as_xyz
  1  'x, y, z'
loop_
 _atom_site_type_symbol
 _atom_site_label
 _atom_site_symmetry_multiplicity
 _atom_site_fract_x
 _atom_site_fract_y
 _atom_site_fract_z
 _atom_site_occupancy
  Lu  Lu0  1  0.12500000  0.00000000  0.25000000  1
  Li  Li1  1  0.00000000  0.00000000  0.00000000  1
  F  F2  1  0.37500000  0.00000000  0.25000000  1
  F  F3  1  0.25000000  0.25000000  0.25000000  1
  Ni  Ni4  1  0.00000000  0.25000000  0.12500000  1
  Ni  Ni5  1  0.38455103  0.35933156  0.03637214  1
  S  S6  1  0.62232472  0.85660131  0.52507681  1
  S  S7  1  0.08809266  0.16309325  0.32396604  1
  S  S8  1  0.35652327  0.52530343  0.54056102  1
