# generated using pymatgen
data_Li2TiI4F3
_symmetry_space_group_name_H-M   'P 1'
_cell_length_a   8.06223305
_cell_length_b   7.86034082
_cell_length_c   7.73140797
_cell_angle_alpha   90.94639776
_cell_angle_beta   91.14332683
_cell_angle_gamma   91.09465639
_symmetry_Int_Tables_number   1
_chemical_formula_structural   Li2TiI4F3
_chemical_formula_sum   'Li2 Ti1 I4 F3'
_cell_volume   489.69707916
_cell_formula_units_Z   1
loop_
 _symmetry_equiv_pos_site_id
 _symmetry_equiv_pos_as_xyz
  1  'x, y, z'
loop_
 _atom_site_type_symbol
 _atom_site_label
 _atom_site_symmetry_multiplicity
 _atom_site_fract_x
 _atom_site_fract_y
 _atom_site_fract_z
 _atom_site_occupancy
  I  I0  1  0.00000000  0.00000000  0.00000000  1
  I  I1  1  0.33300000  0.66700000  0.25000000  1
  I  I2  1  0.66700000  0.33300000  0.50000000  1
  I  I3  1  0.00000000  0.00000000  0.75000000  1
  Li  Li4  1  0.86778355  0.00913385  0.13747679  1
  Li  Li5  1  0.94493295  0.90679538  0.61731234  1
  F  F6  1  0.53682405  0.64590331  0.49324455  1
  F  F7  1  0.12933279  0.05031969  0.56823341  1
  F  F8  1  0.90689404  0.37946863  0.73782240  1
  Ti  Ti9  1  0.33199319  0.33479509  0.14046110  1
