# generated using pymatgen
data_Li2TiS2O2F3
_symmetry_space_group_name_H-M   'P 1'
_cell_length_a   5.91791189
_cell_length_b   5.72063759
_cell_length_c   6.89757383
_cell_angle_alpha   98.65668551
_cell_angle_beta   101.82935755
_cell_angle_gamma   98.55948594
_symmetry_Int_Tables_number   1
_chemical_formula_structural   Li2TiS2O2F3
_chemical_formula_sum   'Li2 Ti1 S2 O2 F3'
_cell_volume   222.01885502
_cell_formula_units_Z   1
loop_
 _symmetry_equiv_pos_site_id
 _symmetry_equiv_pos_as_xyz
  1  'x, y, z'
loop_
 _atom_site_type_symbol
 _atom_site_label
 _atom_site_symmetry_multiplicity
 _atom_site_fract_x
 _atom_site_fract_y
 _atom_site_fract_z
 _atom_site_occupancy
  Li  Li0  1  0.00000000  0.00000000  0.00000000  1
  Li  Li1  1  0.50000000  0.50000000  0.50000000  1
  F  F2  1  0.50000000  0.50000000  0.00000000  1
  F  F3  1  0.50000000  0.00000000  0.50000000  1
  F  F4  1  0.00000000  0.50000000  0.50000000  1
  S  S5  1  0.54360462  0.34775238  0.56214316  1
  S  S6  1  0.43538644  0.95821256  0.06194884  1
  Ti  Ti7  1  0.93081010  0.19243348  0.15726149  1
  O  O8  1  0.90634083  0.26656830  0.32096016  1
  O  O9  1  0.89370237  0.94725081  0.44104856  1
