# generated using pymatgen
data_LiLuCu2P4S3
_symmetry_space_group_name_H-M   'P 1'
_cell_length_a   7.01075476
_cell_length_b   6.99849856
_cell_length_c   7.96228226
_cell_angle_alpha   91.26655785
_cell_angle_beta   93.58433190
_cell_angle_gamma   91.45722310
_symmetry_Int_Tables_number   1
_chemical_formula_structural   LiLuCu2P4S3
_chemical_formula_sum   'Li1 Lu1 Cu2 P4 S3'
_cell_volume   389.66722292
_cell_formula_units_Z   1
loop_
 _symmetry_equiv_pos_site_id
 _symmetry_equiv_pos_as_xyz
  1  'x, y, z'
loop_
 _atom_site_type_symbol
 _atom_site_label
 _atom_site_symmetry_multiplicity
 _atom_site_fract_x
 _atom_site_fract_y
 _atom_site_fract_z
 _atom_site_occupancy
  P  P0  1  0.12500000  0.00000000  0.25000000  1
  P  P1  1  0.00000000  0.00000000  0.00000000  1
  P  P2  1  0.37500000  0.00000000  0.25000000  1
  P  P3  1  0.25000000  0.25000000  0.25000000  1
  Lu  Lu4  1  0.00000000  0.25000000  0.12500000  1
  Li  Li5  1  0.67830912  0.18709190  0.01649750  1
  Cu  Cu6  1  0.81279996  0.98370015  0.27482915  1
  Cu  Cu7  1  0.14058603  0.65127738  0.02082810  1
  S  S8  1  0.73966424  0.10482925  0.46960674  1
  S  S9  1  0.31867836  0.90166126  0.46384567  1
  S  S10  1  0.95163782  0.74810657  0.71287199  1
