# generated using pymatgen
data_Li3Te7O4
_symmetry_space_group_name_H-M   'P 1'
_cell_length_a   8.15344072
_cell_length_b   8.32652524
_cell_length_c   7.79348157
_cell_angle_alpha   90.77356318
_cell_angle_beta   90.59044008
_cell_angle_gamma   90.89604413
_symmetry_Int_Tables_number   1
_chemical_formula_structural   Li3Te7O4
_chemical_formula_sum   'Li3 Te7 O4'
_cell_volume   528.95595795
_cell_formula_units_Z   1
loop_
 _symmetry_equiv_pos_site_id
 _symmetry_equiv_pos_as_xyz
  1  'x, y, z'
loop_
 _atom_site_type_symbol
 _atom_site_label
 _atom_site_symmetry_multiplicity
 _atom_site_fract_x
 _atom_site_fract_y
 _atom_site_fract_z
 _atom_site_occupancy
  Li  Li0  1  0.00000000  0.00000000  0.00000000  1
  Li  Li1  1  0.50000000  0.50000000  0.50000000  1
  Li  Li2  1  0.25000000  0.25000000  0.25000000  1
  Te  Te3  1  0.75000000  0.25000000  0.00000000  1
  Te  Te4  1  0.25000000  0.75000000  0.50000000  1
  Te  Te5  1  0.12445649  0.96799324  0.21120737  1
  Te  Te6  1  0.07972041  0.56803797  0.73276983  1
  Te  Te7  1  0.65598511  0.34590566  0.59774140  1
  Te  Te8  1  0.03269359  0.57749108  0.82530070  1
  Te  Te9  1  0.69603230  0.49553539  0.37742646  1
  O  O10  1  0.68233962  0.81078392  0.05214896  1
  O  O11  1  0.15333174  0.24919791  0.53991179  1
  O  O12  1  0.53223626  0.65639150  0.66086104  1
  O  O13  1  0.53110612  0.23697470  0.32767350  1
