# generated using pymatgen
data_LiCu2P5I4N5
_symmetry_space_group_name_H-M   'P 1'
_cell_length_a   6.89168912
_cell_length_b   6.79285078
_cell_length_c   7.82573760
_cell_angle_alpha   93.77310286
_cell_angle_beta   95.04907112
_cell_angle_gamma   94.31418285
_symmetry_Int_Tables_number   1
_chemical_formula_structural   LiCu2P5I4N5
_chemical_formula_sum   'Li1 Cu2 P5 I4 N5'
_cell_volume   362.93153163
_cell_formula_units_Z   1
loop_
 _symmetry_equiv_pos_site_id
 _symmetry_equiv_pos_as_xyz
  1  'x, y, z'
loop_
 _atom_site_type_symbol
 _atom_site_label
 _atom_site_symmetry_multiplicity
 _atom_site_fract_x
 _atom_site_fract_y
 _atom_site_fract_z
 _atom_site_occupancy
  I  I0  1  0.12500000  0.00000000  0.25000000  1
  I  I1  1  0.00000000  0.00000000  0.00000000  1
  I  I2  1  0.37500000  0.00000000  0.25000000  1
  I  I3  1  0.25000000  0.25000000  0.25000000  1
  P  P4  1  0.00000000  0.25000000  0.12500000  1
  P  P5  1  0.56201673  0.06505752  0.80765539  1
  P  P6  1  0.73736299  0.99131867  0.88116037  1
  P  P7  1  0.51345744  0.66650382  0.25283980  1
  P  P8  1  0.44581635  0.75387874  0.05105816  1
  Li  Li9  1  0.18630320  0.94271663  0.36235264  1
  Cu  Cu10  1  0.67412324  0.87191658  0.75801998  1
  Cu  Cu11  1  0.56695375  0.89148144  0.66479994  1
  N  N12  1  0.56458901  0.95167567  0.10554458  1
  N  N13  1  0.40212393  0.38459680  0.53270443  1
  N  N14  1  0.98968527  0.52410530  0.21201181  1
  N  N15  1  0.67739596  0.21398107  0.00588925  1
  N  N16  1  0.48221254  0.02877553  0.16052140  1
