# generated using pymatgen
data_Li2NiAs3(BrO)2
_symmetry_space_group_name_H-M   'P 1'
_cell_length_a   8.26914316
_cell_length_b   8.03129262
_cell_length_c   9.67449896
_cell_angle_alpha   90.00000000
_cell_angle_beta   90.00000000
_cell_angle_gamma   90.00000000
_symmetry_Int_Tables_number   1
_chemical_formula_structural   Li2NiAs3(BrO)2
_chemical_formula_sum   'Li4 Ni2 As6 Br4 O4'
_cell_volume   642.50193858
_cell_formula_units_Z   2
loop_
 _symmetry_equiv_pos_site_id
 _symmetry_equiv_pos_as_xyz
  1  'x, y, z'
loop_
 _atom_site_type_symbol
 _atom_site_label
 _atom_site_symmetry_multiplicity
 _atom_site_fract_x
 _atom_site_fract_y
 _atom_site_fract_z
 _atom_site_occupancy
  Li  Li0  1  0.12500000  0.00000000  0.25000000  1
  Li  Li1  1  0.00000000  0.00000000  0.00000000  1
  Li  Li2  1  0.37500000  0.00000000  0.25000000  1
  Li  Li3  1  0.25000000  0.25000000  0.25000000  1
  Br  Br4  1  0.00000000  0.25000000  0.12500000  1
  Br  Br5  1  0.26283829  0.30146625  0.24055837  1
  Br  Br6  1  0.20727420  0.94980567  0.05187858  1
  Br  Br7  1  0.17952762  0.59629135  0.31577216  1
  Ni  Ni8  1  0.02899840  0.63169898  0.87226353  1
  Ni  Ni9  1  0.60431852  0.13460002  0.12065535  1
  As  As10  1  0.82654484  0.02533126  0.30043987  1
  As  As11  1  0.18746997  0.52934518  0.09925204  1
  As  As12  1  0.51300339  0.99228956  0.42472422  1
  As  As13  1  0.50083879  0.94358075  0.83250957  1
  As  As14  1  0.85632037  0.94438501  0.73599896  1
  As  As15  1  0.21832920  0.69253755  0.19250055  1
  O  O16  1  0.69477169  0.28388984  0.54558194  1
  O  O17  1  0.51025346  0.37036026  0.52710576  1
  O  O18  1  0.33120459  0.36171088  0.91731531  1
  O  O19  1  0.77951297  0.97337557  0.71286324  1
