# generated using pymatgen
data_Li2TiS3I4
_symmetry_space_group_name_H-M   'P 1'
_cell_length_a   7.54334816
_cell_length_b   7.43585403
_cell_length_c   8.01543600
_cell_angle_alpha   91.49592591
_cell_angle_beta   92.33103760
_cell_angle_gamma   91.72829542
_symmetry_Int_Tables_number   1
_chemical_formula_structural   Li2TiS3I4
_chemical_formula_sum   'Li2 Ti1 S3 I4'
_cell_volume   448.85113045
_cell_formula_units_Z   1
loop_
 _symmetry_equiv_pos_site_id
 _symmetry_equiv_pos_as_xyz
  1  'x, y, z'
loop_
 _atom_site_type_symbol
 _atom_site_label
 _atom_site_symmetry_multiplicity
 _atom_site_fract_x
 _atom_site_fract_y
 _atom_site_fract_z
 _atom_site_occupancy
  I  I0  1  0.12500000  0.00000000  0.25000000  1
  I  I1  1  0.00000000  0.00000000  0.00000000  1
  I  I2  1  0.37500000  0.00000000  0.25000000  1
  I  I3  1  0.25000000  0.25000000  0.25000000  1
  Li  Li4  1  0.00000000  0.25000000  0.12500000  1
  Li  Li5  1  0.53576583  0.97502374  0.26439332  1
  S  S6  1  0.72412907  0.97044699  0.39283707  1
  S  S7  1  0.03693148  0.98694415  0.33812487  1
  S  S8  1  0.19153413  0.08021736  0.27343689  1
  Ti  Ti9  1  0.35938969  0.63414722  0.95193799  1
