# generated using pymatgen
data_Li2TiP5I4N3
_symmetry_space_group_name_H-M   'P 1'
_cell_length_a   8.39010802
_cell_length_b   8.17314610
_cell_length_c   7.87507440
_cell_angle_alpha   90.99900376
_cell_angle_beta   90.44831777
_cell_angle_gamma   91.15836461
_symmetry_Int_Tables_number   1
_chemical_formula_structural   Li2TiP5I4N3
_chemical_formula_sum   'Li2 Ti1 P5 I4 N3'
_cell_volume   539.81154545
_cell_formula_units_Z   1
loop_
 _symmetry_equiv_pos_site_id
 _symmetry_equiv_pos_as_xyz
  1  'x, y, z'
loop_
 _atom_site_type_symbol
 _atom_site_label
 _atom_site_symmetry_multiplicity
 _atom_site_fract_x
 _atom_site_fract_y
 _atom_site_fract_z
 _atom_site_occupancy
  P  P0  1  0.12500000  0.00000000  0.25000000  1
  P  P1  1  0.00000000  0.00000000  0.00000000  1
  P  P2  1  0.37500000  0.00000000  0.25000000  1
  P  P3  1  0.25000000  0.25000000  0.25000000  1
  P  P4  1  0.00000000  0.25000000  0.12500000  1
  I  I5  1  0.41956290  0.47836948  0.69418629  1
  I  I6  1  0.09264911  0.84852933  0.83059530  1
  I  I7  1  0.45848531  0.71654011  0.22324904  1
  I  I8  1  0.15992353  0.11488762  0.33950547  1
  Li  Li9  1  0.14831284  0.15436831  0.30162866  1
  Li  Li10  1  0.23063690  0.63503328  0.75111245  1
  Ti  Ti11  1  0.23457233  0.34151657  0.51176892  1
  N  N12  1  0.93046036  0.03539818  0.61857355  1
  N  N13  1  0.82285133  0.90028893  0.15477085  1
  N  N14  1  0.18557230  0.29693596  0.34211963  1
