# generated using pymatgen
data_Li2Mn2Sb4P2N
_symmetry_space_group_name_H-M   'P 1'
_cell_length_a   4.70082069
_cell_length_b   5.00390039
_cell_length_c   6.16232662
_cell_angle_alpha   102.45320754
_cell_angle_beta   95.73039123
_cell_angle_gamma   100.33046925
_symmetry_Int_Tables_number   1
_chemical_formula_structural   Li2Mn2Sb4P2N
_chemical_formula_sum   'Li2 Mn2 Sb4 P2 N1'
_cell_volume   137.79293685
_cell_formula_units_Z   1
loop_
 _symmetry_equiv_pos_site_id
 _symmetry_equiv_pos_as_xyz
  1  'x, y, z'
loop_
 _atom_site_type_symbol
 _atom_site_label
 _atom_site_symmetry_multiplicity
 _atom_site_fract_x
 _atom_site_fract_y
 _atom_site_fract_z
 _atom_site_occupancy
  N  N0  1  0.00000000  0.00000000  0.00000000  1
  Mn  Mn1  1  0.50000000  0.50000000  0.50000000  1
  Mn  Mn2  1  0.25000000  0.25000000  0.25000000  1
  Sb  Sb3  1  0.75000000  0.25000000  0.00000000  1
  Sb  Sb4  1  0.25000000  0.75000000  0.50000000  1
  Sb  Sb5  1  0.48063238  0.20133457  0.55396036  1
  Sb  Sb6  1  0.95650668  0.17507399  0.63029433  1
  P  P7  1  0.03409555  0.85070950  0.10618495  1
  P  P8  1  0.54445084  0.31498203  0.77973781  1
  Li  Li9  1  0.61964118  0.08668533  0.05830531  1
  Li  Li10  1  0.97188385  0.32886265  0.56605988  1
