# generated using pymatgen
data_Li2Ti(CuO)2
_symmetry_space_group_name_H-M   'P 1'
_cell_length_a   7.13383865
_cell_length_b   7.48411344
_cell_length_c   7.80615668
_cell_angle_alpha   93.14241277
_cell_angle_beta   94.45489328
_cell_angle_gamma   93.86467971
_symmetry_Int_Tables_number   1
_chemical_formula_structural   Li2Ti(CuO)2
_chemical_formula_sum   'Li2 Ti1 Cu2 O2'
_cell_volume   413.81403198
_cell_formula_units_Z   1
loop_
 _symmetry_equiv_pos_site_id
 _symmetry_equiv_pos_as_xyz
  1  'x, y, z'
loop_
 _atom_site_type_symbol
 _atom_site_label
 _atom_site_symmetry_multiplicity
 _atom_site_fract_x
 _atom_site_fract_y
 _atom_site_fract_z
 _atom_site_occupancy
  Li  Li0  1  0.00000000  0.00000000  0.00000000  1
  Li  Li1  1  0.50000000  0.50000000  0.50000000  1
  Cu  Cu2  1  0.25000000  0.25000000  0.25000000  1
  Cu  Cu3  1  0.75000000  0.25000000  0.00000000  1
  Ti  Ti4  1  0.25000000  0.75000000  0.50000000  1
  O  O5  1  0.47016653  0.94899066  0.77723704  1
  O  O6  1  0.16608745  0.12581891  0.98800883  1
