# generated using pymatgen
data_Li3LuCu2N5
_symmetry_space_group_name_H-M   'P 1'
_cell_length_a   6.82067417
_cell_length_b   6.64011455
_cell_length_c   7.93033882
_cell_angle_alpha   97.08263320
_cell_angle_beta   98.46208268
_cell_angle_gamma   96.83130058
_symmetry_Int_Tables_number   1
_chemical_formula_structural   Li3LuCu2N5
_chemical_formula_sum   'Li3 Lu1 Cu2 N5'
_cell_volume   349.08923686
_cell_formula_units_Z   1
loop_
 _symmetry_equiv_pos_site_id
 _symmetry_equiv_pos_as_xyz
  1  'x, y, z'
loop_
 _atom_site_type_symbol
 _atom_site_label
 _atom_site_symmetry_multiplicity
 _atom_site_fract_x
 _atom_site_fract_y
 _atom_site_fract_z
 _atom_site_occupancy
  Lu  Lu0  1  0.00000000  0.00000000  0.00000000  1
  Li  Li1  1  0.50000000  0.50000000  0.50000000  1
  Li  Li2  1  0.25000000  0.25000000  0.25000000  1
  Li  Li3  1  0.75000000  0.25000000  0.00000000  1
  Cu  Cu4  1  0.25000000  0.75000000  0.50000000  1
  Cu  Cu5  1  0.63663114  0.22263358  0.54487730  1
  N  N6  1  0.94894139  0.80564287  0.08517651  1
  N  N7  1  0.33621548  0.15928043  0.90878114  1
  N  N8  1  0.41172219  0.70113977  0.66363293  1
  N  N9  1  0.92565330  0.68575947  0.10614859  1
  N  N10  1  0.45881942  0.07155624  0.14063972  1
