# generated using pymatgen
data_Li3TiNi2O5
_symmetry_space_group_name_H-M   'P 1'
_cell_length_a   8.11338579
_cell_length_b   7.95702639
_cell_length_c   8.45209742
_cell_angle_alpha   91.10299170
_cell_angle_beta   90.69929312
_cell_angle_gamma   91.27817006
_symmetry_Int_Tables_number   1
_chemical_formula_structural   Li3TiNi2O5
_chemical_formula_sum   'Li3 Ti1 Ni2 O5'
_cell_volume   545.37367732
_cell_formula_units_Z   1
loop_
 _symmetry_equiv_pos_site_id
 _symmetry_equiv_pos_as_xyz
  1  'x, y, z'
loop_
 _atom_site_type_symbol
 _atom_site_label
 _atom_site_symmetry_multiplicity
 _atom_site_fract_x
 _atom_site_fract_y
 _atom_site_fract_z
 _atom_site_occupancy
  Li  Li0  1  0.00000000  0.00000000  0.00000000  1
  Li  Li1  1  0.50000000  0.50000000  0.50000000  1
  Li  Li2  1  0.25000000  0.25000000  0.25000000  1
  Ni  Ni3  1  0.75000000  0.25000000  0.00000000  1
  Ni  Ni4  1  0.25000000  0.75000000  0.50000000  1
  Ti  Ti5  1  0.95767302  0.17538557  0.75811582  1
  O  O6  1  0.80287583  0.35519926  0.12012612  1
  O  O7  1  0.88535988  0.67847051  0.99998904  1
  O  O8  1  0.69691487  0.92602052  0.79154974  1
  O  O9  1  0.41389973  0.13903378  0.72638006  1
  O  O10  1  0.09756681  0.11419300  0.59367881  1
