# generated using pymatgen
data_Li3Ti(IO)4
_symmetry_space_group_name_H-M   'P 1'
_cell_length_a   8.65559363
_cell_length_b   8.50088963
_cell_length_c   7.56596398
_cell_angle_alpha   90.45639976
_cell_angle_beta   90.16135648
_cell_angle_gamma   90.52936847
_symmetry_Int_Tables_number   1
_chemical_formula_structural   Li3Ti(IO)4
_chemical_formula_sum   'Li3 Ti1 I4 O4'
_cell_volume   556.66174505
_cell_formula_units_Z   1
loop_
 _symmetry_equiv_pos_site_id
 _symmetry_equiv_pos_as_xyz
  1  'x, y, z'
loop_
 _atom_site_type_symbol
 _atom_site_label
 _atom_site_symmetry_multiplicity
 _atom_site_fract_x
 _atom_site_fract_y
 _atom_site_fract_z
 _atom_site_occupancy
  I  I0  1  0.00000000  0.00000000  0.00000000  1
  I  I1  1  0.50000000  0.50000000  0.50000000  1
  I  I2  1  0.25000000  0.25000000  0.25000000  1
  I  I3  1  0.75000000  0.25000000  0.00000000  1
  Li  Li4  1  0.25000000  0.75000000  0.50000000  1
  Li  Li5  1  0.60903821  0.18692123  0.05214510  1
  Li  Li6  1  0.29268811  0.74088972  0.58351856  1
  Ti  Ti7  1  0.96033437  0.65142994  0.36061419  1
  O  O8  1  0.33516314  0.99548542  0.42566952  1
  O  O9  1  0.75292000  0.06258301  0.51658185  1
  O  O10  1  0.27236660  0.62422997  0.06957740  1
  O  O11  1  0.86604427  0.92695906  0.33759629  1
