# generated using pymatgen
data_Li2LuCu2Ni2F3
_symmetry_space_group_name_H-M   'P 1'
_cell_length_a   7.53955841
_cell_length_b   7.39017698
_cell_length_c   8.19012836
_cell_angle_alpha   91.32796403
_cell_angle_beta   91.84920829
_cell_angle_gamma   91.53043493
_symmetry_Int_Tables_number   1
_chemical_formula_structural   Li2LuCu2Ni2F3
_chemical_formula_sum   'Li2 Lu1 Cu2 Ni2 F3'
_cell_volume   455.81073987
_cell_formula_units_Z   1
loop_
 _symmetry_equiv_pos_site_id
 _symmetry_equiv_pos_as_xyz
  1  'x, y, z'
loop_
 _atom_site_type_symbol
 _atom_site_label
 _atom_site_symmetry_multiplicity
 _atom_site_fract_x
 _atom_site_fract_y
 _atom_site_fract_z
 _atom_site_occupancy
  Lu  Lu0  1  0.00000000  0.00000000  0.00000000  1
  Li  Li1  1  0.50000000  0.50000000  0.50000000  1
  Li  Li2  1  0.50000000  0.50000000  0.00000000  1
  Cu  Cu3  1  0.50000000  0.00000000  0.50000000  1
  Cu  Cu4  1  0.00000000  0.50000000  0.50000000  1
  F  F5  1  0.57301048  0.14901544  0.57074708  1
  F  F6  1  0.39875716  0.24168677  0.75268825  1
  F  F7  1  0.59172119  0.91521786  0.07715997  1
  Ni  Ni8  1  0.50772516  0.89290865  0.59991164  1
  Ni  Ni9  1  0.51733103  0.07288717  0.18840512  1
