# generated using pymatgen
data_Li2MnSb4P3
_symmetry_space_group_name_H-M   'P 1'
_cell_length_a   5.91443856
_cell_length_b   6.11325552
_cell_length_c   7.37486745
_cell_angle_alpha   94.79265656
_cell_angle_beta   95.67734452
_cell_angle_gamma   95.45463490
_symmetry_Int_Tables_number   1
_chemical_formula_structural   Li2MnSb4P3
_chemical_formula_sum   'Li2 Mn1 Sb4 P3'
_cell_volume   262.97420702
_cell_formula_units_Z   1
loop_
 _symmetry_equiv_pos_site_id
 _symmetry_equiv_pos_as_xyz
  1  'x, y, z'
loop_
 _atom_site_type_symbol
 _atom_site_label
 _atom_site_symmetry_multiplicity
 _atom_site_fract_x
 _atom_site_fract_y
 _atom_site_fract_z
 _atom_site_occupancy
  Mn  Mn0  1  0.12500000  0.12500000  0.12500000  1
  Sb  Sb1  1  0.50000000  0.50000000  0.50000000  1
  Sb  Sb2  1  0.25000000  0.25000000  0.25000000  1
  Sb  Sb3  1  0.75000000  0.75000000  0.75000000  1
  Sb  Sb4  1  0.27122740  0.38687804  0.19433967  1
  P  P5  1  0.99075138  0.49749824  0.84929222  1
  P  P6  1  0.16129396  0.82273665  0.94781489  1
  P  P7  1  0.06698060  0.90300261  0.57881822  1
  Li  Li8  1  0.94978482  0.37112061  0.26266854  1
  Li  Li9  1  0.49068553  0.21589656  0.31813815  1
