# generated using pymatgen
data_Li3Ti(IO)4
_symmetry_space_group_name_H-M   'P 1'
_cell_length_a   8.85814149
_cell_length_b   8.73809401
_cell_length_c   7.28816939
_cell_angle_alpha   90.00000000
_cell_angle_beta   90.00000000
_cell_angle_gamma   90.00000000
_symmetry_Int_Tables_number   1
_chemical_formula_structural   Li3Ti(IO)4
_chemical_formula_sum   'Li3 Ti1 I4 O4'
_cell_volume   564.12816520
_cell_formula_units_Z   1
loop_
 _symmetry_equiv_pos_site_id
 _symmetry_equiv_pos_as_xyz
  1  'x, y, z'
loop_
 _atom_site_type_symbol
 _atom_site_label
 _atom_site_symmetry_multiplicity
 _atom_site_fract_x
 _atom_site_fract_y
 _atom_site_fract_z
 _atom_site_occupancy
  I  I0  1  0.00000000  0.00000000  0.00000000  1
  I  I1  1  0.50000000  0.50000000  0.50000000  1
  I  I2  1  0.25000000  0.25000000  0.25000000  1
  I  I3  1  0.75000000  0.25000000  0.00000000  1
  Li  Li4  1  0.25000000  0.75000000  0.50000000  1
  Li  Li5  1  0.50897566  0.22272076  0.93311489  1
  Li  Li6  1  0.92507493  0.42915776  0.09838516  1
  Ti  Ti7  1  0.25999326  0.29950972  0.97788392  1
  O  O8  1  0.81214542  0.88274423  0.34286534  1
  O  O9  1  0.44072693  0.79116866  0.97966982  1
  O  O10  1  0.64307805  0.04211862  0.86188363  1
  O  O11  1  0.05953233  0.45621736  0.45151738  1
