# generated using pymatgen
data_Li2P3Se2(I2O)2
_symmetry_space_group_name_H-M   'P 1'
_cell_length_a   7.31762040
_cell_length_b   6.73219557
_cell_length_c   7.67126616
_cell_angle_alpha   90.43421471
_cell_angle_beta   92.06586171
_cell_angle_gamma   90.49642336
_symmetry_Int_Tables_number   1
_chemical_formula_structural   Li2P3Se2(I2O)2
_chemical_formula_sum   'Li2 P3 Se2 I4 O2'
_cell_volume   377.64300915
_cell_formula_units_Z   1
loop_
 _symmetry_equiv_pos_site_id
 _symmetry_equiv_pos_as_xyz
  1  'x, y, z'
loop_
 _atom_site_type_symbol
 _atom_site_label
 _atom_site_symmetry_multiplicity
 _atom_site_fract_x
 _atom_site_fract_y
 _atom_site_fract_z
 _atom_site_occupancy
  I  I0  1  0.12500000  0.00000000  0.25000000  1
  I  I1  1  0.00000000  0.00000000  0.00000000  1
  I  I2  1  0.37500000  0.00000000  0.25000000  1
  I  I3  1  0.25000000  0.25000000  0.25000000  1
  P  P4  1  0.00000000  0.25000000  0.12500000  1
  P  P5  1  0.89043501  0.53011123  0.54253139  1
  P  P6  1  0.75636535  0.42879351  0.68102048  1
  Li  Li7  1  0.02899915  0.65003171  0.31949091  1
  Li  Li8  1  0.52381786  0.11667816  0.17055604  1
  Se  Se9  1  0.62923927  0.24692651  0.91666078  1
  Se  Se10  1  0.61626776  0.27302118  0.38452482  1
  O  O11  1  0.74804334  0.28840205  0.93914905  1
  O  O12  1  0.72818144  0.83286621  0.61733138  1
