# generated using pymatgen
data_Li2Lu(IO)4
_symmetry_space_group_name_H-M   'P 1'
_cell_length_a   7.98803089
_cell_length_b   7.94706133
_cell_length_c   7.45227528
_cell_angle_alpha   92.75054715
_cell_angle_beta   93.42052963
_cell_angle_gamma   92.63352172
_symmetry_Int_Tables_number   1
_chemical_formula_structural   Li2Lu(IO)4
_chemical_formula_sum   'Li2 Lu1 I4 O4'
_cell_volume   471.12826930
_cell_formula_units_Z   1
loop_
 _symmetry_equiv_pos_site_id
 _symmetry_equiv_pos_as_xyz
  1  'x, y, z'
loop_
 _atom_site_type_symbol
 _atom_site_label
 _atom_site_symmetry_multiplicity
 _atom_site_fract_x
 _atom_site_fract_y
 _atom_site_fract_z
 _atom_site_occupancy
  Li  Li0  1  0.12500000  0.12500000  0.12500000  1
  Li  Li1  1  0.50000000  0.50000000  0.50000000  1
  I  I2  1  0.25000000  0.25000000  0.25000000  1
  I  I3  1  0.75000000  0.75000000  0.75000000  1
  I  I4  1  0.03802250  0.24695494  0.13461807  1
  I  I5  1  0.02238264  0.16190666  0.20133010  1
  Lu  Lu6  1  0.23646554  0.38543134  0.28941975  1
  O  O7  1  0.14319395  0.58948317  0.60214332  1
  O  O8  1  0.03208086  0.14830886  0.30866524  1
  O  O9  1  0.09875517  0.49040514  0.19605468  1
  O  O10  1  0.02660167  0.11216052  0.81324143  1
