# generated using pymatgen
data_Li3P8I4(ClO2)2
_symmetry_space_group_name_H-M   'P 1'
_cell_length_a   7.51975052
_cell_length_b   7.29502407
_cell_length_c   7.36204792
_cell_angle_alpha   95.53574390
_cell_angle_beta   97.06787353
_cell_angle_gamma   95.20756222
_symmetry_Int_Tables_number   1
_chemical_formula_structural   Li3P8I4(ClO2)2
_chemical_formula_sum   'Li3 P8 I4 Cl2 O4'
_cell_volume   396.76079245
_cell_formula_units_Z   1
loop_
 _symmetry_equiv_pos_site_id
 _symmetry_equiv_pos_as_xyz
  1  'x, y, z'
loop_
 _atom_site_type_symbol
 _atom_site_label
 _atom_site_symmetry_multiplicity
 _atom_site_fract_x
 _atom_site_fract_y
 _atom_site_fract_z
 _atom_site_occupancy
  Cl  Cl0  1  0.12500000  0.00000000  0.25000000  1
  Cl  Cl1  1  0.00000000  0.00000000  0.00000000  1
  O  O2  1  0.37500000  0.00000000  0.25000000  1
  O  O3  1  0.25000000  0.25000000  0.25000000  1
  O  O4  1  0.00000000  0.25000000  0.12500000  1
  O  O5  1  0.93084990  0.30291708  0.42319210  1
  P  P6  1  0.67949285  0.45194939  0.66976310  1
  P  P7  1  0.92954628  0.46823326  0.10915426  1
  P  P8  1  0.07661546  0.52205092  0.00479403  1
  P  P9  1  0.66949874  0.62872815  0.69148855  1
  P  P10  1  0.55450877  0.19505083  0.80199874  1
  P  P11  1  0.98824544  0.41177706  0.70684718  1
  P  P12  1  0.31981897  0.73329560  0.58233330  1
  P  P13  1  0.35550522  0.90464334  0.96141655  1
  I  I14  1  0.50146511  0.29094451  0.56741298  1
  I  I15  1  0.99162996  0.08342262  0.46362375  1
  I  I16  1  0.03961222  0.93543812  0.71510051  1
  I  I17  1  0.70565179  0.63095228  0.07085543  1
  Li  Li18  1  0.46330326  0.42261532  0.78406883  1
  Li  Li19  1  0.52327625  0.00099237  0.07598073  1
  Li  Li20  1  0.31126008  0.23099045  0.94805594  1
