# generated using pymatgen
data_Li2LuCu2(NiAs3)2
_symmetry_space_group_name_H-M   'P 1'
_cell_length_a   7.54478003
_cell_length_b   7.55260123
_cell_length_c   8.44273978
_cell_angle_alpha   91.05008169
_cell_angle_beta   91.83088409
_cell_angle_gamma   91.21246208
_symmetry_Int_Tables_number   1
_chemical_formula_structural   Li2LuCu2(NiAs3)2
_chemical_formula_sum   'Li2 Lu1 Cu2 Ni2 As6'
_cell_volume   480.65004053
_cell_formula_units_Z   1
loop_
 _symmetry_equiv_pos_site_id
 _symmetry_equiv_pos_as_xyz
  1  'x, y, z'
loop_
 _atom_site_type_symbol
 _atom_site_label
 _atom_site_symmetry_multiplicity
 _atom_site_fract_x
 _atom_site_fract_y
 _atom_site_fract_z
 _atom_site_occupancy
  Ni  Ni0  1  0.12500000  0.00000000  0.25000000  1
  Ni  Ni1  1  0.00000000  0.00000000  0.00000000  1
  Lu  Lu2  1  0.37500000  0.00000000  0.25000000  1
  As  As3  1  0.25000000  0.25000000  0.25000000  1
  As  As4  1  0.00000000  0.25000000  0.12500000  1
  As  As5  1  0.74148072  0.63487958  0.49180728  1
  As  As6  1  0.50658906  0.97217096  0.15976246  1
  As  As7  1  0.71978175  0.13331746  0.74936089  1
  As  As8  1  0.23626701  0.81355652  0.32211863  1
  Li  Li9  1  0.56787270  0.18275435  0.81952379  1
  Li  Li10  1  0.78534282  0.73583401  0.74940667  1
  Cu  Cu11  1  0.40698801  0.79033412  0.24740677  1
  Cu  Cu12  1  0.01807149  0.97867137  0.59904842  1
