# generated using pymatgen
data_Li2TiP6(OF)2
_symmetry_space_group_name_H-M   'P 1'
_cell_length_a   7.33815535
_cell_length_b   7.30650775
_cell_length_c   7.19523017
_cell_angle_alpha   93.51671458
_cell_angle_beta   95.10302289
_cell_angle_gamma   94.32196721
_symmetry_Int_Tables_number   1
_chemical_formula_structural   Li2TiP6(OF)2
_chemical_formula_sum   'Li2 Ti1 P6 O2 F2'
_cell_volume   382.25953306
_cell_formula_units_Z   1
loop_
 _symmetry_equiv_pos_site_id
 _symmetry_equiv_pos_as_xyz
  1  'x, y, z'
loop_
 _atom_site_type_symbol
 _atom_site_label
 _atom_site_symmetry_multiplicity
 _atom_site_fract_x
 _atom_site_fract_y
 _atom_site_fract_z
 _atom_site_occupancy
  P  P0  1  0.12500000  0.00000000  0.25000000  1
  P  P1  1  0.00000000  0.00000000  0.00000000  1
  P  P2  1  0.37500000  0.00000000  0.25000000  1
  P  P3  1  0.25000000  0.25000000  0.25000000  1
  P  P4  1  0.00000000  0.25000000  0.12500000  1
  P  P5  1  0.68539075  0.85861620  0.99607237  1
  Li  Li6  1  0.64159019  0.09571570  0.98080081  1
  Li  Li7  1  0.25747550  0.55388678  0.79815139  1
  F  F8  1  0.30854469  0.04083940  0.24598478  1
  F  F9  1  0.74721793  0.93490224  0.02029530  1
  Ti  Ti10  1  0.26528837  0.41007738  0.73208021  1
  O  O11  1  0.94675439  0.44893101  0.29700875  1
  O  O12  1  0.37211488  0.57528866  0.88511330  1
