# generated using pymatgen
data_Li2Mn2Sb4P3
_symmetry_space_group_name_H-M   'P 1'
_cell_length_a   4.86650991
_cell_length_b   5.13990686
_cell_length_c   6.27521733
_cell_angle_alpha   102.00161376
_cell_angle_beta   91.71110097
_cell_angle_gamma   101.91769859
_symmetry_Int_Tables_number   1
_chemical_formula_structural   Li2Mn2Sb4P3
_chemical_formula_sum   'Li2 Mn2 Sb4 P3'
_cell_volume   149.78897300
_cell_formula_units_Z   1
loop_
 _symmetry_equiv_pos_site_id
 _symmetry_equiv_pos_as_xyz
  1  'x, y, z'
loop_
 _atom_site_type_symbol
 _atom_site_label
 _atom_site_symmetry_multiplicity
 _atom_site_fract_x
 _atom_site_fract_y
 _atom_site_fract_z
 _atom_site_occupancy
  Mn  Mn0  1  0.12500000  0.00000000  0.25000000  1
  Mn  Mn1  1  0.00000000  0.00000000  0.00000000  1
  Sb  Sb2  1  0.37500000  0.00000000  0.25000000  1
  Sb  Sb3  1  0.25000000  0.25000000  0.25000000  1
  Sb  Sb4  1  0.00000000  0.25000000  0.12500000  1
  Sb  Sb5  1  0.96255342  0.88209541  0.07621319  1
  P  P6  1  0.38375368  0.58751691  0.21702188  1
  P  P7  1  0.37700394  0.64191841  0.80137042  1
  P  P8  1  0.93663227  0.11934461  0.89758606  1
  Li  Li9  1  0.69052841  0.09803421  0.12408049  1
  Li  Li10  1  0.98584788  0.43241313  0.33291652  1
