# generated using pymatgen
data_Li2Ti(As3O2)2
_symmetry_space_group_name_H-M   'P 1'
_cell_length_a   7.99340232
_cell_length_b   7.96015691
_cell_length_c   8.12034134
_cell_angle_alpha   90.29215792
_cell_angle_beta   91.69869249
_cell_angle_gamma   90.32353258
_symmetry_Int_Tables_number   1
_chemical_formula_structural   Li2Ti(As3O2)2
_chemical_formula_sum   'Li2 Ti1 As6 O4'
_cell_volume   516.44459380
_cell_formula_units_Z   1
loop_
 _symmetry_equiv_pos_site_id
 _symmetry_equiv_pos_as_xyz
  1  'x, y, z'
loop_
 _atom_site_type_symbol
 _atom_site_label
 _atom_site_symmetry_multiplicity
 _atom_site_fract_x
 _atom_site_fract_y
 _atom_site_fract_z
 _atom_site_occupancy
  Li  Li0  1  0.00000000  0.00000000  0.00000000  1
  Li  Li1  1  0.33300000  0.66700000  0.25000000  1
  Ti  Ti2  1  0.66700000  0.33300000  0.50000000  1
  As  As3  1  0.00000000  0.00000000  0.75000000  1
  As  As4  1  0.66387087  0.92773741  0.27922082  1
  As  As5  1  0.90467773  0.56024355  0.53000971  1
  As  As6  1  0.96858140  0.18142921  0.61848264  1
  As  As7  1  0.53508470  0.92340864  0.99723758  1
  As  As8  1  0.32349692  0.00793357  0.78503139  1
  O  O9  1  0.68237408  0.44464957  0.60407777  1
  O  O10  1  0.67391823  0.45244338  0.83634947  1
  O  O11  1  0.20440867  0.41441330  0.22733447  1
  O  O12  1  0.17409255  0.84915215  0.05981802  1
