# generated using pymatgen
data_Li3TiI4(OF)3
_symmetry_space_group_name_H-M   'P 1'
_cell_length_a   7.13403780
_cell_length_b   6.88300273
_cell_length_c   7.55514103
_cell_angle_alpha   95.52703467
_cell_angle_beta   96.37603914
_cell_angle_gamma   95.41236609
_symmetry_Int_Tables_number   1
_chemical_formula_structural   Li3TiI4(OF)3
_chemical_formula_sum   'Li3 Ti1 I4 O3 F3'
_cell_volume   364.90178640
_cell_formula_units_Z   1
loop_
 _symmetry_equiv_pos_site_id
 _symmetry_equiv_pos_as_xyz
  1  'x, y, z'
loop_
 _atom_site_type_symbol
 _atom_site_label
 _atom_site_symmetry_multiplicity
 _atom_site_fract_x
 _atom_site_fract_y
 _atom_site_fract_z
 _atom_site_occupancy
  I  I0  1  0.00000000  0.00000000  0.00000000  1
  I  I1  1  0.50000000  0.50000000  0.50000000  1
  I  I2  1  0.25000000  0.25000000  0.25000000  1
  I  I3  1  0.75000000  0.25000000  0.00000000  1
  Li  Li4  1  0.25000000  0.75000000  0.50000000  1
  Li  Li5  1  0.83022127  0.23179109  0.32745212  1
  Li  Li6  1  0.73626205  0.52552913  0.49778130  1
  F  F7  1  0.78946087  0.79953423  0.03452344  1
  F  F8  1  0.40804078  0.39216139  0.68704340  1
  F  F9  1  0.34507007  0.95815433  0.20773543  1
  Ti  Ti10  1  0.08291690  0.93909518  0.81487874  1
  O  O11  1  0.87576989  0.42365117  0.94162796  1
  O  O12  1  0.55051449  0.69089506  0.34214398  1
  O  O13  1  0.95699516  0.97180847  0.72907677  1
