# generated using pymatgen
data_LiTi2Cu2F3
_symmetry_space_group_name_H-M   'P 1'
_cell_length_a   7.16644349
_cell_length_b   7.22293786
_cell_length_c   8.24780444
_cell_angle_alpha   90.69817998
_cell_angle_beta   93.58401669
_cell_angle_gamma   90.78929995
_symmetry_Int_Tables_number   1
_chemical_formula_structural   LiTi2Cu2F3
_chemical_formula_sum   'Li1 Ti2 Cu2 F3'
_cell_volume   426.01742786
_cell_formula_units_Z   1
loop_
 _symmetry_equiv_pos_site_id
 _symmetry_equiv_pos_as_xyz
  1  'x, y, z'
loop_
 _atom_site_type_symbol
 _atom_site_label
 _atom_site_symmetry_multiplicity
 _atom_site_fract_x
 _atom_site_fract_y
 _atom_site_fract_z
 _atom_site_occupancy
  Li  Li0  1  0.00000000  0.00000000  0.00000000  1
  Cu  Cu1  1  0.33300000  0.66700000  0.25000000  1
  Cu  Cu2  1  0.66700000  0.33300000  0.50000000  1
  F  F3  1  0.00000000  0.00000000  0.75000000  1
  F  F4  1  0.78099397  0.61784070  0.97834284  1
  F  F5  1  0.14073513  0.56079911  0.27348273  1
  Ti  Ti6  1  0.52154498  0.86018660  0.11575005  1
  Ti  Ti7  1  0.31404078  0.75245618  0.11160083  1
