# generated using pymatgen
data_Li2Lu(As3P2)2
_symmetry_space_group_name_H-M   'P 1'
_cell_length_a   7.37756987
_cell_length_b   7.17323069
_cell_length_c   8.13825543
_cell_angle_alpha   92.54520352
_cell_angle_beta   92.36008495
_cell_angle_gamma   92.71405473
_symmetry_Int_Tables_number   1
_chemical_formula_structural   Li2Lu(As3P2)2
_chemical_formula_sum   'Li2 Lu1 As6 P4'
_cell_volume   429.37274700
_cell_formula_units_Z   1
loop_
 _symmetry_equiv_pos_site_id
 _symmetry_equiv_pos_as_xyz
  1  'x, y, z'
loop_
 _atom_site_type_symbol
 _atom_site_label
 _atom_site_symmetry_multiplicity
 _atom_site_fract_x
 _atom_site_fract_y
 _atom_site_fract_z
 _atom_site_occupancy
  P  P0  1  0.00000000  0.00000000  0.00000000  1
  P  P1  1  0.50000000  0.50000000  0.50000000  1
  P  P2  1  0.25000000  0.25000000  0.25000000  1
  P  P3  1  0.75000000  0.25000000  0.00000000  1
  Lu  Lu4  1  0.25000000  0.75000000  0.50000000  1
  Li  Li5  1  0.34706315  0.24638737  0.02017539  1
  Li  Li6  1  0.51743145  0.76947327  0.28290820  1
  As  As7  1  0.07918270  0.58399403  0.89737436  1
  As  As8  1  0.85743645  0.87606127  0.38945893  1
  As  As9  1  0.06812376  0.97505210  0.16177092  1
  As  As10  1  0.77902070  0.81955545  0.30146555  1
  As  As11  1  0.30116307  0.14013932  0.47201512  1
  As  As12  1  0.78082934  0.61657327  0.26591570  1
