# generated using pymatgen
data_Li3Ti2Sb3P3O2
_symmetry_space_group_name_H-M   'P 1'
_cell_length_a   8.23524999
_cell_length_b   8.11711698
_cell_length_c   7.04863921
_cell_angle_alpha   90.00000000
_cell_angle_beta   90.00000000
_cell_angle_gamma   90.00000000
_symmetry_Int_Tables_number   1
_chemical_formula_structural   Li3Ti2Sb3P3O2
_chemical_formula_sum   'Li3 Ti2 Sb3 P3 O2'
_cell_volume   471.17677298
_cell_formula_units_Z   1
loop_
 _symmetry_equiv_pos_site_id
 _symmetry_equiv_pos_as_xyz
  1  'x, y, z'
loop_
 _atom_site_type_symbol
 _atom_site_label
 _atom_site_symmetry_multiplicity
 _atom_site_fract_x
 _atom_site_fract_y
 _atom_site_fract_z
 _atom_site_occupancy
  P  P0  1  0.00000000  0.00000000  0.00000000  1
  P  P1  1  0.50000000  0.50000000  0.50000000  1
  P  P2  1  0.25000000  0.25000000  0.25000000  1
  Li  Li3  1  0.75000000  0.25000000  0.00000000  1
  Li  Li4  1  0.25000000  0.75000000  0.50000000  1
  Li  Li5  1  0.99526678  0.54997602  0.26044659  1
  Sb  Sb6  1  0.67796466  0.53206297  0.11701772  1
  Sb  Sb7  1  0.24855689  0.26704916  0.33022636  1
  Sb  Sb8  1  0.06830373  0.94442296  0.15065059  1
  Ti  Ti9  1  0.07786572  0.68776250  0.52456266  1
  Ti  Ti10  1  0.50126806  0.69420983  0.24904458  1
  O  O11  1  0.05352449  0.06909727  0.96795232  1
  O  O12  1  0.63850849  0.43798700  0.81141586  1
