# generated using pymatgen
data_Li2Lu(CuAs3)2
_symmetry_space_group_name_H-M   'P 1'
_cell_length_a   7.62741339
_cell_length_b   7.43475421
_cell_length_c   8.17511167
_cell_angle_alpha   91.43445033
_cell_angle_beta   91.52350533
_cell_angle_gamma   91.59920728
_symmetry_Int_Tables_number   1
_chemical_formula_structural   Li2Lu(CuAs3)2
_chemical_formula_sum   'Li2 Lu1 Cu2 As6'
_cell_volume   463.09525099
_cell_formula_units_Z   1
loop_
 _symmetry_equiv_pos_site_id
 _symmetry_equiv_pos_as_xyz
  1  'x, y, z'
loop_
 _atom_site_type_symbol
 _atom_site_label
 _atom_site_symmetry_multiplicity
 _atom_site_fract_x
 _atom_site_fract_y
 _atom_site_fract_z
 _atom_site_occupancy
  Lu  Lu0  1  0.12500000  0.12500000  0.12500000  1
  Li  Li1  1  0.50000000  0.50000000  0.50000000  1
  Li  Li2  1  0.25000000  0.25000000  0.25000000  1
  Cu  Cu3  1  0.75000000  0.75000000  0.75000000  1
  Cu  Cu4  1  0.25804618  0.94371177  0.14232440  1
  As  As5  1  0.39806942  0.35642938  0.76937179  1
  As  As6  1  0.15775392  0.55666726  0.51982121  1
  As  As7  1  0.70227750  0.61102541  0.13828428  1
  As  As8  1  0.02127760  0.23426186  0.82052564  1
  As  As9  1  0.06495421  0.38261803  0.99937841  1
  As  As10  1  0.15254150  0.21083057  0.48755129  1
