# generated using pymatgen
data_Li3SeO4F3
_symmetry_space_group_name_H-M   'P 1'
_cell_length_a   6.04934860
_cell_length_b   5.89259056
_cell_length_c   7.64542017
_cell_angle_alpha   98.36465294
_cell_angle_beta   101.88578476
_cell_angle_gamma   97.88658790
_symmetry_Int_Tables_number   1
_chemical_formula_structural   Li3SeO4F3
_chemical_formula_sum   'Li3 Se1 O4 F3'
_cell_volume   259.88790705
_cell_formula_units_Z   1
loop_
 _symmetry_equiv_pos_site_id
 _symmetry_equiv_pos_as_xyz
  1  'x, y, z'
loop_
 _atom_site_type_symbol
 _atom_site_label
 _atom_site_symmetry_multiplicity
 _atom_site_fract_x
 _atom_site_fract_y
 _atom_site_fract_z
 _atom_site_occupancy
  Li  Li0  1  0.00000000  0.00000000  0.00000000  1
  Li  Li1  1  0.50000000  0.50000000  0.50000000  1
  Li  Li2  1  0.25000000  0.25000000  0.25000000  1
  Se  Se3  1  0.75000000  0.25000000  0.00000000  1
  F  F4  1  0.25000000  0.75000000  0.50000000  1
  F  F5  1  0.75420609  0.87093538  0.16653360  1
  F  F6  1  0.63663167  0.57770214  0.27929194  1
  O  O7  1  0.33919394  0.92544889  0.07529662  1
  O  O8  1  0.08179815  0.84939403  0.85515612  1
  O  O9  1  0.39280948  0.51697883  0.14102179  1
  O  O10  1  0.66635863  0.93445971  0.51027224  1
