# generated using pymatgen
data_Li3TiP5I4N5
_symmetry_space_group_name_H-M   'P 1'
_cell_length_a   7.73816880
_cell_length_b   7.51323299
_cell_length_c   8.22779020
_cell_angle_alpha   92.69527734
_cell_angle_beta   91.87576683
_cell_angle_gamma   92.94442582
_symmetry_Int_Tables_number   1
_chemical_formula_structural   Li3TiP5I4N5
_chemical_formula_sum   'Li3 Ti1 P5 I4 N5'
_cell_volume   476.89647007
_cell_formula_units_Z   1
loop_
 _symmetry_equiv_pos_site_id
 _symmetry_equiv_pos_as_xyz
  1  'x, y, z'
loop_
 _atom_site_type_symbol
 _atom_site_label
 _atom_site_symmetry_multiplicity
 _atom_site_fract_x
 _atom_site_fract_y
 _atom_site_fract_z
 _atom_site_occupancy
  P  P0  1  0.00000000  0.00000000  0.00000000  1
  P  P1  1  0.50000000  0.50000000  0.50000000  1
  P  P2  1  0.50000000  0.50000000  0.00000000  1
  P  P3  1  0.50000000  0.00000000  0.50000000  1
  P  P4  1  0.00000000  0.50000000  0.50000000  1
  I  I5  1  0.25109117  0.60228446  0.57905942  1
  I  I6  1  0.94759476  0.30095437  0.43827584  1
  I  I7  1  0.33120226  0.92443678  0.94971692  1
  I  I8  1  0.60032631  0.53707908  0.10095030  1
  Li  Li9  1  0.31820833  0.50086364  0.77471017  1
  Li  Li10  1  0.96050124  0.73425292  0.57534872  1
  Li  Li11  1  0.78965211  0.65219795  0.18979237  1
  Ti  Ti12  1  0.09343076  0.04231516  0.30689935  1
  N  N13  1  0.84232621  0.54829690  0.46838779  1
  N  N14  1  0.69151970  0.96016318  0.45262024  1
  N  N15  1  0.65813889  0.33580091  0.71846403  1
  N  N16  1  0.92531294  0.12663897  0.56292849  1
  N  N17  1  0.90466256  0.09372383  0.65254808  1
