# generated using pymatgen
data_Li2As6S3F2
_symmetry_space_group_name_H-M   'P 1'
_cell_length_a   6.93629737
_cell_length_b   6.87053595
_cell_length_c   8.36811239
_cell_angle_alpha   90.89027731
_cell_angle_beta   94.23566907
_cell_angle_gamma   91.01782469
_symmetry_Int_Tables_number   1
_chemical_formula_structural   Li2As6S3F2
_chemical_formula_sum   'Li2 As6 S3 F2'
_cell_volume   397.58268460
_cell_formula_units_Z   1
loop_
 _symmetry_equiv_pos_site_id
 _symmetry_equiv_pos_as_xyz
  1  'x, y, z'
loop_
 _atom_site_type_symbol
 _atom_site_label
 _atom_site_symmetry_multiplicity
 _atom_site_fract_x
 _atom_site_fract_y
 _atom_site_fract_z
 _atom_site_occupancy
  Li  Li0  1  0.00000000  0.00000000  0.00000000  1
  Li  Li1  1  0.50000000  0.50000000  0.50000000  1
  F  F2  1  0.25000000  0.25000000  0.25000000  1
  F  F3  1  0.75000000  0.25000000  0.00000000  1
  S  S4  1  0.25000000  0.75000000  0.50000000  1
  S  S5  1  0.62112534  0.17738043  0.74669120  1
  S  S6  1  0.49883393  0.17421264  0.86432762  1
  As  As7  1  0.66137730  0.27530700  0.05486883  1
  As  As8  1  0.50013491  0.53378739  0.02412450  1
  As  As9  1  0.02159583  0.41546269  0.78078259  1
  As  As10  1  0.32766116  0.61378587  0.37950286  1
  As  As11  1  0.79890906  0.30166777  0.26079976  1
  As  As12  1  0.70477892  0.67886369  0.99819091  1
