# generated using pymatgen
data_Li2La3Zr3I5O7
_symmetry_space_group_name_H-M   'P 1'
_cell_length_a   9.65883401
_cell_length_b   9.44877188
_cell_length_c   10.50891898
_cell_angle_alpha   90.00000000
_cell_angle_beta   90.00000000
_cell_angle_gamma   90.00000000
_symmetry_Int_Tables_number   1
_chemical_formula_structural   Li2La3Zr3I5O7
_chemical_formula_sum   'Li2 La3 Zr3 I5 O7'
_cell_volume   959.08723402
_cell_formula_units_Z   1
loop_
 _symmetry_equiv_pos_site_id
 _symmetry_equiv_pos_as_xyz
  1  'x, y, z'
loop_
 _atom_site_type_symbol
 _atom_site_label
 _atom_site_symmetry_multiplicity
 _atom_site_fract_x
 _atom_site_fract_y
 _atom_site_fract_z
 _atom_site_occupancy
  I  I0  1  0.00000000  0.00000000  0.00000000  1
  I  I1  1  0.50000000  0.50000000  0.50000000  1
  I  I2  1  0.25000000  0.25000000  0.25000000  1
  I  I3  1  0.75000000  0.25000000  0.00000000  1
  I  I4  1  0.25000000  0.75000000  0.50000000  1
  Li  Li5  1  0.61829221  0.17199553  0.66908237  1
  Li  Li6  1  0.14032207  0.39629291  0.06507343  1
  La  La7  1  0.29756782  0.76534927  0.10955705  1
  La  La8  1  0.43144241  0.33818107  0.83653596  1
  La  La9  1  0.27630376  0.49302800  0.83857635  1
  O  O10  1  0.78177733  0.85286286  0.43193823  1
  O  O11  1  0.21153436  0.41356676  0.65916803  1
  O  O12  1  0.57908614  0.77618563  0.15152647  1
  O  O13  1  0.08888688  0.45676140  0.39009748  1
  O  O14  1  0.53084671  0.80629390  0.86089722  1
  O  O15  1  0.09571655  0.41851733  0.61127133  1
  O  O16  1  0.98516756  0.77908099  0.05966465  1
  Zr  Zr17  1  0.91481506  0.20438085  0.76643466  1
  Zr  Zr18  1  0.29135862  0.82860757  0.55106520  1
  Zr  Zr19  1  0.37608524  0.90561968  0.91281731  1
