# generated using pymatgen
data_LiTi(I2F)2
_symmetry_space_group_name_H-M   'P 1'
_cell_length_a   7.83290703
_cell_length_b   7.75513676
_cell_length_c   7.38193508
_cell_angle_alpha   91.69585804
_cell_angle_beta   92.86305007
_cell_angle_gamma   92.05032077
_symmetry_Int_Tables_number   1
_chemical_formula_structural   LiTi(I2F)2
_chemical_formula_sum   'Li1 Ti1 I4 F2'
_cell_volume   447.34989041
_cell_formula_units_Z   1
loop_
 _symmetry_equiv_pos_site_id
 _symmetry_equiv_pos_as_xyz
  1  'x, y, z'
loop_
 _atom_site_type_symbol
 _atom_site_label
 _atom_site_symmetry_multiplicity
 _atom_site_fract_x
 _atom_site_fract_y
 _atom_site_fract_z
 _atom_site_occupancy
  I  I0  1  0.00000000  0.00000000  0.00000000  1
  I  I1  1  0.50000000  0.50000000  0.50000000  1
  I  I2  1  0.50000000  0.50000000  0.00000000  1
  I  I3  1  0.50000000  0.00000000  0.50000000  1
  Li  Li4  1  0.00000000  0.50000000  0.50000000  1
  F  F5  1  0.97344578  0.72790010  0.87094561  1
  F  F6  1  0.34398784  0.54628341  0.70059149  1
  Ti  Ti7  1  0.98054278  0.59638914  0.23928365  1
