# generated using pymatgen
data_Li2TiS3F2
_symmetry_space_group_name_H-M   'P 1'
_cell_length_a   7.63940087
_cell_length_b   7.56749030
_cell_length_c   7.23789825
_cell_angle_alpha   90.65477988
_cell_angle_beta   93.11524379
_cell_angle_gamma   90.74858824
_symmetry_Int_Tables_number   1
_chemical_formula_structural   Li2TiS3F2
_chemical_formula_sum   'Li2 Ti1 S3 F2'
_cell_volume   417.74593126
_cell_formula_units_Z   1
loop_
 _symmetry_equiv_pos_site_id
 _symmetry_equiv_pos_as_xyz
  1  'x, y, z'
loop_
 _atom_site_type_symbol
 _atom_site_label
 _atom_site_symmetry_multiplicity
 _atom_site_fract_x
 _atom_site_fract_y
 _atom_site_fract_z
 _atom_site_occupancy
  Li  Li0  1  0.00000000  0.00000000  0.00000000  1
  Li  Li1  1  0.50000000  0.50000000  0.50000000  1
  F  F2  1  0.25000000  0.25000000  0.25000000  1
  F  F3  1  0.75000000  0.25000000  0.00000000  1
  S  S4  1  0.25000000  0.75000000  0.50000000  1
  S  S5  1  0.33423510  0.77664838  0.60315017  1
  S  S6  1  0.62868967  0.19052511  0.84999289  1
  Ti  Ti7  1  0.02783107  0.82773957  0.19569233  1
