# generated using pymatgen
data_Li2Sb2Mo2P3
_symmetry_space_group_name_H-M   'P 1'
_cell_length_a   5.28437182
_cell_length_b   5.58451128
_cell_length_c   6.28966463
_cell_angle_alpha   99.02284485
_cell_angle_beta   90.94959241
_cell_angle_gamma   98.77871585
_symmetry_Int_Tables_number   1
_chemical_formula_structural   Li2Sb2Mo2P3
_chemical_formula_sum   'Li2 Sb2 Mo2 P3'
_cell_volume   181.01161055
_cell_formula_units_Z   1
loop_
 _symmetry_equiv_pos_site_id
 _symmetry_equiv_pos_as_xyz
  1  'x, y, z'
loop_
 _atom_site_type_symbol
 _atom_site_label
 _atom_site_symmetry_multiplicity
 _atom_site_fract_x
 _atom_site_fract_y
 _atom_site_fract_z
 _atom_site_occupancy
  Sb  Sb0  1  0.00000000  0.00000000  0.00000000  1
  Sb  Sb1  1  0.33300000  0.66700000  0.25000000  1
  P  P2  1  0.66700000  0.33300000  0.50000000  1
  P  P3  1  0.00000000  0.00000000  0.75000000  1
  P  P4  1  0.18505341  0.25643551  0.65747053  1
  Mo  Mo5  1  0.98729866  0.68524028  0.01757674  1
  Mo  Mo6  1  0.49682038  0.67123519  0.03581222  1
  Li  Li7  1  0.09762473  0.67160767  0.40734707  1
  Li  Li8  1  0.05137261  0.09095285  0.46098731  1
