# generated using pymatgen
data_Li3TiCu2(As2P)3
_symmetry_space_group_name_H-M   'P 1'
_cell_length_a   6.94538663
_cell_length_b   6.78091784
_cell_length_c   7.39612957
_cell_angle_alpha   95.82211319
_cell_angle_beta   98.03399251
_cell_angle_gamma   95.51189625
_symmetry_Int_Tables_number   1
_chemical_formula_structural   Li3TiCu2(As2P)3
_chemical_formula_sum   'Li3 Ti1 Cu2 As6 P3'
_cell_volume   340.97589489
_cell_formula_units_Z   1
loop_
 _symmetry_equiv_pos_site_id
 _symmetry_equiv_pos_as_xyz
  1  'x, y, z'
loop_
 _atom_site_type_symbol
 _atom_site_label
 _atom_site_symmetry_multiplicity
 _atom_site_fract_x
 _atom_site_fract_y
 _atom_site_fract_z
 _atom_site_occupancy
  P  P0  1  0.12500000  0.00000000  0.25000000  1
  P  P1  1  0.00000000  0.00000000  0.00000000  1
  P  P2  1  0.37500000  0.00000000  0.25000000  1
  Li  Li3  1  0.25000000  0.25000000  0.25000000  1
  Li  Li4  1  0.00000000  0.25000000  0.12500000  1
  Li  Li5  1  0.93326867  0.76880165  0.59601289  1
  Cu  Cu6  1  0.28271279  0.09189463  0.79857860  1
  Cu  Cu7  1  0.23116099  0.98017772  0.56824076  1
  Ti  Ti8  1  0.71389929  0.34004065  0.50449148  1
  As  As9  1  0.75561255  0.85899633  0.75860738  1
  As  As10  1  0.35972551  0.66730707  0.63557945  1
  As  As11  1  0.55116267  0.11754136  0.91693450  1
  As  As12  1  0.80785412  0.51853715  0.04039301  1
  As  As13  1  0.19332371  0.01115255  0.59766635  1
  As  As14  1  0.12872691  0.62373606  0.33460039  1
