# generated using pymatgen
data_Li3TiI4N5
_symmetry_space_group_name_H-M   'P 1'
_cell_length_a   8.43688002
_cell_length_b   8.24080149
_cell_length_c   7.77504000
_cell_angle_alpha   91.01828926
_cell_angle_beta   90.36000801
_cell_angle_gamma   91.18109228
_symmetry_Int_Tables_number   1
_chemical_formula_structural   Li3TiI4N5
_chemical_formula_sum   'Li3 Ti1 I4 N5'
_cell_volume   540.36035255
_cell_formula_units_Z   1
loop_
 _symmetry_equiv_pos_site_id
 _symmetry_equiv_pos_as_xyz
  1  'x, y, z'
loop_
 _atom_site_type_symbol
 _atom_site_label
 _atom_site_symmetry_multiplicity
 _atom_site_fract_x
 _atom_site_fract_y
 _atom_site_fract_z
 _atom_site_occupancy
  I  I0  1  0.12500000  0.12500000  0.12500000  1
  I  I1  1  0.50000000  0.50000000  0.50000000  1
  I  I2  1  0.25000000  0.25000000  0.25000000  1
  I  I3  1  0.75000000  0.75000000  0.75000000  1
  Li  Li4  1  0.52642820  0.45853920  0.47818058  1
  Li  Li5  1  0.52436071  0.84152580  0.38315808  1
  Li  Li6  1  0.95379471  0.39368835  0.16051687  1
  Ti  Ti7  1  0.40858242  0.98802765  0.52759351  1
  N  N8  1  0.05042170  0.10800451  0.24734608  1
  N  N9  1  0.45515351  0.93885185  0.12565459  1
  N  N10  1  0.73328545  0.45594407  0.23506260  1
  N  N11  1  0.84634662  0.98987311  0.85501534  1
  N  N12  1  0.47919311  0.52804617  0.21317168  1
