# generated using pymatgen
data_Li3LuCu2(NiAs3)2
_symmetry_space_group_name_H-M   'P 1'
_cell_length_a   7.58198952
_cell_length_b   7.36508102
_cell_length_c   8.23407803
_cell_angle_alpha   91.72225522
_cell_angle_beta   91.39298372
_cell_angle_gamma   91.99465006
_symmetry_Int_Tables_number   1
_chemical_formula_structural   Li3LuCu2(NiAs3)2
_chemical_formula_sum   'Li3 Lu1 Cu2 Ni2 As6'
_cell_volume   459.17293313
_cell_formula_units_Z   1
loop_
 _symmetry_equiv_pos_site_id
 _symmetry_equiv_pos_as_xyz
  1  'x, y, z'
loop_
 _atom_site_type_symbol
 _atom_site_label
 _atom_site_symmetry_multiplicity
 _atom_site_fract_x
 _atom_site_fract_y
 _atom_site_fract_z
 _atom_site_occupancy
  Lu  Lu0  1  0.00000000  0.00000000  0.00000000  1
  Li  Li1  1  0.50000000  0.50000000  0.50000000  1
  Li  Li2  1  0.50000000  0.50000000  0.00000000  1
  Li  Li3  1  0.50000000  0.00000000  0.50000000  1
  Cu  Cu4  1  0.00000000  0.50000000  0.50000000  1
  Cu  Cu5  1  0.73436330  0.81225214  0.32156248  1
  Ni  Ni6  1  0.09161477  0.70003492  0.09630404  1
  Ni  Ni7  1  0.92629936  0.90659472  0.82332664  1
  As  As8  1  0.17741177  0.59633094  0.63383428  1
  As  As9  1  0.72001173  0.23233620  0.17316977  1
  As  As10  1  0.82202098  0.27248764  0.30413428  1
  As  As11  1  0.43415630  0.74931621  0.55705057  1
  As  As12  1  0.23141557  0.47343858  0.08429722  1
  As  As13  1  0.33130435  0.33848196  0.84685404  1
