# generated using pymatgen
data_Li3P8(ClO2)2
_symmetry_space_group_name_H-M   'P 1'
_cell_length_a   7.25431360
_cell_length_b   7.00778049
_cell_length_c   7.25244241
_cell_angle_alpha   96.75365485
_cell_angle_beta   98.62286609
_cell_angle_gamma   96.35327039
_symmetry_Int_Tables_number   1
_chemical_formula_structural   Li3P8(ClO2)2
_chemical_formula_sum   'Li3 P8 Cl2 O4'
_cell_volume   358.88945612
_cell_formula_units_Z   1
loop_
 _symmetry_equiv_pos_site_id
 _symmetry_equiv_pos_as_xyz
  1  'x, y, z'
loop_
 _atom_site_type_symbol
 _atom_site_label
 _atom_site_symmetry_multiplicity
 _atom_site_fract_x
 _atom_site_fract_y
 _atom_site_fract_z
 _atom_site_occupancy
  Cl  Cl0  1  0.00000000  0.00000000  0.00000000  1
  Cl  Cl1  1  0.50000000  0.50000000  0.50000000  1
  O  O2  1  0.25000000  0.25000000  0.25000000  1
  O  O3  1  0.75000000  0.25000000  0.00000000  1
  O  O4  1  0.25000000  0.75000000  0.50000000  1
  O  O5  1  0.23894351  0.99249444  0.22996624  1
  P  P6  1  0.52124598  0.76628487  0.56970401  1
  P  P7  1  0.14715844  0.29322032  0.27272193  1
  P  P8  1  0.04793642  0.53803791  0.92465784  1
  P  P9  1  0.17690414  0.78838950  0.02302667  1
  P  P10  1  0.26824508  0.36004201  0.48804786  1
  P  P11  1  0.77047061  0.18175735  0.71866982  1
  P  P12  1  0.08579990  0.53259896  0.35641381  1
  P  P13  1  0.13361436  0.65074572  0.34677317  1
  Li  Li14  1  0.99234584  0.21484932  0.47132188  1
  Li  Li15  1  0.14488580  0.37908926  0.93459343  1
  Li  Li16  1  0.18136499  0.14626806  0.82104070  1
