# generated using pymatgen
data_Li2TiP5(I2O)2
_symmetry_space_group_name_H-M   'P 1'
_cell_length_a   8.44962450
_cell_length_b   8.33338480
_cell_length_c   7.38918598
_cell_angle_alpha   90.11202435
_cell_angle_beta   90.53297784
_cell_angle_gamma   90.12807375
_symmetry_Int_Tables_number   1
_chemical_formula_structural   Li2TiP5(I2O)2
_chemical_formula_sum   'Li2 Ti1 P5 I4 O2'
_cell_volume   520.27711101
_cell_formula_units_Z   1
loop_
 _symmetry_equiv_pos_site_id
 _symmetry_equiv_pos_as_xyz
  1  'x, y, z'
loop_
 _atom_site_type_symbol
 _atom_site_label
 _atom_site_symmetry_multiplicity
 _atom_site_fract_x
 _atom_site_fract_y
 _atom_site_fract_z
 _atom_site_occupancy
  I  I0  1  0.00000000  0.00000000  0.00000000  1
  I  I1  1  0.50000000  0.50000000  0.50000000  1
  I  I2  1  0.50000000  0.50000000  0.00000000  1
  I  I3  1  0.50000000  0.00000000  0.50000000  1
  P  P4  1  0.00000000  0.50000000  0.50000000  1
  P  P5  1  0.75153216  0.45788670  0.32497810  1
  P  P6  1  0.14035592  0.87315158  0.50614320  1
  P  P7  1  0.21250473  0.96447626  0.11563357  1
  P  P8  1  0.12937245  0.93968008  0.01584260  1
  Li  Li9  1  0.82036217  0.29459754  0.75614998  1
  Li  Li10  1  0.50898302  0.53719787  0.96841267  1
  Ti  Ti11  1  0.39503822  0.34897912  0.22415743  1
  O  O12  1  0.06562938  0.81808753  0.93946991  1
  O  O13  1  0.36334710  0.15830020  0.91095782  1
