# generated using pymatgen
data_Li2Cu2As6F3
_symmetry_space_group_name_H-M   'P 1'
_cell_length_a   7.49756990
_cell_length_b   7.62103716
_cell_length_c   8.46494404
_cell_angle_alpha   90.47072977
_cell_angle_beta   92.42781348
_cell_angle_gamma   90.53177853
_symmetry_Int_Tables_number   1
_chemical_formula_structural   Li2Cu2As6F3
_chemical_formula_sum   'Li2 Cu2 As6 F3'
_cell_volume   483.20771428
_cell_formula_units_Z   1
loop_
 _symmetry_equiv_pos_site_id
 _symmetry_equiv_pos_as_xyz
  1  'x, y, z'
loop_
 _atom_site_type_symbol
 _atom_site_label
 _atom_site_symmetry_multiplicity
 _atom_site_fract_x
 _atom_site_fract_y
 _atom_site_fract_z
 _atom_site_occupancy
  F  F0  1  0.12500000  0.00000000  0.25000000  1
  F  F1  1  0.00000000  0.00000000  0.00000000  1
  F  F2  1  0.37500000  0.00000000  0.25000000  1
  As  As3  1  0.25000000  0.25000000  0.25000000  1
  As  As4  1  0.00000000  0.25000000  0.12500000  1
  As  As5  1  0.63096706  0.36504941  0.82816947  1
  As  As6  1  0.81629875  0.68637608  0.92655704  1
  As  As7  1  0.10324516  0.03069137  0.32121713  1
  As  As8  1  0.28150602  0.93972615  0.51866110  1
  Li  Li9  1  0.81541817  0.05163404  0.59948131  1
  Li  Li10  1  0.87983513  0.63884464  0.29515493  1
  Cu  Cu11  1  0.28557729  0.26979217  0.15890598  1
  Cu  Cu12  1  0.19362297  0.27444850  0.20353644  1
