# generated using pymatgen
data_LiTiSF
_symmetry_space_group_name_H-M   'P 1'
_cell_length_a   4.56697625
_cell_length_b   4.31668276
_cell_length_c   6.96526914
_cell_angle_alpha   96.23801150
_cell_angle_beta   101.60868210
_cell_angle_gamma   95.92927463
_symmetry_Int_Tables_number   1
_chemical_formula_structural   LiTiSF
_chemical_formula_sum   'Li2 Ti2 S2 F2'
_cell_volume   132.60020350
_cell_formula_units_Z   2
loop_
 _symmetry_equiv_pos_site_id
 _symmetry_equiv_pos_as_xyz
  1  'x, y, z'
loop_
 _atom_site_type_symbol
 _atom_site_label
 _atom_site_symmetry_multiplicity
 _atom_site_fract_x
 _atom_site_fract_y
 _atom_site_fract_z
 _atom_site_occupancy
  Li  Li0  1  0.12500000  0.00000000  0.25000000  1
  Li  Li1  1  0.00000000  0.00000000  0.00000000  1
  F  F2  1  0.37500000  0.00000000  0.25000000  1
  F  F3  1  0.25000000  0.25000000  0.25000000  1
  S  S4  1  0.00000000  0.25000000  0.12500000  1
  S  S5  1  0.48628467  0.08802170  0.54568110  1
  Ti  Ti6  1  0.29566138  0.36517163  0.23774278  1
  Ti  Ti7  1  0.37941545  0.86723936  0.13112398  1
