# generated using pymatgen
data_LiCuNiP2
_symmetry_space_group_name_H-M   'P 1'
_cell_length_a   7.17219301
_cell_length_b   6.97187907
_cell_length_c   7.57554281
_cell_angle_alpha   91.61392269
_cell_angle_beta   92.33957893
_cell_angle_gamma   91.47314699
_symmetry_Int_Tables_number   1
_chemical_formula_structural   LiCuNiP2
_chemical_formula_sum   'Li2 Cu2 Ni2 P4'
_cell_volume   378.20215882
_cell_formula_units_Z   2
loop_
 _symmetry_equiv_pos_site_id
 _symmetry_equiv_pos_as_xyz
  1  'x, y, z'
loop_
 _atom_site_type_symbol
 _atom_site_label
 _atom_site_symmetry_multiplicity
 _atom_site_fract_x
 _atom_site_fract_y
 _atom_site_fract_z
 _atom_site_occupancy
  P  P0  1  0.12500000  0.12500000  0.12500000  1
  P  P1  1  0.50000000  0.50000000  0.50000000  1
  P  P2  1  0.25000000  0.25000000  0.25000000  1
  P  P3  1  0.75000000  0.75000000  0.75000000  1
  Li  Li4  1  0.98420446  0.78263971  0.74821181  1
  Li  Li5  1  0.09709369  0.67589004  0.58605391  1
  Cu  Cu6  1  0.20001738  0.16589430  0.51694596  1
  Cu  Cu7  1  0.88088141  0.02784971  0.54473090  1
  Ni  Ni8  1  0.81884341  0.69935245  0.24319876  1
  Ni  Ni9  1  0.96501112  0.49636429  0.70806798  1
