# generated using pymatgen
data_Li2Ni2As6F3
_symmetry_space_group_name_H-M   'P 1'
_cell_length_a   7.56787106
_cell_length_b   7.50539296
_cell_length_c   8.49374832
_cell_angle_alpha   90.88810751
_cell_angle_beta   92.15833842
_cell_angle_gamma   91.01379281
_symmetry_Int_Tables_number   1
_chemical_formula_structural   Li2Ni2As6F3
_chemical_formula_sum   'Li2 Ni2 As6 F3'
_cell_volume   481.96277000
_cell_formula_units_Z   1
loop_
 _symmetry_equiv_pos_site_id
 _symmetry_equiv_pos_as_xyz
  1  'x, y, z'
loop_
 _atom_site_type_symbol
 _atom_site_label
 _atom_site_symmetry_multiplicity
 _atom_site_fract_x
 _atom_site_fract_y
 _atom_site_fract_z
 _atom_site_occupancy
  Li  Li0  1  0.12500000  0.12500000  0.12500000  1
  Li  Li1  1  0.50000000  0.50000000  0.50000000  1
  F  F2  1  0.25000000  0.25000000  0.25000000  1
  F  F3  1  0.75000000  0.75000000  0.75000000  1
  F  F4  1  0.65275801  0.39816363  0.06406195  1
  Ni  Ni5  1  0.59471735  0.21783559  0.33317933  1
  Ni  Ni6  1  0.71575476  0.52637338  0.78155255  1
  As  As7  1  0.53591278  0.36109238  0.40166294  1
  As  As8  1  0.83150442  0.40692937  0.98917741  1
  As  As9  1  0.43452419  0.25040110  0.38739288  1
  As  As10  1  0.06658410  0.27970717  0.75686538  1
  As  As11  1  0.41953251  0.23146831  0.73472861  1
  As  As12  1  0.33180337  0.58325625  0.70254943  1
