# generated using pymatgen
data_Li2Cu2As6P5I4
_symmetry_space_group_name_H-M   'P 1'
_cell_length_a   7.37525628
_cell_length_b   7.65277091
_cell_length_c   7.91797549
_cell_angle_alpha   92.71651071
_cell_angle_beta   93.40244029
_cell_angle_gamma   92.58740183
_symmetry_Int_Tables_number   1
_chemical_formula_structural   Li2Cu2As6P5I4
_chemical_formula_sum   'Li2 Cu2 As6 P5 I4'
_cell_volume   445.09487951
_cell_formula_units_Z   1
loop_
 _symmetry_equiv_pos_site_id
 _symmetry_equiv_pos_as_xyz
  1  'x, y, z'
loop_
 _atom_site_type_symbol
 _atom_site_label
 _atom_site_symmetry_multiplicity
 _atom_site_fract_x
 _atom_site_fract_y
 _atom_site_fract_z
 _atom_site_occupancy
  I  I0  1  0.00000000  0.00000000  0.00000000  1
  I  I1  1  0.50000000  0.50000000  0.50000000  1
  I  I2  1  0.25000000  0.25000000  0.25000000  1
  I  I3  1  0.75000000  0.25000000  0.00000000  1
  P  P4  1  0.25000000  0.75000000  0.50000000  1
  P  P5  1  0.71635173  0.23729724  0.63516828  1
  P  P6  1  0.76358094  0.55346207  0.67351968  1
  P  P7  1  0.85449946  0.18016776  0.22645108  1
  P  P8  1  0.38550595  0.72416203  0.61974026  1
  Li  Li9  1  0.10547663  0.04453028  0.82192496  1
  Li  Li10  1  0.82358753  0.44255600  0.66084928  1
  Cu  Cu11  1  0.08691935  0.26366374  0.53952043  1
  Cu  Cu12  1  0.89951143  0.29786796  0.97642642  1
  As  As13  1  0.72542231  0.74238337  0.59538799  1
  As  As14  1  0.10850512  0.65810422  0.48177522  1
  As  As15  1  0.58202225  0.42779127  0.26389882  1
  As  As16  1  0.70588719  0.45144634  0.94260776  1
  As  As17  1  0.59444023  0.61367032  0.01496347  1
  As  As18  1  0.13968848  0.67917327  0.83343101  1
