# generated using pymatgen
data_LiMn2Sb4P3
_symmetry_space_group_name_H-M   'P 1'
_cell_length_a   5.95282667
_cell_length_b   6.35689189
_cell_length_c   6.70930664
_cell_angle_alpha   91.53454826
_cell_angle_beta   92.31813838
_cell_angle_gamma   92.08065619
_symmetry_Int_Tables_number   1
_chemical_formula_structural   LiMn2Sb4P3
_chemical_formula_sum   'Li1 Mn2 Sb4 P3'
_cell_volume   253.41357179
_cell_formula_units_Z   1
loop_
 _symmetry_equiv_pos_site_id
 _symmetry_equiv_pos_as_xyz
  1  'x, y, z'
loop_
 _atom_site_type_symbol
 _atom_site_label
 _atom_site_symmetry_multiplicity
 _atom_site_fract_x
 _atom_site_fract_y
 _atom_site_fract_z
 _atom_site_occupancy
  Mn  Mn0  1  0.00000000  0.00000000  0.00000000  1
  Mn  Mn1  1  0.33300000  0.66700000  0.25000000  1
  Sb  Sb2  1  0.66700000  0.33300000  0.50000000  1
  Sb  Sb3  1  0.00000000  0.00000000  0.75000000  1
  Sb  Sb4  1  0.79541296  0.37439545  0.15107803  1
  Sb  Sb5  1  0.63320671  0.55084033  0.50408045  1
  P  P6  1  0.35850237  0.45663780  0.01081662  1
  P  P7  1  0.02876539  0.43887410  0.06397701  1
  P  P8  1  0.33854343  0.31405377  0.21112509  1
  Li  Li9  1  0.48138249  0.74642271  0.22952186  1
