# generated using pymatgen
data_LiCuNiP2
_symmetry_space_group_name_H-M   'P 1'
_cell_length_a   7.11320826
_cell_length_b   6.91721591
_cell_length_c   7.50201080
_cell_angle_alpha   91.59301196
_cell_angle_beta   92.47681646
_cell_angle_gamma   91.38568663
_symmetry_Int_Tables_number   1
_chemical_formula_structural   LiCuNiP2
_chemical_formula_sum   'Li2 Cu2 Ni2 P4'
_cell_volume   368.51945080
_cell_formula_units_Z   2
loop_
 _symmetry_equiv_pos_site_id
 _symmetry_equiv_pos_as_xyz
  1  'x, y, z'
loop_
 _atom_site_type_symbol
 _atom_site_label
 _atom_site_symmetry_multiplicity
 _atom_site_fract_x
 _atom_site_fract_y
 _atom_site_fract_z
 _atom_site_occupancy
  P  P0  1  0.12500000  0.12500000  0.12500000  1
  P  P1  1  0.50000000  0.50000000  0.50000000  1
  P  P2  1  0.25000000  0.25000000  0.25000000  1
  P  P3  1  0.75000000  0.75000000  0.75000000  1
  Li  Li4  1  0.17518119  0.31017878  0.10029422  1
  Li  Li5  1  0.67060888  0.13066658  0.62650227  1
  Cu  Cu6  1  0.74301546  0.46406728  0.22151240  1
  Cu  Cu7  1  0.44002853  0.22915484  0.67489011  1
  Ni  Ni8  1  0.71386946  0.67245431  0.28757043  1
  Ni  Ni9  1  0.19859733  0.36211791  0.05059367  1
