# generated using pymatgen
data_Li2Ti2O3F2
_symmetry_space_group_name_H-M   'P 1'
_cell_length_a   8.96988108
_cell_length_b   8.69553357
_cell_length_c   9.26756771
_cell_angle_alpha   90.50101212
_cell_angle_beta   92.38366353
_cell_angle_gamma   90.57279064
_symmetry_Int_Tables_number   1
_chemical_formula_structural   Li2Ti2O3F2
_chemical_formula_sum   'Li2 Ti2 O3 F2'
_cell_volume   722.15893319
_cell_formula_units_Z   1
loop_
 _symmetry_equiv_pos_site_id
 _symmetry_equiv_pos_as_xyz
  1  'x, y, z'
loop_
 _atom_site_type_symbol
 _atom_site_label
 _atom_site_symmetry_multiplicity
 _atom_site_fract_x
 _atom_site_fract_y
 _atom_site_fract_z
 _atom_site_occupancy
  Li  Li0  1  0.00000000  0.00000000  0.00000000  1
  Li  Li1  1  0.33300000  0.66700000  0.25000000  1
  F  F2  1  0.66700000  0.33300000  0.50000000  1
  F  F3  1  0.00000000  0.00000000  0.75000000  1
  Ti  Ti4  1  0.30923833  0.37040875  0.40786705  1
  Ti  Ti5  1  0.51811572  0.05604443  0.59789711  1
  O  O6  1  0.29200970  0.57713320  0.43886488  1
  O  O7  1  0.17341038  0.51524220  0.41668028  1
  O  O8  1  0.99007202  0.70890665  0.16548843  1
