# generated using pymatgen
data_Li2Mn2Sb4P3
_symmetry_space_group_name_H-M   'P 1'
_cell_length_a   7.34896461
_cell_length_b   7.61178217
_cell_length_c   7.65744477
_cell_angle_alpha   91.14969270
_cell_angle_beta   91.36191723
_cell_angle_gamma   91.30849224
_symmetry_Int_Tables_number   1
_chemical_formula_structural   Li2Mn2Sb4P3
_chemical_formula_sum   'Li2 Mn2 Sb4 P3'
_cell_volume   428.02396067
_cell_formula_units_Z   1
loop_
 _symmetry_equiv_pos_site_id
 _symmetry_equiv_pos_as_xyz
  1  'x, y, z'
loop_
 _atom_site_type_symbol
 _atom_site_label
 _atom_site_symmetry_multiplicity
 _atom_site_fract_x
 _atom_site_fract_y
 _atom_site_fract_z
 _atom_site_occupancy
  Mn  Mn0  1  0.00000000  0.00000000  0.00000000  1
  Mn  Mn1  1  0.50000000  0.50000000  0.50000000  1
  Sb  Sb2  1  0.50000000  0.50000000  0.00000000  1
  Sb  Sb3  1  0.50000000  0.00000000  0.50000000  1
  Sb  Sb4  1  0.00000000  0.50000000  0.50000000  1
  Sb  Sb5  1  0.85094882  0.91563379  0.12065584  1
  P  P6  1  0.24193298  0.94819674  0.60984423  1
  P  P7  1  0.32196857  0.72501422  0.94500351  1
  P  P8  1  0.19958434  0.22648744  0.82244613  1
  Li  Li9  1  0.00720484  0.03427667  0.54787434  1
  Li  Li10  1  0.26574644  0.29744686  0.22271555  1
