# generated using pymatgen
data_Li3LuTi(As3I2)2
_symmetry_space_group_name_H-M   'P 1'
_cell_length_a   7.78867257
_cell_length_b   7.56648915
_cell_length_c   8.33134556
_cell_angle_alpha   91.74411068
_cell_angle_beta   91.08285929
_cell_angle_gamma   92.02119864
_symmetry_Int_Tables_number   1
_chemical_formula_structural   Li3LuTi(As3I2)2
_chemical_formula_sum   'Li3 Lu1 Ti1 As6 I4'
_cell_volume   490.35957751
_cell_formula_units_Z   1
loop_
 _symmetry_equiv_pos_site_id
 _symmetry_equiv_pos_as_xyz
  1  'x, y, z'
loop_
 _atom_site_type_symbol
 _atom_site_label
 _atom_site_symmetry_multiplicity
 _atom_site_fract_x
 _atom_site_fract_y
 _atom_site_fract_z
 _atom_site_occupancy
  I  I0  1  0.00000000  0.00000000  0.00000000  1
  I  I1  1  0.50000000  0.50000000  0.50000000  1
  I  I2  1  0.25000000  0.25000000  0.25000000  1
  I  I3  1  0.75000000  0.25000000  0.00000000  1
  Lu  Lu4  1  0.25000000  0.75000000  0.50000000  1
  Li  Li5  1  0.38913035  0.32954540  0.61892829  1
  Li  Li6  1  0.29390826  0.18305995  0.23615190  1
  Li  Li7  1  0.04542808  0.03992872  0.71960152  1
  Ti  Ti8  1  0.25715612  0.63169877  0.09129443  1
  As  As9  1  0.14609805  0.80730067  0.72755354  1
  As  As10  1  0.73218304  0.02381194  0.17786944  1
  As  As11  1  0.10588858  0.05110655  0.18224977  1
  As  As12  1  0.52430263  0.07114379  0.31492838  1
  As  As13  1  0.27208004  0.34420633  0.79532309  1
  As  As14  1  0.83744124  0.54917055  0.28684392  1
