# generated using pymatgen
data_Li3TiI4O3
_symmetry_space_group_name_H-M   'P 1'
_cell_length_a   6.87341386
_cell_length_b   6.66675185
_cell_length_c   7.02791448
_cell_angle_alpha   96.81059682
_cell_angle_beta   99.03777513
_cell_angle_gamma   96.40267050
_symmetry_Int_Tables_number   1
_chemical_formula_structural   Li3TiI4O3
_chemical_formula_sum   'Li3 Ti1 I4 O3'
_cell_volume   313.00659150
_cell_formula_units_Z   1
loop_
 _symmetry_equiv_pos_site_id
 _symmetry_equiv_pos_as_xyz
  1  'x, y, z'
loop_
 _atom_site_type_symbol
 _atom_site_label
 _atom_site_symmetry_multiplicity
 _atom_site_fract_x
 _atom_site_fract_y
 _atom_site_fract_z
 _atom_site_occupancy
  I  I0  1  0.00000000  0.00000000  0.00000000  1
  I  I1  1  0.50000000  0.50000000  0.50000000  1
  I  I2  1  0.25000000  0.25000000  0.25000000  1
  I  I3  1  0.75000000  0.25000000  0.00000000  1
  Li  Li4  1  0.25000000  0.75000000  0.50000000  1
  Li  Li5  1  0.09407845  0.29955489  0.00371259  1
  Li  Li6  1  0.01189386  0.15371009  0.06804960  1
  Ti  Ti7  1  0.79428829  0.07845631  0.08770404  1
  O  O8  1  0.96981456  0.35399621  0.16508450  1
  O  O9  1  0.12064456  0.37690227  0.83696709  1
  O  O10  1  0.56907167  0.54074557  0.10097505  1
