# generated using pymatgen
data_Li2Ti(PI)4
_symmetry_space_group_name_H-M   'P 1'
_cell_length_a   6.33170344
_cell_length_b   6.20495542
_cell_length_c   7.26676819
_cell_angle_alpha   98.41239518
_cell_angle_beta   100.96039712
_cell_angle_gamma   97.95073802
_symmetry_Int_Tables_number   1
_chemical_formula_structural   Li2Ti(PI)4
_chemical_formula_sum   'Li2 Ti1 P4 I4'
_cell_volume   273.18579340
_cell_formula_units_Z   1
loop_
 _symmetry_equiv_pos_site_id
 _symmetry_equiv_pos_as_xyz
  1  'x, y, z'
loop_
 _atom_site_type_symbol
 _atom_site_label
 _atom_site_symmetry_multiplicity
 _atom_site_fract_x
 _atom_site_fract_y
 _atom_site_fract_z
 _atom_site_occupancy
  Ti  Ti0  1  0.12500000  0.00000000  0.25000000  1
  I  I1  1  0.00000000  0.00000000  0.00000000  1
  I  I2  1  0.37500000  0.00000000  0.25000000  1
  I  I3  1  0.25000000  0.25000000  0.25000000  1
  I  I4  1  0.00000000  0.25000000  0.12500000  1
  P  P5  1  0.99356225  0.43162071  0.87941164  1
  P  P6  1  0.57064105  0.86491959  0.50330068  1
  P  P7  1  0.31601475  0.00641076  0.21830544  1
  P  P8  1  0.84554632  0.25834221  0.05276765  1
  Li  Li9  1  0.56358154  0.37282373  0.87882092  1
  Li  Li10  1  0.13569258  0.03578815  0.34700764  1
