# generated using pymatgen
data_Li2TiI4(OF)3
_symmetry_space_group_name_H-M   'P 1'
_cell_length_a   8.50849072
_cell_length_b   8.37028053
_cell_length_c   7.32652186
_cell_angle_alpha   90.13538808
_cell_angle_beta   90.64413534
_cell_angle_gamma   90.15478472
_symmetry_Int_Tables_number   1
_chemical_formula_structural   Li2TiI4(OF)3
_chemical_formula_sum   'Li2 Ti1 I4 O3 F3'
_cell_volume   521.74718991
_cell_formula_units_Z   1
loop_
 _symmetry_equiv_pos_site_id
 _symmetry_equiv_pos_as_xyz
  1  'x, y, z'
loop_
 _atom_site_type_symbol
 _atom_site_label
 _atom_site_symmetry_multiplicity
 _atom_site_fract_x
 _atom_site_fract_y
 _atom_site_fract_z
 _atom_site_occupancy
  I  I0  1  0.12500000  0.00000000  0.25000000  1
  I  I1  1  0.00000000  0.00000000  0.00000000  1
  I  I2  1  0.37500000  0.00000000  0.25000000  1
  I  I3  1  0.25000000  0.25000000  0.25000000  1
  Li  Li4  1  0.00000000  0.25000000  0.12500000  1
  Li  Li5  1  0.12237496  0.52451352  0.37814197  1
  F  F6  1  0.08674801  0.62762805  0.11786818  1
  F  F7  1  0.27993998  0.09575201  0.62226321  1
  F  F8  1  0.50601048  0.34726481  0.02584307  1
  Ti  Ti9  1  0.86848333  0.99897977  0.49078221  1
  O  O10  1  0.86139329  0.57379839  0.86428066  1
  O  O11  1  0.89570312  0.53363035  0.04344778  1
  O  O12  1  0.27747364  0.04719733  0.39721416  1
