# generated using pymatgen
data_Li2LuCu2(As3P2)2
_symmetry_space_group_name_H-M   'P 1'
_cell_length_a   7.54690636
_cell_length_b   7.36025112
_cell_length_c   8.32273966
_cell_angle_alpha   91.81374738
_cell_angle_beta   91.62598544
_cell_angle_gamma   92.04755286
_symmetry_Int_Tables_number   1
_chemical_formula_structural   Li2LuCu2(As3P2)2
_chemical_formula_sum   'Li2 Lu1 Cu2 As6 P4'
_cell_volume   461.57611342
_cell_formula_units_Z   1
loop_
 _symmetry_equiv_pos_site_id
 _symmetry_equiv_pos_as_xyz
  1  'x, y, z'
loop_
 _atom_site_type_symbol
 _atom_site_label
 _atom_site_symmetry_multiplicity
 _atom_site_fract_x
 _atom_site_fract_y
 _atom_site_fract_z
 _atom_site_occupancy
  P  P0  1  0.00000000  0.00000000  0.00000000  1
  P  P1  1  0.50000000  0.50000000  0.50000000  1
  P  P2  1  0.50000000  0.50000000  0.00000000  1
  P  P3  1  0.50000000  0.00000000  0.50000000  1
  Lu  Lu4  1  0.00000000  0.50000000  0.50000000  1
  Li  Li5  1  0.95254989  0.03039081  0.16574195  1
  Li  Li6  1  0.09820519  0.07512596  0.47414580  1
  Cu  Cu7  1  0.49343629  0.36262874  0.93168097  1
  Cu  Cu8  1  0.95536810  0.30819082  0.08818807  1
  As  As9  1  0.07265612  0.81123658  0.46046370  1
  As  As10  1  0.63450058  0.62324131  0.68332967  1
  As  As11  1  0.04015117  0.35585243  0.30230547  1
  As  As12  1  0.33777698  0.03722314  0.58615145  1
  As  As13  1  0.42889929  0.00966708  0.47796611  1
  As  As14  1  0.97421581  0.02071474  0.07693973  1
