# generated using pymatgen
data_Li2TiI4(OF)3
_symmetry_space_group_name_H-M   'P 1'
_cell_length_a   7.33458036
_cell_length_b   7.14363601
_cell_length_c   7.30209619
_cell_angle_alpha   93.53664514
_cell_angle_beta   95.40275126
_cell_angle_gamma   93.36683485
_symmetry_Int_Tables_number   1
_chemical_formula_structural   Li2TiI4(OF)3
_chemical_formula_sum   'Li2 Ti1 I4 O3 F3'
_cell_volume   379.36971030
_cell_formula_units_Z   1
loop_
 _symmetry_equiv_pos_site_id
 _symmetry_equiv_pos_as_xyz
  1  'x, y, z'
loop_
 _atom_site_type_symbol
 _atom_site_label
 _atom_site_symmetry_multiplicity
 _atom_site_fract_x
 _atom_site_fract_y
 _atom_site_fract_z
 _atom_site_occupancy
  I  I0  1  0.12500000  0.00000000  0.25000000  1
  I  I1  1  0.00000000  0.00000000  0.00000000  1
  I  I2  1  0.37500000  0.00000000  0.25000000  1
  I  I3  1  0.25000000  0.25000000  0.25000000  1
  Li  Li4  1  0.00000000  0.25000000  0.12500000  1
  Li  Li5  1  0.47020388  0.57453009  0.95210944  1
  F  F6  1  0.70918458  0.99266550  0.93591152  1
  F  F7  1  0.85369885  0.94297365  0.69987623  1
  F  F8  1  0.70072428  0.61084539  0.71547898  1
  Ti  Ti9  1  0.18474719  0.90460450  0.02381299  1
  O  O10  1  0.24888911  0.42937458  0.73765215  1
  O  O11  1  0.05742534  0.45262274  0.85178880  1
  O  O12  1  0.52786892  0.07312330  0.37230592  1
