# generated using pymatgen
data_Li3TiI4O3
_symmetry_space_group_name_H-M   'P 1'
_cell_length_a   7.98666038
_cell_length_b   7.82856564
_cell_length_c   7.12739090
_cell_angle_alpha   93.02620340
_cell_angle_beta   94.01582218
_cell_angle_gamma   92.84494644
_symmetry_Int_Tables_number   1
_chemical_formula_structural   Li3TiI4O3
_chemical_formula_sum   'Li3 Ti1 I4 O3'
_cell_volume   443.28298612
_cell_formula_units_Z   1
loop_
 _symmetry_equiv_pos_site_id
 _symmetry_equiv_pos_as_xyz
  1  'x, y, z'
loop_
 _atom_site_type_symbol
 _atom_site_label
 _atom_site_symmetry_multiplicity
 _atom_site_fract_x
 _atom_site_fract_y
 _atom_site_fract_z
 _atom_site_occupancy
  I  I0  1  0.00000000  0.00000000  0.00000000  1
  I  I1  1  0.33300000  0.66700000  0.25000000  1
  I  I2  1  0.66700000  0.33300000  0.50000000  1
  I  I3  1  0.00000000  0.00000000  0.75000000  1
  Li  Li4  1  0.33119703  0.04905303  0.47740219  1
  Li  Li5  1  0.52911219  0.64642577  0.58746316  1
  Li  Li6  1  0.18840526  0.29604711  0.82976594  1
  Ti  Ti7  1  0.61114802  0.90445606  0.87986684  1
  O  O8  1  0.02632867  0.93130094  0.84806857  1
  O  O9  1  0.22093231  0.33930743  0.12380722  1
  O  O10  1  0.91253094  0.67110650  0.76178706  1
