# generated using pymatgen
data_Li2Sb4P3N
_symmetry_space_group_name_H-M   'P 1'
_cell_length_a   5.23685130
_cell_length_b   5.28287543
_cell_length_c   5.96050693
_cell_angle_alpha   100.10031954
_cell_angle_beta   93.66797226
_cell_angle_gamma   98.99168657
_symmetry_Int_Tables_number   1
_chemical_formula_structural   Li2Sb4P3N
_chemical_formula_sum   'Li2 Sb4 P3 N1'
_cell_volume   159.64087905
_cell_formula_units_Z   1
loop_
 _symmetry_equiv_pos_site_id
 _symmetry_equiv_pos_as_xyz
  1  'x, y, z'
loop_
 _atom_site_type_symbol
 _atom_site_label
 _atom_site_symmetry_multiplicity
 _atom_site_fract_x
 _atom_site_fract_y
 _atom_site_fract_z
 _atom_site_occupancy
  Sb  Sb0  1  0.12500000  0.12500000  0.12500000  1
  Sb  Sb1  1  0.50000000  0.50000000  0.50000000  1
  Sb  Sb2  1  0.25000000  0.25000000  0.25000000  1
  Sb  Sb3  1  0.75000000  0.75000000  0.75000000  1
  P  P4  1  0.30163132  0.19180711  0.85718711  1
  P  P5  1  0.16111357  0.44832357  0.75171469  1
  P  P6  1  0.82013305  0.15395065  0.82804337  1
  Li  Li7  1  0.10880707  0.23502755  0.75211649  1
  Li  Li8  1  0.50530272  0.57479193  0.03716630  1
  N  N9  1  0.88487922  0.86026206  0.32522763  1
