# generated using pymatgen
data_Li2Mn2Sb4P3
_symmetry_space_group_name_H-M   'P 1'
_cell_length_a   6.35688447
_cell_length_b   6.59812590
_cell_length_c   7.01781218
_cell_angle_alpha   96.40384007
_cell_angle_beta   92.69190796
_cell_angle_gamma   96.73646781
_symmetry_Int_Tables_number   1
_chemical_formula_structural   Li2Mn2Sb4P3
_chemical_formula_sum   'Li2 Mn2 Sb4 P3'
_cell_volume   289.95744217
_cell_formula_units_Z   1
loop_
 _symmetry_equiv_pos_site_id
 _symmetry_equiv_pos_as_xyz
  1  'x, y, z'
loop_
 _atom_site_type_symbol
 _atom_site_label
 _atom_site_symmetry_multiplicity
 _atom_site_fract_x
 _atom_site_fract_y
 _atom_site_fract_z
 _atom_site_occupancy
  Mn  Mn0  1  0.00000000  0.00000000  0.00000000  1
  Mn  Mn1  1  0.50000000  0.50000000  0.50000000  1
  Sb  Sb2  1  0.50000000  0.50000000  0.00000000  1
  Sb  Sb3  1  0.50000000  0.00000000  0.50000000  1
  Sb  Sb4  1  0.00000000  0.50000000  0.50000000  1
  Sb  Sb5  1  0.31424624  0.09385878  0.67210752  1
  P  P6  1  0.99101033  0.91050119  0.76850880  1
  P  P7  1  0.94859089  0.05178830  0.48384364  1
  P  P8  1  0.20430511  0.45930695  0.28721474  1
  Li  Li9  1  0.57449941  0.39717304  0.73696522  1
  Li  Li10  1  0.93961075  0.94431740  0.91607392  1
