# generated using pymatgen
data_Li3Ni2As6O7
_symmetry_space_group_name_H-M   'P 1'
_cell_length_a   7.69215778
_cell_length_b   7.50355986
_cell_length_c   8.77146917
_cell_angle_alpha   91.66122527
_cell_angle_beta   91.15525005
_cell_angle_gamma   91.92467803
_symmetry_Int_Tables_number   1
_chemical_formula_structural   Li3Ni2As6O7
_chemical_formula_sum   'Li3 Ni2 As6 O7'
_cell_volume   505.66514200
_cell_formula_units_Z   1
loop_
 _symmetry_equiv_pos_site_id
 _symmetry_equiv_pos_as_xyz
  1  'x, y, z'
loop_
 _atom_site_type_symbol
 _atom_site_label
 _atom_site_symmetry_multiplicity
 _atom_site_fract_x
 _atom_site_fract_y
 _atom_site_fract_z
 _atom_site_occupancy
  Li  Li0  1  0.12500000  0.00000000  0.25000000  1
  Li  Li1  1  0.00000000  0.00000000  0.00000000  1
  Li  Li2  1  0.37500000  0.00000000  0.25000000  1
  Ni  Ni3  1  0.25000000  0.25000000  0.25000000  1
  Ni  Ni4  1  0.00000000  0.25000000  0.12500000  1
  As  As5  1  0.10570519  0.60963550  0.81045013  1
  As  As6  1  0.46609307  0.55151279  0.91483625  1
  As  As7  1  0.23304114  0.81473710  0.82394566  1
  As  As8  1  0.62361576  0.39036453  0.27479551  1
  As  As9  1  0.37244422  0.55962597  0.20048877  1
  As  As10  1  0.42139283  0.15780189  0.84215409  1
  O  O11  1  0.21949203  0.52228036  0.99042482  1
  O  O12  1  0.43386545  0.44132095  0.64338340  1
  O  O13  1  0.15047716  0.58446533  0.21340930  1
  O  O14  1  0.57857698  0.44866711  0.14980748  1
  O  O15  1  0.14778091  0.45033367  0.53938667  1
  O  O16  1  0.39201953  0.59802318  0.95848348  1
  O  O17  1  0.47164924  0.51016345  0.63455281  1
