# generated using pymatgen
data_Li3Ti(IO)4
_symmetry_space_group_name_H-M   'P 1'
_cell_length_a   8.85521417
_cell_length_b   8.73504326
_cell_length_c   7.30086492
_cell_angle_alpha   90.00000000
_cell_angle_beta   90.00000000
_cell_angle_gamma   90.00000000
_symmetry_Int_Tables_number   1
_chemical_formula_structural   Li3Ti(IO)4
_chemical_formula_sum   'Li3 Ti1 I4 O4'
_cell_volume   564.72685736
_cell_formula_units_Z   1
loop_
 _symmetry_equiv_pos_site_id
 _symmetry_equiv_pos_as_xyz
  1  'x, y, z'
loop_
 _atom_site_type_symbol
 _atom_site_label
 _atom_site_symmetry_multiplicity
 _atom_site_fract_x
 _atom_site_fract_y
 _atom_site_fract_z
 _atom_site_occupancy
  I  I0  1  0.12500000  0.00000000  0.25000000  1
  I  I1  1  0.00000000  0.00000000  0.00000000  1
  I  I2  1  0.37500000  0.00000000  0.25000000  1
  I  I3  1  0.25000000  0.25000000  0.25000000  1
  Li  Li4  1  0.00000000  0.25000000  0.12500000  1
  Li  Li5  1  0.61613555  0.88134126  0.31735822  1
  Li  Li6  1  0.65962035  0.70248055  0.36928790  1
  Ti  Ti7  1  0.54675510  0.41323215  0.37890240  1
  O  O8  1  0.76499775  0.78467198  0.56062824  1
  O  O9  1  0.96557314  0.58194735  0.42448235  1
  O  O10  1  0.65645538  0.73571931  0.51627044  1
  O  O11  1  0.04662466  0.37551525  0.33535236  1
