# generated using pymatgen
data_Li2Ni2P8O5F6
_symmetry_space_group_name_H-M   'P 1'
_cell_length_a   8.13079915
_cell_length_b   7.84530489
_cell_length_c   8.38719608
_cell_angle_alpha   90.00000000
_cell_angle_beta   90.00000000
_cell_angle_gamma   90.00000000
_symmetry_Int_Tables_number   1
_chemical_formula_structural   Li2Ni2P8O5F6
_chemical_formula_sum   'Li2 Ni2 P8 O5 F6'
_cell_volume   535.00748209
_cell_formula_units_Z   1
loop_
 _symmetry_equiv_pos_site_id
 _symmetry_equiv_pos_as_xyz
  1  'x, y, z'
loop_
 _atom_site_type_symbol
 _atom_site_label
 _atom_site_symmetry_multiplicity
 _atom_site_fract_x
 _atom_site_fract_y
 _atom_site_fract_z
 _atom_site_occupancy
  P  P0  1  0.00000000  0.00000000  0.00000000  1
  P  P1  1  0.50000000  0.50000000  0.50000000  1
  P  P2  1  0.50000000  0.50000000  0.00000000  1
  P  P3  1  0.50000000  0.00000000  0.50000000  1
  P  P4  1  0.00000000  0.50000000  0.50000000  1
  P  P5  1  0.79640116  0.55433426  0.76504943  1
  P  P6  1  0.12360306  0.83158214  0.51677339  1
  P  P7  1  0.06379422  0.25724903  0.64204648  1
  Li  Li8  1  0.07567936  0.40306841  0.83737594  1
  Li  Li9  1  0.26240075  0.93714000  0.99882940  1
  F  F10  1  0.82638173  0.27911796  0.97631329  1
  F  F11  1  0.25340290  0.01221856  0.47982153  1
  F  F12  1  0.68742758  0.46163657  0.28065383  1
  F  F13  1  0.82569642  0.68409380  0.08823568  1
  F  F14  1  0.52928007  0.59721909  0.65630574  1
  F  F15  1  0.21080349  0.48275937  0.79953357  1
  Ni  Ni16  1  0.51250458  0.50871866  0.19725489  1
  Ni  Ni17  1  0.76269002  0.69326203  0.89303639  1
  O  O18  1  0.09507900  0.55958359  0.93765362  1
  O  O19  1  0.84160273  0.80586218  0.86964847  1
  O  O20  1  0.00215250  0.93609955  0.13296924  1
  O  O21  1  0.93598578  0.56181334  0.71505682  1
  O  O22  1  0.02373847  0.13478487  0.90257118  1
