# generated using pymatgen
data_Li3Ti(IO)4
_symmetry_space_group_name_H-M   'P 1'
_cell_length_a   8.84631785
_cell_length_b   8.72577184
_cell_length_c   7.33944745
_cell_angle_alpha   90.00000000
_cell_angle_beta   90.00000000
_cell_angle_gamma   90.00000000
_symmetry_Int_Tables_number   1
_chemical_formula_structural   Li3Ti(IO)4
_chemical_formula_sum   'Li3 Ti1 I4 O4'
_cell_volume   566.53892975
_cell_formula_units_Z   1
loop_
 _symmetry_equiv_pos_site_id
 _symmetry_equiv_pos_as_xyz
  1  'x, y, z'
loop_
 _atom_site_type_symbol
 _atom_site_label
 _atom_site_symmetry_multiplicity
 _atom_site_fract_x
 _atom_site_fract_y
 _atom_site_fract_z
 _atom_site_occupancy
  I  I0  1  0.12500000  0.12500000  0.12500000  1
  I  I1  1  0.50000000  0.50000000  0.50000000  1
  I  I2  1  0.25000000  0.25000000  0.25000000  1
  I  I3  1  0.75000000  0.75000000  0.75000000  1
  Li  Li4  1  0.75157092  0.91653237  0.23739513  1
  Li  Li5  1  0.55239970  0.14651744  0.90584711  1
  Li  Li6  1  0.75375299  0.88879473  0.91645114  1
  Ti  Ti7  1  0.76563153  0.76151354  0.26019660  1
  O  O8  1  0.29246053  0.26678607  0.97162765  1
  O  O9  1  0.44393030  0.37145554  0.35870446  1
  O  O10  1  0.72709035  0.38546300  0.69283043  1
  O  O11  1  0.48172912  0.44944903  0.87527211  1
