# generated using pymatgen
data_Li2TiP5(IO)4
_symmetry_space_group_name_H-M   'P 1'
_cell_length_a   8.52136904
_cell_length_b   8.32756567
_cell_length_c   7.63529581
_cell_angle_alpha   90.77088180
_cell_angle_beta   90.34594465
_cell_angle_gamma   90.89385269
_symmetry_Int_Tables_number   1
_chemical_formula_structural   Li2TiP5(IO)4
_chemical_formula_sum   'Li2 Ti1 P5 I4 O4'
_cell_volume   541.69230488
_cell_formula_units_Z   1
loop_
 _symmetry_equiv_pos_site_id
 _symmetry_equiv_pos_as_xyz
  1  'x, y, z'
loop_
 _atom_site_type_symbol
 _atom_site_label
 _atom_site_symmetry_multiplicity
 _atom_site_fract_x
 _atom_site_fract_y
 _atom_site_fract_z
 _atom_site_occupancy
  I  I0  1  0.12500000  0.00000000  0.25000000  1
  I  I1  1  0.00000000  0.00000000  0.00000000  1
  I  I2  1  0.37500000  0.00000000  0.25000000  1
  I  I3  1  0.25000000  0.25000000  0.25000000  1
  P  P4  1  0.00000000  0.25000000  0.12500000  1
  P  P5  1  0.82269487  0.78214871  0.14443019  1
  P  P6  1  0.77711648  0.64187974  0.34805871  1
  P  P7  1  0.36711333  0.63890939  0.68163221  1
  P  P8  1  0.00637756  0.35846257  0.96685529  1
  Li  Li9  1  0.74497716  0.33887534  0.71468993  1
  Li  Li10  1  0.98684451  0.39066918  0.12419864  1
  Ti  Ti11  1  0.76173694  0.09065166  0.67799863  1
  O  O12  1  0.08268941  0.50374221  0.23225944  1
  O  O13  1  0.37736748  0.78704664  0.81659496  1
  O  O14  1  0.55650631  0.68239093  0.98211182  1
  O  O15  1  0.82790173  0.52404552  0.35095997  1
