# generated using pymatgen
data_Li3Zn2Te6(IO)4
_symmetry_space_group_name_H-M   'P 1'
_cell_length_a   8.59417627
_cell_length_b   9.08415372
_cell_length_c   7.23980888
_cell_angle_alpha   90.00000000
_cell_angle_beta   90.00000000
_cell_angle_gamma   90.00000000
_symmetry_Int_Tables_number   1
_chemical_formula_structural   Li3Zn2Te6(IO)4
_chemical_formula_sum   'Li3 Zn2 Te6 I4 O4'
_cell_volume   565.21780327
_cell_formula_units_Z   1
loop_
 _symmetry_equiv_pos_site_id
 _symmetry_equiv_pos_as_xyz
  1  'x, y, z'
loop_
 _atom_site_type_symbol
 _atom_site_label
 _atom_site_symmetry_multiplicity
 _atom_site_fract_x
 _atom_site_fract_y
 _atom_site_fract_z
 _atom_site_occupancy
  I  I0  1  0.00000000  0.00000000  0.00000000  1
  I  I1  1  0.50000000  0.50000000  0.50000000  1
  I  I2  1  0.50000000  0.50000000  0.00000000  1
  I  I3  1  0.50000000  0.00000000  0.50000000  1
  Li  Li4  1  0.00000000  0.50000000  0.50000000  1
  Li  Li5  1  0.89300288  0.55066951  0.39428917  1
  Li  Li6  1  0.70170323  0.93963599  0.31274275  1
  Zn  Zn7  1  0.97377292  0.01811548  0.28505767  1
  Zn  Zn8  1  0.79468163  0.68337019  0.52585988  1
  Te  Te9  1  0.62451790  0.32219229  0.62531938  1
  Te  Te10  1  0.08303232  0.52508158  0.75221340  1
  Te  Te11  1  0.51286133  0.00430171  0.46289883  1
  Te  Te12  1  0.51138127  0.96274457  0.35938976  1
  Te  Te13  1  0.87755273  0.49509675  0.66341277  1
  Te  Te14  1  0.74064823  0.67610759  0.15702666  1
  O  O15  1  0.98856705  0.90216649  0.51954664  1
  O  O16  1  0.03158307  0.63088223  0.96436110  1
  O  O17  1  0.89858236  0.43399409  0.93116865  1
  O  O18  1  0.84834619  0.19789385  0.16709818  1
