# generated using pymatgen
data_Li2Mn2Sb4P3
_symmetry_space_group_name_H-M   'P 1'
_cell_length_a   4.58107130
_cell_length_b   4.82042439
_cell_length_c   6.20581582
_cell_angle_alpha   102.87438464
_cell_angle_beta   92.43131279
_cell_angle_gamma   102.86733736
_symmetry_Int_Tables_number   1
_chemical_formula_structural   Li2Mn2Sb4P3
_chemical_formula_sum   'Li2 Mn2 Sb4 P3'
_cell_volume   129.62907697
_cell_formula_units_Z   1
loop_
 _symmetry_equiv_pos_site_id
 _symmetry_equiv_pos_as_xyz
  1  'x, y, z'
loop_
 _atom_site_type_symbol
 _atom_site_label
 _atom_site_symmetry_multiplicity
 _atom_site_fract_x
 _atom_site_fract_y
 _atom_site_fract_z
 _atom_site_occupancy
  Mn  Mn0  1  0.12500000  0.12500000  0.12500000  1
  Mn  Mn1  1  0.50000000  0.50000000  0.50000000  1
  Sb  Sb2  1  0.25000000  0.25000000  0.25000000  1
  Sb  Sb3  1  0.75000000  0.75000000  0.75000000  1
  Sb  Sb4  1  0.01063918  0.45990379  0.99892068  1
  Sb  Sb5  1  0.46362307  0.23993924  0.03037149  1
  P  P6  1  0.87159489  0.20519837  0.12753631  1
  P  P7  1  0.01579578  0.88655179  0.50823603  1
  P  P8  1  0.46755652  0.13586095  0.34653271  1
  Li  Li9  1  0.83000026  0.72198339  0.96532974  1
  Li  Li10  1  0.41453371  0.16633162  0.65864698  1
