# generated using pymatgen
data_LiCuAs3(IO)2
_symmetry_space_group_name_H-M   'P 1'
_cell_length_a   8.11605676
_cell_length_b   8.16128238
_cell_length_c   7.94233661
_cell_angle_alpha   90.25478937
_cell_angle_beta   91.21221045
_cell_angle_gamma   90.29129229
_symmetry_Int_Tables_number   1
_chemical_formula_structural   LiCuAs3(IO)2
_chemical_formula_sum   'Li2 Cu2 As6 I4 O4'
_cell_volume   525.94998056
_cell_formula_units_Z   2
loop_
 _symmetry_equiv_pos_site_id
 _symmetry_equiv_pos_as_xyz
  1  'x, y, z'
loop_
 _atom_site_type_symbol
 _atom_site_label
 _atom_site_symmetry_multiplicity
 _atom_site_fract_x
 _atom_site_fract_y
 _atom_site_fract_z
 _atom_site_occupancy
  Li  Li0  1  0.12500000  0.00000000  0.25000000  1
  Li  Li1  1  0.00000000  0.00000000  0.00000000  1
  I  I2  1  0.37500000  0.00000000  0.25000000  1
  I  I3  1  0.25000000  0.25000000  0.25000000  1
  I  I4  1  0.00000000  0.25000000  0.12500000  1
  I  I5  1  0.18578239  0.39452447  0.20284345  1
  As  As6  1  0.82724477  0.72985349  0.91232130  1
  As  As7  1  0.36876366  0.04698603  0.47342835  1
  As  As8  1  0.88255091  0.13507687  0.14864471  1
  As  As9  1  0.01024024  0.56185607  0.16011126  1
  As  As10  1  0.75422528  0.91123015  0.91663840  1
  As  As11  1  0.81620054  0.32628951  0.51476246  1
  O  O12  1  0.96947365  0.32492036  0.30278213  1
  O  O13  1  0.28538394  0.65480676  0.32688318  1
  O  O14  1  0.23598478  0.03299048  0.67677965  1
  O  O15  1  0.54075051  0.37939342  0.50835771  1
  Cu  Cu16  1  0.59870194  0.41424438  0.19159384  1
  Cu  Cu17  1  0.50391046  0.02851868  0.37433627  1
