# generated using pymatgen
data_Li3Ti3Se(BrO)3
_symmetry_space_group_name_H-M   'P 1'
_cell_length_a   7.29092972
_cell_length_b   7.59428149
_cell_length_c   7.49638794
_cell_angle_alpha   92.51294151
_cell_angle_beta   93.40364730
_cell_angle_gamma   93.23392649
_symmetry_Int_Tables_number   1
_chemical_formula_structural   Li3Ti3Se(BrO)3
_chemical_formula_sum   'Li3 Ti3 Se1 Br3 O3'
_cell_volume   413.21425686
_cell_formula_units_Z   1
loop_
 _symmetry_equiv_pos_site_id
 _symmetry_equiv_pos_as_xyz
  1  'x, y, z'
loop_
 _atom_site_type_symbol
 _atom_site_label
 _atom_site_symmetry_multiplicity
 _atom_site_fract_x
 _atom_site_fract_y
 _atom_site_fract_z
 _atom_site_occupancy
  Li  Li0  1  0.00000000  0.00000000  0.00000000  1
  Li  Li1  1  0.50000000  0.50000000  0.50000000  1
  Li  Li2  1  0.25000000  0.25000000  0.25000000  1
  Br  Br3  1  0.75000000  0.25000000  0.00000000  1
  Br  Br4  1  0.25000000  0.75000000  0.50000000  1
  Br  Br5  1  0.62139686  0.74063975  0.42280231  1
  Se  Se6  1  0.02215792  0.73244785  0.14889603  1
  Ti  Ti7  1  0.90712013  0.02225768  0.82231384  1
  Ti  Ti8  1  0.73479251  0.79145322  0.00108732  1
  Ti  Ti9  1  0.90528690  0.56470968  0.81901292  1
  O  O10  1  0.86412027  0.74580779  0.90140187  1
  O  O11  1  0.65661874  0.66497114  0.90426877  1
  O  O12  1  0.77460168  0.29775549  0.13120333  1
