# generated using pymatgen
data_Li3Zn2Te6I4O3
_symmetry_space_group_name_H-M   'P 1'
_cell_length_a   7.78296316
_cell_length_b   7.98676683
_cell_length_c   7.14996098
_cell_angle_alpha   91.99941536
_cell_angle_beta   92.29414639
_cell_angle_gamma   91.80552174
_symmetry_Int_Tables_number   1
_chemical_formula_structural   Li3Zn2Te6I4O3
_chemical_formula_sum   'Li3 Zn2 Te6 I4 O3'
_cell_volume   443.57907153
_cell_formula_units_Z   1
loop_
 _symmetry_equiv_pos_site_id
 _symmetry_equiv_pos_as_xyz
  1  'x, y, z'
loop_
 _atom_site_type_symbol
 _atom_site_label
 _atom_site_symmetry_multiplicity
 _atom_site_fract_x
 _atom_site_fract_y
 _atom_site_fract_z
 _atom_site_occupancy
  I  I0  1  0.12500000  0.00000000  0.25000000  1
  I  I1  1  0.00000000  0.00000000  0.00000000  1
  I  I2  1  0.37500000  0.00000000  0.25000000  1
  I  I3  1  0.25000000  0.25000000  0.25000000  1
  Li  Li4  1  0.00000000  0.25000000  0.12500000  1
  Li  Li5  1  0.40598645  0.58735489  0.62426629  1
  Li  Li6  1  0.03253358  0.38689534  0.93577629  1
  Zn  Zn7  1  0.20686187  0.14541485  0.28561247  1
  Zn  Zn8  1  0.63199341  0.92225215  0.68453412  1
  Te  Te9  1  0.65045721  0.24456454  0.70321061  1
  Te  Te10  1  0.31289410  0.62764235  0.08577376  1
  Te  Te11  1  0.49365800  0.40367842  0.63505612  1
  Te  Te12  1  0.10008782  0.60380748  0.44347806  1
  Te  Te13  1  0.61234952  0.25813751  0.85313376  1
  Te  Te14  1  0.04773971  0.84395746  0.10463211  1
  O  O15  1  0.32356111  0.95028414  0.68778592  1
  O  O16  1  0.85800572  0.86218956  0.67663809  1
  O  O17  1  0.54610317  0.43264279  0.24909033  1
