# generated using pymatgen
data_LiTiS3I4F
_symmetry_space_group_name_H-M   'P 1'
_cell_length_a   7.30274546
_cell_length_b   7.62665580
_cell_length_c   7.90361824
_cell_angle_alpha   90.81747001
_cell_angle_beta   93.88927403
_cell_angle_gamma   90.93458650
_symmetry_Int_Tables_number   1
_chemical_formula_structural   LiTiS3I4F
_chemical_formula_sum   'Li1 Ti1 S3 I4 F1'
_cell_volume   439.07182720
_cell_formula_units_Z   1
loop_
 _symmetry_equiv_pos_site_id
 _symmetry_equiv_pos_as_xyz
  1  'x, y, z'
loop_
 _atom_site_type_symbol
 _atom_site_label
 _atom_site_symmetry_multiplicity
 _atom_site_fract_x
 _atom_site_fract_y
 _atom_site_fract_z
 _atom_site_occupancy
  I  I0  1  0.00000000  0.00000000  0.00000000  1
  I  I1  1  0.50000000  0.50000000  0.50000000  1
  I  I2  1  0.50000000  0.50000000  0.00000000  1
  I  I3  1  0.50000000  0.00000000  0.50000000  1
  Li  Li4  1  0.00000000  0.50000000  0.50000000  1
  F  F5  1  0.80702685  0.17456610  0.18136611  1
  S  S6  1  0.38053663  0.53800535  0.16692535  1
  S  S7  1  0.85757230  0.97669464  0.72456906  1
  S  S8  1  0.36119271  0.59249208  0.23822441  1
  Ti  Ti9  1  0.95746719  0.91110102  0.99095152  1
