# generated using pymatgen
data_Li2TiP4S3F2
_symmetry_space_group_name_H-M   'P 1'
_cell_length_a   6.17296018
_cell_length_b   5.98091414
_cell_length_c   7.52057509
_cell_angle_alpha   94.67052822
_cell_angle_beta   96.81183250
_cell_angle_gamma   94.50091217
_symmetry_Int_Tables_number   1
_chemical_formula_structural   Li2TiP4S3F2
_chemical_formula_sum   'Li2 Ti1 P4 S3 F2'
_cell_volume   273.69194735
_cell_formula_units_Z   1
loop_
 _symmetry_equiv_pos_site_id
 _symmetry_equiv_pos_as_xyz
  1  'x, y, z'
loop_
 _atom_site_type_symbol
 _atom_site_label
 _atom_site_symmetry_multiplicity
 _atom_site_fract_x
 _atom_site_fract_y
 _atom_site_fract_z
 _atom_site_occupancy
  P  P0  1  0.00000000  0.00000000  0.00000000  1
  P  P1  1  0.50000000  0.50000000  0.50000000  1
  P  P2  1  0.50000000  0.50000000  0.00000000  1
  P  P3  1  0.50000000  0.00000000  0.50000000  1
  Li  Li4  1  0.00000000  0.50000000  0.50000000  1
  Li  Li5  1  0.57767611  0.55248532  0.41096652  1
  F  F6  1  0.49207980  0.81619008  0.03343358  1
  F  F7  1  0.43538419  0.51390406  0.83786012  1
  S  S8  1  0.15603094  0.92020150  0.98204474  1
  S  S9  1  0.48549366  0.19853620  0.34355371  1
  S  S10  1  0.48146068  0.98961425  0.90412683  1
  Ti  Ti11  1  0.74959920  0.77473242  0.08879650  1
