# generated using pymatgen
data_Li3As6I4O5
_symmetry_space_group_name_H-M   'P 1'
_cell_length_a   8.12324856
_cell_length_b   7.96736844
_cell_length_c   8.43601236
_cell_angle_alpha   91.08874317
_cell_angle_beta   90.69025960
_cell_angle_gamma   91.26165856
_symmetry_Int_Tables_number   1
_chemical_formula_structural   Li3As6I4O5
_chemical_formula_sum   'Li3 As6 I4 O5'
_cell_volume   545.71308164
_cell_formula_units_Z   1
loop_
 _symmetry_equiv_pos_site_id
 _symmetry_equiv_pos_as_xyz
  1  'x, y, z'
loop_
 _atom_site_type_symbol
 _atom_site_label
 _atom_site_symmetry_multiplicity
 _atom_site_fract_x
 _atom_site_fract_y
 _atom_site_fract_z
 _atom_site_occupancy
  I  I0  1  0.12500000  0.12500000  0.12500000  1
  I  I1  1  0.50000000  0.50000000  0.50000000  1
  I  I2  1  0.25000000  0.25000000  0.25000000  1
  I  I3  1  0.75000000  0.75000000  0.75000000  1
  Li  Li4  1  0.32345592  0.78974499  0.55335039  1
  Li  Li5  1  0.63540499  0.81540390  0.85421826  1
  Li  Li6  1  0.66266348  0.13006269  0.79979324  1
  As  As7  1  0.77179732  0.44550307  0.48939097  1
  As  As8  1  0.40106117  0.95687970  0.22988152  1
  As  As9  1  0.33029326  0.01169407  0.10028858  1
  As  As10  1  0.57828633  0.15386230  0.98167096  1
  As  As11  1  0.35349595  0.84463842  0.68389682  1
  As  As12  1  0.36115548  0.73834367  0.24399512  1
  O  O13  1  0.77284946  0.11925946  0.01268660  1
  O  O14  1  0.92130862  0.95039759  0.01798502  1
  O  O15  1  0.18000507  0.70291524  0.34142293  1
  O  O16  1  0.62701202  0.35197140  0.92664788  1
  O  O17  1  0.80929719  0.68781266  0.05452897  1
