# generated using pymatgen
data_Li3TiI4(OF)3
_symmetry_space_group_name_H-M   'P 1'
_cell_length_a   6.87293432
_cell_length_b   6.66627102
_cell_length_c   7.08727833
_cell_angle_alpha   96.76660202
_cell_angle_beta   98.97939330
_cell_angle_gamma   96.36131080
_symmetry_Int_Tables_number   1
_chemical_formula_structural   Li3TiI4(OF)3
_chemical_formula_sum   'Li3 Ti1 I4 O3 F3'
_cell_volume   315.72839247
_cell_formula_units_Z   1
loop_
 _symmetry_equiv_pos_site_id
 _symmetry_equiv_pos_as_xyz
  1  'x, y, z'
loop_
 _atom_site_type_symbol
 _atom_site_label
 _atom_site_symmetry_multiplicity
 _atom_site_fract_x
 _atom_site_fract_y
 _atom_site_fract_z
 _atom_site_occupancy
  I  I0  1  0.12500000  0.00000000  0.25000000  1
  I  I1  1  0.00000000  0.00000000  0.00000000  1
  I  I2  1  0.37500000  0.00000000  0.25000000  1
  I  I3  1  0.25000000  0.25000000  0.25000000  1
  Li  Li4  1  0.00000000  0.25000000  0.12500000  1
  Li  Li5  1  0.16698940  0.71266873  0.16527238  1
  Li  Li6  1  0.48292446  0.97742493  0.52070475  1
  F  F7  1  0.08076703  0.00507672  0.91912806  1
  F  F8  1  0.51624322  0.42505935  0.44365130  1
  F  F9  1  0.33508505  0.03273352  0.23968922  1
  Ti  Ti10  1  0.87991395  0.69741834  0.87268464  1
  O  O11  1  0.66625889  0.93683351  0.87423385  1
  O  O12  1  0.67267107  0.48294601  0.66387658  1
  O  O13  1  0.17373793  0.72535545  0.08905053  1
