# generated using pymatgen
data_LiLuTi2F2
_symmetry_space_group_name_H-M   'P 1'
_cell_length_a   6.51843847
_cell_length_b   6.55921265
_cell_length_c   7.61759916
_cell_angle_alpha   94.84208005
_cell_angle_beta   97.80176097
_cell_angle_gamma   94.73020019
_symmetry_Int_Tables_number   1
_chemical_formula_structural   LiLuTi2F2
_chemical_formula_sum   'Li1 Lu1 Ti2 F2'
_cell_volume   320.07189735
_cell_formula_units_Z   1
loop_
 _symmetry_equiv_pos_site_id
 _symmetry_equiv_pos_as_xyz
  1  'x, y, z'
loop_
 _atom_site_type_symbol
 _atom_site_label
 _atom_site_symmetry_multiplicity
 _atom_site_fract_x
 _atom_site_fract_y
 _atom_site_fract_z
 _atom_site_occupancy
  F  F0  1  0.12500000  0.12500000  0.12500000  1
  F  F1  1  0.50000000  0.50000000  0.50000000  1
  Ti  Ti2  1  0.25000000  0.25000000  0.25000000  1
  Ti  Ti3  1  0.75000000  0.75000000  0.75000000  1
  Lu  Lu4  1  0.14940341  0.88307728  0.28909985  1
  Li  Li5  1  0.56393867  0.71395514  0.81158965  1
