# generated using pymatgen
data_Li3I4(ClO2)2
_symmetry_space_group_name_H-M   'P 1'
_cell_length_a   7.44945317
_cell_length_b   7.21876916
_cell_length_c   7.31136023
_cell_angle_alpha   95.87921468
_cell_angle_beta   97.50640682
_cell_angle_gamma   95.53067063
_symmetry_Int_Tables_number   1
_chemical_formula_structural   Li3I4(ClO2)2
_chemical_formula_sum   'Li3 I4 Cl2 O4'
_cell_volume   385.34616082
_cell_formula_units_Z   1
loop_
 _symmetry_equiv_pos_site_id
 _symmetry_equiv_pos_as_xyz
  1  'x, y, z'
loop_
 _atom_site_type_symbol
 _atom_site_label
 _atom_site_symmetry_multiplicity
 _atom_site_fract_x
 _atom_site_fract_y
 _atom_site_fract_z
 _atom_site_occupancy
  Cl  Cl0  1  0.00000000  0.00000000  0.00000000  1
  Cl  Cl1  1  0.50000000  0.50000000  0.50000000  1
  O  O2  1  0.25000000  0.25000000  0.25000000  1
  O  O3  1  0.75000000  0.25000000  0.00000000  1
  O  O4  1  0.25000000  0.75000000  0.50000000  1
  O  O5  1  0.72277143  0.87690502  0.94418172  1
  I  I6  1  0.67574095  0.00820512  0.43566557  1
  I  I7  1  0.61605037  0.66840874  0.69629237  1
  I  I8  1  0.62580417  0.59588327  0.77702760  1
  I  I9  1  0.35417531  0.25911073  0.56425568  1
  Li  Li10  1  0.80170154  0.78533320  0.02634241  1
  Li  Li11  1  0.92730742  0.74744918  0.81640438  1
  Li  Li12  1  0.84975557  0.24590213  0.48744497  1
