# generated using pymatgen
data_Li3TiI4(OF)3
_symmetry_space_group_name_H-M   'P 1'
_cell_length_a   6.95618127
_cell_length_b   6.75315164
_cell_length_c   7.10039451
_cell_angle_alpha   96.47925023
_cell_angle_beta   98.59807270
_cell_angle_gamma   96.09117019
_symmetry_Int_Tables_number   1
_chemical_formula_structural   Li3TiI4(OF)3
_chemical_formula_sum   'Li3 Ti1 I4 O3 F3'
_cell_volume   325.11648172
_cell_formula_units_Z   1
loop_
 _symmetry_equiv_pos_site_id
 _symmetry_equiv_pos_as_xyz
  1  'x, y, z'
loop_
 _atom_site_type_symbol
 _atom_site_label
 _atom_site_symmetry_multiplicity
 _atom_site_fract_x
 _atom_site_fract_y
 _atom_site_fract_z
 _atom_site_occupancy
  I  I0  1  0.12500000  0.00000000  0.25000000  1
  I  I1  1  0.00000000  0.00000000  0.00000000  1
  I  I2  1  0.37500000  0.00000000  0.25000000  1
  I  I3  1  0.25000000  0.25000000  0.25000000  1
  Li  Li4  1  0.00000000  0.25000000  0.12500000  1
  Li  Li5  1  0.70305055  0.94487571  0.73234777  1
  Li  Li6  1  0.02356792  0.55862133  0.26541031  1
  F  F7  1  0.14716253  0.71950225  0.49808337  1
  F  F8  1  0.99242279  0.41588070  0.69532524  1
  F  F9  1  0.04429017  0.65643691  0.15892023  1
  Ti  Ti10  1  0.05736250  0.80085057  0.73114645  1
  O  O11  1  0.59650647  0.33715099  0.20214512  1
  O  O12  1  0.40395347  0.89840204  0.87995352  1
  O  O13  1  0.20984231  0.13958475  0.40185834  1
