# generated using pymatgen
data_Li3Zn2Te6(IO)4
_symmetry_space_group_name_H-M   'P 1'
_cell_length_a   8.59417627
_cell_length_b   9.08415372
_cell_length_c   7.23980888
_cell_angle_alpha   90.00000000
_cell_angle_beta   90.00000000
_cell_angle_gamma   90.00000000
_symmetry_Int_Tables_number   1
_chemical_formula_structural   Li3Zn2Te6(IO)4
_chemical_formula_sum   'Li3 Zn2 Te6 I4 O4'
_cell_volume   565.21780327
_cell_formula_units_Z   1
loop_
 _symmetry_equiv_pos_site_id
 _symmetry_equiv_pos_as_xyz
  1  'x, y, z'
loop_
 _atom_site_type_symbol
 _atom_site_label
 _atom_site_symmetry_multiplicity
 _atom_site_fract_x
 _atom_site_fract_y
 _atom_site_fract_z
 _atom_site_occupancy
  I  I0  1  0.00000000  0.00000000  0.00000000  1
  I  I1  1  0.50000000  0.50000000  0.50000000  1
  I  I2  1  0.25000000  0.25000000  0.25000000  1
  I  I3  1  0.75000000  0.25000000  0.00000000  1
  Li  Li4  1  0.25000000  0.75000000  0.50000000  1
  Li  Li5  1  0.03416321  0.13968783  0.23440980  1
  Li  Li6  1  0.82808130  0.84065861  0.49354095  1
  Zn  Zn7  1  0.01943940  0.52394415  0.57826566  1
  Zn  Zn8  1  0.94647163  0.68337072  0.56265232  1
  Te  Te9  1  0.16414696  0.87989964  0.19325059  1
  Te  Te10  1  0.33578620  0.11226239  0.65491006  1
  Te  Te11  1  0.37112461  0.45241608  0.41002325  1
  Te  Te12  1  0.38405914  0.75679617  0.42497609  1
  Te  Te13  1  0.53703782  0.86309635  0.11023386  1
  Te  Te14  1  0.07221494  0.10681466  0.48149116  1
  O  O15  1  0.04979077  0.47169858  0.10710571  1
  O  O16  1  0.00780183  0.72465546  0.27737855  1
  O  O17  1  0.01487327  0.10498440  0.11148673  1
  O  O18  1  0.04124502  0.35337358  0.97212214  1
