# generated using pymatgen
data_Li2Ti(P3O2)2
_symmetry_space_group_name_H-M   'P 1'
_cell_length_a   8.42648398
_cell_length_b   8.29860799
_cell_length_c   7.78647507
_cell_angle_alpha   90.15373693
_cell_angle_beta   90.73143364
_cell_angle_gamma   90.17576237
_symmetry_Int_Tables_number   1
_chemical_formula_structural   Li2Ti(P3O2)2
_chemical_formula_sum   'Li2 Ti1 P6 O4'
_cell_volume   544.44436152
_cell_formula_units_Z   1
loop_
 _symmetry_equiv_pos_site_id
 _symmetry_equiv_pos_as_xyz
  1  'x, y, z'
loop_
 _atom_site_type_symbol
 _atom_site_label
 _atom_site_symmetry_multiplicity
 _atom_site_fract_x
 _atom_site_fract_y
 _atom_site_fract_z
 _atom_site_occupancy
  P  P0  1  0.12500000  0.00000000  0.25000000  1
  P  P1  1  0.00000000  0.00000000  0.00000000  1
  P  P2  1  0.37500000  0.00000000  0.25000000  1
  P  P3  1  0.25000000  0.25000000  0.25000000  1
  P  P4  1  0.00000000  0.25000000  0.12500000  1
  P  P5  1  0.94938864  0.80210340  0.50496882  1
  Li  Li6  1  0.25364871  0.10257529  0.53179456  1
  Li  Li7  1  0.72761266  0.18854372  0.11618687  1
  Ti  Ti8  1  0.80003140  0.83942948  0.31115127  1
  O  O9  1  0.56007833  0.33807419  0.69760440  1
  O  O10  1  0.96119191  0.40946091  0.01811726  1
  O  O11  1  0.07982719  0.03907105  0.27438061  1
  O  O12  1  0.86043707  0.85066743  0.83417763  1
