# generated using pymatgen
data_Li3(NiAs3)2
_symmetry_space_group_name_H-M   'P 1'
_cell_length_a   4.77951945
_cell_length_b   5.03295732
_cell_length_c   7.44877677
_cell_angle_alpha   99.04073184
_cell_angle_beta   95.61452573
_cell_angle_gamma   101.19475894
_symmetry_Int_Tables_number   1
_chemical_formula_structural   Li3(NiAs3)2
_chemical_formula_sum   'Li3 Ni2 As6'
_cell_volume   172.05826287
_cell_formula_units_Z   1
loop_
 _symmetry_equiv_pos_site_id
 _symmetry_equiv_pos_as_xyz
  1  'x, y, z'
loop_
 _atom_site_type_symbol
 _atom_site_label
 _atom_site_symmetry_multiplicity
 _atom_site_fract_x
 _atom_site_fract_y
 _atom_site_fract_z
 _atom_site_occupancy
  Li  Li0  1  0.00000000  0.00000000  0.00000000  1
  Li  Li1  1  0.50000000  0.50000000  0.50000000  1
  Li  Li2  1  0.25000000  0.25000000  0.25000000  1
  Ni  Ni3  1  0.75000000  0.25000000  0.00000000  1
  Ni  Ni4  1  0.25000000  0.75000000  0.50000000  1
  As  As5  1  0.42987276  0.93157518  0.19904854  1
  As  As6  1  0.37388430  0.78494049  0.93776485  1
  As  As7  1  0.74522059  0.53031980  0.69693974  1
  As  As8  1  0.02428400  0.42866506  0.45209401  1
  As  As9  1  0.59045596  0.96909970  0.80287168  1
  As  As10  1  0.19438247  0.88775354  0.09410321  1
