# generated using pymatgen
data_Li2TiI4O2F3
_symmetry_space_group_name_H-M   'P 1'
_cell_length_a   6.69662861
_cell_length_b   6.57143899
_cell_length_c   7.07903303
_cell_angle_alpha   93.80346823
_cell_angle_beta   96.11321930
_cell_angle_gamma   94.36105921
_symmetry_Int_Tables_number   1
_chemical_formula_structural   Li2TiI4O2F3
_chemical_formula_sum   'Li2 Ti1 I4 O2 F3'
_cell_volume   307.98339718
_cell_formula_units_Z   1
loop_
 _symmetry_equiv_pos_site_id
 _symmetry_equiv_pos_as_xyz
  1  'x, y, z'
loop_
 _atom_site_type_symbol
 _atom_site_label
 _atom_site_symmetry_multiplicity
 _atom_site_fract_x
 _atom_site_fract_y
 _atom_site_fract_z
 _atom_site_occupancy
  I  I0  1  0.00000000  0.00000000  0.00000000  1
  I  I1  1  0.50000000  0.50000000  0.50000000  1
  I  I2  1  0.25000000  0.25000000  0.25000000  1
  I  I3  1  0.75000000  0.25000000  0.00000000  1
  Li  Li4  1  0.25000000  0.75000000  0.50000000  1
  Li  Li5  1  0.80570319  0.08558245  0.73974016  1
  F  F6  1  0.70803613  0.84993840  0.13431357  1
  F  F7  1  0.89028456  0.26159737  0.70821694  1
  F  F8  1  0.38937270  0.32730795  0.10604039  1
  Ti  Ti9  1  0.77895258  0.49926613  0.20972884  1
  O  O10  1  0.48785700  0.81195014  0.95607814  1
  O  O11  1  0.46592716  0.98534562  0.90842623  1
