# generated using pymatgen
data_Li3As6I4O3
_symmetry_space_group_name_H-M   'P 1'
_cell_length_a   7.97609203
_cell_length_b   7.91528231
_cell_length_c   7.85653829
_cell_angle_alpha   92.01864829
_cell_angle_beta   93.16741592
_cell_angle_gamma   91.91197388
_symmetry_Int_Tables_number   1
_chemical_formula_structural   Li3As6I4O3
_chemical_formula_sum   'Li3 As6 I4 O3'
_cell_volume   494.63194259
_cell_formula_units_Z   1
loop_
 _symmetry_equiv_pos_site_id
 _symmetry_equiv_pos_as_xyz
  1  'x, y, z'
loop_
 _atom_site_type_symbol
 _atom_site_label
 _atom_site_symmetry_multiplicity
 _atom_site_fract_x
 _atom_site_fract_y
 _atom_site_fract_z
 _atom_site_occupancy
  I  I0  1  0.12500000  0.12500000  0.12500000  1
  I  I1  1  0.50000000  0.50000000  0.50000000  1
  I  I2  1  0.25000000  0.25000000  0.25000000  1
  I  I3  1  0.75000000  0.75000000  0.75000000  1
  Li  Li4  1  0.67869579  0.55869336  0.53273809  1
  Li  Li5  1  0.67785210  0.73931081  0.89783302  1
  Li  Li6  1  0.14926216  0.85520989  0.17663798  1
  As  As7  1  0.86303210  0.26929234  0.79521916  1
  As  As8  1  0.54187074  0.14458777  0.65430827  1
  As  As9  1  0.73752957  0.95523089  0.42217087  1
  As  As10  1  0.28415101  0.69355811  0.17297553  1
  As  As11  1  0.12659308  0.62808666  0.60212714  1
  As  As12  1  0.55756103  0.94479030  0.00875765  1
  O  O13  1  0.74163301  0.95359658  0.46298021  1
  O  O14  1  0.68682303  0.38616133  0.30500975  1
  O  O15  1  0.73242736  0.94905328  0.18200008  1
