# generated using pymatgen
data_Li2Zr3Ti2I5Cl2
_symmetry_space_group_name_H-M   'P 1'
_cell_length_a   8.54791519
_cell_length_b   8.27517225
_cell_length_c   9.48589850
_cell_angle_alpha   97.16101169
_cell_angle_beta   102.23650663
_cell_angle_gamma   96.77357174
_symmetry_Int_Tables_number   1
_chemical_formula_structural   Li2Zr3Ti2I5Cl2
_chemical_formula_sum   'Li2 Zr3 Ti2 I5 Cl2'
_cell_volume   643.37881736
_cell_formula_units_Z   1
loop_
 _symmetry_equiv_pos_site_id
 _symmetry_equiv_pos_as_xyz
  1  'x, y, z'
loop_
 _atom_site_type_symbol
 _atom_site_label
 _atom_site_symmetry_multiplicity
 _atom_site_fract_x
 _atom_site_fract_y
 _atom_site_fract_z
 _atom_site_occupancy
  I  I0  1  0.00000000  0.00000000  0.00000000  1
  I  I1  1  0.50000000  0.50000000  0.50000000  1
  I  I2  1  0.50000000  0.50000000  0.00000000  1
  I  I3  1  0.50000000  0.00000000  0.50000000  1
  I  I4  1  0.00000000  0.50000000  0.50000000  1
  Li  Li5  1  0.02483954  0.86523594  0.92370530  1
  Li  Li6  1  0.89012929  0.98976137  0.22439372  1
  Cl  Cl7  1  0.03790772  0.23649050  0.91288775  1
  Cl  Cl8  1  0.97903265  0.08677292  0.83418703  1
  Ti  Ti9  1  0.97679597  0.53264370  0.23519374  1
  Ti  Ti10  1  0.58828020  0.79040572  0.09769174  1
  Zr  Zr11  1  0.91092692  0.96701925  0.88636321  1
  Zr  Zr12  1  0.53777908  0.17293188  0.57646541  1
  Zr  Zr13  1  0.86412674  0.26807727  0.32759863  1
