# generated using pymatgen
data_Li2MnSb4P3
_symmetry_space_group_name_H-M   'P 1'
_cell_length_a   4.30456370
_cell_length_b   4.55952329
_cell_length_c   6.48372746
_cell_angle_alpha   101.62855276
_cell_angle_beta   96.01794356
_cell_angle_gamma   102.15443974
_symmetry_Int_Tables_number   1
_chemical_formula_structural   Li2MnSb4P3
_chemical_formula_sum   'Li2 Mn1 Sb4 P3'
_cell_volume   120.39859891
_cell_formula_units_Z   1
loop_
 _symmetry_equiv_pos_site_id
 _symmetry_equiv_pos_as_xyz
  1  'x, y, z'
loop_
 _atom_site_type_symbol
 _atom_site_label
 _atom_site_symmetry_multiplicity
 _atom_site_fract_x
 _atom_site_fract_y
 _atom_site_fract_z
 _atom_site_occupancy
  Mn  Mn0  1  0.00000000  0.00000000  0.00000000  1
  Sb  Sb1  1  0.33300000  0.66700000  0.25000000  1
  Sb  Sb2  1  0.66700000  0.33300000  0.50000000  1
  Sb  Sb3  1  0.00000000  0.00000000  0.75000000  1
  Sb  Sb4  1  0.48973624  0.71597474  0.08858063  1
  P  P5  1  0.66450633  0.48988588  0.80124166  1
  P  P6  1  0.72708370  0.30072934  0.74379883  1
  P  P7  1  0.09130189  0.79992536  0.05570775  1
  Li  Li8  1  0.46033877  0.54776956  0.89806444  1
  Li  Li9  1  0.37602653  0.31494207  0.44846985  1
