# generated using pymatgen
data_Li4LuP3N5O3
_symmetry_space_group_name_H-M   'P 1'
_cell_length_a   6.82314735
_cell_length_b   6.17037529
_cell_length_c   7.11847163
_cell_angle_alpha   95.51023395
_cell_angle_beta   91.94809908
_cell_angle_gamma   96.39120432
_symmetry_Int_Tables_number   1
_chemical_formula_structural   Li4LuP3N5O3
_chemical_formula_sum   'Li4 Lu1 P3 N5 O3'
_cell_volume   296.15597796
_cell_formula_units_Z   1
loop_
 _symmetry_equiv_pos_site_id
 _symmetry_equiv_pos_as_xyz
  1  'x, y, z'
loop_
 _atom_site_type_symbol
 _atom_site_label
 _atom_site_symmetry_multiplicity
 _atom_site_fract_x
 _atom_site_fract_y
 _atom_site_fract_z
 _atom_site_occupancy
  P  P0  1  0.00000000  0.00000000  0.00000000  1
  P  P1  1  0.50000000  0.50000000  0.50000000  1
  P  P2  1  0.50000000  0.50000000  0.00000000  1
  Lu  Lu3  1  0.50000000  0.00000000  0.50000000  1
  Li  Li4  1  0.00000000  0.50000000  0.50000000  1
  Li  Li5  1  0.79619807  0.00915586  0.11627225  1
  Li  Li6  1  0.01166758  0.25242746  0.36288738  1
  Li  Li7  1  0.39658433  0.32819596  0.76818467  1
  O  O8  1  0.90513022  0.25076835  0.00338090  1
  O  O9  1  0.51517740  0.75318784  0.03958666  1
  O  O10  1  0.93282935  0.59662339  0.66091925  1
  N  N11  1  0.60893998  0.64757460  0.67397845  1
  N  N12  1  0.01238320  0.67934935  0.52890451  1
  N  N13  1  0.70076625  0.21291169  0.43635203  1
  N  N14  1  0.73321498  0.00355410  0.69940338  1
  N  N15  1  0.85980578  0.50501115  0.71842869  1
