# generated using pymatgen
data_Li3Ni2I4O5F3
_symmetry_space_group_name_H-M   'P 1'
_cell_length_a   7.13204686
_cell_length_b   6.93304135
_cell_length_c   8.30676985
_cell_angle_alpha   94.50447074
_cell_angle_beta   95.24665794
_cell_angle_gamma   94.46532772
_symmetry_Int_Tables_number   1
_chemical_formula_structural   Li3Ni2I4O5F3
_chemical_formula_sum   'Li3 Ni2 I4 O5 F3'
_cell_volume   406.25995605
_cell_formula_units_Z   1
loop_
 _symmetry_equiv_pos_site_id
 _symmetry_equiv_pos_as_xyz
  1  'x, y, z'
loop_
 _atom_site_type_symbol
 _atom_site_label
 _atom_site_symmetry_multiplicity
 _atom_site_fract_x
 _atom_site_fract_y
 _atom_site_fract_z
 _atom_site_occupancy
  I  I0  1  0.12500000  0.00000000  0.25000000  1
  I  I1  1  0.00000000  0.00000000  0.00000000  1
  I  I2  1  0.37500000  0.00000000  0.25000000  1
  I  I3  1  0.25000000  0.25000000  0.25000000  1
  Li  Li4  1  0.00000000  0.25000000  0.12500000  1
  Li  Li5  1  0.34943907  0.15977901  0.01836071  1
  Li  Li6  1  0.45192085  0.77333370  0.50131024  1
  F  F7  1  0.72024677  0.95446944  0.48963838  1
  F  F8  1  0.26915956  0.23673871  0.00311932  1
  F  F9  1  0.53533056  0.85278689  0.79362918  1
  Ni  Ni10  1  0.22189718  0.06066407  0.73551643  1
  Ni  Ni11  1  0.84700599  0.67234508  0.21993411  1
  O  O12  1  0.80624986  0.97476770  0.53412596  1
  O  O13  1  0.16949778  0.06716820  0.16385512  1
  O  O14  1  0.20684117  0.50363675  0.00921201  1
  O  O15  1  0.57280761  0.76207069  0.99059531  1
  O  O16  1  0.85217494  0.95115561  0.67791537  1
