# generated using pymatgen
data_Li2Ti(IO)4
_symmetry_space_group_name_H-M   'P 1'
_cell_length_a   8.83324572
_cell_length_b   8.71214854
_cell_length_c   7.39614012
_cell_angle_alpha   90.00000000
_cell_angle_beta   90.00000000
_cell_angle_gamma   90.00000000
_symmetry_Int_Tables_number   1
_chemical_formula_structural   Li2Ti(IO)4
_chemical_formula_sum   'Li2 Ti1 I4 O4'
_cell_volume   569.18141767
_cell_formula_units_Z   1
loop_
 _symmetry_equiv_pos_site_id
 _symmetry_equiv_pos_as_xyz
  1  'x, y, z'
loop_
 _atom_site_type_symbol
 _atom_site_label
 _atom_site_symmetry_multiplicity
 _atom_site_fract_x
 _atom_site_fract_y
 _atom_site_fract_z
 _atom_site_occupancy
  I  I0  1  0.00000000  0.00000000  0.00000000  1
  I  I1  1  0.33300000  0.66700000  0.25000000  1
  I  I2  1  0.66700000  0.33300000  0.50000000  1
  I  I3  1  0.00000000  0.00000000  0.75000000  1
  Li  Li4  1  0.94927392  0.94133112  0.64039936  1
  Li  Li5  1  0.60207787  0.73813018  0.52878922  1
  Ti  Ti6  1  0.44554196  0.22248092  0.38917761  1
  O  O7  1  0.02980820  0.47374125  0.60627302  1
  O  O8  1  0.71408329  0.31054260  0.51976375  1
  O  O9  1  0.38795759  0.34862851  0.75448028  1
  O  O10  1  0.26344561  0.76880740  0.39167658  1
