# generated using pymatgen
data_Li2LuCu2(As3P2)2
_symmetry_space_group_name_H-M   'P 1'
_cell_length_a   7.62501632
_cell_length_b   7.43843281
_cell_length_c   8.01415012
_cell_angle_alpha   91.29603281
_cell_angle_beta   91.65028014
_cell_angle_gamma   91.40567444
_symmetry_Int_Tables_number   1
_chemical_formula_structural   Li2LuCu2(As3P2)2
_chemical_formula_sum   'Li2 Lu1 Cu2 As6 P4'
_cell_volume   454.09892505
_cell_formula_units_Z   1
loop_
 _symmetry_equiv_pos_site_id
 _symmetry_equiv_pos_as_xyz
  1  'x, y, z'
loop_
 _atom_site_type_symbol
 _atom_site_label
 _atom_site_symmetry_multiplicity
 _atom_site_fract_x
 _atom_site_fract_y
 _atom_site_fract_z
 _atom_site_occupancy
  P  P0  1  0.12500000  0.00000000  0.25000000  1
  P  P1  1  0.00000000  0.00000000  0.00000000  1
  P  P2  1  0.37500000  0.00000000  0.25000000  1
  P  P3  1  0.25000000  0.25000000  0.25000000  1
  Lu  Lu4  1  0.00000000  0.25000000  0.12500000  1
  Li  Li5  1  0.77359050  0.92665953  0.34572690  1
  Li  Li6  1  0.92623007  0.97436292  0.12513849  1
  Cu  Cu7  1  0.21619075  0.84136054  0.72227424  1
  Cu  Cu8  1  0.04069817  0.45289157  0.36642219  1
  As  As9  1  0.31768036  0.38753121  0.21326123  1
  As  As10  1  0.13303931  0.58804733  0.75658608  1
  As  As11  1  0.92119201  0.51985251  0.44825347  1
  As  As12  1  0.62218812  0.55439990  0.26800616  1
  As  As13  1  0.96755285  0.63306627  0.41838438  1
  As  As14  1  0.56307211  0.75360491  0.17738392  1
