# generated using pymatgen
data_Li2Te6I4O5
_symmetry_space_group_name_H-M   'P 1'
_cell_length_a   6.90453037
_cell_length_b   6.80960911
_cell_length_c   7.99272128
_cell_angle_alpha   95.74455306
_cell_angle_beta   98.18250852
_cell_angle_gamma   95.43514249
_symmetry_Int_Tables_number   1
_chemical_formula_structural   Li2Te6I4O5
_chemical_formula_sum   'Li2 Te6 I4 O5'
_cell_volume   367.82901758
_cell_formula_units_Z   1
loop_
 _symmetry_equiv_pos_site_id
 _symmetry_equiv_pos_as_xyz
  1  'x, y, z'
loop_
 _atom_site_type_symbol
 _atom_site_label
 _atom_site_symmetry_multiplicity
 _atom_site_fract_x
 _atom_site_fract_y
 _atom_site_fract_z
 _atom_site_occupancy
  I  I0  1  0.00000000  0.00000000  0.00000000  1
  I  I1  1  0.33300000  0.66700000  0.25000000  1
  I  I2  1  0.66700000  0.33300000  0.50000000  1
  I  I3  1  0.00000000  0.00000000  0.75000000  1
  Li  Li4  1  0.51049622  0.61051621  0.04990794  1
  Li  Li5  1  0.75461558  0.12187371  0.96254747  1
  Te  Te6  1  0.48060148  0.46634047  0.47598518  1
  Te  Te7  1  0.99026040  0.28515398  0.38042956  1
  Te  Te8  1  0.93871955  0.40986469  0.34951046  1
  Te  Te9  1  0.00897651  0.32277707  0.71751945  1
  Te  Te10  1  0.98694507  0.21034178  0.73494126  1
  Te  Te11  1  0.87756496  0.45153824  0.40004990  1
  O  O12  1  0.02313787  0.04834447  0.13300709  1
  O  O13  1  0.77652345  0.45010724  0.00340426  1
  O  O14  1  0.58444267  0.93147795  0.71015091  1
  O  O15  1  0.33922687  0.40358456  0.21183933  1
  O  O16  1  0.61942686  0.66723267  0.05454894  1
