# generated using pymatgen
data_Li2Ti2Cu2P5F2
_symmetry_space_group_name_H-M   'P 1'
_cell_length_a   7.55179924
_cell_length_b   7.29364667
_cell_length_c   7.72484375
_cell_angle_alpha   91.32848711
_cell_angle_beta   92.82891128
_cell_angle_gamma   91.28646946
_symmetry_Int_Tables_number   1
_chemical_formula_structural   Li2Ti2Cu2P5F2
_chemical_formula_sum   'Li2 Ti2 Cu2 P5 F2'
_cell_volume   424.73421489
_cell_formula_units_Z   1
loop_
 _symmetry_equiv_pos_site_id
 _symmetry_equiv_pos_as_xyz
  1  'x, y, z'
loop_
 _atom_site_type_symbol
 _atom_site_label
 _atom_site_symmetry_multiplicity
 _atom_site_fract_x
 _atom_site_fract_y
 _atom_site_fract_z
 _atom_site_occupancy
  P  P0  1  0.12500000  0.00000000  0.25000000  1
  P  P1  1  0.00000000  0.00000000  0.00000000  1
  P  P2  1  0.37500000  0.00000000  0.25000000  1
  P  P3  1  0.25000000  0.25000000  0.25000000  1
  P  P4  1  0.00000000  0.25000000  0.12500000  1
  Li  Li5  1  0.00118500  0.73059237  0.12856138  1
  Li  Li6  1  0.56301716  0.72214387  0.33591208  1
  Cu  Cu7  1  0.95121883  0.82434492  0.72738353  1
  Cu  Cu8  1  0.95854420  0.58921463  0.77794950  1
  F  F9  1  0.58968109  0.26593228  0.25090568  1
  F  F10  1  0.24487091  0.63863600  0.03204699  1
  Ti  Ti11  1  0.39634479  0.65340159  0.06541451  1
  Ti  Ti12  1  0.16834642  0.39621339  0.52015155  1
