# generated using pymatgen
data_Li2LuCu2(As3P2)2
_symmetry_space_group_name_H-M   'P 1'
_cell_length_a   7.49959433
_cell_length_b   7.52839292
_cell_length_c   8.27659845
_cell_angle_alpha   90.97874941
_cell_angle_beta   91.97813246
_cell_angle_gamma   91.12907473
_symmetry_Int_Tables_number   1
_chemical_formula_structural   Li2LuCu2(As3P2)2
_chemical_formula_sum   'Li2 Lu1 Cu2 As6 P4'
_cell_volume   466.85293742
_cell_formula_units_Z   1
loop_
 _symmetry_equiv_pos_site_id
 _symmetry_equiv_pos_as_xyz
  1  'x, y, z'
loop_
 _atom_site_type_symbol
 _atom_site_label
 _atom_site_symmetry_multiplicity
 _atom_site_fract_x
 _atom_site_fract_y
 _atom_site_fract_z
 _atom_site_occupancy
  P  P0  1  0.00000000  0.00000000  0.00000000  1
  P  P1  1  0.50000000  0.50000000  0.50000000  1
  P  P2  1  0.25000000  0.25000000  0.25000000  1
  P  P3  1  0.75000000  0.25000000  0.00000000  1
  Lu  Lu4  1  0.25000000  0.75000000  0.50000000  1
  As  As5  1  0.17165937  0.49570712  0.49863093  1
  As  As6  1  0.25873132  0.70779520  0.09242027  1
  As  As7  1  0.29744637  0.21256172  0.41273266  1
  As  As8  1  0.33328193  0.74571578  0.55143433  1
  As  As9  1  0.54989981  0.40185498  0.25600089  1
  As  As10  1  0.82196701  0.85805722  0.20454239  1
  Li  Li11  1  0.09769352  0.15740129  0.95778052  1
  Li  Li12  1  0.55480399  0.36021489  0.85449055  1
  Cu  Cu13  1  0.91993329  0.71662843  0.57144062  1
  Cu  Cu14  1  0.40320311  0.60461529  0.79616201  1
