# generated using pymatgen
data_Li3Cu2Ni2As6O7
_symmetry_space_group_name_H-M   'P 1'
_cell_length_a   7.58413313
_cell_length_b   7.36777549
_cell_length_c   8.24453438
_cell_angle_alpha   91.72106772
_cell_angle_beta   91.38835800
_cell_angle_gamma   91.99328857
_symmetry_Int_Tables_number   1
_chemical_formula_structural   Li3Cu2Ni2As6O7
_chemical_formula_sum   'Li3 Cu2 Ni2 As6 O7'
_cell_volume   460.05588787
_cell_formula_units_Z   1
loop_
 _symmetry_equiv_pos_site_id
 _symmetry_equiv_pos_as_xyz
  1  'x, y, z'
loop_
 _atom_site_type_symbol
 _atom_site_label
 _atom_site_symmetry_multiplicity
 _atom_site_fract_x
 _atom_site_fract_y
 _atom_site_fract_z
 _atom_site_occupancy
  Li  Li0  1  0.00000000  0.00000000  0.00000000  1
  Li  Li1  1  0.50000000  0.50000000  0.50000000  1
  Li  Li2  1  0.25000000  0.25000000  0.25000000  1
  Cu  Cu3  1  0.75000000  0.25000000  0.00000000  1
  Cu  Cu4  1  0.25000000  0.75000000  0.50000000  1
  Ni  Ni5  1  0.60417311  0.55370534  0.88779181  1
  Ni  Ni6  1  0.37021843  0.88410289  0.24018915  1
  As  As7  1  0.94797131  0.66114427  0.81260091  1
  As  As8  1  0.53512442  0.03841266  0.61896796  1
  As  As9  1  0.65854434  0.10624535  0.80918398  1
  As  As10  1  0.67868420  0.92222391  0.61988962  1
  As  As11  1  0.05464157  0.05808989  0.83806397  1
  As  As12  1  0.48843059  0.93117695  0.22207212  1
  O  O13  1  0.68639134  0.84863607  0.89866269  1
  O  O14  1  0.85888653  0.49349953  0.31187167  1
  O  O15  1  0.73559491  0.03189438  0.49880488  1
  O  O16  1  0.08997108  0.16989910  0.62301509  1
  O  O17  1  0.31156998  0.67072914  0.23433901  1
  O  O18  1  0.51489494  0.30452865  0.18786996  1
  O  O19  1  0.94626201  0.74728636  0.06705204  1
