# generated using pymatgen
data_Li2TiCu2Ni2F2
_symmetry_space_group_name_H-M   'P 1'
_cell_length_a   7.17985611
_cell_length_b   7.00344915
_cell_length_c   7.85414633
_cell_angle_alpha   91.54932783
_cell_angle_beta   92.33425233
_cell_angle_gamma   91.32758935
_symmetry_Int_Tables_number   1
_chemical_formula_structural   Li2TiCu2Ni2F2
_chemical_formula_sum   'Li2 Ti1 Cu2 Ni2 F2'
_cell_volume   394.34754629
_cell_formula_units_Z   1
loop_
 _symmetry_equiv_pos_site_id
 _symmetry_equiv_pos_as_xyz
  1  'x, y, z'
loop_
 _atom_site_type_symbol
 _atom_site_label
 _atom_site_symmetry_multiplicity
 _atom_site_fract_x
 _atom_site_fract_y
 _atom_site_fract_z
 _atom_site_occupancy
  Li  Li0  1  0.12500000  0.00000000  0.25000000  1
  Li  Li1  1  0.00000000  0.00000000  0.00000000  1
  Cu  Cu2  1  0.37500000  0.00000000  0.25000000  1
  Cu  Cu3  1  0.25000000  0.25000000  0.25000000  1
  F  F4  1  0.00000000  0.25000000  0.12500000  1
  F  F5  1  0.48605857  0.85557923  0.19832695  1
  Ni  Ni6  1  0.22451143  0.77548678  0.21315637  1
  Ni  Ni7  1  0.16747447  0.38347837  0.66088714  1
  Ti  Ti8  1  0.94057219  0.26344507  0.16464001  1
