# generated using pymatgen
data_Li3LuNi2As6O7
_symmetry_space_group_name_H-M   'P 1'
_cell_length_a   7.70518696
_cell_length_b   7.51993722
_cell_length_c   8.83502435
_cell_angle_alpha   91.65400750
_cell_angle_beta   91.12713421
_cell_angle_gamma   91.91640270
_symmetry_Int_Tables_number   1
_chemical_formula_structural   Li3LuNi2As6O7
_chemical_formula_sum   'Li3 Lu1 Ni2 As6 O7'
_cell_volume   511.31497399
_cell_formula_units_Z   1
loop_
 _symmetry_equiv_pos_site_id
 _symmetry_equiv_pos_as_xyz
  1  'x, y, z'
loop_
 _atom_site_type_symbol
 _atom_site_label
 _atom_site_symmetry_multiplicity
 _atom_site_fract_x
 _atom_site_fract_y
 _atom_site_fract_z
 _atom_site_occupancy
  Lu  Lu0  1  0.00000000  0.00000000  0.00000000  1
  Li  Li1  1  0.50000000  0.50000000  0.50000000  1
  Li  Li2  1  0.25000000  0.25000000  0.25000000  1
  Li  Li3  1  0.75000000  0.25000000  0.00000000  1
  Ni  Ni4  1  0.25000000  0.75000000  0.50000000  1
  Ni  Ni5  1  0.83707234  0.52201387  0.19799417  1
  As  As6  1  0.95854353  0.40038572  0.45943458  1
  As  As7  1  0.14655704  0.93575478  0.59698570  1
  As  As8  1  0.65774876  0.28845763  0.59256776  1
  As  As9  1  0.78419061  0.79573815  0.23153469  1
  As  As10  1  0.59432791  0.33805173  0.63418041  1
  As  As11  1  0.45927354  0.31144365  0.90863594  1
  O  O12  1  0.55726221  0.92201115  0.79732376  1
  O  O13  1  0.47850667  0.37161448  0.82235004  1
  O  O14  1  0.09818730  0.76719078  0.25484888  1
  O  O15  1  0.03345749  0.98559000  0.82513720  1
  O  O16  1  0.16827149  0.98955780  0.80415786  1
  O  O17  1  0.95852919  0.09379958  0.44522048  1
  O  O18  1  0.83770145  0.07559383  0.54983741  1
