# generated using pymatgen
data_Li3TiI4(OF)3
_symmetry_space_group_name_H-M   'P 1'
_cell_length_a   7.34643391
_cell_length_b   7.16042541
_cell_length_c   7.12225429
_cell_angle_alpha   95.16261066
_cell_angle_beta   96.85087012
_cell_angle_gamma   94.85339183
_symmetry_Int_Tables_number   1
_chemical_formula_structural   Li3TiI4(OF)3
_chemical_formula_sum   'Li3 Ti1 I4 O3 F3'
_cell_volume   368.74609499
_cell_formula_units_Z   1
loop_
 _symmetry_equiv_pos_site_id
 _symmetry_equiv_pos_as_xyz
  1  'x, y, z'
loop_
 _atom_site_type_symbol
 _atom_site_label
 _atom_site_symmetry_multiplicity
 _atom_site_fract_x
 _atom_site_fract_y
 _atom_site_fract_z
 _atom_site_occupancy
  I  I0  1  0.12500000  0.00000000  0.25000000  1
  I  I1  1  0.00000000  0.00000000  0.00000000  1
  I  I2  1  0.37500000  0.00000000  0.25000000  1
  I  I3  1  0.25000000  0.25000000  0.25000000  1
  Li  Li4  1  0.00000000  0.25000000  0.12500000  1
  Li  Li5  1  0.12656745  0.71507993  0.32749889  1
  Li  Li6  1  0.90301120  0.48067362  0.41999076  1
  F  F7  1  0.61785050  0.67333020  0.89113741  1
  F  F8  1  0.87028211  0.17589419  0.07795326  1
  F  F9  1  0.77389985  0.40099702  0.33357018  1
  Ti  Ti10  1  0.90119648  0.70968688  0.60007809  1
  O  O11  1  0.46695997  0.12427865  0.54953373  1
  O  O12  1  0.96943799  0.79717434  0.01395721  1
  O  O13  1  0.35146743  0.22078372  0.33700102  1
