# generated using pymatgen
data_Li2LuCu2(As3P2)2
_symmetry_space_group_name_H-M   'P 1'
_cell_length_a   7.15989685
_cell_length_b   7.28621063
_cell_length_c   8.09683018
_cell_angle_alpha   93.39571980
_cell_angle_beta   95.06621799
_cell_angle_gamma   93.29583861
_symmetry_Int_Tables_number   1
_chemical_formula_structural   Li2LuCu2(As3P2)2
_chemical_formula_sum   'Li2 Lu1 Cu2 As6 P4'
_cell_volume   419.17427277
_cell_formula_units_Z   1
loop_
 _symmetry_equiv_pos_site_id
 _symmetry_equiv_pos_as_xyz
  1  'x, y, z'
loop_
 _atom_site_type_symbol
 _atom_site_label
 _atom_site_symmetry_multiplicity
 _atom_site_fract_x
 _atom_site_fract_y
 _atom_site_fract_z
 _atom_site_occupancy
  P  P0  1  0.00000000  0.00000000  0.00000000  1
  P  P1  1  0.50000000  0.50000000  0.50000000  1
  P  P2  1  0.25000000  0.25000000  0.25000000  1
  P  P3  1  0.75000000  0.25000000  0.00000000  1
  Lu  Lu4  1  0.25000000  0.75000000  0.50000000  1
  As  As5  1  0.36912696  0.23970918  0.01266668  1
  As  As6  1  0.00014182  0.57962012  0.71956054  1
  As  As7  1  0.28182746  0.41727517  0.65555101  1
  As  As8  1  0.24082440  0.11422259  0.17837055  1
  As  As9  1  0.03962339  0.37895192  0.36430594  1
  As  As10  1  0.64640551  0.36999526  0.17865205  1
  Li  Li11  1  0.41299250  0.03466706  0.99029768  1
  Li  Li12  1  0.31883380  0.44209447  0.71752257  1
  Cu  Cu13  1  0.64540944  0.54635364  0.84592657  1
  Cu  Cu14  1  0.95471964  0.51483299  0.41534124  1
