# generated using pymatgen
data_Li2TiP5N3O4
_symmetry_space_group_name_H-M   'P 1'
_cell_length_a   8.40895603
_cell_length_b   8.19158069
_cell_length_c   7.77074633
_cell_angle_alpha   91.01464119
_cell_angle_beta   90.45533530
_cell_angle_gamma   91.17649652
_symmetry_Int_Tables_number   1
_chemical_formula_structural   Li2TiP5N3O4
_chemical_formula_sum   'Li2 Ti1 P5 N3 O4'
_cell_volume   535.05429362
_cell_formula_units_Z   1
loop_
 _symmetry_equiv_pos_site_id
 _symmetry_equiv_pos_as_xyz
  1  'x, y, z'
loop_
 _atom_site_type_symbol
 _atom_site_label
 _atom_site_symmetry_multiplicity
 _atom_site_fract_x
 _atom_site_fract_y
 _atom_site_fract_z
 _atom_site_occupancy
  P  P0  1  0.00000000  0.00000000  0.00000000  1
  P  P1  1  0.50000000  0.50000000  0.50000000  1
  P  P2  1  0.50000000  0.50000000  0.00000000  1
  P  P3  1  0.50000000  0.00000000  0.50000000  1
  P  P4  1  0.00000000  0.50000000  0.50000000  1
  Li  Li5  1  0.52529151  0.96768033  0.62675273  1
  Li  Li6  1  0.35995375  0.58445370  0.18157284  1
  Ti  Ti7  1  0.23056024  0.34882930  0.02289222  1
  O  O8  1  0.33106834  0.39925812  0.63719962  1
  O  O9  1  0.21832234  0.55658483  0.61615811  1
  O  O10  1  0.30786060  0.75155529  0.28914851  1
  O  O11  1  0.51173697  0.62628902  0.57307579  1
  N  N12  1  0.40672821  0.72882080  0.83070513  1
  N  N13  1  0.57517170  0.55711653  0.40194370  1
  N  N14  1  0.75912709  0.17844698  0.80744698  1
