# generated using pymatgen
data_Li2TiCu2P4F2
_symmetry_space_group_name_H-M   'P 1'
_cell_length_a   6.90518540
_cell_length_b   6.57555725
_cell_length_c   7.23968446
_cell_angle_alpha   92.21009187
_cell_angle_beta   94.07074099
_cell_angle_gamma   91.95485784
_symmetry_Int_Tables_number   1
_chemical_formula_structural   Li2TiCu2P4F2
_chemical_formula_sum   'Li2 Ti1 Cu2 P4 F2'
_cell_volume   327.42386482
_cell_formula_units_Z   1
loop_
 _symmetry_equiv_pos_site_id
 _symmetry_equiv_pos_as_xyz
  1  'x, y, z'
loop_
 _atom_site_type_symbol
 _atom_site_label
 _atom_site_symmetry_multiplicity
 _atom_site_fract_x
 _atom_site_fract_y
 _atom_site_fract_z
 _atom_site_occupancy
  P  P0  1  0.00000000  0.00000000  0.00000000  1
  P  P1  1  0.50000000  0.50000000  0.50000000  1
  P  P2  1  0.50000000  0.50000000  0.00000000  1
  P  P3  1  0.50000000  0.00000000  0.50000000  1
  Li  Li4  1  0.00000000  0.50000000  0.50000000  1
  Li  Li5  1  0.05869593  0.19386827  0.14886958  1
  Cu  Cu6  1  0.70935003  0.52909152  0.76228810  1
  Cu  Cu7  1  0.15465058  0.83660326  0.27989802  1
  F  F8  1  0.95716914  0.32925015  0.84373016  1
  F  F9  1  0.92490091  0.66857666  0.51671687  1
  Ti  Ti10  1  0.07620289  0.61988603  0.56474649  1
