# generated using pymatgen
data_Li3Ni2As6O7
_symmetry_space_group_name_H-M   'P 1'
_cell_length_a   6.80563250
_cell_length_b   6.54432729
_cell_length_c   8.36181221
_cell_angle_alpha   96.76158528
_cell_angle_beta   97.99757207
_cell_angle_gamma   96.57634046
_symmetry_Int_Tables_number   1
_chemical_formula_structural   Li3Ni2As6O7
_chemical_formula_sum   'Li3 Ni2 As6 O7'
_cell_volume   362.97400956
_cell_formula_units_Z   1
loop_
 _symmetry_equiv_pos_site_id
 _symmetry_equiv_pos_as_xyz
  1  'x, y, z'
loop_
 _atom_site_type_symbol
 _atom_site_label
 _atom_site_symmetry_multiplicity
 _atom_site_fract_x
 _atom_site_fract_y
 _atom_site_fract_z
 _atom_site_occupancy
  Ni  Ni0  1  0.12500000  0.00000000  0.25000000  1
  Ni  Ni1  1  0.00000000  0.00000000  0.00000000  1
  O  O2  1  0.37500000  0.00000000  0.25000000  1
  O  O3  1  0.25000000  0.25000000  0.25000000  1
  O  O4  1  0.00000000  0.25000000  0.12500000  1
  O  O5  1  0.27336066  0.98986195  0.85283718  1
  O  O6  1  0.60633440  0.95585382  0.58704581  1
  O  O7  1  0.43249109  0.86031439  0.66360978  1
  O  O8  1  0.80440697  0.80547027  0.74972446  1
  As  As9  1  0.75162899  0.74873085  0.81739073  1
  As  As10  1  0.80706099  0.13996382  0.91929260  1
  As  As11  1  0.98071011  0.77215947  0.28099354  1
  As  As12  1  0.98832368  0.38135406  0.90791989  1
  As  As13  1  0.18634630  0.24859628  0.09328503  1
  As  As14  1  0.67845931  0.95637099  0.01559402  1
  Li  Li15  1  0.23425079  0.59351253  0.93788310  1
  Li  Li16  1  0.71679799  0.80561946  0.89176749  1
  Li  Li17  1  0.64960010  0.51294407  0.77650018  1
