# generated using pymatgen
data_Li3TiI4N5O4
_symmetry_space_group_name_H-M   'P 1'
_cell_length_a   8.42952729
_cell_length_b   8.23205784
_cell_length_c   7.78206872
_cell_angle_alpha   91.03717889
_cell_angle_beta   90.36668629
_cell_angle_gamma   91.20300195
_symmetry_Int_Tables_number   1
_chemical_formula_structural   Li3TiI4N5O4
_chemical_formula_sum   'Li3 Ti1 I4 N5 O4'
_cell_volume   539.79618404
_cell_formula_units_Z   1
loop_
 _symmetry_equiv_pos_site_id
 _symmetry_equiv_pos_as_xyz
  1  'x, y, z'
loop_
 _atom_site_type_symbol
 _atom_site_label
 _atom_site_symmetry_multiplicity
 _atom_site_fract_x
 _atom_site_fract_y
 _atom_site_fract_z
 _atom_site_occupancy
  I  I0  1  0.12500000  0.00000000  0.25000000  1
  I  I1  1  0.00000000  0.00000000  0.00000000  1
  I  I2  1  0.37500000  0.00000000  0.25000000  1
  I  I3  1  0.25000000  0.25000000  0.25000000  1
  Li  Li4  1  0.00000000  0.25000000  0.12500000  1
  Li  Li5  1  0.86171619  0.46963750  0.31270354  1
  Li  Li6  1  0.81189131  0.16883785  0.07336082  1
  Ti  Ti7  1  0.59528459  0.06318611  0.42891548  1
  O  O8  1  0.15128734  0.78674473  0.25299342  1
  O  O9  1  0.14167908  0.40377159  0.84140824  1
  O  O10  1  0.55689484  0.32185223  0.47113884  1
  O  O11  1  0.71210214  0.18139866  0.04142440  1
  N  N12  1  0.49217321  0.28686378  0.83222271  1
  N  N13  1  0.73990727  0.02262124  0.23730576  1
  N  N14  1  0.45253742  0.57075873  0.17393535  1
  N  N15  1  0.16126015  0.00011891  0.46564689  1
  N  N16  1  0.71362919  0.52714139  0.35967937  1
