# generated using pymatgen
data_Li2TiP8(OF)3
_symmetry_space_group_name_H-M   'P 1'
_cell_length_a   6.24797551
_cell_length_b   5.93023126
_cell_length_c   7.36556421
_cell_angle_alpha   99.85606456
_cell_angle_beta   102.95015244
_cell_angle_gamma   99.29306651
_symmetry_Int_Tables_number   1
_chemical_formula_structural   Li2TiP8(OF)3
_chemical_formula_sum   'Li2 Ti1 P8 O3 F3'
_cell_volume   256.30314030
_cell_formula_units_Z   1
loop_
 _symmetry_equiv_pos_site_id
 _symmetry_equiv_pos_as_xyz
  1  'x, y, z'
loop_
 _atom_site_type_symbol
 _atom_site_label
 _atom_site_symmetry_multiplicity
 _atom_site_fract_x
 _atom_site_fract_y
 _atom_site_fract_z
 _atom_site_occupancy
  F  F0  1  0.00000000  0.00000000  0.00000000  1
  F  F1  1  0.50000000  0.50000000  0.50000000  1
  F  F2  1  0.50000000  0.50000000  0.00000000  1
  Ti  Ti3  1  0.50000000  0.00000000  0.50000000  1
  O  O4  1  0.00000000  0.50000000  0.50000000  1
  O  O5  1  0.95238595  0.79522226  0.79161804  1
  O  O6  1  0.88603986  0.57170043  0.98963047  1
  P  P7  1  0.31804090  0.84241456  0.76948817  1
  P  P8  1  0.45314362  0.20147751  0.85276926  1
  P  P9  1  0.77431845  0.22300443  0.82589782  1
  P  P10  1  0.50698398  0.24855426  0.63486465  1
  P  P11  1  0.27736917  0.53663839  0.51757627  1
  P  P12  1  0.41920855  0.53662913  0.77315150  1
  P  P13  1  0.36023364  0.93165027  0.52805985  1
  P  P14  1  0.02342447  0.70889203  0.87995778  1
  Li  Li15  1  0.86149025  0.26910234  0.47041228  1
  Li  Li16  1  0.48923651  0.56121067  0.57680247  1
