# generated using pymatgen
data_Li2TiI4(OF)3
_symmetry_space_group_name_H-M   'P 1'
_cell_length_a   6.74925047
_cell_length_b   6.53470327
_cell_length_c   7.14747006
_cell_angle_alpha   96.27582083
_cell_angle_beta   98.72603937
_cell_angle_gamma   95.92349000
_symmetry_Int_Tables_number   1
_chemical_formula_structural   Li2TiI4(OF)3
_chemical_formula_sum   'Li2 Ti1 I4 O3 F3'
_cell_volume   307.40796990
_cell_formula_units_Z   1
loop_
 _symmetry_equiv_pos_site_id
 _symmetry_equiv_pos_as_xyz
  1  'x, y, z'
loop_
 _atom_site_type_symbol
 _atom_site_label
 _atom_site_symmetry_multiplicity
 _atom_site_fract_x
 _atom_site_fract_y
 _atom_site_fract_z
 _atom_site_occupancy
  I  I0  1  0.00000000  0.00000000  0.00000000  1
  I  I1  1  0.50000000  0.50000000  0.50000000  1
  I  I2  1  0.50000000  0.50000000  0.00000000  1
  I  I3  1  0.50000000  0.00000000  0.50000000  1
  Li  Li4  1  0.00000000  0.50000000  0.50000000  1
  Li  Li5  1  0.45566001  0.74940562  0.39735160  1
  F  F6  1  0.22420880  0.93321940  0.92209048  1
  F  F7  1  0.67830131  0.83199373  0.69314835  1
  F  F8  1  0.79967106  0.19342765  0.94913409  1
  Ti  Ti9  1  0.21556159  0.73272359  0.30075910  1
  O  O10  1  0.63615054  0.33903602  0.85490726  1
  O  O11  1  0.52624440  0.47605716  0.75972730  1
  O  O12  1  0.13561399  0.27237153  0.61262387  1
