# generated using pymatgen
data_Li3TiNi2(OF)3
_symmetry_space_group_name_H-M   'P 1'
_cell_length_a   7.00621325
_cell_length_b   6.77283209
_cell_length_c   7.65833188
_cell_angle_alpha   94.53549127
_cell_angle_beta   95.47416620
_cell_angle_gamma   94.51187797
_symmetry_Int_Tables_number   1
_chemical_formula_structural   Li3TiNi2(OF)3
_chemical_formula_sum   'Li3 Ti1 Ni2 O3 F3'
_cell_volume   359.24884769
_cell_formula_units_Z   1
loop_
 _symmetry_equiv_pos_site_id
 _symmetry_equiv_pos_as_xyz
  1  'x, y, z'
loop_
 _atom_site_type_symbol
 _atom_site_label
 _atom_site_symmetry_multiplicity
 _atom_site_fract_x
 _atom_site_fract_y
 _atom_site_fract_z
 _atom_site_occupancy
  Li  Li0  1  0.12500000  0.00000000  0.25000000  1
  Li  Li1  1  0.00000000  0.00000000  0.00000000  1
  Li  Li2  1  0.37500000  0.00000000  0.25000000  1
  F  F3  1  0.25000000  0.25000000  0.25000000  1
  F  F4  1  0.00000000  0.25000000  0.12500000  1
  F  F5  1  0.08897843  0.38954178  0.79588843  1
  Ni  Ni6  1  0.79638550  0.05192779  0.50314430  1
  Ni  Ni7  1  0.88083386  0.80148077  0.11510956  1
  Ti  Ti8  1  0.62991646  0.97414670  0.29180629  1
  O  O9  1  0.59877872  0.96533228  0.96401799  1
  O  O10  1  0.95355747  0.96452140  0.15803691  1
  O  O11  1  0.87290049  0.64932662  0.44367203  1
