# generated using pymatgen
data_Li2Ni2As6O7
_symmetry_space_group_name_H-M   'P 1'
_cell_length_a   7.62653568
_cell_length_b   7.61547108
_cell_length_c   8.77509942
_cell_angle_alpha   91.12275872
_cell_angle_beta   91.59356957
_cell_angle_gamma   91.29775067
_symmetry_Int_Tables_number   1
_chemical_formula_structural   Li2Ni2As6O7
_chemical_formula_sum   'Li2 Ni2 As6 O7'
_cell_volume   509.22270973
_cell_formula_units_Z   1
loop_
 _symmetry_equiv_pos_site_id
 _symmetry_equiv_pos_as_xyz
  1  'x, y, z'
loop_
 _atom_site_type_symbol
 _atom_site_label
 _atom_site_symmetry_multiplicity
 _atom_site_fract_x
 _atom_site_fract_y
 _atom_site_fract_z
 _atom_site_occupancy
  Ni  Ni0  1  0.12500000  0.12500000  0.12500000  1
  Ni  Ni1  1  0.50000000  0.50000000  0.50000000  1
  O  O2  1  0.25000000  0.25000000  0.25000000  1
  O  O3  1  0.75000000  0.75000000  0.75000000  1
  O  O4  1  0.97981616  0.60554479  0.98755897  1
  O  O5  1  0.08138753  0.39522965  0.45130370  1
  O  O6  1  0.78916893  0.76453960  0.23225326  1
  O  O7  1  0.43333465  0.82991162  0.06204287  1
  O  O8  1  0.02603315  0.74268850  0.29733952  1
  As  As9  1  0.04060415  0.30371724  0.05136911  1
  As  As10  1  0.13388015  0.06329293  0.69281153  1
  As  As11  1  0.81349300  0.31936790  0.13898894  1
  As  As12  1  0.04817898  0.91314435  0.82523095  1
  As  As13  1  0.36828185  0.51788462  0.76873520  1
  As  As14  1  0.03237281  0.20418956  0.54753871  1
  Li  Li15  1  0.57641831  0.91754985  0.35322300  1
  Li  Li16  1  0.92475050  0.90509130  0.21026052  1
