# generated using pymatgen
data_Li2Cu2As6I4N5
_symmetry_space_group_name_H-M   'P 1'
_cell_length_a   7.87087577
_cell_length_b   7.78667705
_cell_length_c   8.21504323
_cell_angle_alpha   91.32126723
_cell_angle_beta   91.28069004
_cell_angle_gamma   91.52944137
_symmetry_Int_Tables_number   1
_chemical_formula_structural   Li2Cu2As6I4N5
_chemical_formula_sum   'Li2 Cu2 As6 I4 N5'
_cell_volume   503.03723915
_cell_formula_units_Z   1
loop_
 _symmetry_equiv_pos_site_id
 _symmetry_equiv_pos_as_xyz
  1  'x, y, z'
loop_
 _atom_site_type_symbol
 _atom_site_label
 _atom_site_symmetry_multiplicity
 _atom_site_fract_x
 _atom_site_fract_y
 _atom_site_fract_z
 _atom_site_occupancy
  I  I0  1  0.12500000  0.00000000  0.25000000  1
  I  I1  1  0.00000000  0.00000000  0.00000000  1
  I  I2  1  0.37500000  0.00000000  0.25000000  1
  I  I3  1  0.25000000  0.25000000  0.25000000  1
  As  As4  1  0.00000000  0.25000000  0.12500000  1
  As  As5  1  0.08694331  0.96111947  0.63044164  1
  As  As6  1  0.10835659  0.12727268  0.39725364  1
  As  As7  1  0.71584524  0.48107731  0.33401841  1
  As  As8  1  0.33724667  0.33608217  0.80278943  1
  As  As9  1  0.96475645  0.99202500  0.36314328  1
  Li  Li10  1  0.80598822  0.49981579  0.36767514  1
  Li  Li11  1  0.05584614  0.11535880  0.93914153  1
  N  N12  1  0.74115651  0.49774829  0.36898465  1
  N  N13  1  0.05707735  0.70034342  0.05598239  1
  N  N14  1  0.13263055  0.82957529  0.64722730  1
  N  N15  1  0.39714837  0.06708231  0.05408122  1
  N  N16  1  0.46889551  0.97588747  0.69696240  1
  Cu  Cu17  1  0.03665801  0.63645621  0.12113833  1
  Cu  Cu18  1  0.92904009  0.62662882  0.77354299  1
