# generated using pymatgen
data_LiMn3Sb4P3
_symmetry_space_group_name_H-M   'P 1'
_cell_length_a   4.98925378
_cell_length_b   5.19806967
_cell_length_c   5.96961597
_cell_angle_alpha   95.08313951
_cell_angle_beta   91.29345815
_cell_angle_gamma   95.49766349
_symmetry_Int_Tables_number   1
_chemical_formula_structural   LiMn3Sb4P3
_chemical_formula_sum   'Li1 Mn3 Sb4 P3'
_cell_volume   153.42536693
_cell_formula_units_Z   1
loop_
 _symmetry_equiv_pos_site_id
 _symmetry_equiv_pos_as_xyz
  1  'x, y, z'
loop_
 _atom_site_type_symbol
 _atom_site_label
 _atom_site_symmetry_multiplicity
 _atom_site_fract_x
 _atom_site_fract_y
 _atom_site_fract_z
 _atom_site_occupancy
  Mn  Mn0  1  0.12500000  0.12500000  0.12500000  1
  Mn  Mn1  1  0.50000000  0.50000000  0.50000000  1
  Mn  Mn2  1  0.25000000  0.25000000  0.25000000  1
  Sb  Sb3  1  0.75000000  0.75000000  0.75000000  1
  Sb  Sb4  1  0.69137993  0.76404775  0.28864591  1
  Sb  Sb5  1  0.04975943  0.95188130  0.09441316  1
  Sb  Sb6  1  0.52047322  0.28456956  0.03402295  1
  P  P7  1  0.76616113  0.46830828  0.72550076  1
  P  P8  1  0.38869282  0.13770403  0.06522273  1
  P  P9  1  0.71325404  0.76151831  0.19689103  1
  Li  Li10  1  0.96014332  0.97511669  0.99243018  1
