# generated using pymatgen
data_Li2Ti(OF)3
_symmetry_space_group_name_H-M   'P 1'
_cell_length_a   6.69460248
_cell_length_b   6.56701628
_cell_length_c   7.65671155
_cell_angle_alpha   95.56359709
_cell_angle_beta   98.29756432
_cell_angle_gamma   95.26445622
_symmetry_Int_Tables_number   1
_chemical_formula_structural   Li2Ti(OF)3
_chemical_formula_sum   'Li2 Ti1 O3 F3'
_cell_volume   329.60702173
_cell_formula_units_Z   1
loop_
 _symmetry_equiv_pos_site_id
 _symmetry_equiv_pos_as_xyz
  1  'x, y, z'
loop_
 _atom_site_type_symbol
 _atom_site_label
 _atom_site_symmetry_multiplicity
 _atom_site_fract_x
 _atom_site_fract_y
 _atom_site_fract_z
 _atom_site_occupancy
  Li  Li0  1  0.00000000  0.00000000  0.00000000  1
  Li  Li1  1  0.33300000  0.66700000  0.25000000  1
  F  F2  1  0.66700000  0.33300000  0.50000000  1
  F  F3  1  0.00000000  0.00000000  0.75000000  1
  F  F4  1  0.74065885  0.08230177  0.13559584  1
  Ti  Ti5  1  0.90420947  0.98370180  0.67840116  1
  O  O6  1  0.34321725  0.15487293  0.92764937  1
  O  O7  1  0.53173361  0.17669184  0.97540648  1
  O  O8  1  0.38117526  0.18667712  0.89795763  1
