# generated using pymatgen
data_Li2LuCu2(NiP2)2
_symmetry_space_group_name_H-M   'P 1'
_cell_length_a   7.17196322
_cell_length_b   7.09801299
_cell_length_c   7.89126945
_cell_angle_alpha   94.16655960
_cell_angle_beta   94.86138069
_cell_angle_gamma   94.15183861
_symmetry_Int_Tables_number   1
_chemical_formula_structural   Li2LuCu2(NiP2)2
_chemical_formula_sum   'Li2 Lu1 Cu2 Ni2 P4'
_cell_volume   397.96609444
_cell_formula_units_Z   1
loop_
 _symmetry_equiv_pos_site_id
 _symmetry_equiv_pos_as_xyz
  1  'x, y, z'
loop_
 _atom_site_type_symbol
 _atom_site_label
 _atom_site_symmetry_multiplicity
 _atom_site_fract_x
 _atom_site_fract_y
 _atom_site_fract_z
 _atom_site_occupancy
  Ni  Ni0  1  0.12500000  0.00000000  0.25000000  1
  Ni  Ni1  1  0.00000000  0.00000000  0.00000000  1
  P  P2  1  0.37500000  0.00000000  0.25000000  1
  P  P3  1  0.25000000  0.25000000  0.25000000  1
  P  P4  1  0.00000000  0.25000000  0.12500000  1
  P  P5  1  0.16296048  0.40046118  0.87443249  1
  Lu  Lu6  1  0.55699518  0.74662461  0.09680989  1
  Li  Li7  1  0.12389385  0.19897830  0.09349839  1
  Li  Li8  1  0.75000010  0.81524843  0.69824490  1
  Cu  Cu9  1  0.53774911  0.16493794  0.59310476  1
  Cu  Cu10  1  0.81490017  0.60624601  0.14266224  1
