# generated using pymatgen
data_Li2TiI4(OF)3
_symmetry_space_group_name_H-M   'P 1'
_cell_length_a   8.38428378
_cell_length_b   8.23986393
_cell_length_c   7.44485767
_cell_angle_alpha   90.17389067
_cell_angle_beta   90.82731901
_cell_angle_gamma   90.19880347
_symmetry_Int_Tables_number   1
_chemical_formula_structural   Li2TiI4(OF)3
_chemical_formula_sum   'Li2 Ti1 I4 O3 F3'
_cell_volume   514.27149264
_cell_formula_units_Z   1
loop_
 _symmetry_equiv_pos_site_id
 _symmetry_equiv_pos_as_xyz
  1  'x, y, z'
loop_
 _atom_site_type_symbol
 _atom_site_label
 _atom_site_symmetry_multiplicity
 _atom_site_fract_x
 _atom_site_fract_y
 _atom_site_fract_z
 _atom_site_occupancy
  I  I0  1  0.00000000  0.00000000  0.00000000  1
  I  I1  1  0.50000000  0.50000000  0.50000000  1
  I  I2  1  0.25000000  0.25000000  0.25000000  1
  I  I3  1  0.75000000  0.25000000  0.00000000  1
  Li  Li4  1  0.25000000  0.75000000  0.50000000  1
  Li  Li5  1  0.14185595  0.74786246  0.41732546  1
  F  F6  1  0.10429568  0.27982894  0.03712553  1
  F  F7  1  0.82042221  0.46259533  0.15851230  1
  F  F8  1  0.98764884  0.51968270  0.66613531  1
  Ti  Ti9  1  0.35954861  0.97227492  0.14154008  1
  O  O10  1  0.48294219  0.46156085  0.71263752  1
  O  O11  1  0.83514367  0.65596012  0.63332553  1
  O  O12  1  0.49274673  0.53715038  0.50314350  1
