# generated using pymatgen
data_Li2MnMo2P3N
_symmetry_space_group_name_H-M   'P 1'
_cell_length_a   3.62410836
_cell_length_b   3.70876583
_cell_length_c   5.47682816
_cell_angle_alpha   104.62987592
_cell_angle_beta   95.12451472
_cell_angle_gamma   103.57278773
_symmetry_Int_Tables_number   1
_chemical_formula_structural   Li2MnMo2P3N
_chemical_formula_sum   'Li2 Mn1 Mo2 P3 N1'
_cell_volume   68.36841446
_cell_formula_units_Z   1
loop_
 _symmetry_equiv_pos_site_id
 _symmetry_equiv_pos_as_xyz
  1  'x, y, z'
loop_
 _atom_site_type_symbol
 _atom_site_label
 _atom_site_symmetry_multiplicity
 _atom_site_fract_x
 _atom_site_fract_y
 _atom_site_fract_z
 _atom_site_occupancy
  Mn  Mn0  1  0.00000000  0.00000000  0.00000000  1
  P  P1  1  0.50000000  0.50000000  0.50000000  1
  P  P2  1  0.25000000  0.25000000  0.25000000  1
  P  P3  1  0.75000000  0.25000000  0.00000000  1
  Mo  Mo4  1  0.25000000  0.75000000  0.50000000  1
  Mo  Mo5  1  0.06587497  0.77062029  0.67886265  1
  Li  Li6  1  0.70597561  0.80041063  0.81380910  1
  Li  Li7  1  0.76668877  0.33128825  0.91231516  1
  N  N8  1  0.36932269  0.12583645  0.84259150  1
