# generated using pymatgen
data_Li3TiP5I4N5
_symmetry_space_group_name_H-M   'P 1'
_cell_length_a   7.88358142
_cell_length_b   7.64651755
_cell_length_c   8.17133102
_cell_angle_alpha   92.36698862
_cell_angle_beta   91.40566428
_cell_angle_gamma   92.63338231
_symmetry_Int_Tables_number   1
_chemical_formula_structural   Li3TiP5I4N5
_chemical_formula_sum   'Li3 Ti1 P5 I4 N5'
_cell_volume   491.47131470
_cell_formula_units_Z   1
loop_
 _symmetry_equiv_pos_site_id
 _symmetry_equiv_pos_as_xyz
  1  'x, y, z'
loop_
 _atom_site_type_symbol
 _atom_site_label
 _atom_site_symmetry_multiplicity
 _atom_site_fract_x
 _atom_site_fract_y
 _atom_site_fract_z
 _atom_site_occupancy
  I  I0  1  0.00000000  0.00000000  0.00000000  1
  I  I1  1  0.50000000  0.50000000  0.50000000  1
  I  I2  1  0.25000000  0.25000000  0.25000000  1
  I  I3  1  0.75000000  0.25000000  0.00000000  1
  P  P4  1  0.25000000  0.75000000  0.50000000  1
  P  P5  1  0.43727960  0.97919447  0.34765704  1
  P  P6  1  0.20815029  0.49463548  0.22677067  1
  P  P7  1  0.62337295  0.67928630  0.31436262  1
  P  P8  1  0.71502484  0.97826687  0.16462250  1
  Li  Li9  1  0.08709996  0.22643214  0.59014354  1
  Li  Li10  1  0.79845188  0.06479032  0.60327397  1
  Li  Li11  1  0.26247816  0.86317372  0.30435628  1
  Ti  Ti12  1  0.34378825  0.47432987  0.19709888  1
  N  N13  1  0.46600229  0.31651469  0.51229151  1
  N  N14  1  0.24763901  0.43208332  0.75843714  1
  N  N15  1  0.47957912  0.97323541  0.69104220  1
  N  N16  1  0.09338261  0.39042065  0.08056578  1
  N  N17  1  0.40737143  0.37453208  0.19422707  1
