# generated using pymatgen
data_Li(TiP2)2
_symmetry_space_group_name_H-M   'P 1'
_cell_length_a   6.48417893
_cell_length_b   6.52306515
_cell_length_c   7.60233968
_cell_angle_alpha   94.69548426
_cell_angle_beta   97.80255198
_cell_angle_gamma   94.59952287
_symmetry_Int_Tables_number   1
_chemical_formula_structural   Li(TiP2)2
_chemical_formula_sum   'Li1 Ti2 P4'
_cell_volume   316.14754063
_cell_formula_units_Z   1
loop_
 _symmetry_equiv_pos_site_id
 _symmetry_equiv_pos_as_xyz
  1  'x, y, z'
loop_
 _atom_site_type_symbol
 _atom_site_label
 _atom_site_symmetry_multiplicity
 _atom_site_fract_x
 _atom_site_fract_y
 _atom_site_fract_z
 _atom_site_occupancy
  Ti  Ti0  1  0.00000000  0.00000000  0.00000000  1
  Ti  Ti1  1  0.50000000  0.50000000  0.50000000  1
  P  P2  1  0.25000000  0.25000000  0.25000000  1
  P  P3  1  0.75000000  0.25000000  0.00000000  1
  P  P4  1  0.25000000  0.75000000  0.50000000  1
  P  P5  1  0.53064595  0.54644127  0.27178211  1
  Li  Li6  1  0.88315803  0.94578587  0.68141819  1
