# generated using pymatgen
data_Li2Mn3Sb4P3
_symmetry_space_group_name_H-M   'P 1'
_cell_length_a   7.77094139
_cell_length_b   8.10878168
_cell_length_c   7.71927121
_cell_angle_alpha   90.00000000
_cell_angle_beta   90.00000000
_cell_angle_gamma   90.00000000
_symmetry_Int_Tables_number   1
_chemical_formula_structural   Li2Mn3Sb4P3
_chemical_formula_sum   'Li2 Mn3 Sb4 P3'
_cell_volume   486.41341144
_cell_formula_units_Z   1
loop_
 _symmetry_equiv_pos_site_id
 _symmetry_equiv_pos_as_xyz
  1  'x, y, z'
loop_
 _atom_site_type_symbol
 _atom_site_label
 _atom_site_symmetry_multiplicity
 _atom_site_fract_x
 _atom_site_fract_y
 _atom_site_fract_z
 _atom_site_occupancy
  Mn  Mn0  1  0.00000000  0.00000000  0.00000000  1
  Mn  Mn1  1  0.33300000  0.66700000  0.25000000  1
  Mn  Mn2  1  0.66700000  0.33300000  0.50000000  1
  Sb  Sb3  1  0.00000000  0.00000000  0.75000000  1
  Sb  Sb4  1  0.62139686  0.74063975  0.42280231  1
  Sb  Sb5  1  0.02215792  0.73244785  0.14889603  1
  Sb  Sb6  1  0.90712013  0.02225768  0.82231384  1
  P  P7  1  0.73479251  0.79145322  0.00108732  1
  P  P8  1  0.90528690  0.56470968  0.81901292  1
  P  P9  1  0.86412027  0.74580779  0.90140187  1
  Li  Li10  1  0.65661874  0.66497114  0.90426877  1
  Li  Li11  1  0.77460168  0.29775549  0.13120333  1
