# generated using pymatgen
data_Li2LuCu2(NiAs3)2
_symmetry_space_group_name_H-M   'P 1'
_cell_length_a   7.50992385
_cell_length_b   7.47531323
_cell_length_c   8.21696900
_cell_angle_alpha   91.16837343
_cell_angle_beta   91.85500757
_cell_angle_gamma   91.34973293
_symmetry_Int_Tables_number   1
_chemical_formula_structural   Li2LuCu2(NiAs3)2
_chemical_formula_sum   'Li2 Lu1 Cu2 Ni2 As6'
_cell_volume   460.81973083
_cell_formula_units_Z   1
loop_
 _symmetry_equiv_pos_site_id
 _symmetry_equiv_pos_as_xyz
  1  'x, y, z'
loop_
 _atom_site_type_symbol
 _atom_site_label
 _atom_site_symmetry_multiplicity
 _atom_site_fract_x
 _atom_site_fract_y
 _atom_site_fract_z
 _atom_site_occupancy
  Ni  Ni0  1  0.12500000  0.00000000  0.25000000  1
  Ni  Ni1  1  0.00000000  0.00000000  0.00000000  1
  Lu  Lu2  1  0.37500000  0.00000000  0.25000000  1
  As  As3  1  0.25000000  0.25000000  0.25000000  1
  As  As4  1  0.00000000  0.25000000  0.12500000  1
  As  As5  1  0.51455433  0.27030593  0.19543270  1
  As  As6  1  0.54721250  0.55285341  0.23154861  1
  As  As7  1  0.04470388  0.54829325  0.05274485  1
  As  As8  1  0.30288917  0.68754625  0.20192391  1
  Li  Li9  1  0.41183542  0.05729603  0.31074268  1
  Li  Li10  1  0.25404229  0.82269443  0.02175389  1
  Cu  Cu11  1  0.94652836  0.34922250  0.08095754  1
  Cu  Cu12  1  0.42517361  0.82757185  0.73082344  1
