# generated using pymatgen
data_Li2TiS
_symmetry_space_group_name_H-M   'P 1'
_cell_length_a   3.47803958
_cell_length_b   3.08725531
_cell_length_c   6.52033548
_cell_angle_alpha   105.26278152
_cell_angle_beta   110.42469421
_cell_angle_gamma   104.00972431
_symmetry_Int_Tables_number   1
_chemical_formula_structural   Li2TiS
_chemical_formula_sum   'Li4 Ti2 S2'
_cell_volume   58.82035160
_cell_formula_units_Z   2
loop_
 _symmetry_equiv_pos_site_id
 _symmetry_equiv_pos_as_xyz
  1  'x, y, z'
loop_
 _atom_site_type_symbol
 _atom_site_label
 _atom_site_symmetry_multiplicity
 _atom_site_fract_x
 _atom_site_fract_y
 _atom_site_fract_z
 _atom_site_occupancy
  S  S0  1  0.12500000  0.00000000  0.25000000  1
  S  S1  1  0.00000000  0.00000000  0.00000000  1
  Ti  Ti2  1  0.37500000  0.00000000  0.25000000  1
  Ti  Ti3  1  0.25000000  0.25000000  0.25000000  1
  Li  Li4  1  0.00000000  0.25000000  0.12500000  1
  Li  Li5  1  0.77562719  0.58083519  0.60994216  1
  Li  Li6  1  0.20252875  0.76894290  0.83840250  1
  Li  Li7  1  0.22870716  0.09438859  0.32924720  1
