# generated using pymatgen
data_Li2TiCu2(I2F)2
_symmetry_space_group_name_H-M   'P 1'
_cell_length_a   7.92596862
_cell_length_b   7.84639976
_cell_length_c   7.26963150
_cell_angle_alpha   91.58236294
_cell_angle_beta   92.67144078
_cell_angle_gamma   91.91310329
_symmetry_Int_Tables_number   1
_chemical_formula_structural   Li2TiCu2(I2F)2
_chemical_formula_sum   'Li2 Ti1 Cu2 I4 F2'
_cell_volume   451.16494433
_cell_formula_units_Z   1
loop_
 _symmetry_equiv_pos_site_id
 _symmetry_equiv_pos_as_xyz
  1  'x, y, z'
loop_
 _atom_site_type_symbol
 _atom_site_label
 _atom_site_symmetry_multiplicity
 _atom_site_fract_x
 _atom_site_fract_y
 _atom_site_fract_z
 _atom_site_occupancy
  I  I0  1  0.12500000  0.00000000  0.25000000  1
  I  I1  1  0.00000000  0.00000000  0.00000000  1
  I  I2  1  0.37500000  0.00000000  0.25000000  1
  I  I3  1  0.25000000  0.25000000  0.25000000  1
  Li  Li4  1  0.00000000  0.25000000  0.12500000  1
  Li  Li5  1  0.37956118  0.00603930  0.49012750  1
  Cu  Cu6  1  0.27555104  0.56336961  0.84809458  1
  Cu  Cu7  1  0.81297342  0.88431089  0.64259218  1
  F  F8  1  0.87188116  0.05115964  0.02026691  1
  F  F9  1  0.09317982  0.31360521  0.93084376  1
  Ti  Ti10  1  0.07314812  0.54780899  0.23217253  1
