# generated using pymatgen
data_Li2TiP3(NF)3
_symmetry_space_group_name_H-M   'P 1'
_cell_length_a   6.52425783
_cell_length_b   6.27748865
_cell_length_c   7.48927001
_cell_angle_alpha   95.52118026
_cell_angle_beta   96.63478666
_cell_angle_gamma   95.32975925
_symmetry_Int_Tables_number   1
_chemical_formula_structural   Li2TiP3(NF)3
_chemical_formula_sum   'Li2 Ti1 P3 N3 F3'
_cell_volume   301.57991323
_cell_formula_units_Z   1
loop_
 _symmetry_equiv_pos_site_id
 _symmetry_equiv_pos_as_xyz
  1  'x, y, z'
loop_
 _atom_site_type_symbol
 _atom_site_label
 _atom_site_symmetry_multiplicity
 _atom_site_fract_x
 _atom_site_fract_y
 _atom_site_fract_z
 _atom_site_occupancy
  P  P0  1  0.00000000  0.00000000  0.00000000  1
  P  P1  1  0.50000000  0.50000000  0.50000000  1
  P  P2  1  0.50000000  0.50000000  0.00000000  1
  Li  Li3  1  0.50000000  0.00000000  0.50000000  1
  Li  Li4  1  0.00000000  0.50000000  0.50000000  1
  F  F5  1  0.72583130  0.98645840  0.21372579  1
  F  F6  1  0.27831044  0.21024243  0.53154865  1
  F  F7  1  0.60347706  0.60660602  0.43665203  1
  Ti  Ti8  1  0.63969788  0.25421203  0.84923085  1
  N  N9  1  0.71661390  0.20969151  0.18060555  1
  N  N10  1  0.58790522  0.75900320  0.55716137  1
  N  N11  1  0.75434368  0.48718449  0.54966904  1
