# generated using pymatgen
data_Li2LuNi2(As3O2)2
_symmetry_space_group_name_H-M   'P 1'
_cell_length_a   7.81979246
_cell_length_b   7.81416167
_cell_length_c   8.18671125
_cell_angle_alpha   91.18131707
_cell_angle_beta   91.13289298
_cell_angle_gamma   91.36748697
_symmetry_Int_Tables_number   1
_chemical_formula_structural   Li2LuNi2(As3O2)2
_chemical_formula_sum   'Li2 Lu1 Ni2 As6 O4'
_cell_volume   499.89846101
_cell_formula_units_Z   1
loop_
 _symmetry_equiv_pos_site_id
 _symmetry_equiv_pos_as_xyz
  1  'x, y, z'
loop_
 _atom_site_type_symbol
 _atom_site_label
 _atom_site_symmetry_multiplicity
 _atom_site_fract_x
 _atom_site_fract_y
 _atom_site_fract_z
 _atom_site_occupancy
  Lu  Lu0  1  0.00000000  0.00000000  0.00000000  1
  Li  Li1  1  0.50000000  0.50000000  0.50000000  1
  Li  Li2  1  0.50000000  0.50000000  0.00000000  1
  Ni  Ni3  1  0.50000000  0.00000000  0.50000000  1
  Ni  Ni4  1  0.00000000  0.50000000  0.50000000  1
  As  As5  1  0.80744714  0.17878986  0.71116749  1
  As  As6  1  0.98945235  0.33811265  0.44075546  1
  As  As7  1  0.37291420  0.92806739  0.44987591  1
  As  As8  1  0.90467636  0.15280325  0.36401520  1
  As  As9  1  0.30909314  0.79967163  0.01479480  1
  As  As10  1  0.62150840  0.52421711  0.43105593  1
  O  O11  1  0.21581399  0.68557131  0.51481498  1
  O  O12  1  0.19061647  0.17917061  0.93141932  1
  O  O13  1  0.03653124  0.37199675  0.80336650  1
  O  O14  1  0.10065288  0.54131679  0.23341934  1
