# generated using pymatgen
data_Li3LuCu2As6N5
_symmetry_space_group_name_H-M   'P 1'
_cell_length_a   7.47398733
_cell_length_b   7.27572913
_cell_length_c   8.41248423
_cell_angle_alpha   92.73352959
_cell_angle_beta   92.31002291
_cell_angle_gamma   92.96598276
_symmetry_Int_Tables_number   1
_chemical_formula_structural   Li3LuCu2As6N5
_chemical_formula_sum   'Li3 Lu1 Cu2 As6 N5'
_cell_volume   455.90766459
_cell_formula_units_Z   1
loop_
 _symmetry_equiv_pos_site_id
 _symmetry_equiv_pos_as_xyz
  1  'x, y, z'
loop_
 _atom_site_type_symbol
 _atom_site_label
 _atom_site_symmetry_multiplicity
 _atom_site_fract_x
 _atom_site_fract_y
 _atom_site_fract_z
 _atom_site_occupancy
  Lu  Lu0  1  0.12500000  0.00000000  0.25000000  1
  Li  Li1  1  0.00000000  0.00000000  0.00000000  1
  Li  Li2  1  0.37500000  0.00000000  0.25000000  1
  Li  Li3  1  0.25000000  0.25000000  0.25000000  1
  Cu  Cu4  1  0.00000000  0.25000000  0.12500000  1
  Cu  Cu5  1  0.86627757  0.37433379  0.02589874  1
  As  As6  1  0.17671812  0.94843310  0.32921569  1
  As  As7  1  0.19351001  0.00478699  0.01908578  1
  As  As8  1  0.67352443  0.75403337  0.44846839  1
  As  As9  1  0.58637836  0.66608938  0.82974263  1
  As  As10  1  0.65446471  0.80667430  0.72063700  1
  As  As11  1  0.06324104  0.43055044  0.83346575  1
  N  N12  1  0.34176207  0.24555083  0.73828829  1
  N  N13  1  0.29766228  0.86962001  0.99502633  1
  N  N14  1  0.39848692  0.44612660  0.53304003  1
  N  N15  1  0.08844043  0.50930684  0.98274349  1
  N  N16  1  0.19075236  0.42248254  0.05999033  1
