# generated using pymatgen
data_LiTe3P3(IO)2
_symmetry_space_group_name_H-M   'P 1'
_cell_length_a   7.36588600
_cell_length_b   7.18531254
_cell_length_c   7.56915962
_cell_angle_alpha   95.67203347
_cell_angle_beta   97.33636108
_cell_angle_gamma   95.34126949
_symmetry_Int_Tables_number   1
_chemical_formula_structural   LiTe3P3(IO)2
_chemical_formula_sum   'Li2 Te6 P6 I4 O4'
_cell_volume   393.10757746
_cell_formula_units_Z   2
loop_
 _symmetry_equiv_pos_site_id
 _symmetry_equiv_pos_as_xyz
  1  'x, y, z'
loop_
 _atom_site_type_symbol
 _atom_site_label
 _atom_site_symmetry_multiplicity
 _atom_site_fract_x
 _atom_site_fract_y
 _atom_site_fract_z
 _atom_site_occupancy
  P  P0  1  0.00000000  0.00000000  0.00000000  1
  P  P1  1  0.50000000  0.50000000  0.50000000  1
  P  P2  1  0.50000000  0.50000000  0.00000000  1
  P  P3  1  0.50000000  0.00000000  0.50000000  1
  P  P4  1  0.00000000  0.50000000  0.50000000  1
  P  P5  1  0.04631042  0.00724701  0.62921734  1
  I  I6  1  0.46342334  0.76214786  0.94347666  1
  I  I7  1  0.38678046  0.87646040  0.88004681  1
  I  I8  1  0.94427641  0.91254162  0.87912132  1
  I  I9  1  0.18606929  0.58397392  0.99265658  1
  Li  Li10  1  0.12228344  0.12709818  0.49101141  1
  Li  Li11  1  0.51976652  0.55756848  0.50026213  1
  Te  Te12  1  0.72100286  0.71927982  0.61249225  1
  Te  Te13  1  0.41126170  0.51312077  0.25453069  1
  Te  Te14  1  0.27988809  0.71951954  0.15549502  1
  Te  Te15  1  0.88095952  0.89380516  0.60851895  1
  Te  Te16  1  0.16965694  0.84247799  0.86503940  1
  Te  Te17  1  0.14242898  0.65138346  0.16916526  1
  O  O18  1  0.13361631  0.59067956  0.16999560  1
  O  O19  1  0.03610443  0.37991280  0.12073305  1
  O  O20  1  0.37245974  0.44007830  0.52301482  1
  O  O21  1  0.82977695  0.73514508  0.29293829  1
