# generated using pymatgen
data_Li2LuAs6P3S2
_symmetry_space_group_name_H-M   'P 1'
_cell_length_a   6.74752817
_cell_length_b   6.43204012
_cell_length_c   7.44864747
_cell_angle_alpha   92.79039303
_cell_angle_beta   94.23990581
_cell_angle_gamma   92.74574722
_symmetry_Int_Tables_number   1
_chemical_formula_structural   Li2LuAs6P3S2
_chemical_formula_sum   'Li2 Lu1 As6 P3 S2'
_cell_volume   321.57635924
_cell_formula_units_Z   1
loop_
 _symmetry_equiv_pos_site_id
 _symmetry_equiv_pos_as_xyz
  1  'x, y, z'
loop_
 _atom_site_type_symbol
 _atom_site_label
 _atom_site_symmetry_multiplicity
 _atom_site_fract_x
 _atom_site_fract_y
 _atom_site_fract_z
 _atom_site_occupancy
  P  P0  1  0.12500000  0.00000000  0.25000000  1
  P  P1  1  0.00000000  0.00000000  0.00000000  1
  P  P2  1  0.37500000  0.00000000  0.25000000  1
  Lu  Lu3  1  0.25000000  0.25000000  0.25000000  1
  Li  Li4  1  0.00000000  0.25000000  0.12500000  1
  Li  Li5  1  0.74448035  0.54807799  0.37897702  1
  S  S6  1  0.43285640  0.93032354  0.18324126  1
  S  S7  1  0.03631487  0.06074287  0.76220443  1
  As  As8  1  0.85805580  0.98481628  0.78984081  1
  As  As9  1  0.04166658  0.80419184  0.02239309  1
  As  As10  1  0.92981615  0.81285805  0.56617640  1
  As  As11  1  0.14813109  0.55367040  0.49777229  1
  As  As12  1  0.96463784  0.40917305  0.43288240  1
  As  As13  1  0.84005952  0.63664137  0.08697667  1
