# generated using pymatgen
data_Li2Lu(CuP2)2
_symmetry_space_group_name_H-M   'P 1'
_cell_length_a   7.48744214
_cell_length_b   7.29786173
_cell_length_c   8.19647524
_cell_angle_alpha   92.43476312
_cell_angle_beta   92.39097107
_cell_angle_gamma   92.59119288
_symmetry_Int_Tables_number   1
_chemical_formula_structural   Li2Lu(CuP2)2
_chemical_formula_sum   'Li2 Lu1 Cu2 P4'
_cell_volume   446.58507445
_cell_formula_units_Z   1
loop_
 _symmetry_equiv_pos_site_id
 _symmetry_equiv_pos_as_xyz
  1  'x, y, z'
loop_
 _atom_site_type_symbol
 _atom_site_label
 _atom_site_symmetry_multiplicity
 _atom_site_fract_x
 _atom_site_fract_y
 _atom_site_fract_z
 _atom_site_occupancy
  P  P0  1  0.12500000  0.00000000  0.25000000  1
  P  P1  1  0.00000000  0.00000000  0.00000000  1
  P  P2  1  0.37500000  0.00000000  0.25000000  1
  P  P3  1  0.25000000  0.25000000  0.25000000  1
  Lu  Lu4  1  0.00000000  0.25000000  0.12500000  1
  Li  Li5  1  0.65923665  0.75241963  0.13719642  1
  Li  Li6  1  0.90155953  0.35460164  0.60884216  1
  Cu  Cu7  1  0.06577376  0.79090572  0.71852197  1
  Cu  Cu8  1  0.62358208  0.19231197  0.80025812  1
