# generated using pymatgen
data_Li5Ti2P3S2O3
_symmetry_space_group_name_H-M   'P 1'
_cell_length_a   5.45207106
_cell_length_b   4.96650686
_cell_length_c   6.78393006
_cell_angle_alpha   98.15740023
_cell_angle_beta   98.94076773
_cell_angle_gamma   97.33844633
_symmetry_Int_Tables_number   1
_chemical_formula_structural   Li5Ti2P3S2O3
_chemical_formula_sum   'Li5 Ti2 P3 S2 O3'
_cell_volume   177.50583191
_cell_formula_units_Z   1
loop_
 _symmetry_equiv_pos_site_id
 _symmetry_equiv_pos_as_xyz
  1  'x, y, z'
loop_
 _atom_site_type_symbol
 _atom_site_label
 _atom_site_symmetry_multiplicity
 _atom_site_fract_x
 _atom_site_fract_y
 _atom_site_fract_z
 _atom_site_occupancy
  S  S0  1  0.12500000  0.00000000  0.25000000  1
  S  S1  1  0.00000000  0.00000000  0.00000000  1
  Ti  Ti2  1  0.37500000  0.00000000  0.25000000  1
  Ti  Ti3  1  0.25000000  0.25000000  0.25000000  1
  O  O4  1  0.00000000  0.25000000  0.12500000  1
  O  O5  1  0.73223575  0.27892116  0.21376572  1
  O  O6  1  0.95286352  0.21622221  0.03714401  1
  P  P7  1  0.14354261  0.80010805  0.27681888  1
  P  P8  1  0.24059484  0.60511254  0.34935243  1
  P  P9  1  0.06679440  0.37387997  0.91575036  1
  Li  Li10  1  0.55950424  0.19787920  0.15782348  1
  Li  Li11  1  0.85734922  0.88124149  0.10281651  1
  Li  Li12  1  0.41547509  0.85616326  0.95608544  1
  Li  Li13  1  0.33478478  0.25591266  0.38106143  1
  Li  Li14  1  0.59248612  0.43891019  0.33400192  1
