# generated using pymatgen
data_Li2TiCu2(OF)2
_symmetry_space_group_name_H-M   'P 1'
_cell_length_a   7.30303440
_cell_length_b   7.24165869
_cell_length_c   7.28222500
_cell_angle_alpha   92.62130803
_cell_angle_beta   94.41915054
_cell_angle_gamma   93.20557893
_symmetry_Int_Tables_number   1
_chemical_formula_structural   Li2TiCu2(OF)2
_chemical_formula_sum   'Li2 Ti1 Cu2 O2 F2'
_cell_volume   382.89783235
_cell_formula_units_Z   1
loop_
 _symmetry_equiv_pos_site_id
 _symmetry_equiv_pos_as_xyz
  1  'x, y, z'
loop_
 _atom_site_type_symbol
 _atom_site_label
 _atom_site_symmetry_multiplicity
 _atom_site_fract_x
 _atom_site_fract_y
 _atom_site_fract_z
 _atom_site_occupancy
  Li  Li0  1  0.00000000  0.00000000  0.00000000  1
  Li  Li1  1  0.50000000  0.50000000  0.50000000  1
  Cu  Cu2  1  0.25000000  0.25000000  0.25000000  1
  Cu  Cu3  1  0.75000000  0.25000000  0.00000000  1
  F  F4  1  0.25000000  0.75000000  0.50000000  1
  F  F5  1  0.88697517  0.87202215  0.19091875  1
  Ti  Ti6  1  0.18508175  0.25260879  0.53027973  1
  O  O7  1  0.31050486  0.25059638  0.59685312  1
  O  O8  1  0.28168771  0.90018584  0.28270804  1
