# generated using pymatgen
data_Li3Ni2Te6I4O5
_symmetry_space_group_name_H-M   'P 1'
_cell_length_a   7.12596593
_cell_length_b   6.95272372
_cell_length_c   8.36011220
_cell_angle_alpha   95.42091918
_cell_angle_beta   96.37917576
_cell_angle_gamma   95.28348716
_symmetry_Int_Tables_number   1
_chemical_formula_structural   Li3Ni2Te6I4O5
_chemical_formula_sum   'Li3 Ni2 Te6 I4 O5'
_cell_volume   407.58645379
_cell_formula_units_Z   1
loop_
 _symmetry_equiv_pos_site_id
 _symmetry_equiv_pos_as_xyz
  1  'x, y, z'
loop_
 _atom_site_type_symbol
 _atom_site_label
 _atom_site_symmetry_multiplicity
 _atom_site_fract_x
 _atom_site_fract_y
 _atom_site_fract_z
 _atom_site_occupancy
  I  I0  1  0.00000000  0.00000000  0.00000000  1
  I  I1  1  0.50000000  0.50000000  0.50000000  1
  I  I2  1  0.25000000  0.25000000  0.25000000  1
  I  I3  1  0.75000000  0.25000000  0.00000000  1
  Li  Li4  1  0.25000000  0.75000000  0.50000000  1
  Li  Li5  1  0.62019436  0.49884678  0.43366199  1
  Li  Li6  1  0.17252468  0.05457468  0.46060169  1
  Ni  Ni7  1  0.84629278  0.68492543  0.12467516  1
  Ni  Ni8  1  0.42690776  0.38549833  0.90045003  1
  Te  Te9  1  0.06155865  0.59893362  0.09207550  1
  Te  Te10  1  0.32740476  0.21071555  0.96711337  1
  Te  Te11  1  0.74812888  0.64092813  0.38352521  1
  Te  Te12  1  0.11396062  0.86194482  0.38637943  1
  Te  Te13  1  0.98202241  0.19099359  0.07402315  1
  Te  Te14  1  0.58316095  0.86818324  0.89320380  1
  O  O15  1  0.31206275  0.70808785  0.99798133  1
  O  O16  1  0.46158390  0.47187899  0.09877116  1
  O  O17  1  0.23355737  0.43106173  0.52522960  1
  O  O18  1  0.90828566  0.33489804  0.62704409  1
  O  O19  1  0.49307661  0.14234195  0.20886367  1
