# generated using pymatgen
data_Li2TiN3O4
_symmetry_space_group_name_H-M   'P 1'
_cell_length_a   8.20718842
_cell_length_b   7.94750430
_cell_length_c   8.01386345
_cell_angle_alpha   91.45215947
_cell_angle_beta   90.65167813
_cell_angle_gamma   91.68380762
_symmetry_Int_Tables_number   1
_chemical_formula_structural   Li2TiN3O4
_chemical_formula_sum   'Li2 Ti1 N3 O4'
_cell_volume   522.28566288
_cell_formula_units_Z   1
loop_
 _symmetry_equiv_pos_site_id
 _symmetry_equiv_pos_as_xyz
  1  'x, y, z'
loop_
 _atom_site_type_symbol
 _atom_site_label
 _atom_site_symmetry_multiplicity
 _atom_site_fract_x
 _atom_site_fract_y
 _atom_site_fract_z
 _atom_site_occupancy
  Li  Li0  1  0.12500000  0.00000000  0.25000000  1
  Li  Li1  1  0.00000000  0.00000000  0.00000000  1
  Ti  Ti2  1  0.37500000  0.00000000  0.25000000  1
  O  O3  1  0.25000000  0.25000000  0.25000000  1
  O  O4  1  0.00000000  0.25000000  0.12500000  1
  O  O5  1  0.60455008  0.54127143  0.69827530  1
  O  O6  1  0.40027777  0.06097875  0.39697844  1
  N  N7  1  0.42320006  0.50040473  0.25756873  1
  N  N8  1  0.17756702  0.92876396  0.09891465  1
  N  N9  1  0.62937080  0.72459470  0.29379336  1
