# generated using pymatgen
data_LiZn2Te6S3I4
_symmetry_space_group_name_H-M   'P 1'
_cell_length_a   6.90257805
_cell_length_b   7.09872663
_cell_length_c   7.26667398
_cell_angle_alpha   90.98469533
_cell_angle_beta   94.68488134
_cell_angle_gamma   91.12576970
_symmetry_Int_Tables_number   1
_chemical_formula_structural   LiZn2Te6S3I4
_chemical_formula_sum   'Li1 Zn2 Te6 S3 I4'
_cell_volume   354.74229623
_cell_formula_units_Z   1
loop_
 _symmetry_equiv_pos_site_id
 _symmetry_equiv_pos_as_xyz
  1  'x, y, z'
loop_
 _atom_site_type_symbol
 _atom_site_label
 _atom_site_symmetry_multiplicity
 _atom_site_fract_x
 _atom_site_fract_y
 _atom_site_fract_z
 _atom_site_occupancy
  I  I0  1  0.00000000  0.00000000  0.00000000  1
  I  I1  1  0.50000000  0.50000000  0.50000000  1
  I  I2  1  0.25000000  0.25000000  0.25000000  1
  I  I3  1  0.75000000  0.25000000  0.00000000  1
  Li  Li4  1  0.25000000  0.75000000  0.50000000  1
  Zn  Zn5  1  0.33082794  0.52409067  0.63646991  1
  Zn  Zn6  1  0.53211328  0.77495091  0.60959538  1
  S  S7  1  0.11924536  0.96976104  0.85374864  1
  S  S8  1  0.19576670  0.56741198  0.71039096  1
  S  S9  1  0.89076667  0.09602404  0.78590076  1
  Te  Te10  1  0.53891788  0.67280526  0.09307660  1
  Te  Te11  1  0.29214765  0.25820002  0.87893192  1
  Te  Te12  1  0.08017870  0.49743331  0.93707481  1
  Te  Te13  1  0.35242602  0.39201893  0.39780527  1
  Te  Te14  1  0.74524028  0.26085279  0.20772309  1
  Te  Te15  1  0.41419801  0.82424962  0.93165280  1
