# generated using pymatgen
data_LiAs3
_symmetry_space_group_name_H-M   'P 1'
_cell_length_a   7.56618298
_cell_length_b   7.51865806
_cell_length_c   8.44581426
_cell_angle_alpha   91.21814358
_cell_angle_beta   91.69182726
_cell_angle_gamma   91.40814214
_symmetry_Int_Tables_number   1
_chemical_formula_structural   LiAs3
_chemical_formula_sum   'Li2 As6'
_cell_volume   479.99093671
_cell_formula_units_Z   2
loop_
 _symmetry_equiv_pos_site_id
 _symmetry_equiv_pos_as_xyz
  1  'x, y, z'
loop_
 _atom_site_type_symbol
 _atom_site_label
 _atom_site_symmetry_multiplicity
 _atom_site_fract_x
 _atom_site_fract_y
 _atom_site_fract_z
 _atom_site_occupancy
  As  As0  1  0.12500000  0.12500000  0.12500000  1
  As  As1  1  0.50000000  0.50000000  0.50000000  1
  As  As2  1  0.25000000  0.25000000  0.25000000  1
  As  As3  1  0.75000000  0.75000000  0.75000000  1
  As  As4  1  0.39881445  0.67288898  0.16673970  1
  As  As5  1  0.90985402  0.94571439  0.52243210  1
  Li  Li6  1  0.50788803  0.21073158  0.15521648  1
  Li  Li7  1  0.65863734  0.38423791  0.84062049  1
