# generated using pymatgen
data_Li2LuCu2As6P5
_symmetry_space_group_name_H-M   'P 1'
_cell_length_a   7.43175073
_cell_length_b   7.49708944
_cell_length_c   8.41438549
_cell_angle_alpha   91.51351131
_cell_angle_beta   92.57682390
_cell_angle_gamma   91.62742464
_symmetry_Int_Tables_number   1
_chemical_formula_structural   Li2LuCu2As6P5
_chemical_formula_sum   'Li2 Lu1 Cu2 As6 P5'
_cell_volume   467.97712754
_cell_formula_units_Z   1
loop_
 _symmetry_equiv_pos_site_id
 _symmetry_equiv_pos_as_xyz
  1  'x, y, z'
loop_
 _atom_site_type_symbol
 _atom_site_label
 _atom_site_symmetry_multiplicity
 _atom_site_fract_x
 _atom_site_fract_y
 _atom_site_fract_z
 _atom_site_occupancy
  P  P0  1  0.00000000  0.00000000  0.00000000  1
  P  P1  1  0.50000000  0.50000000  0.50000000  1
  P  P2  1  0.50000000  0.50000000  0.00000000  1
  P  P3  1  0.50000000  0.00000000  0.50000000  1
  P  P4  1  0.00000000  0.50000000  0.50000000  1
  Lu  Lu5  1  0.07888623  0.53409014  0.55013605  1
  As  As6  1  0.18105593  0.36165166  0.87054544  1
  As  As7  1  0.10021220  0.47214665  0.11138926  1
  As  As8  1  0.73333653  0.46186919  0.15417505  1
  As  As9  1  0.79565354  0.71179344  0.47491145  1
  As  As10  1  0.95338652  0.70075503  0.50058747  1
  As  As11  1  0.53287074  0.90312795  0.98254273  1
  Li  Li12  1  0.27217393  0.29855824  0.14210881  1
  Li  Li13  1  0.40097638  0.95331037  0.60506859  1
  Cu  Cu14  1  0.77792629  0.57335586  0.39551908  1
  Cu  Cu15  1  0.39175131  0.57339462  0.37154048  1
