# generated using pymatgen
data_Li2Cu2(As2O)3
_symmetry_space_group_name_H-M   'P 1'
_cell_length_a   7.37864167
_cell_length_b   7.47064625
_cell_length_c   8.06967128
_cell_angle_alpha   91.92803439
_cell_angle_beta   93.78193024
_cell_angle_gamma   91.88500201
_symmetry_Int_Tables_number   1
_chemical_formula_structural   Li2Cu2(As2O)3
_chemical_formula_sum   'Li2 Cu2 As6 O3'
_cell_volume   443.33125751
_cell_formula_units_Z   1
loop_
 _symmetry_equiv_pos_site_id
 _symmetry_equiv_pos_as_xyz
  1  'x, y, z'
loop_
 _atom_site_type_symbol
 _atom_site_label
 _atom_site_symmetry_multiplicity
 _atom_site_fract_x
 _atom_site_fract_y
 _atom_site_fract_z
 _atom_site_occupancy
  O  O0  1  0.12500000  0.12500000  0.12500000  1
  O  O1  1  0.50000000  0.50000000  0.50000000  1
  O  O2  1  0.25000000  0.25000000  0.25000000  1
  As  As3  1  0.75000000  0.75000000  0.75000000  1
  As  As4  1  0.82239802  0.94833793  0.99189865  1
  As  As5  1  0.81416019  0.72763966  0.04174777  1
  As  As6  1  0.70123763  0.56704671  0.58534513  1
  As  As7  1  0.85567738  0.48446296  0.61321828  1
  As  As8  1  0.97008576  0.05446343  0.25927450  1
  Li  Li9  1  0.21099112  0.00730663  0.46114303  1
  Li  Li10  1  0.03826137  0.16186509  0.57622956  1
  Cu  Cu11  1  0.10713388  0.58805219  0.75987580  1
  Cu  Cu12  1  0.02638680  0.39034681  0.80071421  1
