# generated using pymatgen
data_LiNiAs3
_symmetry_space_group_name_H-M   'P 1'
_cell_length_a   7.56700114
_cell_length_b   7.51736055
_cell_length_c   8.44593178
_cell_angle_alpha   91.22456794
_cell_angle_beta   91.68651166
_cell_angle_gamma   91.41562223
_symmetry_Int_Tables_number   1
_chemical_formula_structural   LiNiAs3
_chemical_formula_sum   'Li2 Ni2 As6'
_cell_volume   479.96523969
_cell_formula_units_Z   2
loop_
 _symmetry_equiv_pos_site_id
 _symmetry_equiv_pos_as_xyz
  1  'x, y, z'
loop_
 _atom_site_type_symbol
 _atom_site_label
 _atom_site_symmetry_multiplicity
 _atom_site_fract_x
 _atom_site_fract_y
 _atom_site_fract_z
 _atom_site_occupancy
  Ni  Ni0  1  0.00000000  0.00000000  0.00000000  1
  Ni  Ni1  1  0.50000000  0.50000000  0.50000000  1
  As  As2  1  0.25000000  0.25000000  0.25000000  1
  As  As3  1  0.75000000  0.25000000  0.00000000  1
  As  As4  1  0.25000000  0.75000000  0.50000000  1
  As  As5  1  0.89887254  0.94238680  0.71314384  1
  As  As6  1  0.48687722  0.96531415  0.44109526  1
  As  As7  1  0.24873829  0.02369278  0.58654315  1
  Li  Li8  1  0.99179184  0.75085092  0.01455936  1
  Li  Li9  1  0.25177699  0.75543474  0.04535807  1
