# generated using pymatgen
data_Li2Cu2As6P6N5
_symmetry_space_group_name_H-M   'P 1'
_cell_length_a   8.10588284
_cell_length_b   7.89013721
_cell_length_c   8.09236816
_cell_angle_alpha   91.32313011
_cell_angle_beta   90.88220211
_cell_angle_gamma   91.53310762
_symmetry_Int_Tables_number   1
_chemical_formula_structural   Li2Cu2As6P6N5
_chemical_formula_sum   'Li2 Cu2 As6 P6 N5'
_cell_volume   517.17013803
_cell_formula_units_Z   1
loop_
 _symmetry_equiv_pos_site_id
 _symmetry_equiv_pos_as_xyz
  1  'x, y, z'
loop_
 _atom_site_type_symbol
 _atom_site_label
 _atom_site_symmetry_multiplicity
 _atom_site_fract_x
 _atom_site_fract_y
 _atom_site_fract_z
 _atom_site_occupancy
  P  P0  1  0.12500000  0.00000000  0.25000000  1
  P  P1  1  0.00000000  0.00000000  0.00000000  1
  P  P2  1  0.37500000  0.00000000  0.25000000  1
  P  P3  1  0.25000000  0.25000000  0.25000000  1
  P  P4  1  0.00000000  0.25000000  0.12500000  1
  P  P5  1  0.45270590  0.68255395  0.80040454  1
  Li  Li6  1  0.28587131  0.91309090  0.71005569  1
  Li  Li7  1  0.15921576  0.80631475  0.70098514  1
  Cu  Cu8  1  0.86395754  0.37726359  0.85203877  1
  Cu  Cu9  1  0.24217600  0.55939052  0.71792272  1
  As  As10  1  0.90734805  0.75940383  0.08014761  1
  As  As11  1  0.66578165  0.49859582  0.68423015  1
  As  As12  1  0.85554888  0.23000263  0.49989233  1
  As  As13  1  0.22387967  0.70358366  0.64807659  1
  As  As14  1  0.32139258  0.12840589  0.33143546  1
  As  As15  1  0.17019332  0.25003928  0.61668691  1
  N  N16  1  0.77938366  0.76981084  0.73741936  1
  N  N17  1  0.05728649  0.32019447  0.53995251  1
  N  N18  1  0.71382751  0.04416568  0.47182386  1
  N  N19  1  0.73413990  0.31771618  0.55074234  1
  N  N20  1  0.40225774  0.08781506  0.93458788  1
