# generated using pymatgen
data_Li3LuCu2(NiP2)2
_symmetry_space_group_name_H-M   'P 1'
_cell_length_a   7.41240722
_cell_length_b   7.22361853
_cell_length_c   8.60120698
_cell_angle_alpha   92.86407224
_cell_angle_beta   92.13273229
_cell_angle_gamma   93.19131631
_symmetry_Int_Tables_number   1
_chemical_formula_structural   Li3LuCu2(NiP2)2
_chemical_formula_sum   'Li3 Lu1 Cu2 Ni2 P4'
_cell_volume   458.88834225
_cell_formula_units_Z   1
loop_
 _symmetry_equiv_pos_site_id
 _symmetry_equiv_pos_as_xyz
  1  'x, y, z'
loop_
 _atom_site_type_symbol
 _atom_site_label
 _atom_site_symmetry_multiplicity
 _atom_site_fract_x
 _atom_site_fract_y
 _atom_site_fract_z
 _atom_site_occupancy
  P  P0  1  0.00000000  0.00000000  0.00000000  1
  P  P1  1  0.50000000  0.50000000  0.50000000  1
  P  P2  1  0.50000000  0.50000000  0.00000000  1
  P  P3  1  0.50000000  0.00000000  0.50000000  1
  Lu  Lu4  1  0.00000000  0.50000000  0.50000000  1
  Li  Li5  1  0.88544030  0.96450468  0.70293698  1
  Li  Li6  1  0.90754233  0.24107675  0.76358849  1
  Li  Li7  1  0.84075905  0.84012131  0.48304813  1
  Cu  Cu8  1  0.22448726  0.64915666  0.24526808  1
  Cu  Cu9  1  0.04141702  0.93193396  0.35322814  1
  Ni  Ni10  1  0.73719946  0.03562215  0.42532915  1
  Ni  Ni11  1  0.68580975  0.30057404  0.91044199  1
