# generated using pymatgen
data_Li2As6I4N5
_symmetry_space_group_name_H-M   'P 1'
_cell_length_a   7.93187020
_cell_length_b   7.72761931
_cell_length_c   7.86663750
_cell_angle_alpha   91.39757263
_cell_angle_beta   91.05964952
_cell_angle_gamma   91.55120082
_symmetry_Int_Tables_number   1
_chemical_formula_structural   Li2As6I4N5
_chemical_formula_sum   'Li2 As6 I4 N5'
_cell_volume   481.77280105
_cell_formula_units_Z   1
loop_
 _symmetry_equiv_pos_site_id
 _symmetry_equiv_pos_as_xyz
  1  'x, y, z'
loop_
 _atom_site_type_symbol
 _atom_site_label
 _atom_site_symmetry_multiplicity
 _atom_site_fract_x
 _atom_site_fract_y
 _atom_site_fract_z
 _atom_site_occupancy
  I  I0  1  0.00000000  0.00000000  0.00000000  1
  I  I1  1  0.50000000  0.50000000  0.50000000  1
  I  I2  1  0.25000000  0.25000000  0.25000000  1
  I  I3  1  0.75000000  0.25000000  0.00000000  1
  Li  Li4  1  0.25000000  0.75000000  0.50000000  1
  Li  Li5  1  0.18218134  0.88791712  0.38950376  1
  As  As6  1  0.21131050  0.19341189  0.55805942  1
  As  As7  1  0.46421233  0.26323531  0.16654118  1
  As  As8  1  0.27416439  0.27163533  0.45646127  1
  As  As9  1  0.77790144  0.70739549  0.71488614  1
  As  As10  1  0.77226373  0.27506871  0.59981245  1
  As  As11  1  0.04726102  0.98147958  0.86139961  1
  N  N12  1  0.58482283  0.55847486  0.12810165  1
  N  N13  1  0.04861217  0.21123657  0.05938957  1
  N  N14  1  0.22843070  0.11412851  0.61208278  1
  N  N15  1  0.89764076  0.00396440  0.46328205  1
  N  N16  1  0.59175919  0.62696286  0.81013345  1
