# generated using pymatgen
data_Li2TiCu2(As3I2)2
_symmetry_space_group_name_H-M   'P 1'
_cell_length_a   8.34407883
_cell_length_b   8.33966027
_cell_length_c   7.72646206
_cell_angle_alpha   90.17797692
_cell_angle_beta   90.84676014
_cell_angle_gamma   90.20347514
_symmetry_Int_Tables_number   1
_chemical_formula_structural   Li2TiCu2(As3I2)2
_chemical_formula_sum   'Li2 Ti1 Cu2 As6 I4'
_cell_volume   537.59484915
_cell_formula_units_Z   1
loop_
 _symmetry_equiv_pos_site_id
 _symmetry_equiv_pos_as_xyz
  1  'x, y, z'
loop_
 _atom_site_type_symbol
 _atom_site_label
 _atom_site_symmetry_multiplicity
 _atom_site_fract_x
 _atom_site_fract_y
 _atom_site_fract_z
 _atom_site_occupancy
  Li  Li0  1  0.12500000  0.00000000  0.25000000  1
  Li  Li1  1  0.00000000  0.00000000  0.00000000  1
  Ti  Ti2  1  0.37500000  0.00000000  0.25000000  1
  I  I3  1  0.25000000  0.25000000  0.25000000  1
  I  I4  1  0.00000000  0.25000000  0.12500000  1
  I  I5  1  0.14501974  0.35254632  0.06010874  1
  I  I6  1  0.73879230  0.44757629  0.10977691  1
  As  As7  1  0.34148069  0.83553742  0.74216803  1
  As  As8  1  0.37656769  0.10863124  0.60771161  1
  As  As9  1  0.03702775  0.49948894  0.94427552  1
  As  As10  1  0.31120618  0.09389257  0.27308022  1
  As  As11  1  0.23879748  0.24711317  0.75475933  1
  As  As12  1  0.45241442  0.46223802  0.93648542  1
  Cu  Cu13  1  0.71791978  0.91187591  0.31030232  1
  Cu  Cu14  1  0.96811053  0.49075520  0.23923355  1
