# generated using pymatgen
data_LiTi3Nb2ClF3
_symmetry_space_group_name_H-M   'P 1'
_cell_length_a   6.75154814
_cell_length_b   5.84904989
_cell_length_c   8.03502557
_cell_angle_alpha   90.75340080
_cell_angle_beta   93.58445219
_cell_angle_gamma   90.86133829
_symmetry_Int_Tables_number   1
_chemical_formula_structural   LiTi3Nb2ClF3
_chemical_formula_sum   'Li1 Ti3 Nb2 Cl1 F3'
_cell_volume   316.61622441
_cell_formula_units_Z   1
loop_
 _symmetry_equiv_pos_site_id
 _symmetry_equiv_pos_as_xyz
  1  'x, y, z'
loop_
 _atom_site_type_symbol
 _atom_site_label
 _atom_site_symmetry_multiplicity
 _atom_site_fract_x
 _atom_site_fract_y
 _atom_site_fract_z
 _atom_site_occupancy
  Li  Li0  1  0.00000000  0.00000000  0.00000000  1
  Nb  Nb1  1  0.50000000  0.50000000  0.50000000  1
  Nb  Nb2  1  0.50000000  0.50000000  0.00000000  1
  F  F3  1  0.50000000  0.00000000  0.50000000  1
  F  F4  1  0.00000000  0.50000000  0.50000000  1
  F  F5  1  0.62639699  0.84878533  0.99786033  1
  Cl  Cl6  1  0.33109669  0.91852092  0.58311493  1
  Ti  Ti7  1  0.81839823  0.80493928  0.10572154  1
  Ti  Ti8  1  0.91745607  0.83943668  0.18620388  1
  Ti  Ti9  1  0.13783626  0.59731357  0.17152693  1
