# generated using pymatgen
data_Li2TiCu2As6F3
_symmetry_space_group_name_H-M   'P 1'
_cell_length_a   7.72402809
_cell_length_b   7.66124395
_cell_length_c   8.23480043
_cell_angle_alpha   90.62831384
_cell_angle_beta   92.09476611
_cell_angle_gamma   90.71245654
_symmetry_Int_Tables_number   1
_chemical_formula_structural   Li2TiCu2As6F3
_chemical_formula_sum   'Li2 Ti1 Cu2 As6 F3'
_cell_volume   486.90468371
_cell_formula_units_Z   1
loop_
 _symmetry_equiv_pos_site_id
 _symmetry_equiv_pos_as_xyz
  1  'x, y, z'
loop_
 _atom_site_type_symbol
 _atom_site_label
 _atom_site_symmetry_multiplicity
 _atom_site_fract_x
 _atom_site_fract_y
 _atom_site_fract_z
 _atom_site_occupancy
  Li  Li0  1  0.12500000  0.00000000  0.25000000  1
  Li  Li1  1  0.00000000  0.00000000  0.00000000  1
  Cu  Cu2  1  0.37500000  0.00000000  0.25000000  1
  Cu  Cu3  1  0.25000000  0.25000000  0.25000000  1
  F  F4  1  0.00000000  0.25000000  0.12500000  1
  F  F5  1  0.51962191  0.34896597  0.21252725  1
  F  F6  1  0.20401210  0.80380014  0.79364237  1
  Ti  Ti7  1  0.87899364  0.26646712  0.88754052  1
  As  As8  1  0.07011570  0.53804105  0.46705043  1
  As  As9  1  0.61793698  0.21736785  0.25804833  1
  As  As10  1  0.64503585  0.16724485  0.73881723  1
  As  As11  1  0.40826559  0.39417068  0.30364652  1
  As  As12  1  0.38762509  0.48231715  0.07554871  1
  As  As13  1  0.99260082  0.29145768  0.38604063  1
