# generated using pymatgen
data_Li3Zn2Cu2(NiI2)2
_symmetry_space_group_name_H-M   'P 1'
_cell_length_a   8.21186272
_cell_length_b   8.44136003
_cell_length_c   7.52881772
_cell_angle_alpha   90.63356813
_cell_angle_beta   90.53768786
_cell_angle_gamma   90.73367911
_symmetry_Int_Tables_number   1
_chemical_formula_structural   Li3Zn2Cu2(NiI2)2
_chemical_formula_sum   'Li3 Zn2 Cu2 Ni2 I4'
_cell_volume   521.79392288
_cell_formula_units_Z   1
loop_
 _symmetry_equiv_pos_site_id
 _symmetry_equiv_pos_as_xyz
  1  'x, y, z'
loop_
 _atom_site_type_symbol
 _atom_site_label
 _atom_site_symmetry_multiplicity
 _atom_site_fract_x
 _atom_site_fract_y
 _atom_site_fract_z
 _atom_site_occupancy
  I  I0  1  0.00000000  0.00000000  0.00000000  1
  I  I1  1  0.50000000  0.50000000  0.50000000  1
  I  I2  1  0.50000000  0.50000000  0.00000000  1
  I  I3  1  0.50000000  0.00000000  0.50000000  1
  Li  Li4  1  0.00000000  0.50000000  0.50000000  1
  Li  Li5  1  0.33299904  0.57592983  0.09225043  1
  Li  Li6  1  0.40372216  0.72455138  0.66202426  1
  Cu  Cu7  1  0.60136971  0.48508655  0.99304764  1
  Cu  Cu8  1  0.55271644  0.30224664  0.35143878  1
  Zn  Zn9  1  0.63567378  0.66160786  0.08457917  1
  Zn  Zn10  1  0.84761133  0.20413677  0.61018055  1
  Ni  Ni11  1  0.91207352  0.35390892  0.17406568  1
  Ni  Ni12  1  0.22747683  0.98476055  0.70648287  1
