# generated using pymatgen
data_Li2I4O2F3
_symmetry_space_group_name_H-M   'P 1'
_cell_length_a   7.08571579
_cell_length_b   7.49047412
_cell_length_c   6.85487171
_cell_angle_alpha   92.86656417
_cell_angle_beta   96.49539076
_cell_angle_gamma   93.58730473
_symmetry_Int_Tables_number   1
_chemical_formula_structural   Li2I4O2F3
_chemical_formula_sum   'Li2 I4 O2 F3'
_cell_volume   360.18279309
_cell_formula_units_Z   1
loop_
 _symmetry_equiv_pos_site_id
 _symmetry_equiv_pos_as_xyz
  1  'x, y, z'
loop_
 _atom_site_type_symbol
 _atom_site_label
 _atom_site_symmetry_multiplicity
 _atom_site_fract_x
 _atom_site_fract_y
 _atom_site_fract_z
 _atom_site_occupancy
  I  I0  1  0.00000000  0.00000000  0.00000000  1
  I  I1  1  0.33300000  0.66700000  0.25000000  1
  I  I2  1  0.66700000  0.33300000  0.50000000  1
  I  I3  1  0.00000000  0.00000000  0.75000000  1
  Li  Li4  1  0.84998560  0.19559215  0.90928527  1
  Li  Li5  1  0.61372879  0.17727542  0.76972850  1
  F  F6  1  0.92045638  0.70166052  0.68031865  1
  F  F7  1  0.40447488  0.45394547  0.93454353  1
  F  F8  1  0.52685018  0.80840578  0.24496228  1
  O  O9  1  0.83748811  0.35305263  0.95118476  1
  O  O10  1  0.20587440  0.02329982  0.71557998  1
