# generated using pymatgen
data_Li3Cu2P4I4N5
_symmetry_space_group_name_H-M   'P 1'
_cell_length_a   6.95364907
_cell_length_b   6.72292315
_cell_length_c   8.07808716
_cell_angle_alpha   94.62279414
_cell_angle_beta   94.42033517
_cell_angle_gamma   94.59378802
_symmetry_Int_Tables_number   1
_chemical_formula_structural   Li3Cu2P4I4N5
_chemical_formula_sum   'Li3 Cu2 P4 I4 N5'
_cell_volume   373.87527040
_cell_formula_units_Z   1
loop_
 _symmetry_equiv_pos_site_id
 _symmetry_equiv_pos_as_xyz
  1  'x, y, z'
loop_
 _atom_site_type_symbol
 _atom_site_label
 _atom_site_symmetry_multiplicity
 _atom_site_fract_x
 _atom_site_fract_y
 _atom_site_fract_z
 _atom_site_occupancy
  P  P0  1  0.00000000  0.00000000  0.00000000  1
  P  P1  1  0.50000000  0.50000000  0.50000000  1
  P  P2  1  0.25000000  0.25000000  0.25000000  1
  P  P3  1  0.75000000  0.25000000  0.00000000  1
  I  I4  1  0.25000000  0.75000000  0.50000000  1
  I  I5  1  0.77812270  0.30830171  0.06510985  1
  I  I6  1  0.71229042  0.96435438  0.66005360  1
  I  I7  1  0.27633418  0.25852307  0.87146537  1
  Li  Li8  1  0.36752553  0.20018058  0.81255987  1
  Li  Li9  1  0.76753355  0.04518359  0.52808675  1
  Li  Li10  1  0.59604530  0.49281812  0.49774847  1
  Cu  Cu11  1  0.93663313  0.24472364  0.16737067  1
  Cu  Cu12  1  0.78202522  0.54624046  0.95078218  1
  N  N13  1  0.66681753  0.29189339  0.11751321  1
  N  N14  1  0.07280919  0.80828422  0.32189672  1
  N  N15  1  0.98858774  0.93495875  0.09389048  1
  N  N16  1  0.13939531  0.51874016  0.68043933  1
  N  N17  1  0.39057010  0.05962256  0.18548619  1
