# generated using pymatgen
data_Li2Cu2As6O4F3
_symmetry_space_group_name_H-M   'P 1'
_cell_length_a   7.95877095
_cell_length_b   8.21054055
_cell_length_c   7.96938297
_cell_angle_alpha   90.27212338
_cell_angle_beta   91.46645782
_cell_angle_gamma   90.30527685
_symmetry_Int_Tables_number   1
_chemical_formula_structural   Li2Cu2As6O4F3
_chemical_formula_sum   'Li2 Cu2 As6 O4 F3'
_cell_volume   520.58162924
_cell_formula_units_Z   1
loop_
 _symmetry_equiv_pos_site_id
 _symmetry_equiv_pos_as_xyz
  1  'x, y, z'
loop_
 _atom_site_type_symbol
 _atom_site_label
 _atom_site_symmetry_multiplicity
 _atom_site_fract_x
 _atom_site_fract_y
 _atom_site_fract_z
 _atom_site_occupancy
  Li  Li0  1  0.00000000  0.00000000  0.00000000  1
  Li  Li1  1  0.50000000  0.50000000  0.50000000  1
  Cu  Cu2  1  0.50000000  0.50000000  0.00000000  1
  Cu  Cu3  1  0.50000000  0.00000000  0.50000000  1
  F  F4  1  0.00000000  0.50000000  0.50000000  1
  F  F5  1  0.42119502  0.04453926  0.63521338  1
  F  F6  1  0.57406524  0.86640607  0.75740634  1
  As  As7  1  0.59277442  0.51343482  0.32663496  1
  As  As8  1  0.48329955  0.02356416  0.66396974  1
  As  As9  1  0.96236118  0.41099612  0.99569631  1
  As  As10  1  0.88197073  0.11919846  0.03548275  1
  As  As11  1  0.92781656  0.57292989  0.78452463  1
  As  As12  1  0.42840854  0.47330007  0.72771270  1
  O  O13  1  0.94573872  0.64604422  0.45377950  1
  O  O14  1  0.67125246  0.53156778  0.41891804  1
  O  O15  1  0.60459161  0.38223029  0.86891154  1
  O  O16  1  0.11144493  0.06096102  0.15328293  1
