# generated using pymatgen
data_LiMn2Sb4P3
_symmetry_space_group_name_H-M   'P 1'
_cell_length_a   5.37617587
_cell_length_b   5.64335528
_cell_length_c   6.47326036
_cell_angle_alpha   95.25009363
_cell_angle_beta   92.57819299
_cell_angle_gamma   95.20311744
_symmetry_Int_Tables_number   1
_chemical_formula_structural   LiMn2Sb4P3
_chemical_formula_sum   'Li1 Mn2 Sb4 P3'
_cell_volume   194.48548875
_cell_formula_units_Z   1
loop_
 _symmetry_equiv_pos_site_id
 _symmetry_equiv_pos_as_xyz
  1  'x, y, z'
loop_
 _atom_site_type_symbol
 _atom_site_label
 _atom_site_symmetry_multiplicity
 _atom_site_fract_x
 _atom_site_fract_y
 _atom_site_fract_z
 _atom_site_occupancy
  Mn  Mn0  1  0.12500000  0.00000000  0.25000000  1
  Mn  Mn1  1  0.00000000  0.00000000  0.00000000  1
  Sb  Sb2  1  0.37500000  0.00000000  0.25000000  1
  Sb  Sb3  1  0.25000000  0.25000000  0.25000000  1
  Sb  Sb4  1  0.00000000  0.25000000  0.12500000  1
  Sb  Sb5  1  0.91712860  0.08336957  0.39394950  1
  P  P6  1  0.45456055  0.85481392  0.74517796  1
  P  P7  1  0.91872038  0.11617830  0.84674332  1
  P  P8  1  0.86443155  0.51117740  0.27791695  1
  Li  Li9  1  0.92727244  0.27104317  0.16883457  1
