# generated using pymatgen
data_LiCuAs3
_symmetry_space_group_name_H-M   'P 1'
_cell_length_a   7.54896708
_cell_length_b   7.54596095
_cell_length_c   8.44334123
_cell_angle_alpha   91.08295952
_cell_angle_beta   91.80368051
_cell_angle_gamma   91.25074282
_symmetry_Int_Tables_number   1
_chemical_formula_structural   LiCuAs3
_chemical_formula_sum   'Li2 Cu2 As6'
_cell_volume   480.52309342
_cell_formula_units_Z   2
loop_
 _symmetry_equiv_pos_site_id
 _symmetry_equiv_pos_as_xyz
  1  'x, y, z'
loop_
 _atom_site_type_symbol
 _atom_site_label
 _atom_site_symmetry_multiplicity
 _atom_site_fract_x
 _atom_site_fract_y
 _atom_site_fract_z
 _atom_site_occupancy
  As  As0  1  0.12500000  0.12500000  0.12500000  1
  As  As1  1  0.50000000  0.50000000  0.50000000  1
  As  As2  1  0.25000000  0.25000000  0.25000000  1
  As  As3  1  0.75000000  0.75000000  0.75000000  1
  As  As4  1  0.82851971  0.24488374  0.46163207  1
  As  As5  1  0.01664194  0.61506842  0.81118527  1
  Li  Li6  1  0.90407467  0.42774819  0.78592146  1
  Li  Li7  1  0.76832277  0.86956215  0.66585643  1
  Cu  Cu8  1  0.00240394  0.32719421  0.06589913  1
  Cu  Cu9  1  0.73280181  0.68206167  0.26354829  1
