# generated using pymatgen
data_Li2TiI4O3
_symmetry_space_group_name_H-M   'P 1'
_cell_length_a   8.49230807
_cell_length_b   8.35326531
_cell_length_c   7.33177509
_cell_angle_alpha   90.14133555
_cell_angle_beta   90.67243164
_cell_angle_gamma   90.16158428
_symmetry_Int_Tables_number   1
_chemical_formula_structural   Li2TiI4O3
_chemical_formula_sum   'Li2 Ti1 I4 O3'
_cell_volume   520.06563290
_cell_formula_units_Z   1
loop_
 _symmetry_equiv_pos_site_id
 _symmetry_equiv_pos_as_xyz
  1  'x, y, z'
loop_
 _atom_site_type_symbol
 _atom_site_label
 _atom_site_symmetry_multiplicity
 _atom_site_fract_x
 _atom_site_fract_y
 _atom_site_fract_z
 _atom_site_occupancy
  I  I0  1  0.12500000  0.12500000  0.12500000  1
  I  I1  1  0.50000000  0.50000000  0.50000000  1
  I  I2  1  0.25000000  0.25000000  0.25000000  1
  I  I3  1  0.75000000  0.75000000  0.75000000  1
  Li  Li4  1  0.18167448  0.40405531  0.72661907  1
  Li  Li5  1  0.07458681  0.38351594  0.63100585  1
  Ti  Ti6  1  0.84193332  0.39191429  0.19504160  1
  O  O7  1  0.96079325  0.19081476  0.25543042  1
  O  O8  1  0.85499976  0.12156228  0.35498320  1
  O  O9  1  0.98219630  0.40570643  0.85952889  1
