# generated using pymatgen
data_Li3TiI4(OF)3
_symmetry_space_group_name_H-M   'P 1'
_cell_length_a   4.99456871
_cell_length_b   4.68455888
_cell_length_c   6.77220982
_cell_angle_alpha   104.42343191
_cell_angle_beta   108.75997343
_cell_angle_gamma   103.53701567
_symmetry_Int_Tables_number   1
_chemical_formula_structural   Li3TiI4(OF)3
_chemical_formula_sum   'Li3 Ti1 I4 O3 F3'
_cell_volume   136.51100915
_cell_formula_units_Z   1
loop_
 _symmetry_equiv_pos_site_id
 _symmetry_equiv_pos_as_xyz
  1  'x, y, z'
loop_
 _atom_site_type_symbol
 _atom_site_label
 _atom_site_symmetry_multiplicity
 _atom_site_fract_x
 _atom_site_fract_y
 _atom_site_fract_z
 _atom_site_occupancy
  I  I0  1  0.00000000  0.00000000  0.00000000  1
  I  I1  1  0.50000000  0.50000000  0.50000000  1
  I  I2  1  0.25000000  0.25000000  0.25000000  1
  I  I3  1  0.75000000  0.25000000  0.00000000  1
  Li  Li4  1  0.25000000  0.75000000  0.50000000  1
  Li  Li5  1  0.82514477  0.86120124  0.85460028  1
  Li  Li6  1  0.55196889  0.38745983  0.58806588  1
  F  F7  1  0.44459644  0.41488365  0.52090636  1
  F  F8  1  0.03907196  0.06401914  0.80840550  1
  F  F9  1  0.67816013  0.70287271  0.67641177  1
  Ti  Ti10  1  0.46339573  0.43522147  0.22207135  1
  O  O11  1  0.81543299  0.39630625  0.67121397  1
  O  O12  1  0.17023400  0.09481426  0.37694501  1
  O  O13  1  0.24553767  0.17709379  0.07580298  1
