# generated using pymatgen
data_Li3Ni2As6P4O7
_symmetry_space_group_name_H-M   'P 1'
_cell_length_a   7.04819380
_cell_length_b   6.81680730
_cell_length_c   8.32983896
_cell_angle_alpha   93.93745313
_cell_angle_beta   93.71953617
_cell_angle_gamma   93.87655054
_symmetry_Int_Tables_number   1
_chemical_formula_structural   Li3Ni2As6P4O7
_chemical_formula_sum   'Li3 Ni2 As6 P4 O7'
_cell_volume   397.38605273
_cell_formula_units_Z   1
loop_
 _symmetry_equiv_pos_site_id
 _symmetry_equiv_pos_as_xyz
  1  'x, y, z'
loop_
 _atom_site_type_symbol
 _atom_site_label
 _atom_site_symmetry_multiplicity
 _atom_site_fract_x
 _atom_site_fract_y
 _atom_site_fract_z
 _atom_site_occupancy
  P  P0  1  0.12500000  0.00000000  0.25000000  1
  P  P1  1  0.00000000  0.00000000  0.00000000  1
  P  P2  1  0.37500000  0.00000000  0.25000000  1
  P  P3  1  0.25000000  0.25000000  0.25000000  1
  Li  Li4  1  0.00000000  0.25000000  0.12500000  1
  Li  Li5  1  0.46843701  0.53293226  0.19453189  1
  Li  Li6  1  0.43572866  0.59636368  0.86036680  1
  Ni  Ni7  1  0.24702691  0.80087577  0.35474627  1
  Ni  Ni8  1  0.85224597  0.69003792  0.48179315  1
  As  As9  1  0.91845058  0.56937755  0.75376274  1
  As  As10  1  0.68988234  0.68928258  0.82425935  1
  As  As11  1  0.85626120  0.33793580  0.24900326  1
  As  As12  1  0.01737823  0.24433371  0.04860400  1
  As  As13  1  0.39983279  0.68828497  0.43916027  1
  As  As14  1  0.82923517  0.83310317  0.03393529  1
  O  O15  1  0.55641135  0.22198968  0.92301468  1
  O  O16  1  0.62378402  0.94403181  0.39538986  1
  O  O17  1  0.88334155  0.23163653  0.94280694  1
  O  O18  1  0.50805071  0.06147072  0.66989459  1
  O  O19  1  0.91962032  0.34776954  0.69781976  1
  O  O20  1  0.25316908  0.19796189  0.93280586  1
  O  O21  1  0.32360945  0.07025388  0.37197453  1
