# generated using pymatgen
data_Li2LuCu2(SO)2
_symmetry_space_group_name_H-M   'P 1'
_cell_length_a   6.41519360
_cell_length_b   6.41259626
_cell_length_c   7.38124341
_cell_angle_alpha   96.28615402
_cell_angle_beta   98.44076253
_cell_angle_gamma   96.48867959
_symmetry_Int_Tables_number   1
_chemical_formula_structural   Li2LuCu2(SO)2
_chemical_formula_sum   'Li2 Lu1 Cu2 S2 O2'
_cell_volume   295.97093533
_cell_formula_units_Z   1
loop_
 _symmetry_equiv_pos_site_id
 _symmetry_equiv_pos_as_xyz
  1  'x, y, z'
loop_
 _atom_site_type_symbol
 _atom_site_label
 _atom_site_symmetry_multiplicity
 _atom_site_fract_x
 _atom_site_fract_y
 _atom_site_fract_z
 _atom_site_occupancy
  Lu  Lu0  1  0.00000000  0.00000000  0.00000000  1
  Li  Li1  1  0.50000000  0.50000000  0.50000000  1
  Li  Li2  1  0.25000000  0.25000000  0.25000000  1
  Cu  Cu3  1  0.75000000  0.25000000  0.00000000  1
  Cu  Cu4  1  0.25000000  0.75000000  0.50000000  1
  S  S5  1  0.94364059  0.88205696  0.34614952  1
  S  S6  1  0.66475856  0.11358797  0.04693777  1
  O  O7  1  0.52507200  0.75844699  0.55463113  1
  O  O8  1  0.72587929  0.57900412  0.64785662  1
