# generated using pymatgen
data_Li3TiP8N5Cl2
_symmetry_space_group_name_H-M   'P 1'
_cell_length_a   6.94068976
_cell_length_b   6.62491479
_cell_length_c   7.75092668
_cell_angle_alpha   97.29933501
_cell_angle_beta   98.34390158
_cell_angle_gamma   97.09821310
_symmetry_Int_Tables_number   1
_chemical_formula_structural   Li3TiP8N5Cl2
_chemical_formula_sum   'Li3 Ti1 P8 N5 Cl2'
_cell_volume   346.08772838
_cell_formula_units_Z   1
loop_
 _symmetry_equiv_pos_site_id
 _symmetry_equiv_pos_as_xyz
  1  'x, y, z'
loop_
 _atom_site_type_symbol
 _atom_site_label
 _atom_site_symmetry_multiplicity
 _atom_site_fract_x
 _atom_site_fract_y
 _atom_site_fract_z
 _atom_site_occupancy
  Cl  Cl0  1  0.12500000  0.00000000  0.25000000  1
  Cl  Cl1  1  0.00000000  0.00000000  0.00000000  1
  Ti  Ti2  1  0.37500000  0.00000000  0.25000000  1
  P  P3  1  0.25000000  0.25000000  0.25000000  1
  P  P4  1  0.00000000  0.25000000  0.12500000  1
  P  P5  1  0.29758827  0.72588276  0.35662060  1
  P  P6  1  0.75989733  0.44586072  0.66850149  1
  P  P7  1  0.86236379  0.44287032  0.72535469  1
  P  P8  1  0.37022295  0.18238303  0.24554994  1
  P  P9  1  0.51504906  0.39844061  0.43102824  1
  P  P10  1  0.57492055  0.65504439  0.75679950  1
  Li  Li11  1  0.12448874  0.73331222  0.89811208  1
  Li  Li12  1  0.36607958  0.38286012  0.32561686  1
  Li  Li13  1  0.60831610  0.64898028  0.27950653  1
  N  N14  1  0.08545098  0.40833992  0.03159698  1
  N  N15  1  0.97366144  0.31010470  0.08825811  1
  N  N16  1  0.94420861  0.84213437  0.01714022  1
  N  N17  1  0.35751106  0.95601277  0.45187242  1
  N  N18  1  0.48124831  0.99368601  0.86451439  1
