# generated using pymatgen
data_Li3TiI4Br4O3
_symmetry_space_group_name_H-M   'P 1'
_cell_length_a   8.48204907
_cell_length_b   8.24074112
_cell_length_c   8.72866207
_cell_angle_alpha   90.00000000
_cell_angle_beta   90.00000000
_cell_angle_gamma   90.00000000
_symmetry_Int_Tables_number   1
_chemical_formula_structural   Li3TiI4Br4O3
_chemical_formula_sum   'Li3 Ti1 I4 Br4 O3'
_cell_volume   610.11925591
_cell_formula_units_Z   1
loop_
 _symmetry_equiv_pos_site_id
 _symmetry_equiv_pos_as_xyz
  1  'x, y, z'
loop_
 _atom_site_type_symbol
 _atom_site_label
 _atom_site_symmetry_multiplicity
 _atom_site_fract_x
 _atom_site_fract_y
 _atom_site_fract_z
 _atom_site_occupancy
  I  I0  1  0.00000000  0.00000000  0.00000000  1
  I  I1  1  0.50000000  0.50000000  0.50000000  1
  I  I2  1  0.25000000  0.25000000  0.25000000  1
  I  I3  1  0.75000000  0.25000000  0.00000000  1
  Li  Li4  1  0.25000000  0.75000000  0.50000000  1
  Li  Li5  1  0.82443912  0.62735161  0.60664483  1
  Li  Li6  1  0.76419136  0.21451879  0.15875339  1
  Br  Br7  1  0.71659876  0.31625694  0.31735582  1
  Br  Br8  1  0.80410428  0.52058354  0.77200220  1
  Br  Br9  1  0.20416935  0.54344060  0.98223331  1
  Br  Br10  1  0.17495707  0.44945934  0.72500815  1
  Ti  Ti11  1  0.60387361  0.46127419  0.58595168  1
  O  O12  1  0.09102279  0.81472070  0.34564461  1
  O  O13  1  0.19113247  0.52549035  0.10298598  1
  O  O14  1  0.58760776  0.74783362  0.62673888  1
