# generated using pymatgen
data_Li2Ti2P5F2
_symmetry_space_group_name_H-M   'P 1'
_cell_length_a   7.15403412
_cell_length_b   6.99927299
_cell_length_c   7.75159420
_cell_angle_alpha   91.69313301
_cell_angle_beta   93.62405628
_cell_angle_gamma   91.64082395
_symmetry_Int_Tables_number   1
_chemical_formula_structural   Li2Ti2P5F2
_chemical_formula_sum   'Li2 Ti2 P5 F2'
_cell_volume   387.01952549
_cell_formula_units_Z   1
loop_
 _symmetry_equiv_pos_site_id
 _symmetry_equiv_pos_as_xyz
  1  'x, y, z'
loop_
 _atom_site_type_symbol
 _atom_site_label
 _atom_site_symmetry_multiplicity
 _atom_site_fract_x
 _atom_site_fract_y
 _atom_site_fract_z
 _atom_site_occupancy
  F  F0  1  0.00000000  0.00000000  0.00000000  1
  F  F1  1  0.50000000  0.50000000  0.50000000  1
  Ti  Ti2  1  0.25000000  0.25000000  0.25000000  1
  Ti  Ti3  1  0.75000000  0.25000000  0.00000000  1
  P  P4  1  0.25000000  0.75000000  0.50000000  1
  P  P5  1  0.21808810  0.49620711  0.15771300  1
  P  P6  1  0.20368768  0.95433222  0.91309258  1
  P  P7  1  0.05827420  0.60895787  0.85650460  1
  P  P8  1  0.63220658  0.31752024  0.75154603  1
  Li  Li9  1  0.94278998  0.67546075  0.08308485  1
  Li  Li10  1  0.37621018  0.94326099  0.46414259  1
