# generated using pymatgen
data_Li2TiI4(OF)3
_symmetry_space_group_name_H-M   'P 1'
_cell_length_a   8.45389212
_cell_length_b   8.31308828
_cell_length_c   7.43730436
_cell_angle_alpha   90.14693017
_cell_angle_beta   90.69904912
_cell_angle_gamma   90.16798042
_symmetry_Int_Tables_number   1
_chemical_formula_structural   Li2TiI4(OF)3
_chemical_formula_sum   'Li2 Ti1 I4 O3 F3'
_cell_volume   522.63560004
_cell_formula_units_Z   1
loop_
 _symmetry_equiv_pos_site_id
 _symmetry_equiv_pos_as_xyz
  1  'x, y, z'
loop_
 _atom_site_type_symbol
 _atom_site_label
 _atom_site_symmetry_multiplicity
 _atom_site_fract_x
 _atom_site_fract_y
 _atom_site_fract_z
 _atom_site_occupancy
  I  I0  1  0.00000000  0.00000000  0.00000000  1
  I  I1  1  0.50000000  0.50000000  0.50000000  1
  I  I2  1  0.50000000  0.50000000  0.00000000  1
  I  I3  1  0.50000000  0.00000000  0.50000000  1
  Li  Li4  1  0.00000000  0.50000000  0.50000000  1
  Li  Li5  1  0.46541748  0.18129249  0.95347501  1
  F  F6  1  0.05169441  0.85712006  0.65566893  1
  F  F7  1  0.70832511  0.84395093  0.66856560  1
  F  F8  1  0.25489757  0.25155470  0.82734451  1
  Ti  Ti9  1  0.23602844  0.63497130  0.42729635  1
  O  O10  1  0.97622750  0.67798460  0.92993696  1
  O  O11  1  0.94603501  0.38184719  0.95970375  1
  O  O12  1  0.06402196  0.57920306  0.33523777  1
