# generated using pymatgen
data_Li4TiF2
_symmetry_space_group_name_H-M   'P 1'
_cell_length_a   5.60765355
_cell_length_b   5.34292254
_cell_length_c   6.92446845
_cell_angle_alpha   99.46076661
_cell_angle_beta   102.77159798
_cell_angle_gamma   98.67748617
_symmetry_Int_Tables_number   1
_chemical_formula_structural   Li4TiF2
_chemical_formula_sum   'Li4 Ti1 F2'
_cell_volume   195.76516782
_cell_formula_units_Z   1
loop_
 _symmetry_equiv_pos_site_id
 _symmetry_equiv_pos_as_xyz
  1  'x, y, z'
loop_
 _atom_site_type_symbol
 _atom_site_label
 _atom_site_symmetry_multiplicity
 _atom_site_fract_x
 _atom_site_fract_y
 _atom_site_fract_z
 _atom_site_occupancy
  Li  Li0  1  0.00000000  0.00000000  0.00000000  1
  Li  Li1  1  0.33300000  0.66700000  0.25000000  1
  Li  Li2  1  0.66700000  0.33300000  0.50000000  1
  Li  Li3  1  0.00000000  0.00000000  0.75000000  1
  F  F4  1  0.09657570  0.86299253  0.11452888  1
  F  F5  1  0.24746942  0.94512368  0.38722443  1
  Ti  Ti6  1  0.24043096  0.87522241  0.69315067  1
