# generated using pymatgen
data_Li3LuCu2(PN)5
_symmetry_space_group_name_H-M   'P 1'
_cell_length_a   7.35012949
_cell_length_b   7.15755788
_cell_length_c   8.37845375
_cell_angle_alpha   93.57132867
_cell_angle_beta   93.13025394
_cell_angle_gamma   93.77445763
_symmetry_Int_Tables_number   1
_chemical_formula_structural   Li3LuCu2(PN)5
_chemical_formula_sum   'Li3 Lu1 Cu2 P5 N5'
_cell_volume   438.20829178
_cell_formula_units_Z   1
loop_
 _symmetry_equiv_pos_site_id
 _symmetry_equiv_pos_as_xyz
  1  'x, y, z'
loop_
 _atom_site_type_symbol
 _atom_site_label
 _atom_site_symmetry_multiplicity
 _atom_site_fract_x
 _atom_site_fract_y
 _atom_site_fract_z
 _atom_site_occupancy
  P  P0  1  0.00000000  0.00000000  0.00000000  1
  P  P1  1  0.50000000  0.50000000  0.50000000  1
  P  P2  1  0.25000000  0.25000000  0.25000000  1
  P  P3  1  0.75000000  0.25000000  0.00000000  1
  P  P4  1  0.25000000  0.75000000  0.50000000  1
  Lu  Lu5  1  0.89286935  0.35702638  0.36568168  1
  Li  Li6  1  0.18676205  0.69459361  0.76101648  1
  Li  Li7  1  0.32750550  0.43052845  0.87325298  1
  Li  Li8  1  0.15457112  0.69749082  0.16971322  1
  Cu  Cu9  1  0.23274126  0.42079878  0.02359946  1
  Cu  Cu10  1  0.02321845  0.42200157  0.20097244  1
  N  N11  1  0.28760975  0.41931010  0.32485098  1
  N  N12  1  0.65402877  0.08151568  0.62559061  1
  N  N13  1  0.07647808  0.94948914  0.87621767  1
  N  N14  1  0.68542930  0.56045569  0.10783809  1
  N  N15  1  0.12626910  0.43216364  0.39996639  1
