# generated using pymatgen
data_Li2TiP5I4N3
_symmetry_space_group_name_H-M   'P 1'
_cell_length_a   7.95156476
_cell_length_b   7.65080048
_cell_length_c   8.29816458
_cell_angle_alpha   92.11589212
_cell_angle_beta   90.84984135
_cell_angle_gamma   92.45379480
_symmetry_Int_Tables_number   1
_chemical_formula_structural   Li2TiP5I4N3
_chemical_formula_sum   'Li2 Ti1 P5 I4 N3'
_cell_volume   503.95089974
_cell_formula_units_Z   1
loop_
 _symmetry_equiv_pos_site_id
 _symmetry_equiv_pos_as_xyz
  1  'x, y, z'
loop_
 _atom_site_type_symbol
 _atom_site_label
 _atom_site_symmetry_multiplicity
 _atom_site_fract_x
 _atom_site_fract_y
 _atom_site_fract_z
 _atom_site_occupancy
  I  I0  1  0.00000000  0.00000000  0.00000000  1
  I  I1  1  0.50000000  0.50000000  0.50000000  1
  I  I2  1  0.50000000  0.50000000  0.00000000  1
  I  I3  1  0.50000000  0.00000000  0.50000000  1
  P  P4  1  0.00000000  0.50000000  0.50000000  1
  P  P5  1  0.81325980  0.49275124  0.85457323  1
  P  P6  1  0.42496172  0.21281419  0.22978771  1
  P  P7  1  0.41227092  0.94956562  0.73478105  1
  P  P8  1  0.03168752  0.97333260  0.02563807  1
  Li  Li9  1  0.58368958  0.82057480  0.24737928  1
  Li  Li10  1  0.13860287  0.98707689  0.93453391  1
  Ti  Ti11  1  0.85122370  0.43213483  0.89034510  1
  N  N12  1  0.19785386  0.30814944  0.81345225  1
  N  N13  1  0.82734668  0.36111367  0.47471298  1
  N  N14  1  0.27520570  0.28520636  0.84442577  1
