# generated using pymatgen
data_LiP8S3(ClF)2
_symmetry_space_group_name_H-M   'P 1'
_cell_length_a   5.50127727
_cell_length_b   5.24629717
_cell_length_c   7.29826024
_cell_angle_alpha   100.03236153
_cell_angle_beta   104.84595931
_cell_angle_gamma   99.55612895
_symmetry_Int_Tables_number   1
_chemical_formula_structural   LiP8S3(ClF)2
_chemical_formula_sum   'Li1 P8 S3 Cl2 F2'
_cell_volume   195.52144620
_cell_formula_units_Z   1
loop_
 _symmetry_equiv_pos_site_id
 _symmetry_equiv_pos_as_xyz
  1  'x, y, z'
loop_
 _atom_site_type_symbol
 _atom_site_label
 _atom_site_symmetry_multiplicity
 _atom_site_fract_x
 _atom_site_fract_y
 _atom_site_fract_z
 _atom_site_occupancy
  F  F0  1  0.12500000  0.00000000  0.25000000  1
  F  F1  1  0.00000000  0.00000000  0.00000000  1
  Cl  Cl2  1  0.37500000  0.00000000  0.25000000  1
  Cl  Cl3  1  0.25000000  0.25000000  0.25000000  1
  S  S4  1  0.00000000  0.25000000  0.12500000  1
  S  S5  1  0.35170845  0.34773889  0.99123392  1
  S  S6  1  0.30740404  0.51512372  0.61105228  1
  P  P7  1  0.89648654  0.09097354  0.98993810  1
  P  P8  1  0.44629398  0.66862241  0.71733704  1
  P  P9  1  0.94275635  0.12266338  0.69388030  1
  P  P10  1  0.45027352  0.87447476  0.79295284  1
  P  P11  1  0.75188804  0.38095109  0.88812330  1
  P  P12  1  0.38072382  0.97256645  0.14236960  1
  P  P13  1  0.17790303  0.78962577  0.52334368  1
  P  P14  1  0.95068335  0.11426118  0.79284545  1
  Li  Li15  1  0.12291953  0.03337598  0.50698107  1
