# generated using pymatgen
data_Li2TiCu2F2
_symmetry_space_group_name_H-M   'P 1'
_cell_length_a   6.37917901
_cell_length_b   6.16382684
_cell_length_c   7.05543941
_cell_angle_alpha   96.15250660
_cell_angle_beta   98.62919249
_cell_angle_gamma   95.60931416
_symmetry_Int_Tables_number   1
_chemical_formula_structural   Li2TiCu2F2
_chemical_formula_sum   'Li2 Ti1 Cu2 F2'
_cell_volume   270.86633192
_cell_formula_units_Z   1
loop_
 _symmetry_equiv_pos_site_id
 _symmetry_equiv_pos_as_xyz
  1  'x, y, z'
loop_
 _atom_site_type_symbol
 _atom_site_label
 _atom_site_symmetry_multiplicity
 _atom_site_fract_x
 _atom_site_fract_y
 _atom_site_fract_z
 _atom_site_occupancy
  Li  Li0  1  0.00000000  0.00000000  0.00000000  1
  Li  Li1  1  0.50000000  0.50000000  0.50000000  1
  Cu  Cu2  1  0.50000000  0.50000000  0.00000000  1
  Cu  Cu3  1  0.50000000  0.00000000  0.50000000  1
  F  F4  1  0.00000000  0.50000000  0.50000000  1
  F  F5  1  0.94609499  0.71458554  0.56948634  1
  Ti  Ti6  1  0.13662387  0.18977145  0.59016084  1
