# generated using pymatgen
data_Li3TiCu2O3
_symmetry_space_group_name_H-M   'P 1'
_cell_length_a   7.17797166
_cell_length_b   7.06655207
_cell_length_c   7.66727700
_cell_angle_alpha   94.90036587
_cell_angle_beta   96.91256568
_cell_angle_gamma   94.61878912
_symmetry_Int_Tables_number   1
_chemical_formula_structural   Li3TiCu2O3
_chemical_formula_sum   'Li3 Ti1 Cu2 O3'
_cell_volume   383.04840810
_cell_formula_units_Z   1
loop_
 _symmetry_equiv_pos_site_id
 _symmetry_equiv_pos_as_xyz
  1  'x, y, z'
loop_
 _atom_site_type_symbol
 _atom_site_label
 _atom_site_symmetry_multiplicity
 _atom_site_fract_x
 _atom_site_fract_y
 _atom_site_fract_z
 _atom_site_occupancy
  Li  Li0  1  0.00000000  0.00000000  0.00000000  1
  Li  Li1  1  0.50000000  0.50000000  0.50000000  1
  Li  Li2  1  0.25000000  0.25000000  0.25000000  1
  Cu  Cu3  1  0.75000000  0.25000000  0.00000000  1
  Cu  Cu4  1  0.25000000  0.75000000  0.50000000  1
  Ti  Ti5  1  0.97798736  0.63284554  0.23976600  1
  O  O6  1  0.12895433  0.09503697  0.87830509  1
  O  O7  1  0.22291998  0.20474060  0.62170603  1
  O  O8  1  0.12366644  0.58925594  0.35444300  1
