# generated using pymatgen
data_Li2TiI4O3
_symmetry_space_group_name_H-M   'P 1'
_cell_length_a   8.06514548
_cell_length_b   7.86035804
_cell_length_c   7.74990545
_cell_angle_alpha   90.99370638
_cell_angle_beta   91.11721408
_cell_angle_gamma   91.14969023
_symmetry_Int_Tables_number   1
_chemical_formula_structural   Li2TiI4O3
_chemical_formula_sum   'Li2 Ti1 I4 O3'
_cell_volume   491.03514677
_cell_formula_units_Z   1
loop_
 _symmetry_equiv_pos_site_id
 _symmetry_equiv_pos_as_xyz
  1  'x, y, z'
loop_
 _atom_site_type_symbol
 _atom_site_label
 _atom_site_symmetry_multiplicity
 _atom_site_fract_x
 _atom_site_fract_y
 _atom_site_fract_z
 _atom_site_occupancy
  I  I0  1  0.00000000  0.00000000  0.00000000  1
  I  I1  1  0.50000000  0.50000000  0.50000000  1
  I  I2  1  0.50000000  0.50000000  0.00000000  1
  I  I3  1  0.50000000  0.00000000  0.50000000  1
  Li  Li4  1  0.00000000  0.50000000  0.50000000  1
  Li  Li5  1  0.51777922  0.03629345  0.25884516  1
  Ti  Ti6  1  0.86147900  0.08172017  0.27945019  1
  O  O7  1  0.47494620  0.23047865  0.66629440  1
  O  O8  1  0.62835767  0.82060982  0.79207366  1
  O  O9  1  0.73644498  0.34036588  0.14058940  1
