# generated using pymatgen
data_Li2LuP4(IO)4
_symmetry_space_group_name_H-M   'P 1'
_cell_length_a   7.90782134
_cell_length_b   7.87391656
_cell_length_c   7.47441470
_cell_angle_alpha   92.99875819
_cell_angle_beta   93.72920030
_cell_angle_gamma   92.87117231
_symmetry_Int_Tables_number   1
_chemical_formula_structural   Li2LuP4(IO)4
_chemical_formula_sum   'Li2 Lu1 P4 I4 O4'
_cell_volume   463.10831017
_cell_formula_units_Z   1
loop_
 _symmetry_equiv_pos_site_id
 _symmetry_equiv_pos_as_xyz
  1  'x, y, z'
loop_
 _atom_site_type_symbol
 _atom_site_label
 _atom_site_symmetry_multiplicity
 _atom_site_fract_x
 _atom_site_fract_y
 _atom_site_fract_z
 _atom_site_occupancy
  O  O0  1  0.00000000  0.00000000  0.00000000  1
  O  O1  1  0.50000000  0.50000000  0.50000000  1
  O  O2  1  0.25000000  0.25000000  0.25000000  1
  O  O3  1  0.75000000  0.25000000  0.00000000  1
  P  P4  1  0.25000000  0.75000000  0.50000000  1
  P  P5  1  0.94331352  0.95033738  0.01686823  1
  P  P6  1  0.97703223  0.41354529  0.88111033  1
  P  P7  1  0.86472446  0.74909248  0.09282560  1
  Lu  Lu8  1  0.61165961  0.91219381  0.72123817  1
  I  I9  1  0.34446148  0.05222844  0.83209092  1
  I  I10  1  0.07680410  0.64233559  0.01449105  1
  I  I11  1  0.49888588  0.45880643  0.12291343  1
  I  I12  1  0.13311235  0.18184468  0.39584723  1
  Li  Li13  1  0.38532620  0.07695252  0.68620401  1
  Li  Li14  1  0.70119243  0.37892545  0.90909552  1
