# generated using pymatgen
data_Li3TiF3
_symmetry_space_group_name_H-M   'P 1'
_cell_length_a   5.76523067
_cell_length_b   5.46552642
_cell_length_c   7.07961493
_cell_angle_alpha   101.55724892
_cell_angle_beta   105.06815774
_cell_angle_gamma   100.86828677
_symmetry_Int_Tables_number   1
_chemical_formula_structural   Li3TiF3
_chemical_formula_sum   'Li3 Ti1 F3'
_cell_volume   204.10004294
_cell_formula_units_Z   1
loop_
 _symmetry_equiv_pos_site_id
 _symmetry_equiv_pos_as_xyz
  1  'x, y, z'
loop_
 _atom_site_type_symbol
 _atom_site_label
 _atom_site_symmetry_multiplicity
 _atom_site_fract_x
 _atom_site_fract_y
 _atom_site_fract_z
 _atom_site_occupancy
  Li  Li0  1  0.12500000  0.12500000  0.12500000  1
  Li  Li1  1  0.50000000  0.50000000  0.50000000  1
  Li  Li2  1  0.25000000  0.25000000  0.25000000  1
  F  F3  1  0.75000000  0.75000000  0.75000000  1
  F  F4  1  0.73158547  0.86444271  0.99896133  1
  F  F5  1  0.13205632  0.56972916  0.53456668  1
  Ti  Ti6  1  0.97859193  0.13131322  0.59784965  1
