# generated using pymatgen
data_Li2LuTi(CuP2)2
_symmetry_space_group_name_H-M   'P 1'
_cell_length_a   7.16497299
_cell_length_b   7.04042778
_cell_length_c   7.94836335
_cell_angle_alpha   92.56605148
_cell_angle_beta   92.68588957
_cell_angle_gamma   92.43355598
_symmetry_Int_Tables_number   1
_chemical_formula_structural   Li2LuTi(CuP2)2
_chemical_formula_sum   'Li2 Lu1 Ti1 Cu2 P4'
_cell_volume   399.70986793
_cell_formula_units_Z   1
loop_
 _symmetry_equiv_pos_site_id
 _symmetry_equiv_pos_as_xyz
  1  'x, y, z'
loop_
 _atom_site_type_symbol
 _atom_site_label
 _atom_site_symmetry_multiplicity
 _atom_site_fract_x
 _atom_site_fract_y
 _atom_site_fract_z
 _atom_site_occupancy
  P  P0  1  0.12500000  0.00000000  0.25000000  1
  P  P1  1  0.00000000  0.00000000  0.00000000  1
  P  P2  1  0.37500000  0.00000000  0.25000000  1
  P  P3  1  0.25000000  0.25000000  0.25000000  1
  Lu  Lu4  1  0.00000000  0.25000000  0.12500000  1
  Li  Li5  1  0.33589650  0.15930212  0.84471735  1
  Li  Li6  1  0.39043363  0.34307345  0.16399184  1
  Cu  Cu7  1  0.27623956  0.10785212  0.87735153  1
  Cu  Cu8  1  0.17241549  0.34727641  0.59728965  1
  Ti  Ti9  1  0.29441063  0.66220833  0.04896350  1
