# generated using pymatgen
data_LiCu2As6P4S3
_symmetry_space_group_name_H-M   'P 1'
_cell_length_a   6.98558772
_cell_length_b   6.86320691
_cell_length_c   7.76256426
_cell_angle_alpha   91.41584636
_cell_angle_beta   93.77770993
_cell_angle_gamma   91.56887645
_symmetry_Int_Tables_number   1
_chemical_formula_structural   LiCu2As6P4S3
_chemical_formula_sum   'Li1 Cu2 As6 P4 S3'
_cell_volume   371.08574869
_cell_formula_units_Z   1
loop_
 _symmetry_equiv_pos_site_id
 _symmetry_equiv_pos_as_xyz
  1  'x, y, z'
loop_
 _atom_site_type_symbol
 _atom_site_label
 _atom_site_symmetry_multiplicity
 _atom_site_fract_x
 _atom_site_fract_y
 _atom_site_fract_z
 _atom_site_occupancy
  P  P0  1  0.00000000  0.00000000  0.00000000  1
  P  P1  1  0.50000000  0.50000000  0.50000000  1
  P  P2  1  0.50000000  0.50000000  0.00000000  1
  P  P3  1  0.50000000  0.00000000  0.50000000  1
  Li  Li4  1  0.00000000  0.50000000  0.50000000  1
  Cu  Cu5  1  0.75574087  0.74193260  0.95372588  1
  Cu  Cu6  1  0.54014672  0.79172903  0.81261760  1
  S  S7  1  0.47595083  0.28401724  0.11631860  1
  S  S8  1  0.15295855  0.11956713  0.62489088  1
  S  S9  1  0.15325568  0.51080645  0.65668331  1
  As  As10  1  0.54899408  0.87476241  0.66767657  1
  As  As11  1  0.05955219  0.62349294  0.01061655  1
  As  As12  1  0.81866889  0.27863243  0.60637350  1
  As  As13  1  0.26862031  0.89453128  0.27775534  1
  As  As14  1  0.17000484  0.93749257  0.95023766  1
  As  As15  1  0.06347168  0.89169119  0.89597974  1
