# generated using pymatgen
data_Li3TiI4(NO)5
_symmetry_space_group_name_H-M   'P 1'
_cell_length_a   8.19175256
_cell_length_b   8.00143535
_cell_length_c   8.18687382
_cell_angle_alpha   91.26897497
_cell_angle_beta   90.61042075
_cell_angle_gamma   91.47124711
_symmetry_Int_Tables_number   1
_chemical_formula_structural   Li3TiI4(NO)5
_chemical_formula_sum   'Li3 Ti1 I4 N5 O5'
_cell_volume   536.27274153
_cell_formula_units_Z   1
loop_
 _symmetry_equiv_pos_site_id
 _symmetry_equiv_pos_as_xyz
  1  'x, y, z'
loop_
 _atom_site_type_symbol
 _atom_site_label
 _atom_site_symmetry_multiplicity
 _atom_site_fract_x
 _atom_site_fract_y
 _atom_site_fract_z
 _atom_site_occupancy
  I  I0  1  0.12500000  0.00000000  0.25000000  1
  I  I1  1  0.00000000  0.00000000  0.00000000  1
  I  I2  1  0.37500000  0.00000000  0.25000000  1
  I  I3  1  0.25000000  0.25000000  0.25000000  1
  Li  Li4  1  0.00000000  0.25000000  0.12500000  1
  Li  Li5  1  0.75065453  0.02090977  0.34290325  1
  Li  Li6  1  0.63891000  0.21670605  0.37105196  1
  Ti  Ti7  1  0.61225994  0.60052869  0.19610321  1
  O  O8  1  0.11572211  0.74122954  0.61505318  1
  O  O9  1  0.90701199  0.12440669  0.35707527  1
  O  O10  1  0.95532073  0.19814932  0.88142434  1
  O  O11  1  0.22946053  0.20245323  0.06148644  1
  O  O12  1  0.00343569  0.40612654  0.21120048  1
  N  N13  1  0.77016390  0.64360563  0.82283093  1
  N  N14  1  0.04702805  0.14129985  0.34656831  1
  N  N15  1  0.05767715  0.61711708  0.05448721  1
  N  N16  1  0.62605160  0.34346460  0.69088101  1
  N  N17  1  0.79905767  0.56948195  0.86852987  1
