# generated using pymatgen
data_Li2MnSb4P3
_symmetry_space_group_name_H-M   'P 1'
_cell_length_a   4.55447787
_cell_length_b   4.67101669
_cell_length_c   7.11516524
_cell_angle_alpha   98.27628236
_cell_angle_beta   99.80402117
_cell_angle_gamma   99.41943119
_symmetry_Int_Tables_number   1
_chemical_formula_structural   Li2MnSb4P3
_chemical_formula_sum   'Li2 Mn1 Sb4 P3'
_cell_volume   144.83004999
_cell_formula_units_Z   1
loop_
 _symmetry_equiv_pos_site_id
 _symmetry_equiv_pos_as_xyz
  1  'x, y, z'
loop_
 _atom_site_type_symbol
 _atom_site_label
 _atom_site_symmetry_multiplicity
 _atom_site_fract_x
 _atom_site_fract_y
 _atom_site_fract_z
 _atom_site_occupancy
  Mn  Mn0  1  0.00000000  0.00000000  0.00000000  1
  Sb  Sb1  1  0.33300000  0.66700000  0.25000000  1
  Sb  Sb2  1  0.66700000  0.33300000  0.50000000  1
  Sb  Sb3  1  0.00000000  0.00000000  0.75000000  1
  Sb  Sb4  1  0.47172713  0.54088080  0.19478119  1
  P  P5  1  0.50221377  0.44664955  0.16047434  1
  P  P6  1  0.30391232  0.52075202  0.67142471  1
  P  P7  1  0.09886771  0.00143133  0.26652394  1
  Li  Li8  1  0.63223838  0.30490008  0.04273568  1
  Li  Li9  1  0.82938572  0.45059145  0.53158112  1
