# generated using pymatgen
data_Li2Ti(I2Cl)2
_symmetry_space_group_name_H-M   'P 1'
_cell_length_a   7.23633485
_cell_length_b   7.12446187
_cell_length_c   7.69730379
_cell_angle_alpha   95.05126003
_cell_angle_beta   96.98729022
_cell_angle_gamma   94.78310565
_symmetry_Int_Tables_number   1
_chemical_formula_structural   Li2Ti(I2Cl)2
_chemical_formula_sum   'Li2 Ti1 I4 Cl2'
_cell_volume   390.57663648
_cell_formula_units_Z   1
loop_
 _symmetry_equiv_pos_site_id
 _symmetry_equiv_pos_as_xyz
  1  'x, y, z'
loop_
 _atom_site_type_symbol
 _atom_site_label
 _atom_site_symmetry_multiplicity
 _atom_site_fract_x
 _atom_site_fract_y
 _atom_site_fract_z
 _atom_site_occupancy
  Cl  Cl0  1  0.00000000  0.00000000  0.00000000  1
  Cl  Cl1  1  0.50000000  0.50000000  0.50000000  1
  Ti  Ti2  1  0.50000000  0.50000000  0.00000000  1
  I  I3  1  0.50000000  0.00000000  0.50000000  1
  I  I4  1  0.00000000  0.50000000  0.50000000  1
  I  I5  1  0.40930519  0.63419955  0.07687626  1
  I  I6  1  0.04956949  0.89386989  0.91791939  1
  Li  Li7  1  0.53185619  0.80745007  0.45198196  1
  Li  Li8  1  0.86704960  0.23111187  0.64426941  1
