# generated using pymatgen
data_Li2Ti(NiI2)2
_symmetry_space_group_name_H-M   'P 1'
_cell_length_a   7.91184010
_cell_length_b   7.72328374
_cell_length_c   8.36231361
_cell_angle_alpha   91.27420561
_cell_angle_beta   91.09059706
_cell_angle_gamma   91.47550983
_symmetry_Int_Tables_number   1
_chemical_formula_structural   Li2Ti(NiI2)2
_chemical_formula_sum   'Li2 Ti1 Ni2 I4'
_cell_volume   510.58838191
_cell_formula_units_Z   1
loop_
 _symmetry_equiv_pos_site_id
 _symmetry_equiv_pos_as_xyz
  1  'x, y, z'
loop_
 _atom_site_type_symbol
 _atom_site_label
 _atom_site_symmetry_multiplicity
 _atom_site_fract_x
 _atom_site_fract_y
 _atom_site_fract_z
 _atom_site_occupancy
  I  I0  1  0.00000000  0.00000000  0.00000000  1
  I  I1  1  0.50000000  0.50000000  0.50000000  1
  I  I2  1  0.25000000  0.25000000  0.25000000  1
  I  I3  1  0.75000000  0.25000000  0.00000000  1
  Li  Li4  1  0.25000000  0.75000000  0.50000000  1
  Li  Li5  1  0.45189408  0.61173840  0.23237212  1
  Ni  Ni6  1  0.27542257  0.25470901  0.29247522  1
  Ni  Ni7  1  0.78900677  0.80770235  0.40247716  1
  Ti  Ti8  1  0.35022732  0.39521852  0.54060568  1
