# generated using pymatgen
data_LiMn3Sb4Mo2P3
_symmetry_space_group_name_H-M   'P 1'
_cell_length_a   6.92621947
_cell_length_b   7.38368844
_cell_length_c   6.90405907
_cell_angle_alpha   90.05080122
_cell_angle_beta   89.16149410
_cell_angle_gamma   89.66015334
_symmetry_Int_Tables_number   1
_chemical_formula_structural   LiMn3Sb4Mo2P3
_chemical_formula_sum   'Li1 Mn3 Sb4 Mo2 P3'
_cell_volume   353.03661958
_cell_formula_units_Z   1
loop_
 _symmetry_equiv_pos_site_id
 _symmetry_equiv_pos_as_xyz
  1  'x, y, z'
loop_
 _atom_site_type_symbol
 _atom_site_label
 _atom_site_symmetry_multiplicity
 _atom_site_fract_x
 _atom_site_fract_y
 _atom_site_fract_z
 _atom_site_occupancy
  Mn  Mn0  1  0.00000000  0.00000000  0.00000000  1
  Mn  Mn1  1  0.50000000  0.50000000  0.50000000  1
  Mn  Mn2  1  0.50000000  0.50000000  0.00000000  1
  Sb  Sb3  1  0.50000000  0.00000000  0.50000000  1
  Sb  Sb4  1  0.00000000  0.50000000  0.50000000  1
  Sb  Sb5  1  0.35328131  0.52524133  0.46118743  1
  Sb  Sb6  1  0.62096483  0.67327027  0.82354752  1
  P  P7  1  0.88546373  0.76297788  0.61898830  1
  P  P8  1  0.07997043  0.42771782  0.64337176  1
  P  P9  1  0.91726640  0.20787668  0.35158415  1
  Mo  Mo10  1  0.24818952  0.62955480  0.14061910  1
  Mo  Mo11  1  0.01253600  0.52062433  0.26557504  1
  Li  Li12  1  0.85839092  0.49484320  0.91895922  1
