# generated using pymatgen
data_LiMn2Mo2P3F4
_symmetry_space_group_name_H-M   'P 1'
_cell_length_a   4.63214152
_cell_length_b   4.74745214
_cell_length_c   6.19418283
_cell_angle_alpha   95.09919598
_cell_angle_beta   94.60968474
_cell_angle_gamma   95.17039782
_symmetry_Int_Tables_number   1
_chemical_formula_structural   LiMn2Mo2P3F4
_chemical_formula_sum   'Li1 Mn2 Mo2 P3 F4'
_cell_volume   134.58699682
_cell_formula_units_Z   1
loop_
 _symmetry_equiv_pos_site_id
 _symmetry_equiv_pos_as_xyz
  1  'x, y, z'
loop_
 _atom_site_type_symbol
 _atom_site_label
 _atom_site_symmetry_multiplicity
 _atom_site_fract_x
 _atom_site_fract_y
 _atom_site_fract_z
 _atom_site_occupancy
  F  F0  1  0.12500000  0.00000000  0.25000000  1
  F  F1  1  0.00000000  0.00000000  0.00000000  1
  F  F2  1  0.37500000  0.00000000  0.25000000  1
  F  F3  1  0.25000000  0.25000000  0.25000000  1
  Mn  Mn4  1  0.00000000  0.25000000  0.12500000  1
  Mn  Mn5  1  0.16091026  0.29866229  0.63629076  1
  P  P6  1  0.22494865  0.54610807  0.79440478  1
  P  P7  1  0.44655277  0.31387223  0.01601978  1
  P  P8  1  0.18715087  0.16635572  0.23602652  1
  Mo  Mo9  1  0.11014381  0.68330112  0.99422492  1
  Mo  Mo10  1  0.58081892  0.87484308  0.56149324  1
  Li  Li11  1  0.43224179  0.52373893  0.38048136  1
