# generated using pymatgen
data_LiTiS3O3F2
_symmetry_space_group_name_H-M   'P 1'
_cell_length_a   6.84575499
_cell_length_b   6.76766855
_cell_length_c   7.37979329
_cell_angle_alpha   91.00889190
_cell_angle_beta   94.80000126
_cell_angle_gamma   91.15343284
_symmetry_Int_Tables_number   1
_chemical_formula_structural   LiTiS3O3F2
_chemical_formula_sum   'Li1 Ti1 S3 O3 F2'
_cell_volume   340.57234183
_cell_formula_units_Z   1
loop_
 _symmetry_equiv_pos_site_id
 _symmetry_equiv_pos_as_xyz
  1  'x, y, z'
loop_
 _atom_site_type_symbol
 _atom_site_label
 _atom_site_symmetry_multiplicity
 _atom_site_fract_x
 _atom_site_fract_y
 _atom_site_fract_z
 _atom_site_occupancy
  Li  Li0  1  0.00000000  0.00000000  0.00000000  1
  F  F1  1  0.50000000  0.50000000  0.50000000  1
  F  F2  1  0.25000000  0.25000000  0.25000000  1
  S  S3  1  0.75000000  0.25000000  0.00000000  1
  S  S4  1  0.25000000  0.75000000  0.50000000  1
  S  S5  1  0.44034909  0.94551850  0.81502540  1
  Ti  Ti6  1  0.01617024  0.33345027  0.72039084  1
  O  O7  1  0.12303801  0.82289828  0.57465061  1
  O  O8  1  0.55612512  0.37861026  0.70673338  1
  O  O9  1  0.56564986  0.32833735  0.43889474  1
