# generated using pymatgen
data_Li2TiP6F2
_symmetry_space_group_name_H-M   'P 1'
_cell_length_a   8.20349781
_cell_length_b   8.16737365
_cell_length_c   7.87052520
_cell_angle_alpha   90.23540287
_cell_angle_beta   91.11997534
_cell_angle_gamma   90.26912833
_symmetry_Int_Tables_number   1
_chemical_formula_structural   Li2TiP6F2
_chemical_formula_sum   'Li2 Ti1 P6 F2'
_cell_volume   527.22209736
_cell_formula_units_Z   1
loop_
 _symmetry_equiv_pos_site_id
 _symmetry_equiv_pos_as_xyz
  1  'x, y, z'
loop_
 _atom_site_type_symbol
 _atom_site_label
 _atom_site_symmetry_multiplicity
 _atom_site_fract_x
 _atom_site_fract_y
 _atom_site_fract_z
 _atom_site_occupancy
  F  F0  1  0.12500000  0.00000000  0.25000000  1
  F  F1  1  0.00000000  0.00000000  0.00000000  1
  Ti  Ti2  1  0.37500000  0.00000000  0.25000000  1
  P  P3  1  0.25000000  0.25000000  0.25000000  1
  P  P4  1  0.00000000  0.25000000  0.12500000  1
  P  P5  1  0.67120938  0.67347181  0.32207529  1
  P  P6  1  0.46101397  0.51264633  0.55293141  1
  P  P7  1  0.34461005  0.56542632  0.46251073  1
  P  P8  1  0.74461665  0.41651842  0.32245891  1
  Li  Li9  1  0.40782061  0.65113595  0.62037447  1
  Li  Li10  1  0.33928746  0.71089385  0.38598431  1
