# generated using pymatgen
data_Li3Cu2As6P3Se
_symmetry_space_group_name_H-M   'P 1'
_cell_length_a   7.16724881
_cell_length_b   7.15381631
_cell_length_c   7.83219378
_cell_angle_alpha   93.57550718
_cell_angle_beta   95.62096349
_cell_angle_gamma   93.42497581
_symmetry_Int_Tables_number   1
_chemical_formula_structural   Li3Cu2As6P3Se
_chemical_formula_sum   'Li3 Cu2 As6 P3 Se1'
_cell_volume   397.99506411
_cell_formula_units_Z   1
loop_
 _symmetry_equiv_pos_site_id
 _symmetry_equiv_pos_as_xyz
  1  'x, y, z'
loop_
 _atom_site_type_symbol
 _atom_site_label
 _atom_site_symmetry_multiplicity
 _atom_site_fract_x
 _atom_site_fract_y
 _atom_site_fract_z
 _atom_site_occupancy
  Se  Se0  1  0.12500000  0.00000000  0.25000000  1
  P  P1  1  0.00000000  0.00000000  0.00000000  1
  P  P2  1  0.37500000  0.00000000  0.25000000  1
  P  P3  1  0.25000000  0.25000000  0.25000000  1
  As  As4  1  0.00000000  0.25000000  0.12500000  1
  As  As5  1  0.74700938  0.76714682  0.50399341  1
  As  As6  1  0.64245157  0.18350224  0.47320012  1
  As  As7  1  0.84772175  0.73282298  0.12875639  1
  As  As8  1  0.49980558  0.06653075  0.92526880  1
  As  As9  1  0.36230165  0.93295761  0.79999821  1
  Li  Li10  1  0.56851591  0.34825940  0.99728089  1
  Li  Li11  1  0.78472058  0.98729445  0.08479792  1
  Li  Li12  1  0.32916731  0.21194109  0.42488094  1
  Cu  Cu13  1  0.63722703  0.94109023  0.49207923  1
  Cu  Cu14  1  0.69614787  0.51938214  0.52579087  1
