# generated using pymatgen
data_Li2Cu2Ni2As6F3
_symmetry_space_group_name_H-M   'P 1'
_cell_length_a   7.59036921
_cell_length_b   7.47372843
_cell_length_c   8.47889295
_cell_angle_alpha   91.19496348
_cell_angle_beta   91.83108072
_cell_angle_gamma   91.37489731
_symmetry_Int_Tables_number   1
_chemical_formula_structural   Li2Cu2Ni2As6F3
_chemical_formula_sum   'Li2 Cu2 Ni2 As6 F3'
_cell_volume   480.49713030
_cell_formula_units_Z   1
loop_
 _symmetry_equiv_pos_site_id
 _symmetry_equiv_pos_as_xyz
  1  'x, y, z'
loop_
 _atom_site_type_symbol
 _atom_site_label
 _atom_site_symmetry_multiplicity
 _atom_site_fract_x
 _atom_site_fract_y
 _atom_site_fract_z
 _atom_site_occupancy
  Li  Li0  1  0.12500000  0.00000000  0.25000000  1
  Li  Li1  1  0.00000000  0.00000000  0.00000000  1
  Cu  Cu2  1  0.37500000  0.00000000  0.25000000  1
  Cu  Cu3  1  0.25000000  0.25000000  0.25000000  1
  F  F4  1  0.00000000  0.25000000  0.12500000  1
  F  F5  1  0.11018560  0.51610733  0.20416436  1
  F  F6  1  0.35090257  0.12155997  0.21799215  1
  Ni  Ni7  1  0.38011940  0.22788847  0.87277079  1
  Ni  Ni8  1  0.20959078  0.68230034  0.85719253  1
  As  As9  1  0.10322992  0.52254984  0.33962836  1
  As  As10  1  0.19389853  0.93666874  0.96879928  1
  As  As11  1  0.62778431  0.40375661  0.09484264  1
  As  As12  1  0.64994656  0.84967452  0.11783495  1
  As  As13  1  0.17900110  0.42320504  0.48860421  1
  As  As14  1  0.04699567  0.22059807  0.78410153  1
