# generated using pymatgen
data_Li2MnSb4P3
_symmetry_space_group_name_H-M   'P 1'
_cell_length_a   4.52742960
_cell_length_b   4.64544209
_cell_length_c   7.10882144
_cell_angle_alpha   98.34124662
_cell_angle_beta   99.88097734
_cell_angle_gamma   99.49336854
_symmetry_Int_Tables_number   1
_chemical_formula_structural   Li2MnSb4P3
_chemical_formula_sum   'Li2 Mn1 Sb4 P3'
_cell_volume   142.94585890
_cell_formula_units_Z   1
loop_
 _symmetry_equiv_pos_site_id
 _symmetry_equiv_pos_as_xyz
  1  'x, y, z'
loop_
 _atom_site_type_symbol
 _atom_site_label
 _atom_site_symmetry_multiplicity
 _atom_site_fract_x
 _atom_site_fract_y
 _atom_site_fract_z
 _atom_site_occupancy
  Mn  Mn0  1  0.00000000  0.00000000  0.00000000  1
  Sb  Sb1  1  0.50000000  0.50000000  0.50000000  1
  Sb  Sb2  1  0.25000000  0.25000000  0.25000000  1
  Sb  Sb3  1  0.75000000  0.25000000  0.00000000  1
  Sb  Sb4  1  0.25000000  0.75000000  0.50000000  1
  P  P5  1  0.94542761  0.70564756  0.30526398  1
  P  P6  1  0.15355135  0.14340851  0.84792920  1
  P  P7  1  0.39115363  0.73327474  0.63359423  1
  Li  Li8  1  0.64731229  0.14557334  0.17225410  1
  Li  Li9  1  0.78024297  0.24647647  0.83479221  1
