# generated using pymatgen
data_Li3Ni2Te6I4O5
_symmetry_space_group_name_H-M   'P 1'
_cell_length_a   7.15152846
_cell_length_b   6.97825168
_cell_length_c   8.38830959
_cell_angle_alpha   95.26528763
_cell_angle_beta   96.15971404
_cell_angle_gamma   95.14412498
_symmetry_Int_Tables_number   1
_chemical_formula_structural   Li3Ni2Te6I4O5
_chemical_formula_sum   'Li3 Ni2 Te6 I4 O5'
_cell_volume   412.34822523
_cell_formula_units_Z   1
loop_
 _symmetry_equiv_pos_site_id
 _symmetry_equiv_pos_as_xyz
  1  'x, y, z'
loop_
 _atom_site_type_symbol
 _atom_site_label
 _atom_site_symmetry_multiplicity
 _atom_site_fract_x
 _atom_site_fract_y
 _atom_site_fract_z
 _atom_site_occupancy
  I  I0  1  0.00000000  0.00000000  0.00000000  1
  I  I1  1  0.50000000  0.50000000  0.50000000  1
  I  I2  1  0.50000000  0.50000000  0.00000000  1
  I  I3  1  0.50000000  0.00000000  0.50000000  1
  Li  Li4  1  0.00000000  0.50000000  0.50000000  1
  Li  Li5  1  0.13802807  0.66764839  0.30515392  1
  Li  Li6  1  0.14107618  0.53615786  0.31430321  1
  Ni  Ni7  1  0.95231041  0.89837532  0.56372977  1
  Ni  Ni8  1  0.17639487  0.62885082  0.95775192  1
  Te  Te9  1  0.67364750  0.72594080  0.07237321  1
  Te  Te10  1  0.09773524  0.12010764  0.13738828  1
  Te  Te11  1  0.22710303  0.61759452  0.57584131  1
  Te  Te12  1  0.90150842  0.14268093  0.00397245  1
  Te  Te13  1  0.23190475  0.25903552  0.64023776  1
  Te  Te14  1  0.41674195  0.68180687  0.29631145  1
  O  O15  1  0.93926860  0.33135306  0.93190873  1
  O  O16  1  0.19094895  0.69646600  0.42324955  1
  O  O17  1  0.97170006  0.34267142  0.08725371  1
  O  O18  1  0.57924564  0.10960668  0.39509878  1
  O  O19  1  0.73806351  0.34760193  0.40931275  1
