# generated using pymatgen
data_LiCuAs3I2
_symmetry_space_group_name_H-M   'P 1'
_cell_length_a   7.69052440
_cell_length_b   7.73250802
_cell_length_c   8.31345904
_cell_angle_alpha   90.94183759
_cell_angle_beta   91.74217645
_cell_angle_gamma   91.08710227
_symmetry_Int_Tables_number   1
_chemical_formula_structural   LiCuAs3I2
_chemical_formula_sum   'Li2 Cu2 As6 I4'
_cell_volume   493.98773839
_cell_formula_units_Z   2
loop_
 _symmetry_equiv_pos_site_id
 _symmetry_equiv_pos_as_xyz
  1  'x, y, z'
loop_
 _atom_site_type_symbol
 _atom_site_label
 _atom_site_symmetry_multiplicity
 _atom_site_fract_x
 _atom_site_fract_y
 _atom_site_fract_z
 _atom_site_occupancy
  I  I0  1  0.12500000  0.12500000  0.12500000  1
  I  I1  1  0.50000000  0.50000000  0.50000000  1
  I  I2  1  0.25000000  0.25000000  0.25000000  1
  I  I3  1  0.75000000  0.75000000  0.75000000  1
  As  As4  1  0.36389248  0.10223236  0.65690690  1
  As  As5  1  0.11887798  0.93340888  0.72817224  1
  As  As6  1  0.37244637  0.93521517  0.31173466  1
  As  As7  1  0.16722578  0.52859521  0.09490965  1
  As  As8  1  0.33226222  0.33386867  0.00828867  1
  As  As9  1  0.57134238  0.74317848  0.24785536  1
  Li  Li10  1  0.47782327  0.17726626  0.51368238  1
  Li  Li11  1  0.67743601  0.59670306  0.80338202  1
  Cu  Cu12  1  0.33673142  0.32244090  0.57679406  1
  Cu  Cu13  1  0.82148189  0.00987684  0.30113683  1
