# generated using pymatgen
data_Li2TiAs6
_symmetry_space_group_name_H-M   'P 1'
_cell_length_a   8.11652458
_cell_length_b   8.07039997
_cell_length_c   8.01417239
_cell_angle_alpha   90.24932714
_cell_angle_beta   91.44966170
_cell_angle_gamma   90.27610224
_symmetry_Int_Tables_number   1
_chemical_formula_structural   Li2TiAs6
_chemical_formula_sum   'Li2 Ti1 As6'
_cell_volume   524.77777399
_cell_formula_units_Z   1
loop_
 _symmetry_equiv_pos_site_id
 _symmetry_equiv_pos_as_xyz
  1  'x, y, z'
loop_
 _atom_site_type_symbol
 _atom_site_label
 _atom_site_symmetry_multiplicity
 _atom_site_fract_x
 _atom_site_fract_y
 _atom_site_fract_z
 _atom_site_occupancy
  Li  Li0  1  0.12500000  0.00000000  0.25000000  1
  Li  Li1  1  0.00000000  0.00000000  0.00000000  1
  Ti  Ti2  1  0.37500000  0.00000000  0.25000000  1
  As  As3  1  0.25000000  0.25000000  0.25000000  1
  As  As4  1  0.00000000  0.25000000  0.12500000  1
  As  As5  1  0.84398851  0.11993547  0.40511173  1
  As  As6  1  0.17900656  0.66449051  0.08314788  1
  As  As7  1  0.67825712  0.51307859  0.67473699  1
  As  As8  1  0.05583348  0.73773062  0.51688435  1
