# generated using pymatgen
data_LiTiS3(I2F)2
_symmetry_space_group_name_H-M   'P 1'
_cell_length_a   5.90604891
_cell_length_b   5.76271048
_cell_length_c   7.08886697
_cell_angle_alpha   96.40021693
_cell_angle_beta   100.83247381
_cell_angle_gamma   96.15540142
_symmetry_Int_Tables_number   1
_chemical_formula_structural   LiTiS3(I2F)2
_chemical_formula_sum   'Li1 Ti1 S3 I4 F2'
_cell_volume   233.45308632
_cell_formula_units_Z   1
loop_
 _symmetry_equiv_pos_site_id
 _symmetry_equiv_pos_as_xyz
  1  'x, y, z'
loop_
 _atom_site_type_symbol
 _atom_site_label
 _atom_site_symmetry_multiplicity
 _atom_site_fract_x
 _atom_site_fract_y
 _atom_site_fract_z
 _atom_site_occupancy
  I  I0  1  0.12500000  0.00000000  0.25000000  1
  I  I1  1  0.00000000  0.00000000  0.00000000  1
  I  I2  1  0.37500000  0.00000000  0.25000000  1
  I  I3  1  0.25000000  0.25000000  0.25000000  1
  Li  Li4  1  0.00000000  0.25000000  0.12500000  1
  F  F5  1  0.39542616  0.22989012  0.97516179  1
  F  F6  1  0.37795921  0.40739451  0.81155156  1
  S  S7  1  0.86825215  0.78758158  0.15645305  1
  S  S8  1  0.45192153  0.92842246  0.30290665  1
  S  S9  1  0.68940894  0.45380115  0.62040528  1
  Ti  Ti10  1  0.67865005  0.57493158  0.86636953  1
