# generated using pymatgen
data_Li3Cu2(NiO3)2
_symmetry_space_group_name_H-M   'P 1'
_cell_length_a   7.03587331
_cell_length_b   6.84791505
_cell_length_c   8.04391346
_cell_angle_alpha   95.65154719
_cell_angle_beta   96.78347020
_cell_angle_gamma   95.49799425
_symmetry_Int_Tables_number   1
_chemical_formula_structural   Li3Cu2(NiO3)2
_chemical_formula_sum   'Li3 Cu2 Ni2 O6'
_cell_volume   380.70999971
_cell_formula_units_Z   1
loop_
 _symmetry_equiv_pos_site_id
 _symmetry_equiv_pos_as_xyz
  1  'x, y, z'
loop_
 _atom_site_type_symbol
 _atom_site_label
 _atom_site_symmetry_multiplicity
 _atom_site_fract_x
 _atom_site_fract_y
 _atom_site_fract_z
 _atom_site_occupancy
  Li  Li0  1  0.12500000  0.00000000  0.25000000  1
  Li  Li1  1  0.00000000  0.00000000  0.00000000  1
  Li  Li2  1  0.37500000  0.00000000  0.25000000  1
  Cu  Cu3  1  0.25000000  0.25000000  0.25000000  1
  Cu  Cu4  1  0.00000000  0.25000000  0.12500000  1
  Ni  Ni5  1  0.70684611  0.27112124  0.47286008  1
  Ni  Ni6  1  0.07438344  0.34333565  0.95444209  1
  O  O7  1  0.44580104  0.95054808  0.60422643  1
  O  O8  1  0.71698735  0.27891560  0.72110814  1
  O  O9  1  0.36255925  0.08916126  0.19046676  1
  O  O10  1  0.55738631  0.14635492  0.60785750  1
  O  O11  1  0.71126322  0.84414815  0.62976097  1
  O  O12  1  0.39891599  0.79937191  0.82560073  1
