# generated using pymatgen
data_Li2LuTi2P5F2
_symmetry_space_group_name_H-M   'P 1'
_cell_length_a   7.21689609
_cell_length_b   6.95764909
_cell_length_c   8.02848598
_cell_angle_alpha   93.25367303
_cell_angle_beta   93.58318406
_cell_angle_gamma   93.34924936
_symmetry_Int_Tables_number   1
_chemical_formula_structural   Li2LuTi2P5F2
_chemical_formula_sum   'Li2 Lu1 Ti2 P5 F2'
_cell_volume   400.91718782
_cell_formula_units_Z   1
loop_
 _symmetry_equiv_pos_site_id
 _symmetry_equiv_pos_as_xyz
  1  'x, y, z'
loop_
 _atom_site_type_symbol
 _atom_site_label
 _atom_site_symmetry_multiplicity
 _atom_site_fract_x
 _atom_site_fract_y
 _atom_site_fract_z
 _atom_site_occupancy
  P  P0  1  0.00000000  0.00000000  0.00000000  1
  P  P1  1  0.50000000  0.50000000  0.50000000  1
  P  P2  1  0.25000000  0.25000000  0.25000000  1
  P  P3  1  0.75000000  0.25000000  0.00000000  1
  P  P4  1  0.25000000  0.75000000  0.50000000  1
  Lu  Lu5  1  0.08416963  0.88141721  0.71886088  1
  Li  Li6  1  0.76228470  0.95491078  0.68389092  1
  Li  Li7  1  0.74421364  0.35398659  0.00026866  1
  F  F8  1  0.99406426  0.30275828  0.41382139  1
  F  F9  1  0.77898981  0.83485186  0.16388074  1
  Ti  Ti10  1  0.41391203  0.40931511  0.71421023  1
  Ti  Ti11  1  0.95758224  0.58744047  0.24208696  1
