# generated using pymatgen
data_Li3Ni2(As3O2)2
_symmetry_space_group_name_H-M   'P 1'
_cell_length_a   8.21489333
_cell_length_b   8.38531538
_cell_length_c   9.09615401
_cell_angle_alpha   90.00000000
_cell_angle_beta   90.00000000
_cell_angle_gamma   90.00000000
_symmetry_Int_Tables_number   1
_chemical_formula_structural   Li3Ni2(As3O2)2
_chemical_formula_sum   'Li3 Ni2 As6 O4'
_cell_volume   626.58376058
_cell_formula_units_Z   1
loop_
 _symmetry_equiv_pos_site_id
 _symmetry_equiv_pos_as_xyz
  1  'x, y, z'
loop_
 _atom_site_type_symbol
 _atom_site_label
 _atom_site_symmetry_multiplicity
 _atom_site_fract_x
 _atom_site_fract_y
 _atom_site_fract_z
 _atom_site_occupancy
  Li  Li0  1  0.00000000  0.00000000  0.00000000  1
  Li  Li1  1  0.50000000  0.50000000  0.50000000  1
  Li  Li2  1  0.25000000  0.25000000  0.25000000  1
  Ni  Ni3  1  0.75000000  0.25000000  0.00000000  1
  Ni  Ni4  1  0.25000000  0.75000000  0.50000000  1
  As  As5  1  0.24080943  0.98268757  0.76372295  1
  As  As6  1  0.11116286  0.01515283  0.65467177  1
  As  As7  1  0.88787746  0.77928042  0.82229200  1
  As  As8  1  0.63494499  0.47855885  0.28400862  1
  As  As9  1  0.32960096  0.03385166  0.22294792  1
  As  As10  1  0.04323816  0.87109541  0.83498699  1
  O  O11  1  0.34010562  0.95351808  0.85730183  1
  O  O12  1  0.11827916  0.84153493  0.56788761  1
  O  O13  1  0.16129254  0.79189682  0.48104794  1
  O  O14  1  0.50866953  0.58257181  0.87320360  1
