# generated using pymatgen
data_Li2Lu(As3P2)2
_symmetry_space_group_name_H-M   'P 1'
_cell_length_a   7.34709168
_cell_length_b   7.21329203
_cell_length_c   7.90537167
_cell_angle_alpha   91.44403264
_cell_angle_beta   92.81598788
_cell_angle_gamma   91.45921011
_symmetry_Int_Tables_number   1
_chemical_formula_structural   Li2Lu(As3P2)2
_chemical_formula_sum   'Li2 Lu1 As6 P4'
_cell_volume   418.17032472
_cell_formula_units_Z   1
loop_
 _symmetry_equiv_pos_site_id
 _symmetry_equiv_pos_as_xyz
  1  'x, y, z'
loop_
 _atom_site_type_symbol
 _atom_site_label
 _atom_site_symmetry_multiplicity
 _atom_site_fract_x
 _atom_site_fract_y
 _atom_site_fract_z
 _atom_site_occupancy
  P  P0  1  0.00000000  0.00000000  0.00000000  1
  P  P1  1  0.50000000  0.50000000  0.50000000  1
  P  P2  1  0.50000000  0.50000000  0.00000000  1
  P  P3  1  0.50000000  0.00000000  0.50000000  1
  Lu  Lu4  1  0.00000000  0.50000000  0.50000000  1
  As  As5  1  0.21677370  0.84425172  0.68351277  1
  As  As6  1  0.93921753  0.81572749  0.28384946  1
  As  As7  1  0.20043224  0.38200914  0.48772977  1
  As  As8  1  0.09921137  0.27678456  0.27299904  1
  As  As9  1  0.71847806  0.75890722  0.59301016  1
  As  As10  1  0.03769586  0.68107881  0.74619073  1
  Li  Li11  1  0.48476628  0.62790921  0.02798280  1
  Li  Li12  1  0.75954291  0.22498218  0.79478069  1
