# generated using pymatgen
data_Li3LuCu2(PN)5
_symmetry_space_group_name_H-M   'P 1'
_cell_length_a   7.35012949
_cell_length_b   7.15755788
_cell_length_c   8.37845375
_cell_angle_alpha   93.57132867
_cell_angle_beta   93.13025394
_cell_angle_gamma   93.77445763
_symmetry_Int_Tables_number   1
_chemical_formula_structural   Li3LuCu2(PN)5
_chemical_formula_sum   'Li3 Lu1 Cu2 P5 N5'
_cell_volume   438.20829178
_cell_formula_units_Z   1
loop_
 _symmetry_equiv_pos_site_id
 _symmetry_equiv_pos_as_xyz
  1  'x, y, z'
loop_
 _atom_site_type_symbol
 _atom_site_label
 _atom_site_symmetry_multiplicity
 _atom_site_fract_x
 _atom_site_fract_y
 _atom_site_fract_z
 _atom_site_occupancy
  P  P0  1  0.00000000  0.00000000  0.00000000  1
  P  P1  1  0.50000000  0.50000000  0.50000000  1
  P  P2  1  0.25000000  0.25000000  0.25000000  1
  P  P3  1  0.75000000  0.25000000  0.00000000  1
  P  P4  1  0.25000000  0.75000000  0.50000000  1
  Lu  Lu5  1  0.62910443  0.74106153  0.56237976  1
  Li  Li6  1  0.82313930  0.92251430  0.45001902  1
  Li  Li7  1  0.99847918  0.31651055  0.95718204  1
  Li  Li8  1  0.95476805  0.03297363  0.86704803  1
  Cu  Cu9  1  0.81817159  0.58654802  0.97603822  1
  Cu  Cu10  1  0.56189392  0.24262436  0.43330901  1
  N  N11  1  0.00653703  0.26601465  0.53983549  1
  N  N12  1  0.79585821  0.02211593  0.61311071  1
  N  N13  1  0.96766942  0.58931405  0.66373389  1
  N  N14  1  0.55053137  0.62092683  0.98862110  1
  N  N15  1  0.26043362  0.42993666  0.90850274  1
