# generated using pymatgen
data_LiTi2Cu2P5F2
_symmetry_space_group_name_H-M   'P 1'
_cell_length_a   6.81967294
_cell_length_b   6.67276443
_cell_length_c   7.59482387
_cell_angle_alpha   91.77462099
_cell_angle_beta   94.66557864
_cell_angle_gamma   91.77749460
_symmetry_Int_Tables_number   1
_chemical_formula_structural   LiTi2Cu2P5F2
_chemical_formula_sum   'Li1 Ti2 Cu2 P5 F2'
_cell_volume   344.10502105
_cell_formula_units_Z   1
loop_
 _symmetry_equiv_pos_site_id
 _symmetry_equiv_pos_as_xyz
  1  'x, y, z'
loop_
 _atom_site_type_symbol
 _atom_site_label
 _atom_site_symmetry_multiplicity
 _atom_site_fract_x
 _atom_site_fract_y
 _atom_site_fract_z
 _atom_site_occupancy
  P  P0  1  0.00000000  0.00000000  0.00000000  1
  P  P1  1  0.50000000  0.50000000  0.50000000  1
  P  P2  1  0.50000000  0.50000000  0.00000000  1
  P  P3  1  0.50000000  0.00000000  0.50000000  1
  P  P4  1  0.00000000  0.50000000  0.50000000  1
  Li  Li5  1  0.94027840  0.27031637  0.98901152  1
  Cu  Cu6  1  0.56142821  0.02784518  0.24965199  1
  Cu  Cu7  1  0.17429785  0.56923676  0.32190091  1
  F  F8  1  0.36457292  0.46270090  0.07121498  1
  F  F9  1  0.84098065  0.17180840  0.20758126  1
  Ti  Ti10  1  0.81653680  0.61876082  0.03091799  1
  Ti  Ti11  1  0.39970154  0.10244521  0.00920942  1
