# generated using pymatgen
data_Li2TiI4(OF)3
_symmetry_space_group_name_H-M   'P 1'
_cell_length_a   7.02253645
_cell_length_b   6.81900924
_cell_length_c   7.21966380
_cell_angle_alpha   94.99692096
_cell_angle_beta   97.17442195
_cell_angle_gamma   94.72980755
_symmetry_Int_Tables_number   1
_chemical_formula_structural   Li2TiI4(OF)3
_chemical_formula_sum   'Li2 Ti1 I4 O3 F3'
_cell_volume   340.18866406
_cell_formula_units_Z   1
loop_
 _symmetry_equiv_pos_site_id
 _symmetry_equiv_pos_as_xyz
  1  'x, y, z'
loop_
 _atom_site_type_symbol
 _atom_site_label
 _atom_site_symmetry_multiplicity
 _atom_site_fract_x
 _atom_site_fract_y
 _atom_site_fract_z
 _atom_site_occupancy
  I  I0  1  0.00000000  0.00000000  0.00000000  1
  I  I1  1  0.50000000  0.50000000  0.50000000  1
  I  I2  1  0.50000000  0.50000000  0.00000000  1
  I  I3  1  0.50000000  0.00000000  0.50000000  1
  Li  Li4  1  0.00000000  0.50000000  0.50000000  1
  Li  Li5  1  0.71258284  0.91797963  0.46815525  1
  F  F6  1  0.92446188  0.82767944  0.76296515  1
  F  F7  1  0.85807182  0.37674246  0.81994583  1
  F  F8  1  0.03958253  0.91621506  0.35975360  1
  Ti  Ti9  1  0.47696993  0.23745628  0.81744036  1
  O  O10  1  0.94039214  0.90458641  0.87670946  1
  O  O11  1  0.41516665  0.68378106  0.26012317  1
  O  O12  1  0.99026197  0.64447347  0.21888944  1
