# generated using pymatgen
data_Li3TiN5O4
_symmetry_space_group_name_H-M   'P 1'
_cell_length_a   7.95448298
_cell_length_b   7.79093230
_cell_length_c   7.91471481
_cell_angle_alpha   92.15763570
_cell_angle_beta   91.89115824
_cell_angle_gamma   92.28035706
_symmetry_Int_Tables_number   1
_chemical_formula_structural   Li3TiN5O4
_chemical_formula_sum   'Li3 Ti1 N5 O4'
_cell_volume   489.46902399
_cell_formula_units_Z   1
loop_
 _symmetry_equiv_pos_site_id
 _symmetry_equiv_pos_as_xyz
  1  'x, y, z'
loop_
 _atom_site_type_symbol
 _atom_site_label
 _atom_site_symmetry_multiplicity
 _atom_site_fract_x
 _atom_site_fract_y
 _atom_site_fract_z
 _atom_site_occupancy
  Li  Li0  1  0.12500000  0.00000000  0.25000000  1
  Li  Li1  1  0.00000000  0.00000000  0.00000000  1
  Li  Li2  1  0.37500000  0.00000000  0.25000000  1
  Ti  Ti3  1  0.25000000  0.25000000  0.25000000  1
  O  O4  1  0.00000000  0.25000000  0.12500000  1
  O  O5  1  0.40585429  0.04193449  0.24590841  1
  O  O6  1  0.09332491  0.08020487  0.06991333  1
  O  O7  1  0.31461930  0.48879496  0.95109274  1
  N  N8  1  0.17916126  0.62477642  0.31908362  1
  N  N9  1  0.50896790  0.11441471  0.79653284  1
  N  N10  1  0.70440541  0.48474601  0.60335038  1
  N  N11  1  0.66418137  0.52752785  0.86022404  1
  N  N12  1  0.44606597  0.62775270  0.72316437  1
