# generated using pymatgen
data_LiTi2N3F2
_symmetry_space_group_name_H-M   'P 1'
_cell_length_a   6.93781451
_cell_length_b   6.72400636
_cell_length_c   8.05843187
_cell_angle_alpha   92.14161682
_cell_angle_beta   93.83046973
_cell_angle_gamma   92.47242408
_symmetry_Int_Tables_number   1
_chemical_formula_structural   LiTi2N3F2
_chemical_formula_sum   'Li1 Ti2 N3 F2'
_cell_volume   374.43053652
_cell_formula_units_Z   1
loop_
 _symmetry_equiv_pos_site_id
 _symmetry_equiv_pos_as_xyz
  1  'x, y, z'
loop_
 _atom_site_type_symbol
 _atom_site_label
 _atom_site_symmetry_multiplicity
 _atom_site_fract_x
 _atom_site_fract_y
 _atom_site_fract_z
 _atom_site_occupancy
  Li  Li0  1  0.12500000  0.12500000  0.12500000  1
  F  F1  1  0.50000000  0.50000000  0.50000000  1
  F  F2  1  0.25000000  0.25000000  0.25000000  1
  Ti  Ti3  1  0.75000000  0.75000000  0.75000000  1
  Ti  Ti4  1  0.43327456  0.08019739  0.57901143  1
  N  N5  1  0.55672713  0.85246798  0.03932605  1
  N  N6  1  0.63576306  0.86763714  0.05539774  1
  N  N7  1  0.57954335  0.48974377  0.50362789  1
