# generated using pymatgen
data_Li2Cu2Ni2F3
_symmetry_space_group_name_H-M   'P 1'
_cell_length_a   7.53840080
_cell_length_b   7.44017375
_cell_length_c   8.29142900
_cell_angle_alpha   91.05452413
_cell_angle_beta   92.09093014
_cell_angle_gamma   91.20895846
_symmetry_Int_Tables_number   1
_chemical_formula_structural   Li2Cu2Ni2F3
_chemical_formula_sum   'Li2 Cu2 Ni2 F3'
_cell_volume   464.54282650
_cell_formula_units_Z   1
loop_
 _symmetry_equiv_pos_site_id
 _symmetry_equiv_pos_as_xyz
  1  'x, y, z'
loop_
 _atom_site_type_symbol
 _atom_site_label
 _atom_site_symmetry_multiplicity
 _atom_site_fract_x
 _atom_site_fract_y
 _atom_site_fract_z
 _atom_site_occupancy
  Li  Li0  1  0.00000000  0.00000000  0.00000000  1
  Li  Li1  1  0.50000000  0.50000000  0.50000000  1
  Cu  Cu2  1  0.50000000  0.50000000  0.00000000  1
  Cu  Cu3  1  0.50000000  0.00000000  0.50000000  1
  F  F4  1  0.00000000  0.50000000  0.50000000  1
  F  F5  1  0.63031122  0.14136001  0.95181612  1
  F  F6  1  0.94887935  0.79839322  0.92661811  1
  Ni  Ni7  1  0.57503280  0.06383555  0.16123064  1
  Ni  Ni8  1  0.76872563  0.62731455  0.56315040  1
