# generated using pymatgen
data_Li2Lu(As3P2)2
_symmetry_space_group_name_H-M   'P 1'
_cell_length_a   7.39752771
_cell_length_b   7.18462978
_cell_length_c   7.96355530
_cell_angle_alpha   91.79888605
_cell_angle_beta   91.79992856
_cell_angle_gamma   91.94280651
_symmetry_Int_Tables_number   1
_chemical_formula_structural   Li2Lu(As3P2)2
_chemical_formula_sum   'Li2 Lu1 As6 P4'
_cell_volume   422.57576643
_cell_formula_units_Z   1
loop_
 _symmetry_equiv_pos_site_id
 _symmetry_equiv_pos_as_xyz
  1  'x, y, z'
loop_
 _atom_site_type_symbol
 _atom_site_label
 _atom_site_symmetry_multiplicity
 _atom_site_fract_x
 _atom_site_fract_y
 _atom_site_fract_z
 _atom_site_occupancy
  P  P0  1  0.12500000  0.00000000  0.25000000  1
  P  P1  1  0.00000000  0.00000000  0.00000000  1
  P  P2  1  0.37500000  0.00000000  0.25000000  1
  P  P3  1  0.25000000  0.25000000  0.25000000  1
  Lu  Lu4  1  0.00000000  0.25000000  0.12500000  1
  Li  Li5  1  0.96443840  0.66406644  0.65709369  1
  Li  Li6  1  0.51348718  0.88438354  0.89721357  1
  As  As7  1  0.18553130  0.25347020  0.81526442  1
  As  As8  1  0.73881090  0.45827902  0.90262150  1
  As  As9  1  0.66165179  0.58767876  0.29516584  1
  As  As10  1  0.96835038  0.30232497  0.24373301  1
  As  As11  1  0.11679550  0.14404068  0.76268111  1
  As  As12  1  0.90006921  0.48306789  0.51650471  1
