# generated using pymatgen
data_Li2Mn2Sb2P3F4
_symmetry_space_group_name_H-M   'P 1'
_cell_length_a   6.33827299
_cell_length_b   6.71995525
_cell_length_c   7.00036067
_cell_angle_alpha   92.51231572
_cell_angle_beta   92.35561632
_cell_angle_gamma   92.58477691
_symmetry_Int_Tables_number   1
_chemical_formula_structural   Li2Mn2Sb2P3F4
_chemical_formula_sum   'Li2 Mn2 Sb2 P3 F4'
_cell_volume   297.29874232
_cell_formula_units_Z   1
loop_
 _symmetry_equiv_pos_site_id
 _symmetry_equiv_pos_as_xyz
  1  'x, y, z'
loop_
 _atom_site_type_symbol
 _atom_site_label
 _atom_site_symmetry_multiplicity
 _atom_site_fract_x
 _atom_site_fract_y
 _atom_site_fract_z
 _atom_site_occupancy
  F  F0  1  0.12500000  0.00000000  0.25000000  1
  F  F1  1  0.00000000  0.00000000  0.00000000  1
  F  F2  1  0.37500000  0.00000000  0.25000000  1
  F  F3  1  0.25000000  0.25000000  0.25000000  1
  Mn  Mn4  1  0.00000000  0.25000000  0.12500000  1
  Mn  Mn5  1  0.20306220  0.50055977  0.84108597  1
  Sb  Sb6  1  0.69846028  0.43881080  0.89646664  1
  Sb  Sb7  1  0.41307052  0.91732648  0.14787582  1
  P  P8  1  0.89648392  0.85007984  0.77095142  1
  P  P9  1  0.25885971  0.85296511  0.73203015  1
  P  P10  1  0.15268153  0.90720678  0.89056950  1
  Li  Li11  1  0.46822926  0.77358877  0.65142317  1
  Li  Li12  1  0.02978130  0.37267529  0.58411980  1
