# generated using pymatgen
data_Li4As6SeO4F3
_symmetry_space_group_name_H-M   'P 1'
_cell_length_a   5.48456104
_cell_length_b   5.26268988
_cell_length_c   7.31506823
_cell_angle_alpha   101.37128026
_cell_angle_beta   105.40469296
_cell_angle_gamma   100.69316170
_symmetry_Int_Tables_number   1
_chemical_formula_structural   Li4As6SeO4F3
_chemical_formula_sum   'Li4 As6 Se1 O4 F3'
_cell_volume   193.13130249
_cell_formula_units_Z   1
loop_
 _symmetry_equiv_pos_site_id
 _symmetry_equiv_pos_as_xyz
  1  'x, y, z'
loop_
 _atom_site_type_symbol
 _atom_site_label
 _atom_site_symmetry_multiplicity
 _atom_site_fract_x
 _atom_site_fract_y
 _atom_site_fract_z
 _atom_site_occupancy
  Li  Li0  1  0.12500000  0.00000000  0.25000000  1
  Li  Li1  1  0.00000000  0.00000000  0.00000000  1
  Li  Li2  1  0.37500000  0.00000000  0.25000000  1
  Li  Li3  1  0.25000000  0.25000000  0.25000000  1
  F  F4  1  0.00000000  0.25000000  0.12500000  1
  F  F5  1  0.94053767  0.14527422  0.56239955  1
  F  F6  1  0.39957807  0.78636631  0.22170305  1
  Se  Se7  1  0.86035140  0.22499029  0.34632733  1
  As  As8  1  0.69668865  0.46704822  0.24393250  1
  As  As9  1  0.27400381  0.62963307  0.39718850  1
  As  As10  1  0.34639426  0.87325651  0.45198308  1
  As  As11  1  0.15118203  0.23665521  0.38017011  1
  As  As12  1  0.75645578  0.77816753  0.54626969  1
  As  As13  1  0.89292889  0.30679670  0.79569788  1
  O  O14  1  0.84198672  0.03711126  0.41534079  1
  O  O15  1  0.25971724  0.18208648  0.01588707  1
  O  O16  1  0.42101824  0.31925066  0.56441847  1
  O  O17  1  0.49452095  0.45573683  0.67827672  1
