# generated using pymatgen
data_LiCuNiP2
_symmetry_space_group_name_H-M   'P 1'
_cell_length_a   7.26856254
_cell_length_b   7.06118793
_cell_length_c   7.69567968
_cell_angle_alpha   91.64808673
_cell_angle_beta   92.11535972
_cell_angle_gamma   91.61604005
_symmetry_Int_Tables_number   1
_chemical_formula_structural   LiCuNiP2
_chemical_formula_sum   'Li2 Cu2 Ni2 P4'
_cell_volume   394.37656294
_cell_formula_units_Z   2
loop_
 _symmetry_equiv_pos_site_id
 _symmetry_equiv_pos_as_xyz
  1  'x, y, z'
loop_
 _atom_site_type_symbol
 _atom_site_label
 _atom_site_symmetry_multiplicity
 _atom_site_fract_x
 _atom_site_fract_y
 _atom_site_fract_z
 _atom_site_occupancy
  P  P0  1  0.00000000  0.00000000  0.00000000  1
  P  P1  1  0.50000000  0.50000000  0.50000000  1
  P  P2  1  0.50000000  0.50000000  0.00000000  1
  P  P3  1  0.50000000  0.00000000  0.50000000  1
  Li  Li4  1  0.00000000  0.50000000  0.50000000  1
  Li  Li5  1  0.05287963  0.67465030  0.49602714  1
  Cu  Cu6  1  0.63367093  0.67564464  0.45211244  1
  Cu  Cu7  1  0.79021388  0.15258660  0.51738238  1
  Ni  Ni8  1  0.60211802  0.13254468  0.56781506  1
  Ni  Ni9  1  0.94581956  0.32492988  0.96124425  1
