# generated using pymatgen
data_Li2TiAs6(OF)2
_symmetry_space_group_name_H-M   'P 1'
_cell_length_a   6.75936253
_cell_length_b   6.77319378
_cell_length_c   7.31510102
_cell_angle_alpha   95.14753371
_cell_angle_beta   97.45120349
_cell_angle_gamma   95.59172361
_symmetry_Int_Tables_number   1
_chemical_formula_structural   Li2TiAs6(OF)2
_chemical_formula_sum   'Li2 Ti1 As6 O2 F2'
_cell_volume   328.71260657
_cell_formula_units_Z   1
loop_
 _symmetry_equiv_pos_site_id
 _symmetry_equiv_pos_as_xyz
  1  'x, y, z'
loop_
 _atom_site_type_symbol
 _atom_site_label
 _atom_site_symmetry_multiplicity
 _atom_site_fract_x
 _atom_site_fract_y
 _atom_site_fract_z
 _atom_site_occupancy
  Li  Li0  1  0.12500000  0.00000000  0.25000000  1
  Li  Li1  1  0.00000000  0.00000000  0.00000000  1
  F  F2  1  0.37500000  0.00000000  0.25000000  1
  F  F3  1  0.25000000  0.25000000  0.25000000  1
  Ti  Ti4  1  0.00000000  0.25000000  0.12500000  1
  As  As5  1  0.83494472  0.27660627  0.72388725  1
  As  As6  1  0.33625100  0.66064070  0.88270745  1
  As  As7  1  0.38954664  0.59232074  0.88866288  1
  As  As8  1  0.90135014  0.51046901  0.88733097  1
  As  As9  1  0.14110227  0.72543458  0.67051238  1
  As  As10  1  0.04845020  0.36805942  0.26110508  1
  O  O11  1  0.27959416  0.57677108  0.18297901  1
  O  O12  1  0.28331108  0.72553444  0.45243115  1
