# generated using pymatgen
data_Li2MnSb4P3
_symmetry_space_group_name_H-M   'P 1'
_cell_length_a   5.62004173
_cell_length_b   6.05030704
_cell_length_c   6.93435812
_cell_angle_alpha   96.81382358
_cell_angle_beta   93.79347983
_cell_angle_gamma   97.15918550
_symmetry_Int_Tables_number   1
_chemical_formula_structural   Li2MnSb4P3
_chemical_formula_sum   'Li2 Mn1 Sb4 P3'
_cell_volume   231.51272150
_cell_formula_units_Z   1
loop_
 _symmetry_equiv_pos_site_id
 _symmetry_equiv_pos_as_xyz
  1  'x, y, z'
loop_
 _atom_site_type_symbol
 _atom_site_label
 _atom_site_symmetry_multiplicity
 _atom_site_fract_x
 _atom_site_fract_y
 _atom_site_fract_z
 _atom_site_occupancy
  Mn  Mn0  1  0.00000000  0.00000000  0.00000000  1
  Sb  Sb1  1  0.33300000  0.66700000  0.25000000  1
  Sb  Sb2  1  0.66700000  0.33300000  0.50000000  1
  Sb  Sb3  1  0.00000000  0.00000000  0.75000000  1
  Sb  Sb4  1  0.30722796  0.71925261  0.19910614  1
  P  P5  1  0.56572790  0.47840314  0.95345332  1
  P  P6  1  0.65788862  0.45395850  0.89090583  1
  P  P7  1  0.84873303  0.90111222  0.05771522  1
  Li  Li8  1  0.43130537  0.86649902  0.83040176  1
  Li  Li9  1  0.90822957  0.05423919  0.99369841  1
