# generated using pymatgen
data_Li2LuCu2As6F3
_symmetry_space_group_name_H-M   'P 1'
_cell_length_a   7.58780091
_cell_length_b   7.48519000
_cell_length_c   8.22313915
_cell_angle_alpha   90.94348907
_cell_angle_beta   92.05673513
_cell_angle_gamma   91.02759938
_symmetry_Int_Tables_number   1
_chemical_formula_structural   Li2LuCu2As6F3
_chemical_formula_sum   'Li2 Lu1 Cu2 As6 F3'
_cell_volume   466.59812551
_cell_formula_units_Z   1
loop_
 _symmetry_equiv_pos_site_id
 _symmetry_equiv_pos_as_xyz
  1  'x, y, z'
loop_
 _atom_site_type_symbol
 _atom_site_label
 _atom_site_symmetry_multiplicity
 _atom_site_fract_x
 _atom_site_fract_y
 _atom_site_fract_z
 _atom_site_occupancy
  Lu  Lu0  1  0.12500000  0.00000000  0.25000000  1
  Li  Li1  1  0.00000000  0.00000000  0.00000000  1
  Li  Li2  1  0.37500000  0.00000000  0.25000000  1
  Cu  Cu3  1  0.25000000  0.25000000  0.25000000  1
  Cu  Cu4  1  0.00000000  0.25000000  0.12500000  1
  F  F5  1  0.78152019  0.12329155  0.46924508  1
  F  F6  1  0.74477092  0.01287797  0.43220314  1
  F  F7  1  0.74107567  0.63591674  0.33034758  1
  As  As8  1  0.72526043  0.39194819  0.15141597  1
  As  As9  1  0.49807697  0.90269190  0.26442243  1
  As  As10  1  0.98719639  0.32479091  0.00341599  1
  As  As11  1  0.86232026  0.35172664  0.07946329  1
  As  As12  1  0.65973126  0.50078458  0.78283144  1
  As  As13  1  0.62488318  0.49667366  0.20996261  1
