# generated using pymatgen
data_LiTiO3F2
_symmetry_space_group_name_H-M   'P 1'
_cell_length_a   6.97087059
_cell_length_b   6.88374345
_cell_length_c   7.39086877
_cell_angle_alpha   90.93502718
_cell_angle_beta   94.44857537
_cell_angle_gamma   91.06898574
_symmetry_Int_Tables_number   1
_chemical_formula_structural   LiTiO3F2
_chemical_formula_sum   'Li1 Ti1 O3 F2'
_cell_volume   353.46975456
_cell_formula_units_Z   1
loop_
 _symmetry_equiv_pos_site_id
 _symmetry_equiv_pos_as_xyz
  1  'x, y, z'
loop_
 _atom_site_type_symbol
 _atom_site_label
 _atom_site_symmetry_multiplicity
 _atom_site_fract_x
 _atom_site_fract_y
 _atom_site_fract_z
 _atom_site_occupancy
  Li  Li0  1  0.12500000  0.00000000  0.25000000  1
  F  F1  1  0.00000000  0.00000000  0.00000000  1
  F  F2  1  0.37500000  0.00000000  0.25000000  1
  Ti  Ti3  1  0.25000000  0.25000000  0.25000000  1
  O  O4  1  0.00000000  0.25000000  0.12500000  1
  O  O5  1  0.07290099  0.08862231  0.72220258  1
  O  O6  1  0.30911147  0.62872040  0.26070114  1
