# generated using pymatgen
data_Li3TiNi2I4O5
_symmetry_space_group_name_H-M   'P 1'
_cell_length_a   8.13046388
_cell_length_b   7.97493439
_cell_length_c   8.42424497
_cell_angle_alpha   91.07831935
_cell_angle_beta   90.68365093
_cell_angle_gamma   91.24957922
_symmetry_Int_Tables_number   1
_chemical_formula_structural   Li3TiNi2I4O5
_chemical_formula_sum   'Li3 Ti1 Ni2 I4 O5'
_cell_volume   545.95910399
_cell_formula_units_Z   1
loop_
 _symmetry_equiv_pos_site_id
 _symmetry_equiv_pos_as_xyz
  1  'x, y, z'
loop_
 _atom_site_type_symbol
 _atom_site_label
 _atom_site_symmetry_multiplicity
 _atom_site_fract_x
 _atom_site_fract_y
 _atom_site_fract_z
 _atom_site_occupancy
  I  I0  1  0.12500000  0.00000000  0.25000000  1
  I  I1  1  0.00000000  0.00000000  0.00000000  1
  I  I2  1  0.37500000  0.00000000  0.25000000  1
  I  I3  1  0.25000000  0.25000000  0.25000000  1
  Li  Li4  1  0.00000000  0.25000000  0.12500000  1
  Li  Li5  1  0.79252939  0.20773479  0.97878835  1
  Li  Li6  1  0.38136419  0.19679116  0.19639744  1
  Ni  Ni7  1  0.92397323  0.70906986  0.38807738  1
  Ni  Ni8  1  0.16343530  0.93215644  0.93594847  1
  Ti  Ti9  1  0.60907905  0.73392082  0.60911541  1
  O  O10  1  0.91086114  0.63132069  0.50851285  1
  O  O11  1  0.85880204  0.17520251  0.96640031  1
  O  O12  1  0.58223392  0.55352835  0.18861165  1
  O  O13  1  0.38269620  0.00254907  0.06784946  1
  O  O14  1  0.02859750  0.54485363  0.93189858  1
