# generated using pymatgen
data_Li2Mn2Sb4Mo2P3
_symmetry_space_group_name_H-M   'P 1'
_cell_length_a   5.64620395
_cell_length_b   6.05984904
_cell_length_c   6.80048534
_cell_angle_alpha   97.58353882
_cell_angle_beta   92.55366274
_cell_angle_gamma   97.73557464
_symmetry_Int_Tables_number   1
_chemical_formula_structural   Li2Mn2Sb4Mo2P3
_chemical_formula_sum   'Li2 Mn2 Sb4 Mo2 P3'
_cell_volume   228.08508756
_cell_formula_units_Z   1
loop_
 _symmetry_equiv_pos_site_id
 _symmetry_equiv_pos_as_xyz
  1  'x, y, z'
loop_
 _atom_site_type_symbol
 _atom_site_label
 _atom_site_symmetry_multiplicity
 _atom_site_fract_x
 _atom_site_fract_y
 _atom_site_fract_z
 _atom_site_occupancy
  Mn  Mn0  1  0.00000000  0.00000000  0.00000000  1
  Mn  Mn1  1  0.50000000  0.50000000  0.50000000  1
  Sb  Sb2  1  0.25000000  0.25000000  0.25000000  1
  Sb  Sb3  1  0.75000000  0.25000000  0.00000000  1
  Sb  Sb4  1  0.25000000  0.75000000  0.50000000  1
  Sb  Sb5  1  0.68169173  0.40005065  0.18023762  1
  P  P6  1  0.50980753  0.85765667  0.35979354  1
  P  P7  1  0.60786579  0.85789931  0.40952818  1
  P  P8  1  0.39194039  0.33216180  0.01656567  1
  Mo  Mo9  1  0.56682099  0.52553701  0.13232424  1
  Mo  Mo10  1  0.41391342  0.01426448  0.56759750  1
  Li  Li11  1  0.41533942  0.44227516  0.91309775  1
  Li  Li12  1  0.58422841  0.71952131  0.96631439  1
