# generated using pymatgen
data_Li3TiI4N5O4
_symmetry_space_group_name_H-M   'P 1'
_cell_length_a   8.61789208
_cell_length_b   8.45341752
_cell_length_c   7.54132340
_cell_angle_alpha   90.59936640
_cell_angle_beta   90.21190119
_cell_angle_gamma   90.69519246
_symmetry_Int_Tables_number   1
_chemical_formula_structural   Li3TiI4N5O4
_chemical_formula_sum   'Li3 Ti1 I4 N5 O4'
_cell_volume   549.31571731
_cell_formula_units_Z   1
loop_
 _symmetry_equiv_pos_site_id
 _symmetry_equiv_pos_as_xyz
  1  'x, y, z'
loop_
 _atom_site_type_symbol
 _atom_site_label
 _atom_site_symmetry_multiplicity
 _atom_site_fract_x
 _atom_site_fract_y
 _atom_site_fract_z
 _atom_site_occupancy
  I  I0  1  0.00000000  0.00000000  0.00000000  1
  I  I1  1  0.50000000  0.50000000  0.50000000  1
  I  I2  1  0.25000000  0.25000000  0.25000000  1
  I  I3  1  0.75000000  0.25000000  0.00000000  1
  Li  Li4  1  0.25000000  0.75000000  0.50000000  1
  Li  Li5  1  0.04979130  0.29473486  0.46803558  1
  Li  Li6  1  0.58019835  0.59676312  0.41588387  1
  Ti  Ti7  1  0.03268995  0.47678035  0.77803203  1
  O  O8  1  0.93270270  0.18867215  0.37821670  1
  O  O9  1  0.25504929  0.54785144  0.58498186  1
  O  O10  1  0.32411601  0.64611056  0.59400744  1
  O  O11  1  0.46744837  0.72512551  0.22347735  1
  N  N12  1  0.89766501  0.49099870  0.08079784  1
  N  N13  1  0.75302238  0.06989150  0.70327428  1
  N  N14  1  0.94841677  0.49779020  0.30876426  1
  N  N15  1  0.54860790  0.48504077  0.74063722  1
  N  N16  1  0.92260251  0.16453785  0.12853312  1
