# generated using pymatgen
data_Li3LuCu2I4N5
_symmetry_space_group_name_H-M   'P 1'
_cell_length_a   8.21808848
_cell_length_b   8.06719609
_cell_length_c   7.71244222
_cell_angle_alpha   91.54101437
_cell_angle_beta   91.35069234
_cell_angle_gamma   91.62866372
_symmetry_Int_Tables_number   1
_chemical_formula_structural   Li3LuCu2I4N5
_chemical_formula_sum   'Li3 Lu1 Cu2 I4 N5'
_cell_volume   510.76829166
_cell_formula_units_Z   1
loop_
 _symmetry_equiv_pos_site_id
 _symmetry_equiv_pos_as_xyz
  1  'x, y, z'
loop_
 _atom_site_type_symbol
 _atom_site_label
 _atom_site_symmetry_multiplicity
 _atom_site_fract_x
 _atom_site_fract_y
 _atom_site_fract_z
 _atom_site_occupancy
  I  I0  1  0.00000000  0.00000000  0.00000000  1
  I  I1  1  0.50000000  0.50000000  0.50000000  1
  I  I2  1  0.50000000  0.50000000  0.00000000  1
  I  I3  1  0.50000000  0.00000000  0.50000000  1
  Lu  Lu4  1  0.00000000  0.50000000  0.50000000  1
  Li  Li5  1  0.95559306  0.97182172  0.25655634  1
  Li  Li6  1  0.26309343  0.82904021  0.10096844  1
  Li  Li7  1  0.76309558  0.50150266  0.86055577  1
  Cu  Cu8  1  0.21402631  0.27109836  0.52711157  1
  Cu  Cu9  1  0.28509901  0.20464120  0.19160443  1
  N  N10  1  0.24503541  0.14185592  0.52832562  1
  N  N11  1  0.05347012  0.56920466  0.18963401  1
  N  N12  1  0.89125140  0.95112860  0.56784819  1
  N  N13  1  0.19020140  0.33043055  0.27457074  1
  N  N14  1  0.78193602  0.13564292  0.69275675  1
