# generated using pymatgen
data_Li4ZrP8SeCl2
_symmetry_space_group_name_H-M   'P 1'
_cell_length_a   6.45456569
_cell_length_b   6.58109183
_cell_length_c   7.75574299
_cell_angle_alpha   98.73442449
_cell_angle_beta   101.15185399
_cell_angle_gamma   98.21661186
_symmetry_Int_Tables_number   1
_chemical_formula_structural   Li4ZrP8SeCl2
_chemical_formula_sum   'Li4 Zr1 P8 Se1 Cl2'
_cell_volume   314.39752166
_cell_formula_units_Z   1
loop_
 _symmetry_equiv_pos_site_id
 _symmetry_equiv_pos_as_xyz
  1  'x, y, z'
loop_
 _atom_site_type_symbol
 _atom_site_label
 _atom_site_symmetry_multiplicity
 _atom_site_fract_x
 _atom_site_fract_y
 _atom_site_fract_z
 _atom_site_occupancy
  P  P0  1  0.00000000  0.00000000  0.00000000  1
  P  P1  1  0.50000000  0.50000000  0.50000000  1
  P  P2  1  0.25000000  0.25000000  0.25000000  1
  P  P3  1  0.75000000  0.25000000  0.00000000  1
  P  P4  1  0.25000000  0.75000000  0.50000000  1
  P  P5  1  0.05536907  0.05072371  0.26299200  1
  P  P6  1  0.19535945  0.60289487  0.26367650  1
  P  P7  1  0.39109321  0.56887742  0.05313951  1
  Li  Li8  1  0.97465240  0.52975073  0.90192232  1
  Li  Li9  1  0.83727542  0.97048121  0.65402333  1
  Li  Li10  1  0.78368749  0.48342543  0.77774102  1
  Li  Li11  1  0.84989356  0.57090263  0.98107661  1
  Se  Se12  1  0.77632330  0.40353941  0.74008596  1
  Cl  Cl13  1  0.00710135  0.22494633  0.56885766  1
  Cl  Cl14  1  0.16013804  0.57461750  0.52421403  1
  Zr  Zr15  1  0.92813113  0.58245808  0.04929159  1
