# generated using pymatgen
data_Li3TiI4
_symmetry_space_group_name_H-M   'P 1'
_cell_length_a   8.66272929
_cell_length_b   8.50937516
_cell_length_c   7.55914275
_cell_angle_alpha   90.43806778
_cell_angle_beta   90.15487536
_cell_angle_gamma   90.50810560
_symmetry_Int_Tables_number   1
_chemical_formula_structural   Li3TiI4
_chemical_formula_sum   'Li3 Ti1 I4'
_cell_volume   557.17743815
_cell_formula_units_Z   1
loop_
 _symmetry_equiv_pos_site_id
 _symmetry_equiv_pos_as_xyz
  1  'x, y, z'
loop_
 _atom_site_type_symbol
 _atom_site_label
 _atom_site_symmetry_multiplicity
 _atom_site_fract_x
 _atom_site_fract_y
 _atom_site_fract_z
 _atom_site_occupancy
  I  I0  1  0.00000000  0.00000000  0.00000000  1
  I  I1  1  0.50000000  0.50000000  0.50000000  1
  I  I2  1  0.25000000  0.25000000  0.25000000  1
  I  I3  1  0.75000000  0.25000000  0.00000000  1
  Li  Li4  1  0.25000000  0.75000000  0.50000000  1
  Li  Li5  1  0.68700359  0.71882045  0.96601950  1
  Li  Li6  1  0.37822775  0.85266773  0.64436971  1
  Ti  Ti7  1  0.69443472  0.37886727  0.44061770  1
