# generated using pymatgen
data_Li2La3Zr3I5O3
_symmetry_space_group_name_H-M   'P 1'
_cell_length_a   10.68113568
_cell_length_b   10.29283234
_cell_length_c   10.04803133
_cell_angle_alpha   90.00000000
_cell_angle_beta   90.00000000
_cell_angle_gamma   90.00000000
_symmetry_Int_Tables_number   1
_chemical_formula_structural   Li2La3Zr3I5O3
_chemical_formula_sum   'Li2 La3 Zr3 I5 O3'
_cell_volume   1104.67191128
_cell_formula_units_Z   1
loop_
 _symmetry_equiv_pos_site_id
 _symmetry_equiv_pos_as_xyz
  1  'x, y, z'
loop_
 _atom_site_type_symbol
 _atom_site_label
 _atom_site_symmetry_multiplicity
 _atom_site_fract_x
 _atom_site_fract_y
 _atom_site_fract_z
 _atom_site_occupancy
  I  I0  1  0.12500000  0.00000000  0.25000000  1
  I  I1  1  0.00000000  0.00000000  0.00000000  1
  I  I2  1  0.37500000  0.00000000  0.25000000  1
  I  I3  1  0.25000000  0.25000000  0.25000000  1
  I  I4  1  0.00000000  0.25000000  0.12500000  1
  Li  Li5  1  0.25796654  0.39993853  0.02474435  1
  Li  Li6  1  0.53480511  0.44214944  0.24750168  1
  La  La7  1  0.04267363  0.25263676  0.84056753  1
  La  La8  1  0.95069324  0.95684441  0.67489648  1
  La  La9  1  0.75921654  0.55753686  0.38665705  1
  O  O10  1  0.01145996  0.45628393  0.80445821  1
  O  O11  1  0.78832851  0.25382181  0.19735348  1
  O  O12  1  0.13587825  0.09058003  0.29396784  1
  Zr  Zr13  1  0.79274225  0.73075446  0.19839579  1
  Zr  Zr14  1  0.06984973  0.33472966  0.54039209  1
  Zr  Zr15  1  0.01705948  0.83312906  0.94291705  1
