# generated using pymatgen
data_Li2LuCu2(As3P2)2
_symmetry_space_group_name_H-M   'P 1'
_cell_length_a   7.79902511
_cell_length_b   7.58770613
_cell_length_c   8.03764870
_cell_angle_alpha   91.48817577
_cell_angle_beta   91.29677196
_cell_angle_gamma   91.66303006
_symmetry_Int_Tables_number   1
_chemical_formula_structural   Li2LuCu2(As3P2)2
_chemical_formula_sum   'Li2 Lu1 Cu2 As6 P4'
_cell_volume   475.15073668
_cell_formula_units_Z   1
loop_
 _symmetry_equiv_pos_site_id
 _symmetry_equiv_pos_as_xyz
  1  'x, y, z'
loop_
 _atom_site_type_symbol
 _atom_site_label
 _atom_site_symmetry_multiplicity
 _atom_site_fract_x
 _atom_site_fract_y
 _atom_site_fract_z
 _atom_site_occupancy
  P  P0  1  0.00000000  0.00000000  0.00000000  1
  P  P1  1  0.50000000  0.50000000  0.50000000  1
  P  P2  1  0.50000000  0.50000000  0.00000000  1
  P  P3  1  0.50000000  0.00000000  0.50000000  1
  Lu  Lu4  1  0.00000000  0.50000000  0.50000000  1
  Li  Li5  1  0.91950192  0.13245201  0.67718832  1
  Li  Li6  1  0.34763471  0.20077749  0.71917266  1
  Cu  Cu7  1  0.81873578  0.30148048  0.97027804  1
  Cu  Cu8  1  0.30635854  0.43042473  0.37704771  1
  As  As9  1  0.70937010  0.93017503  0.32248606  1
  As  As10  1  0.90560835  0.48104609  0.34860293  1
  As  As11  1  0.76078501  0.59995241  0.88774082  1
  As  As12  1  0.87336846  0.58739434  0.68462990  1
  As  As13  1  0.78351791  0.42825183  0.80200432  1
  As  As14  1  0.95452653  0.02433913  0.20329730  1
