# generated using pymatgen
data_Li2Lu(P3Cl)2
_symmetry_space_group_name_H-M   'P 1'
_cell_length_a   6.86959354
_cell_length_b   6.61349310
_cell_length_c   7.77871160
_cell_angle_alpha   95.74147246
_cell_angle_beta   97.32756663
_cell_angle_gamma   95.52559112
_symmetry_Int_Tables_number   1
_chemical_formula_structural   Li2Lu(P3Cl)2
_chemical_formula_sum   'Li2 Lu1 P6 Cl2'
_cell_volume   346.62211218
_cell_formula_units_Z   1
loop_
 _symmetry_equiv_pos_site_id
 _symmetry_equiv_pos_as_xyz
  1  'x, y, z'
loop_
 _atom_site_type_symbol
 _atom_site_label
 _atom_site_symmetry_multiplicity
 _atom_site_fract_x
 _atom_site_fract_y
 _atom_site_fract_z
 _atom_site_occupancy
  Cl  Cl0  1  0.00000000  0.00000000  0.00000000  1
  Cl  Cl1  1  0.50000000  0.50000000  0.50000000  1
  P  P2  1  0.25000000  0.25000000  0.25000000  1
  P  P3  1  0.75000000  0.25000000  0.00000000  1
  P  P4  1  0.25000000  0.75000000  0.50000000  1
  P  P5  1  0.32244530  0.45424085  0.89597032  1
  P  P6  1  0.34685931  0.10712672  0.44956969  1
  P  P7  1  0.12781941  0.00607621  0.50241494  1
  Lu  Lu8  1  0.26407014  0.66018208  0.63690924  1
  Li  Li9  1  0.10549020  0.22257361  0.07607680  1
  Li  Li10  1  0.34017707  0.38060575  0.93059732  1
