# generated using pymatgen
data_LiCuAs3
_symmetry_space_group_name_H-M   'P 1'
_cell_length_a   7.07914553
_cell_length_b   7.01599960
_cell_length_c   7.56874880
_cell_angle_alpha   90.99442146
_cell_angle_beta   91.66161548
_cell_angle_gamma   90.56173847
_symmetry_Int_Tables_number   1
_chemical_formula_structural   LiCuAs3
_chemical_formula_sum   'Li2 Cu2 As6'
_cell_volume   375.68453863
_cell_formula_units_Z   2
loop_
 _symmetry_equiv_pos_site_id
 _symmetry_equiv_pos_as_xyz
  1  'x, y, z'
loop_
 _atom_site_type_symbol
 _atom_site_label
 _atom_site_symmetry_multiplicity
 _atom_site_fract_x
 _atom_site_fract_y
 _atom_site_fract_z
 _atom_site_occupancy
  Li  Li0  1  0.00000000  0.00000000  0.00000000  1
  Li  Li1  1  0.33300000  0.66700000  0.25000000  1
  Cu  Cu2  1  0.66700000  0.33300000  0.50000000  1
  Cu  Cu3  1  0.00000000  0.00000000  0.75000000  1
  As  As4  1  0.87136410  0.19445816  0.88254434  1
  As  As5  1  0.85865505  0.89523842  0.68632498  1
  As  As6  1  0.94170512  0.90285816  0.61167278  1
  As  As7  1  0.29474423  0.53969998  0.99356107  1
  As  As8  1  0.92853632  0.35092572  0.52840155  1
  As  As9  1  0.30350571  0.89597366  0.34770189  1
