# generated using pymatgen
data_Li4Ni2As6O7
_symmetry_space_group_name_H-M   'P 1'
_cell_length_a   8.31382661
_cell_length_b   8.17082894
_cell_length_c   9.64881384
_cell_angle_alpha   90.00000000
_cell_angle_beta   90.00000000
_cell_angle_gamma   90.00000000
_symmetry_Int_Tables_number   1
_chemical_formula_structural   Li4Ni2As6O7
_chemical_formula_sum   'Li4 Ni2 As6 O7'
_cell_volume   655.45217486
_cell_formula_units_Z   1
loop_
 _symmetry_equiv_pos_site_id
 _symmetry_equiv_pos_as_xyz
  1  'x, y, z'
loop_
 _atom_site_type_symbol
 _atom_site_label
 _atom_site_symmetry_multiplicity
 _atom_site_fract_x
 _atom_site_fract_y
 _atom_site_fract_z
 _atom_site_occupancy
  Li  Li0  1  0.00000000  0.00000000  0.00000000  1
  Li  Li1  1  0.33300000  0.66700000  0.25000000  1
  Li  Li2  1  0.66700000  0.33300000  0.50000000  1
  Li  Li3  1  0.00000000  0.00000000  0.75000000  1
  Ni  Ni4  1  0.20698854  0.33056764  0.10760983  1
  Ni  Ni5  1  0.81250930  0.47350769  0.71829614  1
  As  As6  1  0.23646586  0.37395997  0.74646760  1
  As  As7  1  0.07292387  0.56655184  0.51854299  1
  As  As8  1  0.38555482  0.69291119  0.33438885  1
  As  As9  1  0.20487112  0.12328064  0.20757382  1
  As  As10  1  0.01138089  0.69907042  0.57290300  1
  As  As11  1  0.34689045  0.60843512  0.20661627  1
  O  O12  1  0.10321068  0.69173582  0.19174352  1
  O  O13  1  0.41570877  0.50931885  0.05313584  1
  O  O14  1  0.08052368  0.69547254  0.89205527  1
  O  O15  1  0.44890153  0.50121194  0.25598232  1
  O  O16  1  0.84877314  0.58134419  0.21969125  1
  O  O17  1  0.92722151  0.62766595  0.49035096  1
  O  O18  1  0.62044764  0.36694074  0.03582717  1
