# generated using pymatgen
data_Li2Lu(NiAs3)2
_symmetry_space_group_name_H-M   'P 1'
_cell_length_a   7.49439870
_cell_length_b   7.28470880
_cell_length_c   8.17066458
_cell_angle_alpha   91.75600150
_cell_angle_beta   91.58713867
_cell_angle_gamma   91.95256377
_symmetry_Int_Tables_number   1
_chemical_formula_structural   Li2Lu(NiAs3)2
_chemical_formula_sum   'Li2 Lu1 Ni2 As6'
_cell_volume   445.42061172
_cell_formula_units_Z   1
loop_
 _symmetry_equiv_pos_site_id
 _symmetry_equiv_pos_as_xyz
  1  'x, y, z'
loop_
 _atom_site_type_symbol
 _atom_site_label
 _atom_site_symmetry_multiplicity
 _atom_site_fract_x
 _atom_site_fract_y
 _atom_site_fract_z
 _atom_site_occupancy
  Lu  Lu0  1  0.12500000  0.00000000  0.25000000  1
  Li  Li1  1  0.00000000  0.00000000  0.00000000  1
  Li  Li2  1  0.37500000  0.00000000  0.25000000  1
  Ni  Ni3  1  0.25000000  0.25000000  0.25000000  1
  Ni  Ni4  1  0.00000000  0.25000000  0.12500000  1
  As  As5  1  0.34995399  0.25911773  0.03014829  1
  As  As6  1  0.68976541  0.98454288  0.03101319  1
  As  As7  1  0.78574429  0.01929717  0.34849390  1
  As  As8  1  0.05989458  0.69812374  0.16042952  1
  As  As9  1  0.88478949  0.79488227  0.42377472  1
  As  As10  1  0.07389195  0.78054887  0.90785428  1
