# generated using pymatgen
data_LiCuP3F
_symmetry_space_group_name_H-M   'P 1'
_cell_length_a   8.22763324
_cell_length_b   8.18389514
_cell_length_c   7.85197183
_cell_angle_alpha   90.22721411
_cell_angle_beta   91.08101574
_cell_angle_gamma   90.25976640
_symmetry_Int_Tables_number   1
_chemical_formula_structural   LiCuP3F
_chemical_formula_sum   'Li2 Cu2 P6 F2'
_cell_volume   528.60148781
_cell_formula_units_Z   2
loop_
 _symmetry_equiv_pos_site_id
 _symmetry_equiv_pos_as_xyz
  1  'x, y, z'
loop_
 _atom_site_type_symbol
 _atom_site_label
 _atom_site_symmetry_multiplicity
 _atom_site_fract_x
 _atom_site_fract_y
 _atom_site_fract_z
 _atom_site_occupancy
  F  F0  1  0.00000000  0.00000000  0.00000000  1
  F  F1  1  0.50000000  0.50000000  0.50000000  1
  P  P2  1  0.50000000  0.50000000  0.00000000  1
  P  P3  1  0.50000000  0.00000000  0.50000000  1
  P  P4  1  0.00000000  0.50000000  0.50000000  1
  P  P5  1  0.27625867  0.81387113  0.13016849  1
  P  P6  1  0.13685454  0.14317226  0.94983120  1
  P  P7  1  0.08927334  0.24189590  0.36512515  1
  Li  Li8  1  0.10351595  0.44538097  0.58789790  1
  Li  Li9  1  0.81130467  0.34017658  0.07123687  1
  Cu  Cu10  1  0.48362888  0.48833960  0.46262575  1
  Cu  Cu11  1  0.82130379  0.79299739  0.96890563  1
