# generated using pymatgen
data_Li4TiTe6(SI2)2
_symmetry_space_group_name_H-M   'P 1'
_cell_length_a   6.79299147
_cell_length_b   7.01452955
_cell_length_c   7.88211051
_cell_angle_alpha   95.44778447
_cell_angle_beta   95.97094347
_cell_angle_gamma   94.90085969
_symmetry_Int_Tables_number   1
_chemical_formula_structural   Li4TiTe6(SI2)2
_chemical_formula_sum   'Li4 Ti1 Te6 S2 I4'
_cell_volume   370.12798030
_cell_formula_units_Z   1
loop_
 _symmetry_equiv_pos_site_id
 _symmetry_equiv_pos_as_xyz
  1  'x, y, z'
loop_
 _atom_site_type_symbol
 _atom_site_label
 _atom_site_symmetry_multiplicity
 _atom_site_fract_x
 _atom_site_fract_y
 _atom_site_fract_z
 _atom_site_occupancy
  I  I0  1  0.00000000  0.00000000  0.00000000  1
  I  I1  1  0.50000000  0.50000000  0.50000000  1
  I  I2  1  0.25000000  0.25000000  0.25000000  1
  I  I3  1  0.75000000  0.25000000  0.00000000  1
  Li  Li4  1  0.25000000  0.75000000  0.50000000  1
  Li  Li5  1  0.19767903  0.30418192  0.85220313  1
  Li  Li6  1  0.06600948  0.25996857  0.03418615  1
  Li  Li7  1  0.89849896  0.99993501  0.75826425  1
  S  S8  1  0.52957567  0.50059919  0.67203032  1
  S  S9  1  0.61851883  0.72609429  0.21909868  1
  Ti  Ti10  1  0.13817306  0.08757474  0.21276317  1
  Te  Te11  1  0.69977454  0.58399297  0.18704916  1
  Te  Te12  1  0.56007729  0.33942923  0.11175504  1
  Te  Te13  1  0.68216891  0.82113310  0.50338221  1
  Te  Te14  1  0.38433250  0.57526089  0.17561386  1
  Te  Te15  1  0.05263700  0.52552822  0.90815537  1
  Te  Te16  1  0.95445010  0.01414561  0.23984713  1
