# generated using pymatgen
data_LiTiS3(I2F)2
_symmetry_space_group_name_H-M   'P 1'
_cell_length_a   6.41099828
_cell_length_b   6.42229386
_cell_length_c   7.18046940
_cell_angle_alpha   93.45871141
_cell_angle_beta   97.07388287
_cell_angle_gamma   94.19741373
_symmetry_Int_Tables_number   1
_chemical_formula_structural   LiTiS3(I2F)2
_chemical_formula_sum   'Li1 Ti1 S3 I4 F2'
_cell_volume   291.88734051
_cell_formula_units_Z   1
loop_
 _symmetry_equiv_pos_site_id
 _symmetry_equiv_pos_as_xyz
  1  'x, y, z'
loop_
 _atom_site_type_symbol
 _atom_site_label
 _atom_site_symmetry_multiplicity
 _atom_site_fract_x
 _atom_site_fract_y
 _atom_site_fract_z
 _atom_site_occupancy
  I  I0  1  0.12500000  0.00000000  0.25000000  1
  I  I1  1  0.00000000  0.00000000  0.00000000  1
  I  I2  1  0.37500000  0.00000000  0.25000000  1
  I  I3  1  0.25000000  0.25000000  0.25000000  1
  Li  Li4  1  0.00000000  0.25000000  0.12500000  1
  F  F5  1  0.15310898  0.94782891  0.59992389  1
  F  F6  1  0.43943155  0.75459260  0.95196740  1
  S  S7  1  0.67644383  0.87009226  0.15691338  1
  S  S8  1  0.80095748  0.37823914  0.72863256  1
  S  S9  1  0.91155499  0.17156566  0.94227386  1
  Ti  Ti10  1  0.43884641  0.72962957  0.76703393  1
