# generated using pymatgen
data_Li2LuCu2P4N5
_symmetry_space_group_name_H-M   'P 1'
_cell_length_a   7.12097672
_cell_length_b   7.04408940
_cell_length_c   8.09695077
_cell_angle_alpha   94.81047987
_cell_angle_beta   95.27377736
_cell_angle_gamma   94.79769233
_symmetry_Int_Tables_number   1
_chemical_formula_structural   Li2LuCu2P4N5
_chemical_formula_sum   'Li2 Lu1 Cu2 P4 N5'
_cell_volume   401.29431180
_cell_formula_units_Z   1
loop_
 _symmetry_equiv_pos_site_id
 _symmetry_equiv_pos_as_xyz
  1  'x, y, z'
loop_
 _atom_site_type_symbol
 _atom_site_label
 _atom_site_symmetry_multiplicity
 _atom_site_fract_x
 _atom_site_fract_y
 _atom_site_fract_z
 _atom_site_occupancy
  P  P0  1  0.12500000  0.00000000  0.25000000  1
  P  P1  1  0.00000000  0.00000000  0.00000000  1
  P  P2  1  0.37500000  0.00000000  0.25000000  1
  P  P3  1  0.25000000  0.25000000  0.25000000  1
  Lu  Lu4  1  0.00000000  0.25000000  0.12500000  1
  Li  Li5  1  0.47220722  0.69800303  0.20734985  1
  Li  Li6  1  0.24739366  0.98491094  0.47046283  1
  Cu  Cu7  1  0.82701667  0.22175168  0.14443031  1
  Cu  Cu8  1  0.76019863  0.64707362  0.15910708  1
  N  N9  1  0.19398668  0.82105377  0.62936275  1
  N  N10  1  0.68296482  0.35500875  0.20987007  1
  N  N11  1  0.48678598  0.29554710  0.04434511  1
  N  N12  1  0.35688414  0.57819312  0.63615512  1
  N  N13  1  0.76359588  0.17801620  0.19564003  1
