# generated using pymatgen
data_Li2Cu2As6O7F3
_symmetry_space_group_name_H-M   'P 1'
_cell_length_a   7.68843262
_cell_length_b   7.75921877
_cell_length_c   8.74232065
_cell_angle_alpha   90.36039349
_cell_angle_beta   91.82913818
_cell_angle_gamma   90.40813822
_symmetry_Int_Tables_number   1
_chemical_formula_structural   Li2Cu2As6O7F3
_chemical_formula_sum   'Li2 Cu2 As6 O7 F3'
_cell_volume   521.24384644
_cell_formula_units_Z   1
loop_
 _symmetry_equiv_pos_site_id
 _symmetry_equiv_pos_as_xyz
  1  'x, y, z'
loop_
 _atom_site_type_symbol
 _atom_site_label
 _atom_site_symmetry_multiplicity
 _atom_site_fract_x
 _atom_site_fract_y
 _atom_site_fract_z
 _atom_site_occupancy
  F  F0  1  0.00000000  0.00000000  0.00000000  1
  F  F1  1  0.50000000  0.50000000  0.50000000  1
  F  F2  1  0.50000000  0.50000000  0.00000000  1
  O  O3  1  0.50000000  0.00000000  0.50000000  1
  O  O4  1  0.00000000  0.50000000  0.50000000  1
  O  O5  1  0.60784249  0.06175646  0.53822453  1
  O  O6  1  0.80843149  0.73787215  0.64594219  1
  O  O7  1  0.34108389  0.06401561  0.34015035  1
  O  O8  1  0.26450210  0.48547754  0.40825319  1
  O  O9  1  0.84930037  0.86708564  0.21704265  1
  As  As10  1  0.09295064  0.47937346  0.24322800  1
  As  As11  1  0.29781802  0.96735645  0.72435394  1
  As  As12  1  0.38605943  0.46893712  0.79178440  1
  As  As13  1  0.02007227  0.48149357  0.36155124  1
  As  As14  1  0.32519242  0.09737694  0.81989375  1
  As  As15  1  0.21607654  0.38915912  0.57933336  1
  Li  Li16  1  0.05352335  0.32045794  0.10028907  1
  Li  Li17  1  0.44077053  0.59370257  0.34301611  1
  Cu  Cu18  1  0.92073369  0.96351911  0.17117355  1
  Cu  Cu19  1  0.49475848  0.45779662  0.58888023  1
