# generated using pymatgen
data_Li3P7Cl2
_symmetry_space_group_name_H-M   'P 1'
_cell_length_a   6.28479369
_cell_length_b   5.98389042
_cell_length_c   7.80649234
_cell_angle_alpha   99.48983627
_cell_angle_beta   101.44906620
_cell_angle_gamma   99.12088645
_symmetry_Int_Tables_number   1
_chemical_formula_structural   Li3P7Cl2
_chemical_formula_sum   'Li3 P7 Cl2'
_cell_volume   278.19391014
_cell_formula_units_Z   1
loop_
 _symmetry_equiv_pos_site_id
 _symmetry_equiv_pos_as_xyz
  1  'x, y, z'
loop_
 _atom_site_type_symbol
 _atom_site_label
 _atom_site_symmetry_multiplicity
 _atom_site_fract_x
 _atom_site_fract_y
 _atom_site_fract_z
 _atom_site_occupancy
  Cl  Cl0  1  0.00000000  0.00000000  0.00000000  1
  Cl  Cl1  1  0.50000000  0.50000000  0.50000000  1
  P  P2  1  0.25000000  0.25000000  0.25000000  1
  P  P3  1  0.75000000  0.25000000  0.00000000  1
  P  P4  1  0.25000000  0.75000000  0.50000000  1
  P  P5  1  0.87969605  0.32720137  0.60133381  1
  P  P6  1  0.64404344  0.36663132  0.62043572  1
  P  P7  1  0.97114065  0.22882799  0.36853255  1
  P  P8  1  0.56170403  0.50497388  0.37658837  1
  Li  Li9  1  0.06924318  0.97094248  0.98587993  1
  Li  Li10  1  0.78981441  0.36694236  0.08056724  1
  Li  Li11  1  0.97662532  0.23278776  0.31444449  1
