# generated using pymatgen
data_Li2TiCu2(OF)2
_symmetry_space_group_name_H-M   'P 1'
_cell_length_a   6.52340564
_cell_length_b   6.57221980
_cell_length_c   7.06378216
_cell_angle_alpha   95.11914934
_cell_angle_beta   97.58703182
_cell_angle_gamma   96.28721028
_symmetry_Int_Tables_number   1
_chemical_formula_structural   Li2TiCu2(OF)2
_chemical_formula_sum   'Li2 Ti1 Cu2 O2 F2'
_cell_volume   296.73364590
_cell_formula_units_Z   1
loop_
 _symmetry_equiv_pos_site_id
 _symmetry_equiv_pos_as_xyz
  1  'x, y, z'
loop_
 _atom_site_type_symbol
 _atom_site_label
 _atom_site_symmetry_multiplicity
 _atom_site_fract_x
 _atom_site_fract_y
 _atom_site_fract_z
 _atom_site_occupancy
  Li  Li0  1  0.00000000  0.00000000  0.00000000  1
  Li  Li1  1  0.50000000  0.50000000  0.50000000  1
  Cu  Cu2  1  0.25000000  0.25000000  0.25000000  1
  Cu  Cu3  1  0.75000000  0.25000000  0.00000000  1
  F  F4  1  0.25000000  0.75000000  0.50000000  1
  F  F5  1  0.82103358  0.69719082  0.51929917  1
  Ti  Ti6  1  0.37762670  0.72780139  0.89270602  1
  O  O7  1  0.28550992  0.55773355  0.25268994  1
  O  O8  1  0.24988418  0.77128924  0.69554010  1
