# generated using pymatgen
data_Li4Cu2As6P8O3
_symmetry_space_group_name_H-M   'P 1'
_cell_length_a   7.25131557
_cell_length_b   7.23753372
_cell_length_c   8.37921355
_cell_angle_alpha   93.64287295
_cell_angle_beta   95.71595055
_cell_angle_gamma   93.45036724
_symmetry_Int_Tables_number   1
_chemical_formula_structural   Li4Cu2As6P8O3
_chemical_formula_sum   'Li4 Cu2 As6 P8 O3'
_cell_volume   435.70359692
_cell_formula_units_Z   1
loop_
 _symmetry_equiv_pos_site_id
 _symmetry_equiv_pos_as_xyz
  1  'x, y, z'
loop_
 _atom_site_type_symbol
 _atom_site_label
 _atom_site_symmetry_multiplicity
 _atom_site_fract_x
 _atom_site_fract_y
 _atom_site_fract_z
 _atom_site_occupancy
  P  P0  1  0.00000000  0.00000000  0.00000000  1
  P  P1  1  0.50000000  0.50000000  0.50000000  1
  P  P2  1  0.50000000  0.50000000  0.00000000  1
  P  P3  1  0.50000000  0.00000000  0.50000000  1
  P  P4  1  0.00000000  0.50000000  0.50000000  1
  P  P5  1  0.06498425  0.15653613  0.92000306  1
  P  P6  1  0.46106457  0.59922274  0.79875942  1
  P  P7  1  0.86926264  0.34039034  0.86791140  1
  Li  Li8  1  0.13985244  0.39265051  0.04626733  1
  Li  Li9  1  0.65229074  0.96865872  0.45126889  1
  Li  Li10  1  0.06459678  0.63693004  0.22091218  1
  Li  Li11  1  0.41208996  0.27222239  0.99349599  1
  Cu  Cu12  1  0.03271695  0.27960187  0.08967858  1
  Cu  Cu13  1  0.77540511  0.80878792  0.35217886  1
  As  As14  1  0.89990237  0.38830440  0.21930997  1
  As  As15  1  0.58634399  0.36633069  0.14838902  1
  As  As16  1  0.59173411  0.20706944  0.43649147  1
  As  As17  1  0.66007228  0.08321464  0.65513799  1
  As  As18  1  0.27053948  0.82577541  0.42434818  1
  As  As19  1  0.62224372  0.92825347  0.09184112  1
  O  O20  1  0.41667648  0.78342359  0.60296056  1
  O  O21  1  0.63415656  0.90950310  0.73091657  1
  O  O22  1  0.88643213  0.74367655  0.15135670  1
