# generated using pymatgen
data_Li3TiO5
_symmetry_space_group_name_H-M   'P 1'
_cell_length_a   8.37368214
_cell_length_b   8.19203606
_cell_length_c   7.92530142
_cell_angle_alpha   90.98878029
_cell_angle_beta   90.43146523
_cell_angle_gamma   91.14655656
_symmetry_Int_Tables_number   1
_chemical_formula_structural   Li3TiO5
_chemical_formula_sum   'Li3 Ti1 O5'
_cell_volume   543.44925845
_cell_formula_units_Z   1
loop_
 _symmetry_equiv_pos_site_id
 _symmetry_equiv_pos_as_xyz
  1  'x, y, z'
loop_
 _atom_site_type_symbol
 _atom_site_label
 _atom_site_symmetry_multiplicity
 _atom_site_fract_x
 _atom_site_fract_y
 _atom_site_fract_z
 _atom_site_occupancy
  Li  Li0  1  0.12500000  0.12500000  0.12500000  1
  Li  Li1  1  0.50000000  0.50000000  0.50000000  1
  Li  Li2  1  0.25000000  0.25000000  0.25000000  1
  Ti  Ti3  1  0.75000000  0.75000000  0.75000000  1
  O  O4  1  0.33661337  0.31404357  0.57727503  1
  O  O5  1  0.00466836  0.07008568  0.07027327  1
  O  O6  1  0.01706592  0.22592550  0.25339832  1
  O  O7  1  0.38624560  0.39467590  0.99637184  1
  O  O8  1  0.01797052  0.75841847  0.11380170  1
