# generated using pymatgen
data_Li2Cu2S2(OF)3
_symmetry_space_group_name_H-M   'P 1'
_cell_length_a   6.51762688
_cell_length_b   6.40602647
_cell_length_c   7.80506165
_cell_angle_alpha   92.96175417
_cell_angle_beta   95.17025985
_cell_angle_gamma   92.79244769
_symmetry_Int_Tables_number   1
_chemical_formula_structural   Li2Cu2S2(OF)3
_chemical_formula_sum   'Li2 Cu2 S2 O3 F3'
_cell_volume   323.65118262
_cell_formula_units_Z   1
loop_
 _symmetry_equiv_pos_site_id
 _symmetry_equiv_pos_as_xyz
  1  'x, y, z'
loop_
 _atom_site_type_symbol
 _atom_site_label
 _atom_site_symmetry_multiplicity
 _atom_site_fract_x
 _atom_site_fract_y
 _atom_site_fract_z
 _atom_site_occupancy
  O  O0  1  0.00000000  0.00000000  0.00000000  1
  O  O1  1  0.50000000  0.50000000  0.50000000  1
  O  O2  1  0.25000000  0.25000000  0.25000000  1
  Li  Li3  1  0.75000000  0.25000000  0.00000000  1
  Li  Li4  1  0.25000000  0.75000000  0.50000000  1
  Cu  Cu5  1  0.48430444  0.22847199  0.57244302  1
  Cu  Cu6  1  0.39709457  0.82693191  0.48266282  1
  F  F7  1  0.40473006  0.53410516  0.59644345  1
  F  F8  1  0.59381803  0.54035863  0.50081675  1
  F  F9  1  0.10521304  0.08471273  0.15266679  1
  S  S10  1  0.21634076  0.94935344  0.40021708  1
  S  S11  1  0.52050002  0.15311027  0.56234510  1
