# generated using pymatgen
data_LiTiCu2(SF)2
_symmetry_space_group_name_H-M   'P 1'
_cell_length_a   5.75682233
_cell_length_b   5.70917717
_cell_length_c   7.04371071
_cell_angle_alpha   93.90773566
_cell_angle_beta   98.60407026
_cell_angle_gamma   94.47815393
_symmetry_Int_Tables_number   1
_chemical_formula_structural   LiTiCu2(SF)2
_chemical_formula_sum   'Li1 Ti1 Cu2 S2 F2'
_cell_volume   227.44987519
_cell_formula_units_Z   1
loop_
 _symmetry_equiv_pos_site_id
 _symmetry_equiv_pos_as_xyz
  1  'x, y, z'
loop_
 _atom_site_type_symbol
 _atom_site_label
 _atom_site_symmetry_multiplicity
 _atom_site_fract_x
 _atom_site_fract_y
 _atom_site_fract_z
 _atom_site_occupancy
  Li  Li0  1  0.00000000  0.00000000  0.00000000  1
  Cu  Cu1  1  0.50000000  0.50000000  0.50000000  1
  Cu  Cu2  1  0.50000000  0.50000000  0.00000000  1
  F  F3  1  0.50000000  0.00000000  0.50000000  1
  F  F4  1  0.00000000  0.50000000  0.50000000  1
  S  S5  1  0.16315509  0.68684912  0.03858055  1
  S  S6  1  0.52762578  0.17184033  0.01502901  1
  Ti  Ti7  1  0.70132514  0.48234497  0.82175223  1
