# generated using pymatgen
data_Li3TiI4Cl2O3
_symmetry_space_group_name_H-M   'P 1'
_cell_length_a   7.60463972
_cell_length_b   7.38022933
_cell_length_c   7.28152032
_cell_angle_alpha   92.90139063
_cell_angle_beta   94.46283597
_cell_angle_gamma   92.77351623
_symmetry_Int_Tables_number   1
_chemical_formula_structural   Li3TiI4Cl2O3
_chemical_formula_sum   'Li3 Ti1 I4 Cl2 O3'
_cell_volume   406.34429718
_cell_formula_units_Z   1
loop_
 _symmetry_equiv_pos_site_id
 _symmetry_equiv_pos_as_xyz
  1  'x, y, z'
loop_
 _atom_site_type_symbol
 _atom_site_label
 _atom_site_symmetry_multiplicity
 _atom_site_fract_x
 _atom_site_fract_y
 _atom_site_fract_z
 _atom_site_occupancy
  I  I0  1  0.12500000  0.00000000  0.25000000  1
  I  I1  1  0.00000000  0.00000000  0.00000000  1
  I  I2  1  0.37500000  0.00000000  0.25000000  1
  I  I3  1  0.25000000  0.25000000  0.25000000  1
  Li  Li4  1  0.00000000  0.25000000  0.12500000  1
  Li  Li5  1  0.32104310  0.35166268  0.72856880  1
  Li  Li6  1  0.48656839  0.49362064  0.47201667  1
  Cl  Cl7  1  0.39832475  0.94585296  0.43884103  1
  Cl  Cl8  1  0.99003782  0.56698226  0.50280409  1
  Ti  Ti9  1  0.21919667  0.09106244  0.04858581  1
  O  O10  1  0.20385867  0.57070152  0.95014891  1
  O  O11  1  0.63991471  0.27932580  0.72172131  1
  O  O12  1  0.29124538  0.28040436  0.87134794  1
