# generated using pymatgen
data_Li2Mn2Mo2P3
_symmetry_space_group_name_H-M   'P 1'
_cell_length_a   4.01368487
_cell_length_b   4.19101079
_cell_length_c   6.10795719
_cell_angle_alpha   104.36630379
_cell_angle_beta   94.19854291
_cell_angle_gamma   104.56531358
_symmetry_Int_Tables_number   1
_chemical_formula_structural   Li2Mn2Mo2P3
_chemical_formula_sum   'Li2 Mn2 Mo2 P3'
_cell_volume   95.31973603
_cell_formula_units_Z   1
loop_
 _symmetry_equiv_pos_site_id
 _symmetry_equiv_pos_as_xyz
  1  'x, y, z'
loop_
 _atom_site_type_symbol
 _atom_site_label
 _atom_site_symmetry_multiplicity
 _atom_site_fract_x
 _atom_site_fract_y
 _atom_site_fract_z
 _atom_site_occupancy
  Mn  Mn0  1  0.00000000  0.00000000  0.00000000  1
  Mn  Mn1  1  0.50000000  0.50000000  0.50000000  1
  P  P2  1  0.25000000  0.25000000  0.25000000  1
  P  P3  1  0.75000000  0.25000000  0.00000000  1
  P  P4  1  0.25000000  0.75000000  0.50000000  1
  Mo  Mo5  1  0.41449846  0.40396612  0.14999378  1
  Mo  Mo6  1  0.98750327  0.90896151  0.90916099  1
  Li  Li7  1  0.14862680  0.01330165  0.27542685  1
  Li  Li8  1  0.30013287  0.57666781  0.13035815  1
