# generated using pymatgen
data_Li2Zn2Cu2As6F3
_symmetry_space_group_name_H-M   'P 1'
_cell_length_a   8.06424843
_cell_length_b   8.31620287
_cell_length_c   7.87827079
_cell_angle_alpha   90.22598976
_cell_angle_beta   91.31397123
_cell_angle_gamma   90.25025866
_symmetry_Int_Tables_number   1
_chemical_formula_structural   Li2Zn2Cu2As6F3
_chemical_formula_sum   'Li2 Zn2 Cu2 As6 F3'
_cell_volume   528.19947798
_cell_formula_units_Z   1
loop_
 _symmetry_equiv_pos_site_id
 _symmetry_equiv_pos_as_xyz
  1  'x, y, z'
loop_
 _atom_site_type_symbol
 _atom_site_label
 _atom_site_symmetry_multiplicity
 _atom_site_fract_x
 _atom_site_fract_y
 _atom_site_fract_z
 _atom_site_occupancy
  Li  Li0  1  0.12500000  0.00000000  0.25000000  1
  Li  Li1  1  0.00000000  0.00000000  0.00000000  1
  Cu  Cu2  1  0.37500000  0.00000000  0.25000000  1
  Cu  Cu3  1  0.25000000  0.25000000  0.25000000  1
  Zn  Zn4  1  0.00000000  0.25000000  0.12500000  1
  Zn  Zn5  1  0.79581950  0.72108988  0.18391911  1
  F  F6  1  0.62585396  0.02666839  0.59602525  1
  F  F7  1  0.81863010  0.70607175  0.08414653  1
  F  F8  1  0.23094612  0.86301929  0.10777663  1
  As  As9  1  0.35461038  0.44389597  0.86213472  1
  As  As10  1  0.50234378  0.43484644  0.09573981  1
  As  As11  1  0.68033151  0.22726369  0.98138163  1
  As  As12  1  0.57838921  0.12135395  0.49569527  1
  As  As13  1  0.26265142  0.65098637  0.82207274  1
  As  As14  1  0.09921188  0.39291948  0.43074801  1
