# generated using pymatgen
data_Li2TiP5I4
_symmetry_space_group_name_H-M   'P 1'
_cell_length_a   7.31341809
_cell_length_b   6.95677444
_cell_length_c   7.52962215
_cell_angle_alpha   92.32541687
_cell_angle_beta   93.29663997
_cell_angle_gamma   92.32705479
_symmetry_Int_Tables_number   1
_chemical_formula_structural   Li2TiP5I4
_chemical_formula_sum   'Li2 Ti1 P5 I4'
_cell_volume   381.78754367
_cell_formula_units_Z   1
loop_
 _symmetry_equiv_pos_site_id
 _symmetry_equiv_pos_as_xyz
  1  'x, y, z'
loop_
 _atom_site_type_symbol
 _atom_site_label
 _atom_site_symmetry_multiplicity
 _atom_site_fract_x
 _atom_site_fract_y
 _atom_site_fract_z
 _atom_site_occupancy
  I  I0  1  0.00000000  0.00000000  0.00000000  1
  I  I1  1  0.50000000  0.50000000  0.50000000  1
  I  I2  1  0.25000000  0.25000000  0.25000000  1
  I  I3  1  0.75000000  0.25000000  0.00000000  1
  P  P4  1  0.25000000  0.75000000  0.50000000  1
  P  P5  1  0.24984665  0.89434816  0.27730565  1
  P  P6  1  0.90081234  0.99013859  0.05970337  1
  P  P7  1  0.51469473  0.11441195  0.02950091  1
  P  P8  1  0.57437836  0.92321280  0.15600038  1
  Li  Li9  1  0.45363826  0.80929132  0.21571090  1
  Li  Li10  1  0.72328478  0.46504883  0.88475521  1
  Ti  Ti11  1  0.01922889  0.68470788  0.45413317  1
