# generated using pymatgen
data_Li3TiAs6(IO)4
_symmetry_space_group_name_H-M   'P 1'
_cell_length_a   8.58149248
_cell_length_b   8.44788075
_cell_length_c   7.68866807
_cell_angle_alpha   90.42672813
_cell_angle_beta   90.27054424
_cell_angle_gamma   90.49450156
_symmetry_Int_Tables_number   1
_chemical_formula_structural   Li3TiAs6(IO)4
_chemical_formula_sum   'Li3 Ti1 As6 I4 O4'
_cell_volume   557.35065777
_cell_formula_units_Z   1
loop_
 _symmetry_equiv_pos_site_id
 _symmetry_equiv_pos_as_xyz
  1  'x, y, z'
loop_
 _atom_site_type_symbol
 _atom_site_label
 _atom_site_symmetry_multiplicity
 _atom_site_fract_x
 _atom_site_fract_y
 _atom_site_fract_z
 _atom_site_occupancy
  I  I0  1  0.00000000  0.00000000  0.00000000  1
  I  I1  1  0.50000000  0.50000000  0.50000000  1
  I  I2  1  0.25000000  0.25000000  0.25000000  1
  I  I3  1  0.75000000  0.25000000  0.00000000  1
  Li  Li4  1  0.25000000  0.75000000  0.50000000  1
  Li  Li5  1  0.99641522  0.41648031  0.78879874  1
  Li  Li6  1  0.81022065  0.72477876  0.64662541  1
  Ti  Ti7  1  0.56850177  0.54435491  0.04110824  1
  As  As8  1  0.24856949  0.92387562  0.13843197  1
  As  As9  1  0.11657329  0.36909825  0.06667627  1
  As  As10  1  0.39017161  0.49985301  0.44054887  1
  As  As11  1  0.67872776  0.85444473  0.71768238  1
  As  As12  1  0.33629532  0.96580852  0.81231351  1
  As  As13  1  0.25488508  0.55329080  0.70847275  1
  O  O14  1  0.10155721  0.65948483  0.21790508  1
  O  O15  1  0.35936807  0.02952563  0.85410282  1
  O  O16  1  0.51892963  0.64098017  0.13476740  1
  O  O17  1  0.45852332  0.86644948  0.90799252  1
