# generated using pymatgen
data_Li2Lu(CuP2)2
_symmetry_space_group_name_H-M   'P 1'
_cell_length_a   6.83760800
_cell_length_b   6.87673259
_cell_length_c   7.53350705
_cell_angle_alpha   94.21048767
_cell_angle_beta   95.61165411
_cell_angle_gamma   93.75943206
_symmetry_Int_Tables_number   1
_chemical_formula_structural   Li2Lu(CuP2)2
_chemical_formula_sum   'Li2 Lu1 Cu2 P4'
_cell_volume   350.63379553
_cell_formula_units_Z   1
loop_
 _symmetry_equiv_pos_site_id
 _symmetry_equiv_pos_as_xyz
  1  'x, y, z'
loop_
 _atom_site_type_symbol
 _atom_site_label
 _atom_site_symmetry_multiplicity
 _atom_site_fract_x
 _atom_site_fract_y
 _atom_site_fract_z
 _atom_site_occupancy
  P  P0  1  0.12500000  0.12500000  0.12500000  1
  P  P1  1  0.50000000  0.50000000  0.50000000  1
  P  P2  1  0.25000000  0.25000000  0.25000000  1
  P  P3  1  0.75000000  0.75000000  0.75000000  1
  Lu  Lu4  1  0.13529277  0.61427920  0.28485888  1
  Li  Li5  1  0.31358995  0.96597422  0.22661224  1
  Li  Li6  1  0.32771822  0.93667313  0.54789506  1
  Cu  Cu7  1  0.91635288  0.03589990  0.79950219  1
  Cu  Cu8  1  0.32583076  0.96359326  0.40288759  1
