# generated using pymatgen
data_Li3LuCu2(NiP2)2
_symmetry_space_group_name_H-M   'P 1'
_cell_length_a   7.54132301
_cell_length_b   7.31396420
_cell_length_c   8.03571032
_cell_angle_alpha   91.74478326
_cell_angle_beta   91.48073858
_cell_angle_gamma   92.02047890
_symmetry_Int_Tables_number   1
_chemical_formula_structural   Li3LuCu2(NiP2)2
_chemical_formula_sum   'Li3 Lu1 Cu2 Ni2 P4'
_cell_volume   442.58374482
_cell_formula_units_Z   1
loop_
 _symmetry_equiv_pos_site_id
 _symmetry_equiv_pos_as_xyz
  1  'x, y, z'
loop_
 _atom_site_type_symbol
 _atom_site_label
 _atom_site_symmetry_multiplicity
 _atom_site_fract_x
 _atom_site_fract_y
 _atom_site_fract_z
 _atom_site_occupancy
  P  P0  1  0.12500000  0.00000000  0.25000000  1
  P  P1  1  0.00000000  0.00000000  0.00000000  1
  P  P2  1  0.37500000  0.00000000  0.25000000  1
  P  P3  1  0.25000000  0.25000000  0.25000000  1
  Lu  Lu4  1  0.00000000  0.25000000  0.12500000  1
  Li  Li5  1  0.28810577  0.33489579  0.22762368  1
  Li  Li6  1  0.92635985  0.21980243  0.00534065  1
  Li  Li7  1  0.02699350  0.11240426  0.72632322  1
  Cu  Cu8  1  0.93972614  0.45583425  0.31913888  1
  Cu  Cu9  1  0.22150418  0.13823007  0.10784701  1
  Ni  Ni10  1  0.26546166  0.50757914  0.55579195  1
  Ni  Ni11  1  0.14228301  0.83848168  0.82692571  1
