# generated using pymatgen
data_Li2TiNi2I4O3
_symmetry_space_group_name_H-M   'P 1'
_cell_length_a   8.17206522
_cell_length_b   8.01781975
_cell_length_c   8.01866358
_cell_angle_alpha   90.73972071
_cell_angle_beta   90.86082475
_cell_angle_gamma   90.85572599
_symmetry_Int_Tables_number   1
_chemical_formula_structural   Li2TiNi2I4O3
_chemical_formula_sum   'Li2 Ti1 Ni2 I4 O3'
_cell_volume   525.23682503
_cell_formula_units_Z   1
loop_
 _symmetry_equiv_pos_site_id
 _symmetry_equiv_pos_as_xyz
  1  'x, y, z'
loop_
 _atom_site_type_symbol
 _atom_site_label
 _atom_site_symmetry_multiplicity
 _atom_site_fract_x
 _atom_site_fract_y
 _atom_site_fract_z
 _atom_site_occupancy
  I  I0  1  0.00000000  0.00000000  0.00000000  1
  I  I1  1  0.50000000  0.50000000  0.50000000  1
  I  I2  1  0.25000000  0.25000000  0.25000000  1
  I  I3  1  0.75000000  0.25000000  0.00000000  1
  Li  Li4  1  0.25000000  0.75000000  0.50000000  1
  Li  Li5  1  0.72433187  0.78057128  0.84989186  1
  Ni  Ni6  1  0.19600791  0.10117380  0.14754443  1
  Ni  Ni7  1  0.99476559  0.61890693  0.31767661  1
  Ti  Ti8  1  0.01204873  0.67439673  0.51724035  1
  O  O9  1  0.72821114  0.87530449  0.50330553  1
  O  O10  1  0.87431040  0.72533247  0.97541193  1
  O  O11  1  0.98729162  0.14778175  0.73677880  1
