# generated using pymatgen
data_Li3Cu2P5N5O4
_symmetry_space_group_name_H-M   'P 1'
_cell_length_a   7.98128074
_cell_length_b   7.81912561
_cell_length_c   7.96042280
_cell_angle_alpha   92.05152293
_cell_angle_beta   91.79815086
_cell_angle_gamma   92.16820883
_symmetry_Int_Tables_number   1
_chemical_formula_structural   Li3Cu2P5N5O4
_chemical_formula_sum   'Li3 Cu2 P5 N5 O4'
_cell_volume   495.84278781
_cell_formula_units_Z   1
loop_
 _symmetry_equiv_pos_site_id
 _symmetry_equiv_pos_as_xyz
  1  'x, y, z'
loop_
 _atom_site_type_symbol
 _atom_site_label
 _atom_site_symmetry_multiplicity
 _atom_site_fract_x
 _atom_site_fract_y
 _atom_site_fract_z
 _atom_site_occupancy
  P  P0  1  0.00000000  0.00000000  0.00000000  1
  P  P1  1  0.50000000  0.50000000  0.50000000  1
  P  P2  1  0.25000000  0.25000000  0.25000000  1
  P  P3  1  0.75000000  0.25000000  0.00000000  1
  P  P4  1  0.25000000  0.75000000  0.50000000  1
  Li  Li5  1  0.87560907  0.34666298  0.20898091  1
  Li  Li6  1  0.24907259  0.56836452  0.13756505  1
  Li  Li7  1  0.33873976  0.56481435  0.30367054  1
  Cu  Cu8  1  0.47010034  0.68869661  0.38061590  1
  Cu  Cu9  1  0.28333940  0.73669985  0.16148763  1
  O  O10  1  0.91030331  0.75649245  0.32762992  1
  O  O11  1  0.83285428  0.22503248  0.60457636  1
  O  O12  1  0.29998061  0.48657439  0.67450513  1
  O  O13  1  0.20220176  0.02660498  0.08028037  1
  N  N14  1  0.83149818  0.51754673  0.92787342  1
  N  N15  1  0.48543947  0.83290334  0.85460300  1
  N  N16  1  0.95628373  0.68393560  0.30483269  1
  N  N17  1  0.66350086  0.96238476  0.54836536  1
  N  N18  1  0.39773583  0.57098406  0.31389220  1
