# generated using pymatgen
data_LiLa3Nb2I5O2
_symmetry_space_group_name_H-M   'P 1'
_cell_length_a   10.61177705
_cell_length_b   9.98389982
_cell_length_c   10.79816836
_cell_angle_alpha   90.00000000
_cell_angle_beta   90.00000000
_cell_angle_gamma   90.00000000
_symmetry_Int_Tables_number   1
_chemical_formula_structural   LiLa3Nb2I5O2
_chemical_formula_sum   'Li1 La3 Nb2 I5 O2'
_cell_volume   1144.03266792
_cell_formula_units_Z   1
loop_
 _symmetry_equiv_pos_site_id
 _symmetry_equiv_pos_as_xyz
  1  'x, y, z'
loop_
 _atom_site_type_symbol
 _atom_site_label
 _atom_site_symmetry_multiplicity
 _atom_site_fract_x
 _atom_site_fract_y
 _atom_site_fract_z
 _atom_site_occupancy
  I  I0  1  0.00000000  0.00000000  0.00000000  1
  I  I1  1  0.50000000  0.50000000  0.50000000  1
  I  I2  1  0.25000000  0.25000000  0.25000000  1
  I  I3  1  0.75000000  0.25000000  0.00000000  1
  I  I4  1  0.25000000  0.75000000  0.50000000  1
  Li  Li5  1  0.33151138  0.40607502  0.65546065  1
  Nb  Nb6  1  0.56817667  0.60628675  0.19218125  1
  Nb  Nb7  1  0.22424617  0.90419703  0.23677338  1
  La  La8  1  0.80872238  0.07256067  0.81407585  1
  La  La9  1  0.11455617  0.88908521  0.90818915  1
  La  La10  1  0.74334338  0.62347103  0.12464367  1
  O  O11  1  0.85494660  0.83329287  0.35810483  1
  O  O12  1  0.74415909  0.79571608  0.80248413  1
