# generated using pymatgen
data_Li3Lu(NiAs3)2
_symmetry_space_group_name_H-M   'P 1'
_cell_length_a   7.70083802
_cell_length_b   7.51447071
_cell_length_c   8.81381061
_cell_angle_alpha   91.65641668
_cell_angle_beta   91.13651884
_cell_angle_gamma   91.91916488
_symmetry_Int_Tables_number   1
_chemical_formula_structural   Li3Lu(NiAs3)2
_chemical_formula_sum   'Li3 Lu1 Ni2 As6'
_cell_volume   509.42556036
_cell_formula_units_Z   1
loop_
 _symmetry_equiv_pos_site_id
 _symmetry_equiv_pos_as_xyz
  1  'x, y, z'
loop_
 _atom_site_type_symbol
 _atom_site_label
 _atom_site_symmetry_multiplicity
 _atom_site_fract_x
 _atom_site_fract_y
 _atom_site_fract_z
 _atom_site_occupancy
  Lu  Lu0  1  0.12500000  0.00000000  0.25000000  1
  Li  Li1  1  0.00000000  0.00000000  0.00000000  1
  Li  Li2  1  0.37500000  0.00000000  0.25000000  1
  Li  Li3  1  0.25000000  0.25000000  0.25000000  1
  Ni  Ni4  1  0.00000000  0.25000000  0.12500000  1
  Ni  Ni5  1  0.40060580  0.34351599  0.34843317  1
  As  As6  1  0.38061435  0.76394804  0.64358392  1
  As  As7  1  0.05044264  0.04971543  0.74800851  1
  As  As8  1  0.37983876  0.75810126  0.21638031  1
  As  As9  1  0.14183007  0.42751247  0.24250114  1
  As  As10  1  0.92785742  0.35981337  0.46055717  1
  As  As11  1  0.37606359  0.49990850  0.76003834  1
