# generated using pymatgen
data_Li2TiP4N5
_symmetry_space_group_name_H-M   'P 1'
_cell_length_a   7.63529146
_cell_length_b   7.49894207
_cell_length_c   7.96080979
_cell_angle_alpha   93.52552581
_cell_angle_beta   93.37043736
_cell_angle_gamma   93.60610989
_symmetry_Int_Tables_number   1
_chemical_formula_structural   Li2TiP4N5
_chemical_formula_sum   'Li2 Ti1 P4 N5'
_cell_volume   453.14641555
_cell_formula_units_Z   1
loop_
 _symmetry_equiv_pos_site_id
 _symmetry_equiv_pos_as_xyz
  1  'x, y, z'
loop_
 _atom_site_type_symbol
 _atom_site_label
 _atom_site_symmetry_multiplicity
 _atom_site_fract_x
 _atom_site_fract_y
 _atom_site_fract_z
 _atom_site_occupancy
  Ti  Ti0  1  0.00000000  0.00000000  0.00000000  1
  P  P1  1  0.50000000  0.50000000  0.50000000  1
  P  P2  1  0.25000000  0.25000000  0.25000000  1
  P  P3  1  0.75000000  0.25000000  0.00000000  1
  P  P4  1  0.25000000  0.75000000  0.50000000  1
  Li  Li5  1  0.84186614  0.99231614  0.66670156  1
  Li  Li6  1  0.61024056  0.47477008  0.06647454  1
  N  N7  1  0.65437041  0.04405654  0.92264096  1
  N  N8  1  0.75592192  0.16137844  0.47190563  1
  N  N9  1  0.81351814  0.47940539  0.86702782  1
  N  N10  1  0.96230224  0.34587290  0.86916192  1
  N  N11  1  0.30594345  0.26365524  0.48445636  1
