# generated using pymatgen
data_Li3LuCu2P5I4
_symmetry_space_group_name_H-M   'P 1'
_cell_length_a   7.89634657
_cell_length_b   7.73000419
_cell_length_c   7.95932465
_cell_angle_alpha   92.29362736
_cell_angle_beta   92.01035433
_cell_angle_gamma   92.42408360
_symmetry_Int_Tables_number   1
_chemical_formula_structural   Li3LuCu2P5I4
_chemical_formula_sum   'Li3 Lu1 Cu2 P5 I4'
_cell_volume   484.67479654
_cell_formula_units_Z   1
loop_
 _symmetry_equiv_pos_site_id
 _symmetry_equiv_pos_as_xyz
  1  'x, y, z'
loop_
 _atom_site_type_symbol
 _atom_site_label
 _atom_site_symmetry_multiplicity
 _atom_site_fract_x
 _atom_site_fract_y
 _atom_site_fract_z
 _atom_site_occupancy
  P  P0  1  0.00000000  0.00000000  0.00000000  1
  P  P1  1  0.50000000  0.50000000  0.50000000  1
  P  P2  1  0.50000000  0.50000000  0.00000000  1
  P  P3  1  0.50000000  0.00000000  0.50000000  1
  P  P4  1  0.00000000  0.50000000  0.50000000  1
  I  I5  1  0.73544453  0.19025326  0.74640969  1
  I  I6  1  0.83877034  0.09317375  0.54628145  1
  I  I7  1  0.00338348  0.84467118  0.20744503  1
  I  I8  1  0.72416038  0.02368049  0.80237987  1
  Lu  Lu9  1  0.63490990  0.57788498  0.67593241  1
  Li  Li10  1  0.20525684  0.95293247  0.43662725  1
  Li  Li11  1  0.89075702  0.62234385  0.46494537  1
  Li  Li12  1  0.93220320  0.63950534  0.46205782  1
  Cu  Cu13  1  0.62279510  0.42957121  0.64579562  1
  Cu  Cu14  1  0.46216451  0.10358845  0.47080349  1
