# generated using pymatgen
data_LiP3Cl
_symmetry_space_group_name_H-M   'P 1'
_cell_length_a   6.25462858
_cell_length_b   5.93956290
_cell_length_c   7.59600792
_cell_angle_alpha   98.99156580
_cell_angle_beta   101.26095060
_cell_angle_gamma   98.56906336
_symmetry_Int_Tables_number   1
_chemical_formula_structural   LiP3Cl
_chemical_formula_sum   'Li2 P6 Cl2'
_cell_volume   268.62102768
_cell_formula_units_Z   2
loop_
 _symmetry_equiv_pos_site_id
 _symmetry_equiv_pos_as_xyz
  1  'x, y, z'
loop_
 _atom_site_type_symbol
 _atom_site_label
 _atom_site_symmetry_multiplicity
 _atom_site_fract_x
 _atom_site_fract_y
 _atom_site_fract_z
 _atom_site_occupancy
  Cl  Cl0  1  0.00000000  0.00000000  0.00000000  1
  Cl  Cl1  1  0.50000000  0.50000000  0.50000000  1
  P  P2  1  0.50000000  0.50000000  0.00000000  1
  P  P3  1  0.50000000  0.00000000  0.50000000  1
  P  P4  1  0.00000000  0.50000000  0.50000000  1
  P  P5  1  0.39832749  0.09009873  0.67019435  1
  P  P6  1  0.97624593  0.15050692  0.36452364  1
  P  P7  1  0.69498861  0.86938700  0.96101319  1
  Li  Li8  1  0.83468664  0.61189344  0.25136594  1
  Li  Li9  1  0.73170429  0.64730784  0.73417294  1
