# generated using pymatgen
data_Li3Ti2(CuAs3)2
_symmetry_space_group_name_H-M   'P 1'
_cell_length_a   5.87066918
_cell_length_b   5.79413654
_cell_length_c   7.80360920
_cell_angle_alpha   95.97466159
_cell_angle_beta   97.65066911
_cell_angle_gamma   95.44818951
_symmetry_Int_Tables_number   1
_chemical_formula_structural   Li3Ti2(CuAs3)2
_chemical_formula_sum   'Li3 Ti2 Cu2 As6'
_cell_volume   260.05254210
_cell_formula_units_Z   1
loop_
 _symmetry_equiv_pos_site_id
 _symmetry_equiv_pos_as_xyz
  1  'x, y, z'
loop_
 _atom_site_type_symbol
 _atom_site_label
 _atom_site_symmetry_multiplicity
 _atom_site_fract_x
 _atom_site_fract_y
 _atom_site_fract_z
 _atom_site_occupancy
  Ti  Ti0  1  0.00000000  0.00000000  0.00000000  1
  Ti  Ti1  1  0.33300000  0.66700000  0.25000000  1
  As  As2  1  0.66700000  0.33300000  0.50000000  1
  As  As3  1  0.00000000  0.00000000  0.75000000  1
  As  As4  1  0.76748646  0.07537960  0.22063788  1
  As  As5  1  0.24044192  0.94952147  0.11797642  1
  As  As6  1  0.73245759  0.65213515  0.52999574  1
  As  As7  1  0.97124273  0.43085006  0.77845487  1
  Li  Li8  1  0.96667848  0.85916350  0.76344148  1
  Li  Li9  1  0.37116777  0.88666650  0.87541971  1
  Li  Li10  1  0.14654684  0.43308019  0.48582233  1
  Cu  Cu11  1  0.59341868  0.27333414  0.36249129  1
  Cu  Cu12  1  0.86775899  0.28732232  0.88597113  1
