# generated using pymatgen
data_Li2TiCu2P5O2
_symmetry_space_group_name_H-M   'P 1'
_cell_length_a   6.37343200
_cell_length_b   6.11178202
_cell_length_c   7.04167788
_cell_angle_alpha   94.31177932
_cell_angle_beta   96.84294635
_cell_angle_gamma   94.66970717
_symmetry_Int_Tables_number   1
_chemical_formula_structural   Li2TiCu2P5O2
_chemical_formula_sum   'Li2 Ti1 Cu2 P5 O2'
_cell_volume   270.43627925
_cell_formula_units_Z   1
loop_
 _symmetry_equiv_pos_site_id
 _symmetry_equiv_pos_as_xyz
  1  'x, y, z'
loop_
 _atom_site_type_symbol
 _atom_site_label
 _atom_site_symmetry_multiplicity
 _atom_site_fract_x
 _atom_site_fract_y
 _atom_site_fract_z
 _atom_site_occupancy
  P  P0  1  0.00000000  0.00000000  0.00000000  1
  P  P1  1  0.50000000  0.50000000  0.50000000  1
  P  P2  1  0.25000000  0.25000000  0.25000000  1
  P  P3  1  0.75000000  0.25000000  0.00000000  1
  P  P4  1  0.25000000  0.75000000  0.50000000  1
  Li  Li5  1  0.85833759  0.62078182  0.40438076  1
  Li  Li6  1  0.80079839  0.14605108  0.74424723  1
  Cu  Cu7  1  0.08972697  0.19681246  0.24247081  1
  Cu  Cu8  1  0.26545003  0.54490860  0.49551432  1
  Ti  Ti9  1  0.91842731  0.61425671  0.06966490  1
  O  O10  1  0.28083812  0.29525349  0.81438016  1
  O  O11  1  0.02835245  0.11678294  0.66548365  1
