# generated using pymatgen
data_LiZnCuTe3I2
_symmetry_space_group_name_H-M   'P 1'
_cell_length_a   8.04861455
_cell_length_b   8.29354686
_cell_length_c   7.89710664
_cell_angle_alpha   90.23265689
_cell_angle_beta   91.35273590
_cell_angle_gamma   90.25764177
_symmetry_Int_Tables_number   1
_chemical_formula_structural   LiZnCuTe3I2
_chemical_formula_sum   'Li2 Zn2 Cu2 Te6 I4'
_cell_volume   526.98738400
_cell_formula_units_Z   2
loop_
 _symmetry_equiv_pos_site_id
 _symmetry_equiv_pos_as_xyz
  1  'x, y, z'
loop_
 _atom_site_type_symbol
 _atom_site_label
 _atom_site_symmetry_multiplicity
 _atom_site_fract_x
 _atom_site_fract_y
 _atom_site_fract_z
 _atom_site_occupancy
  I  I0  1  0.12500000  0.00000000  0.25000000  1
  I  I1  1  0.00000000  0.00000000  0.00000000  1
  I  I2  1  0.37500000  0.00000000  0.25000000  1
  I  I3  1  0.25000000  0.25000000  0.25000000  1
  Li  Li4  1  0.00000000  0.25000000  0.12500000  1
  Li  Li5  1  0.33561367  0.27969967  0.74080355  1
  Cu  Cu6  1  0.71589963  0.13096236  0.14006062  1
  Cu  Cu7  1  0.34273903  0.73970963  0.97879542  1
  Zn  Zn8  1  0.34192944  0.77436221  0.76050944  1
  Zn  Zn9  1  0.64768901  0.30344218  0.49644976  1
  Te  Te10  1  0.62466632  0.93722627  0.57327086  1
  Te  Te11  1  0.26627212  0.48006409  0.98774444  1
  Te  Te12  1  0.36319225  0.25392355  0.33743196  1
  Te  Te13  1  0.16288783  0.99259088  0.88491656  1
  Te  Te14  1  0.36195204  0.70716907  0.70022850  1
  Te  Te15  1  0.77374742  0.67606297  0.11561656  1
