# generated using pymatgen
data_Li3P8I4(ClO2)2
_symmetry_space_group_name_H-M   'P 1'
_cell_length_a   7.07447018
_cell_length_b   6.81461297
_cell_length_c   7.35049052
_cell_angle_alpha   97.41238414
_cell_angle_beta   99.46391210
_cell_angle_gamma   96.97294750
_symmetry_Int_Tables_number   1
_chemical_formula_structural   Li3P8I4(ClO2)2
_chemical_formula_sum   'Li3 P8 I4 Cl2 O4'
_cell_volume   342.91739776
_cell_formula_units_Z   1
loop_
 _symmetry_equiv_pos_site_id
 _symmetry_equiv_pos_as_xyz
  1  'x, y, z'
loop_
 _atom_site_type_symbol
 _atom_site_label
 _atom_site_symmetry_multiplicity
 _atom_site_fract_x
 _atom_site_fract_y
 _atom_site_fract_z
 _atom_site_occupancy
  Cl  Cl0  1  0.00000000  0.00000000  0.00000000  1
  Cl  Cl1  1  0.50000000  0.50000000  0.50000000  1
  O  O2  1  0.50000000  0.50000000  0.00000000  1
  O  O3  1  0.50000000  0.00000000  0.50000000  1
  O  O4  1  0.00000000  0.50000000  0.50000000  1
  O  O5  1  0.34745710  0.02325193  0.80334938  1
  P  P6  1  0.12669737  0.30056111  0.47770731  1
  P  P7  1  0.83654937  0.35503151  0.82408365  1
  P  P8  1  0.33240793  0.65458551  0.14146996  1
  P  P9  1  0.40746233  0.27420105  0.17178532  1
  P  P10  1  0.24595366  0.91192065  0.48068469  1
  P  P11  1  0.80701423  0.36338732  0.69605557  1
  P  P12  1  0.00037814  0.01391447  0.31427477  1
  P  P13  1  0.28098160  0.55795567  0.37644470  1
  I  I14  1  0.48083842  0.91631282  0.04406864  1
  I  I15  1  0.73739891  0.52826479  0.48133984  1
  I  I16  1  0.90147677  0.22110553  0.75853259  1
  I  I17  1  0.65536859  0.82663557  0.09349459  1
  Li  Li18  1  0.59859017  0.87839510  0.71699758  1
  Li  Li19  1  0.23804959  0.40083039  0.09124417  1
  Li  Li20  1  0.57257072  0.76759523  0.63694655  1
