# generated using pymatgen
data_Li2LuNi2(As3P2)2
_symmetry_space_group_name_H-M   'P 1'
_cell_length_a   7.53901215
_cell_length_b   7.33079968
_cell_length_c   8.26604770
_cell_angle_alpha   91.73625124
_cell_angle_beta   91.48913936
_cell_angle_gamma   91.95705742
_symmetry_Int_Tables_number   1
_chemical_formula_structural   Li2LuNi2(As3P2)2
_chemical_formula_sum   'Li2 Lu1 Ni2 As6 P4'
_cell_volume   456.19647148
_cell_formula_units_Z   1
loop_
 _symmetry_equiv_pos_site_id
 _symmetry_equiv_pos_as_xyz
  1  'x, y, z'
loop_
 _atom_site_type_symbol
 _atom_site_label
 _atom_site_symmetry_multiplicity
 _atom_site_fract_x
 _atom_site_fract_y
 _atom_site_fract_z
 _atom_site_occupancy
  P  P0  1  0.00000000  0.00000000  0.00000000  1
  P  P1  1  0.50000000  0.50000000  0.50000000  1
  P  P2  1  0.25000000  0.25000000  0.25000000  1
  P  P3  1  0.75000000  0.25000000  0.00000000  1
  Lu  Lu4  1  0.25000000  0.75000000  0.50000000  1
  Li  Li5  1  0.98031288  0.63174320  0.12340092  1
  Li  Li6  1  0.25545832  0.98549232  0.60861477  1
  Ni  Ni7  1  0.13259874  0.17823571  0.71777985  1
  Ni  Ni8  1  0.58740044  0.38280126  0.78091319  1
  As  As9  1  0.55522349  0.95847652  0.13394650  1
  As  As10  1  0.89993797  0.06747288  0.30519270  1
  As  As11  1  0.36571172  0.84223779  0.87174810  1
  As  As12  1  0.47446374  0.57965426  0.63203349  1
  As  As13  1  0.04356304  0.89600206  0.27396308  1
  As  As14  1  0.32761396  0.07698998  0.23722954  1
