# generated using pymatgen
data_Li2Cu2I4(OF)3
_symmetry_space_group_name_H-M   'P 1'
_cell_length_a   6.79363146
_cell_length_b   6.68278504
_cell_length_c   7.75773434
_cell_angle_alpha   94.96179509
_cell_angle_beta   97.62970667
_cell_angle_gamma   94.70357376
_symmetry_Int_Tables_number   1
_chemical_formula_structural   Li2Cu2I4(OF)3
_chemical_formula_sum   'Li2 Cu2 I4 O3 F3'
_cell_volume   346.21568571
_cell_formula_units_Z   1
loop_
 _symmetry_equiv_pos_site_id
 _symmetry_equiv_pos_as_xyz
  1  'x, y, z'
loop_
 _atom_site_type_symbol
 _atom_site_label
 _atom_site_symmetry_multiplicity
 _atom_site_fract_x
 _atom_site_fract_y
 _atom_site_fract_z
 _atom_site_occupancy
  I  I0  1  0.00000000  0.00000000  0.00000000  1
  I  I1  1  0.50000000  0.50000000  0.50000000  1
  I  I2  1  0.25000000  0.25000000  0.25000000  1
  I  I3  1  0.75000000  0.25000000  0.00000000  1
  Li  Li4  1  0.25000000  0.75000000  0.50000000  1
  Li  Li5  1  0.64440767  0.27988967  0.54669610  1
  Cu  Cu6  1  0.22401645  0.71063119  0.93535162  1
  Cu  Cu7  1  0.97031190  0.08659503  0.47220103  1
  F  F8  1  0.53368289  0.29872689  0.13363774  1
  F  F9  1  0.95235896  0.18496808  0.50372464  1
  F  F10  1  0.32552772  0.54475140  0.97494839  1
  O  O11  1  0.35843365  0.22221284  0.62425166  1
  O  O12  1  0.90738457  0.79006443  0.51726378  1
  O  O13  1  0.11113646  0.24067462  0.79446693  1
