# generated using pymatgen
data_LiTi2(As2S)3
_symmetry_space_group_name_H-M   'P 1'
_cell_length_a   6.28400753
_cell_length_b   6.34234348
_cell_length_c   7.63070687
_cell_angle_alpha   91.29366574
_cell_angle_beta   96.15486870
_cell_angle_gamma   91.47900538
_symmetry_Int_Tables_number   1
_chemical_formula_structural   LiTi2(As2S)3
_chemical_formula_sum   'Li1 Ti2 As6 S3'
_cell_volume   302.17229255
_cell_formula_units_Z   1
loop_
 _symmetry_equiv_pos_site_id
 _symmetry_equiv_pos_as_xyz
  1  'x, y, z'
loop_
 _atom_site_type_symbol
 _atom_site_label
 _atom_site_symmetry_multiplicity
 _atom_site_fract_x
 _atom_site_fract_y
 _atom_site_fract_z
 _atom_site_occupancy
  S  S0  1  0.12500000  0.12500000  0.12500000  1
  S  S1  1  0.50000000  0.50000000  0.50000000  1
  S  S2  1  0.25000000  0.25000000  0.25000000  1
  Ti  Ti3  1  0.75000000  0.75000000  0.75000000  1
  Ti  Ti4  1  0.49116479  0.02481070  0.38558963  1
  As  As5  1  0.94862354  0.39671719  0.56325012  1
  As  As6  1  0.19579405  0.49881637  0.22481975  1
  As  As7  1  0.02943523  0.16801553  0.54708084  1
  As  As8  1  0.59704632  0.51308975  0.94949598  1
  As  As9  1  0.03464116  0.21508366  0.69102882  1
  As  As10  1  0.28463944  0.48846847  0.70012062  1
  Li  Li11  1  0.26940053  0.26836006  0.95615908  1
