# generated using pymatgen
data_Li2Cu2I4(OF)3
_symmetry_space_group_name_H-M   'P 1'
_cell_length_a   6.64464853
_cell_length_b   6.59188330
_cell_length_c   7.59788063
_cell_angle_alpha   95.71322354
_cell_angle_beta   98.30630172
_cell_angle_gamma   95.41394511
_symmetry_Int_Tables_number   1
_chemical_formula_structural   Li2Cu2I4(OF)3
_chemical_formula_sum   'Li2 Cu2 I4 O3 F3'
_cell_volume   325.66190006
_cell_formula_units_Z   1
loop_
 _symmetry_equiv_pos_site_id
 _symmetry_equiv_pos_as_xyz
  1  'x, y, z'
loop_
 _atom_site_type_symbol
 _atom_site_label
 _atom_site_symmetry_multiplicity
 _atom_site_fract_x
 _atom_site_fract_y
 _atom_site_fract_z
 _atom_site_occupancy
  F  F0  1  0.12500000  0.00000000  0.25000000  1
  F  F1  1  0.00000000  0.00000000  0.00000000  1
  F  F2  1  0.37500000  0.00000000  0.25000000  1
  I  I3  1  0.25000000  0.25000000  0.25000000  1
  I  I4  1  0.00000000  0.25000000  0.12500000  1
  I  I5  1  0.89016560  0.30544150  0.39711364  1
  I  I6  1  0.99325726  0.37968371  0.93386988  1
  O  O7  1  0.89791451  0.22654804  0.76316101  1
  O  O8  1  0.69553403  0.76947332  0.08421129  1
  O  O9  1  0.44145876  0.32711048  0.82130514  1
  Li  Li10  1  0.97625027  0.05681559  0.57223063  1
  Li  Li11  1  0.33450421  0.89219305  0.45882735  1
  Cu  Cu12  1  0.77415303  0.45641567  0.49886582  1
  Cu  Cu13  1  0.90031814  0.21360280  0.58922562  1
