# generated using pymatgen
data_Li3TiI4(OF)3
_symmetry_space_group_name_H-M   'P 1'
_cell_length_a   6.00187425
_cell_length_b   5.75718984
_cell_length_c   6.95003627
_cell_angle_alpha   99.77332677
_cell_angle_beta   102.96936700
_cell_angle_gamma   99.18794529
_symmetry_Int_Tables_number   1
_chemical_formula_structural   Li3TiI4(OF)3
_chemical_formula_sum   'Li3 Ti1 I4 O3 F3'
_cell_volume   225.68501794
_cell_formula_units_Z   1
loop_
 _symmetry_equiv_pos_site_id
 _symmetry_equiv_pos_as_xyz
  1  'x, y, z'
loop_
 _atom_site_type_symbol
 _atom_site_label
 _atom_site_symmetry_multiplicity
 _atom_site_fract_x
 _atom_site_fract_y
 _atom_site_fract_z
 _atom_site_occupancy
  I  I0  1  0.12500000  0.00000000  0.25000000  1
  I  I1  1  0.00000000  0.00000000  0.00000000  1
  I  I2  1  0.37500000  0.00000000  0.25000000  1
  I  I3  1  0.25000000  0.25000000  0.25000000  1
  Li  Li4  1  0.00000000  0.25000000  0.12500000  1
  Li  Li5  1  0.78998628  0.86518045  0.09424403  1
  Li  Li6  1  0.19409152  0.96914934  0.48279941  1
  F  F7  1  0.99880447  0.37522978  0.91343256  1
  F  F8  1  0.19192754  0.48765415  0.33035021  1
  F  F9  1  0.39808486  0.95353206  0.17091103  1
  Ti  Ti10  1  0.85011964  0.78150110  0.21702982  1
  O  O11  1  0.07935074  0.93320148  0.34448979  1
  O  O12  1  0.91243269  0.51543664  0.08992569  1
  O  O13  1  0.99592711  0.21864695  0.51030471  1
