# generated using pymatgen
data_Li2LuCu2(NiAs3)2
_symmetry_space_group_name_H-M   'P 1'
_cell_length_a   7.51997035
_cell_length_b   7.42368784
_cell_length_c   8.15897329
_cell_angle_alpha   91.35280210
_cell_angle_beta   91.73525609
_cell_angle_gamma   91.56434548
_symmetry_Int_Tables_number   1
_chemical_formula_structural   Li2LuCu2(NiAs3)2
_chemical_formula_sum   'Li2 Lu1 Cu2 Ni2 As6'
_cell_volume   454.96745578
_cell_formula_units_Z   1
loop_
 _symmetry_equiv_pos_site_id
 _symmetry_equiv_pos_as_xyz
  1  'x, y, z'
loop_
 _atom_site_type_symbol
 _atom_site_label
 _atom_site_symmetry_multiplicity
 _atom_site_fract_x
 _atom_site_fract_y
 _atom_site_fract_z
 _atom_site_occupancy
  Ni  Ni0  1  0.00000000  0.00000000  0.00000000  1
  Ni  Ni1  1  0.50000000  0.50000000  0.50000000  1
  Lu  Lu2  1  0.50000000  0.50000000  0.00000000  1
  As  As3  1  0.50000000  0.00000000  0.50000000  1
  As  As4  1  0.00000000  0.50000000  0.50000000  1
  As  As5  1  0.91603080  0.36254957  0.05584574  1
  As  As6  1  0.93414038  0.53829115  0.31244466  1
  As  As7  1  0.34656056  0.72988485  0.87042026  1
  As  As8  1  0.72670424  0.19858120  0.51641973  1
  Li  Li9  1  0.02412650  0.44858657  0.59406426  1
  Li  Li10  1  0.09374193  0.57743590  0.08988857  1
  Cu  Cu11  1  0.25783729  0.57048198  0.35241862  1
  Cu  Cu12  1  0.83453381  0.42759895  0.64169684  1
