# generated using pymatgen
data_LiCuP2
_symmetry_space_group_name_H-M   'P 1'
_cell_length_a   6.76792827
_cell_length_b   6.65439600
_cell_length_c   7.92339699
_cell_angle_alpha   94.12072747
_cell_angle_beta   94.86916031
_cell_angle_gamma   93.90898195
_symmetry_Int_Tables_number   1
_chemical_formula_structural   LiCuP2
_chemical_formula_sum   'Li2 Cu2 P4'
_cell_volume   353.64319708
_cell_formula_units_Z   2
loop_
 _symmetry_equiv_pos_site_id
 _symmetry_equiv_pos_as_xyz
  1  'x, y, z'
loop_
 _atom_site_type_symbol
 _atom_site_label
 _atom_site_symmetry_multiplicity
 _atom_site_fract_x
 _atom_site_fract_y
 _atom_site_fract_z
 _atom_site_occupancy
  P  P0  1  0.00000000  0.00000000  0.00000000  1
  P  P1  1  0.50000000  0.50000000  0.50000000  1
  P  P2  1  0.50000000  0.50000000  0.00000000  1
  P  P3  1  0.50000000  0.00000000  0.50000000  1
  Li  Li4  1  0.00000000  0.50000000  0.50000000  1
  Li  Li5  1  0.11889755  0.51298424  0.80543407  1
  Cu  Cu6  1  0.88812689  0.57096373  0.75049574  1
  Cu  Cu7  1  0.51556069  0.04895933  0.22197280  1
