# generated using pymatgen
data_Li2TiCu2I4F3
_symmetry_space_group_name_H-M   'P 1'
_cell_length_a   7.82938506
_cell_length_b   7.78401106
_cell_length_c   8.00822579
_cell_angle_alpha   90.76354795
_cell_angle_beta   91.60002163
_cell_angle_gamma   90.88060631
_symmetry_Int_Tables_number   1
_chemical_formula_structural   Li2TiCu2I4F3
_chemical_formula_sum   'Li2 Ti1 Cu2 I4 F3'
_cell_volume   487.75936490
_cell_formula_units_Z   1
loop_
 _symmetry_equiv_pos_site_id
 _symmetry_equiv_pos_as_xyz
  1  'x, y, z'
loop_
 _atom_site_type_symbol
 _atom_site_label
 _atom_site_symmetry_multiplicity
 _atom_site_fract_x
 _atom_site_fract_y
 _atom_site_fract_z
 _atom_site_occupancy
  F  F0  1  0.00000000  0.00000000  0.00000000  1
  F  F1  1  0.50000000  0.50000000  0.50000000  1
  F  F2  1  0.50000000  0.50000000  0.00000000  1
  Ti  Ti3  1  0.50000000  0.00000000  0.50000000  1
  I  I4  1  0.00000000  0.50000000  0.50000000  1
  I  I5  1  0.87317459  0.73549921  0.77424764  1
  I  I6  1  0.32550112  0.43298735  0.72904205  1
  I  I7  1  0.48183926  0.92291167  0.84634180  1
  Li  Li8  1  0.96782508  0.95082822  0.69746335  1
  Li  Li9  1  0.35178608  0.51637582  0.79257547  1
  Cu  Cu10  1  0.31858060  0.09403314  0.91129101  1
  Cu  Cu11  1  0.55768748  0.18010400  0.71665948  1
