# generated using pymatgen
data_Li3LuCu2(NiP2)2
_symmetry_space_group_name_H-M   'P 1'
_cell_length_a   7.58075463
_cell_length_b   7.36352880
_cell_length_c   8.22805434
_cell_angle_alpha   91.72293931
_cell_angle_beta   91.39564851
_cell_angle_gamma   91.99543438
_symmetry_Int_Tables_number   1
_chemical_formula_structural   Li3LuCu2(NiP2)2
_chemical_formula_sum   'Li3 Lu1 Cu2 Ni2 P4'
_cell_volume   458.66466815
_cell_formula_units_Z   1
loop_
 _symmetry_equiv_pos_site_id
 _symmetry_equiv_pos_as_xyz
  1  'x, y, z'
loop_
 _atom_site_type_symbol
 _atom_site_label
 _atom_site_symmetry_multiplicity
 _atom_site_fract_x
 _atom_site_fract_y
 _atom_site_fract_z
 _atom_site_occupancy
  P  P0  1  0.12500000  0.00000000  0.25000000  1
  P  P1  1  0.00000000  0.00000000  0.00000000  1
  P  P2  1  0.37500000  0.00000000  0.25000000  1
  P  P3  1  0.25000000  0.25000000  0.25000000  1
  Lu  Lu4  1  0.00000000  0.25000000  0.12500000  1
  Li  Li5  1  0.24189699  0.65402491  0.85895079  1
  Li  Li6  1  0.20422137  0.64828352  0.87446902  1
  Li  Li7  1  0.73891991  0.89592723  0.62222458  1
  Cu  Cu8  1  0.66933906  0.98742182  0.48272951  1
  Cu  Cu9  1  0.49057351  0.45804859  0.13765434  1
  Ni  Ni10  1  0.38941087  0.93643268  0.69088753  1
  Ni  Ni11  1  0.14213816  0.07267652  0.22535424  1
