# generated using pymatgen
data_Li3P8SeCl2
_symmetry_space_group_name_H-M   'P 1'
_cell_length_a   4.94179073
_cell_length_b   4.56481326
_cell_length_c   7.03735387
_cell_angle_alpha   105.77463575
_cell_angle_beta   110.24610832
_cell_angle_gamma   104.81981547
_symmetry_Int_Tables_number   1
_chemical_formula_structural   Li3P8SeCl2
_chemical_formula_sum   'Li3 P8 Se1 Cl2'
_cell_volume   132.13522201
_cell_formula_units_Z   1
loop_
 _symmetry_equiv_pos_site_id
 _symmetry_equiv_pos_as_xyz
  1  'x, y, z'
loop_
 _atom_site_type_symbol
 _atom_site_label
 _atom_site_symmetry_multiplicity
 _atom_site_fract_x
 _atom_site_fract_y
 _atom_site_fract_z
 _atom_site_occupancy
  Se  Se0  1  0.00000000  0.00000000  0.00000000  1
  Cl  Cl1  1  0.33300000  0.66700000  0.25000000  1
  Cl  Cl2  1  0.66700000  0.33300000  0.50000000  1
  P  P3  1  0.00000000  0.00000000  0.75000000  1
  P  P4  1  0.09943214  0.26074102  0.17423806  1
  P  P5  1  0.56767355  0.93884279  0.84753208  1
  P  P6  1  0.68515722  0.33945987  0.51403553  1
  P  P7  1  0.98976629  0.21402550  0.87546433  1
  P  P8  1  0.46410037  0.52629450  0.54569975  1
  P  P9  1  0.68539920  0.98339253  0.20519133  1
  P  P10  1  0.33996720  0.99092542  0.70410273  1
  Li  Li11  1  0.74674247  0.28801474  0.61181311  1
  Li  Li12  1  0.45324826  0.82917547  0.06227083  1
  Li  Li13  1  0.43451419  0.90903912  0.32910524  1
