# generated using pymatgen
data_Li3LuNi2(PI)4
_symmetry_space_group_name_H-M   'P 1'
_cell_length_a   7.76525421
_cell_length_b   7.52654464
_cell_length_c   8.05317229
_cell_angle_alpha   91.78162347
_cell_angle_beta   91.15784890
_cell_angle_gamma   92.06447611
_symmetry_Int_Tables_number   1
_chemical_formula_structural   Li3LuNi2(PI)4
_chemical_formula_sum   'Li3 Lu1 Ni2 P4 I4'
_cell_volume   470.03188333
_cell_formula_units_Z   1
loop_
 _symmetry_equiv_pos_site_id
 _symmetry_equiv_pos_as_xyz
  1  'x, y, z'
loop_
 _atom_site_type_symbol
 _atom_site_label
 _atom_site_symmetry_multiplicity
 _atom_site_fract_x
 _atom_site_fract_y
 _atom_site_fract_z
 _atom_site_occupancy
  I  I0  1  0.00000000  0.00000000  0.00000000  1
  I  I1  1  0.50000000  0.50000000  0.50000000  1
  I  I2  1  0.50000000  0.50000000  0.00000000  1
  I  I3  1  0.50000000  0.00000000  0.50000000  1
  P  P4  1  0.00000000  0.50000000  0.50000000  1
  P  P5  1  0.86715920  0.72504075  0.97795673  1
  P  P6  1  0.58617372  0.13242478  0.83352844  1
  P  P7  1  0.25439104  0.67588039  0.17470477  1
  Lu  Lu8  1  0.07378401  0.02801352  0.89998919  1
  Li  Li9  1  0.79037672  0.34151750  0.96644574  1
  Li  Li10  1  0.38864550  0.74335170  0.24913337  1
  Li  Li11  1  0.32658968  0.93688625  0.46345317  1
  Ni  Ni12  1  0.69602999  0.87046193  0.09971039  1
  Ni  Ni13  1  0.95831891  0.14899168  0.50450086  1
