# generated using pymatgen
data_Li2TiI4(OF)3
_symmetry_space_group_name_H-M   'P 1'
_cell_length_a   7.19985870
_cell_length_b   7.00348182
_cell_length_c   7.26650688
_cell_angle_alpha   94.16710382
_cell_angle_beta   96.16765140
_cell_angle_gamma   93.95528394
_symmetry_Int_Tables_number   1
_chemical_formula_structural   Li2TiI4(OF)3
_chemical_formula_sum   'Li2 Ti1 I4 O3 F3'
_cell_volume   362.23207545
_cell_formula_units_Z   1
loop_
 _symmetry_equiv_pos_site_id
 _symmetry_equiv_pos_as_xyz
  1  'x, y, z'
loop_
 _atom_site_type_symbol
 _atom_site_label
 _atom_site_symmetry_multiplicity
 _atom_site_fract_x
 _atom_site_fract_y
 _atom_site_fract_z
 _atom_site_occupancy
  I  I0  1  0.12500000  0.00000000  0.25000000  1
  I  I1  1  0.00000000  0.00000000  0.00000000  1
  I  I2  1  0.37500000  0.00000000  0.25000000  1
  I  I3  1  0.25000000  0.25000000  0.25000000  1
  Li  Li4  1  0.00000000  0.25000000  0.12500000  1
  Li  Li5  1  0.64211593  0.37239028  0.30254986  1
  F  F6  1  0.26086179  0.54808762  0.35859904  1
  F  F7  1  0.05658399  0.82141454  0.62433441  1
  F  F8  1  0.31443574  0.72258426  0.43520117  1
  Ti  Ti9  1  0.93513823  0.93219537  0.21502600  1
  O  O10  1  0.62805185  0.15471188  0.96155785  1
  O  O11  1  0.89390881  0.09839653  0.37475451  1
  O  O12  1  0.03690957  0.18309952  0.84675140  1
