# generated using pymatgen
data_Li2TiCu2(As3O2)2
_symmetry_space_group_name_H-M   'P 1'
_cell_length_a   8.20975341
_cell_length_b   8.23952639
_cell_length_c   7.78910125
_cell_angle_alpha   90.22963835
_cell_angle_beta   91.09254955
_cell_angle_gamma   90.26253796
_symmetry_Int_Tables_number   1
_chemical_formula_structural   Li2TiCu2(As3O2)2
_chemical_formula_sum   'Li2 Ti1 Cu2 As6 O4'
_cell_volume   526.78396461
_cell_formula_units_Z   1
loop_
 _symmetry_equiv_pos_site_id
 _symmetry_equiv_pos_as_xyz
  1  'x, y, z'
loop_
 _atom_site_type_symbol
 _atom_site_label
 _atom_site_symmetry_multiplicity
 _atom_site_fract_x
 _atom_site_fract_y
 _atom_site_fract_z
 _atom_site_occupancy
  Li  Li0  1  0.12500000  0.00000000  0.25000000  1
  Li  Li1  1  0.00000000  0.00000000  0.00000000  1
  Ti  Ti2  1  0.37500000  0.00000000  0.25000000  1
  As  As3  1  0.25000000  0.25000000  0.25000000  1
  As  As4  1  0.00000000  0.25000000  0.12500000  1
  As  As5  1  0.72402411  0.51764851  0.36452245  1
  As  As6  1  0.93124873  0.47018310  0.04462241  1
  As  As7  1  0.35534723  0.69915771  0.23651153  1
  As  As8  1  0.12063121  0.92645472  0.33602418  1
  O  O9  1  0.67093880  0.45265636  0.60283694  1
  O  O10  1  0.00702415  0.71630371  0.57627890  1
  O  O11  1  0.47823793  0.60791794  0.32432288  1
  O  O12  1  0.29556665  0.15308255  0.84887428  1
  Cu  Cu13  1  0.39933156  0.39288807  0.71712978  1
  Cu  Cu14  1  0.91441900  0.09587455  0.84038949  1
