# generated using pymatgen
data_LiTiO3F2
_symmetry_space_group_name_H-M   'P 1'
_cell_length_a   6.53254931
_cell_length_b   6.47709469
_cell_length_c   7.35206773
_cell_angle_alpha   91.19379970
_cell_angle_beta   95.67973641
_cell_angle_gamma   91.36483183
_symmetry_Int_Tables_number   1
_chemical_formula_structural   LiTiO3F2
_chemical_formula_sum   'Li1 Ti1 O3 F2'
_cell_volume   309.38111956
_cell_formula_units_Z   1
loop_
 _symmetry_equiv_pos_site_id
 _symmetry_equiv_pos_as_xyz
  1  'x, y, z'
loop_
 _atom_site_type_symbol
 _atom_site_label
 _atom_site_symmetry_multiplicity
 _atom_site_fract_x
 _atom_site_fract_y
 _atom_site_fract_z
 _atom_site_occupancy
  Li  Li0  1  0.12500000  0.00000000  0.25000000  1
  F  F1  1  0.00000000  0.00000000  0.00000000  1
  F  F2  1  0.37500000  0.00000000  0.25000000  1
  Ti  Ti3  1  0.25000000  0.25000000  0.25000000  1
  O  O4  1  0.00000000  0.25000000  0.12500000  1
  O  O5  1  0.52798760  0.10124876  0.24704098  1
  O  O6  1  0.29906684  0.94144669  0.49342222  1
