# generated using pymatgen
data_Li3Ti(OF)3
_symmetry_space_group_name_H-M   'P 1'
_cell_length_a   5.12713460
_cell_length_b   4.82572189
_cell_length_c   6.79561257
_cell_angle_alpha   103.81145737
_cell_angle_beta   107.99790384
_cell_angle_gamma   102.96465864
_symmetry_Int_Tables_number   1
_chemical_formula_structural   Li3Ti(OF)3
_chemical_formula_sum   'Li3 Ti1 O3 F3'
_cell_volume   146.97492661
_cell_formula_units_Z   1
loop_
 _symmetry_equiv_pos_site_id
 _symmetry_equiv_pos_as_xyz
  1  'x, y, z'
loop_
 _atom_site_type_symbol
 _atom_site_label
 _atom_site_symmetry_multiplicity
 _atom_site_fract_x
 _atom_site_fract_y
 _atom_site_fract_z
 _atom_site_occupancy
  Li  Li0  1  0.12500000  0.00000000  0.25000000  1
  Li  Li1  1  0.00000000  0.00000000  0.00000000  1
  Li  Li2  1  0.37500000  0.00000000  0.25000000  1
  F  F3  1  0.25000000  0.25000000  0.25000000  1
  F  F4  1  0.00000000  0.25000000  0.12500000  1
  F  F5  1  0.45702706  0.54765781  0.86875515  1
  Ti  Ti6  1  0.06894404  0.08698153  0.45221220  1
  O  O7  1  0.65815842  0.53527687  0.83332925  1
  O  O8  1  0.15331515  0.04874085  0.05228814  1
  O  O9  1  0.45624120  0.74460091  0.28750111  1
