# generated using pymatgen
data_LiMn2SbP2
_symmetry_space_group_name_H-M   'P 1'
_cell_length_a   5.92989301
_cell_length_b   6.24424911
_cell_length_c   6.57036129
_cell_angle_alpha   93.64650161
_cell_angle_beta   93.19051870
_cell_angle_gamma   92.93932194
_symmetry_Int_Tables_number   1
_chemical_formula_structural   LiMn2SbP2
_chemical_formula_sum   'Li1 Mn2 Sb1 P2'
_cell_volume   242.04955157
_cell_formula_units_Z   1
loop_
 _symmetry_equiv_pos_site_id
 _symmetry_equiv_pos_as_xyz
  1  'x, y, z'
loop_
 _atom_site_type_symbol
 _atom_site_label
 _atom_site_symmetry_multiplicity
 _atom_site_fract_x
 _atom_site_fract_y
 _atom_site_fract_z
 _atom_site_occupancy
  Mn  Mn0  1  0.00000000  0.00000000  0.00000000  1
  Mn  Mn1  1  0.33300000  0.66700000  0.25000000  1
  Sb  Sb2  1  0.66700000  0.33300000  0.50000000  1
  P  P3  1  0.00000000  0.00000000  0.75000000  1
  P  P4  1  0.30318422  0.81125051  0.90254719  1
  Li  Li5  1  0.75785358  0.26588490  0.42931469  1
