# generated using pymatgen
data_Li3Ti(IO)4
_symmetry_space_group_name_H-M   'P 1'
_cell_length_a   8.85193497
_cell_length_b   8.73162580
_cell_length_c   7.31508651
_cell_angle_alpha   90.00000000
_cell_angle_beta   90.00000000
_cell_angle_gamma   90.00000000
_symmetry_Int_Tables_number   1
_chemical_formula_structural   Li3Ti(IO)4
_chemical_formula_sum   'Li3 Ti1 I4 O4'
_cell_volume   565.39608442
_cell_formula_units_Z   1
loop_
 _symmetry_equiv_pos_site_id
 _symmetry_equiv_pos_as_xyz
  1  'x, y, z'
loop_
 _atom_site_type_symbol
 _atom_site_label
 _atom_site_symmetry_multiplicity
 _atom_site_fract_x
 _atom_site_fract_y
 _atom_site_fract_z
 _atom_site_occupancy
  I  I0  1  0.00000000  0.00000000  0.00000000  1
  I  I1  1  0.50000000  0.50000000  0.50000000  1
  I  I2  1  0.25000000  0.25000000  0.25000000  1
  I  I3  1  0.75000000  0.25000000  0.00000000  1
  Li  Li4  1  0.25000000  0.75000000  0.50000000  1
  Li  Li5  1  0.85063787  0.65962382  0.49232226  1
  Li  Li6  1  0.92137856  0.89932737  0.64496408  1
  Ti  Ti7  1  0.81192176  0.34346634  0.61883493  1
  O  O8  1  0.76846820  0.61581514  0.45488616  1
  O  O9  1  0.70313209  0.69234014  0.28400204  1
  O  O10  1  0.89467794  0.25981658  0.74429232  1
  O  O11  1  0.32023436  0.46417002  0.24764288  1
