# generated using pymatgen
data_Li3Ni2As6I4O5
_symmetry_space_group_name_H-M   'P 1'
_cell_length_a   8.06438057
_cell_length_b   8.13827254
_cell_length_c   8.37212936
_cell_angle_alpha   91.02128071
_cell_angle_beta   90.64748862
_cell_angle_gamma   91.18348163
_symmetry_Int_Tables_number   1
_chemical_formula_structural   Li3Ni2As6I4O5
_chemical_formula_sum   'Li3 Ni2 As6 I4 O5'
_cell_volume   549.22201111
_cell_formula_units_Z   1
loop_
 _symmetry_equiv_pos_site_id
 _symmetry_equiv_pos_as_xyz
  1  'x, y, z'
loop_
 _atom_site_type_symbol
 _atom_site_label
 _atom_site_symmetry_multiplicity
 _atom_site_fract_x
 _atom_site_fract_y
 _atom_site_fract_z
 _atom_site_occupancy
  I  I0  1  0.12500000  0.00000000  0.25000000  1
  I  I1  1  0.00000000  0.00000000  0.00000000  1
  I  I2  1  0.37500000  0.00000000  0.25000000  1
  I  I3  1  0.25000000  0.25000000  0.25000000  1
  Li  Li4  1  0.00000000  0.25000000  0.12500000  1
  Li  Li5  1  0.12578878  0.55562418  0.50178163  1
  Li  Li6  1  0.57806373  0.70606013  0.12488728  1
  Ni  Ni7  1  0.33165721  0.51558736  0.59093820  1
  Ni  Ni8  1  0.38990186  0.06003691  0.45179779  1
  As  As9  1  0.71094702  0.82612793  0.98514934  1
  As  As10  1  0.84174081  0.38377310  0.24840432  1
  As  As11  1  0.07830087  0.54442395  0.23074760  1
  As  As12  1  0.84302282  0.37384246  0.00270426  1
  As  As13  1  0.80525978  0.94613170  0.46994442  1
  As  As14  1  0.85516087  0.09974672  0.00487370  1
  O  O15  1  0.09357838  0.88106044  0.45317305  1
  O  O16  1  0.75109415  0.19077110  0.85967504  1
  O  O17  1  0.17087554  0.98558223  0.48248936  1
  O  O18  1  0.05038948  0.19406213  0.78838052  1
  O  O19  1  0.35084009  0.85586829  0.66582671  1
