# generated using pymatgen
data_Li2Ti(CuP2)2
_symmetry_space_group_name_H-M   'P 1'
_cell_length_a   6.94776379
_cell_length_b   6.90956056
_cell_length_c   7.29869794
_cell_angle_alpha   90.85842600
_cell_angle_beta   91.77575044
_cell_angle_gamma   90.28167115
_symmetry_Int_Tables_number   1
_chemical_formula_structural   Li2Ti(CuP2)2
_chemical_formula_sum   'Li2 Ti1 Cu2 P4'
_cell_volume   350.16860882
_cell_formula_units_Z   1
loop_
 _symmetry_equiv_pos_site_id
 _symmetry_equiv_pos_as_xyz
  1  'x, y, z'
loop_
 _atom_site_type_symbol
 _atom_site_label
 _atom_site_symmetry_multiplicity
 _atom_site_fract_x
 _atom_site_fract_y
 _atom_site_fract_z
 _atom_site_occupancy
  P  P0  1  0.00000000  0.00000000  0.00000000  1
  P  P1  1  0.33300000  0.66700000  0.25000000  1
  P  P2  1  0.66700000  0.33300000  0.50000000  1
  P  P3  1  0.00000000  0.00000000  0.75000000  1
  Li  Li4  1  0.71200816  0.06750057  0.16240754  1
  Li  Li5  1  0.77381734  0.29507524  0.30471838  1
  Cu  Cu6  1  0.67248551  0.55516785  0.67883189  1
  Cu  Cu7  1  0.33259012  0.93856600  0.98476068  1
  Ti  Ti8  1  0.36011908  0.43141404  0.83582588  1
