# generated using pymatgen
data_Li(P4O)2
_symmetry_space_group_name_H-M   'P 1'
_cell_length_a   7.88109493
_cell_length_b   8.39022259
_cell_length_c   8.23786443
_cell_angle_alpha   90.00000000
_cell_angle_beta   90.00000000
_cell_angle_gamma   90.00000000
_symmetry_Int_Tables_number   1
_chemical_formula_structural   Li(P4O)2
_chemical_formula_sum   'Li1 P8 O2'
_cell_volume   544.72170681
_cell_formula_units_Z   1
loop_
 _symmetry_equiv_pos_site_id
 _symmetry_equiv_pos_as_xyz
  1  'x, y, z'
loop_
 _atom_site_type_symbol
 _atom_site_label
 _atom_site_symmetry_multiplicity
 _atom_site_fract_x
 _atom_site_fract_y
 _atom_site_fract_z
 _atom_site_occupancy
  P  P0  1  0.00000000  0.00000000  0.00000000  1
  P  P1  1  0.33300000  0.66700000  0.25000000  1
  P  P2  1  0.66700000  0.33300000  0.50000000  1
  P  P3  1  0.00000000  0.00000000  0.75000000  1
  P  P4  1  0.28812051  0.35351515  0.76223009  1
  P  P5  1  0.58048256  0.14547471  0.88014230  1
  P  P6  1  0.37564202  0.77388547  0.41954572  1
  P  P7  1  0.29622055  0.59913830  0.91292843  1
  Li  Li8  1  0.60170998  0.97465145  0.17230207  1
  O  O9  1  0.11014008  0.23587379  0.19338970  1
  O  O10  1  0.27240298  0.55159404  0.35025296  1
