# generated using pymatgen
data_LiTiCu2S3F2
_symmetry_space_group_name_H-M   'P 1'
_cell_length_a   6.69309484
_cell_length_b   6.61603765
_cell_length_c   7.49747220
_cell_angle_alpha   91.38284140
_cell_angle_beta   93.84467623
_cell_angle_gamma   91.33080123
_symmetry_Int_Tables_number   1
_chemical_formula_structural   LiTiCu2S3F2
_chemical_formula_sum   'Li1 Ti1 Cu2 S3 F2'
_cell_volume   331.05494573
_cell_formula_units_Z   1
loop_
 _symmetry_equiv_pos_site_id
 _symmetry_equiv_pos_as_xyz
  1  'x, y, z'
loop_
 _atom_site_type_symbol
 _atom_site_label
 _atom_site_symmetry_multiplicity
 _atom_site_fract_x
 _atom_site_fract_y
 _atom_site_fract_z
 _atom_site_occupancy
  Li  Li0  1  0.00000000  0.00000000  0.00000000  1
  Cu  Cu1  1  0.50000000  0.50000000  0.50000000  1
  Cu  Cu2  1  0.25000000  0.25000000  0.25000000  1
  F  F3  1  0.75000000  0.25000000  0.00000000  1
  F  F4  1  0.25000000  0.75000000  0.50000000  1
  Ti  Ti5  1  0.30460472  0.72949818  0.33594764  1
  S  S6  1  0.91082153  0.37256286  0.05736203  1
  S  S7  1  0.19850347  0.34706906  0.52644627  1
  S  S8  1  0.67033465  0.64767945  0.92004418  1
