# generated using pymatgen
data_Li3Cu2Ni2As6O7
_symmetry_space_group_name_H-M   'P 1'
_cell_length_a   7.62984897
_cell_length_b   7.42523919
_cell_length_c   8.46753221
_cell_angle_alpha   91.69574251
_cell_angle_beta   91.28970714
_cell_angle_gamma   91.96425271
_symmetry_Int_Tables_number   1
_chemical_formula_structural   Li3Cu2Ni2As6O7
_chemical_formula_sum   'Li3 Cu2 Ni2 As6 O7'
_cell_volume   479.09023905
_cell_formula_units_Z   1
loop_
 _symmetry_equiv_pos_site_id
 _symmetry_equiv_pos_as_xyz
  1  'x, y, z'
loop_
 _atom_site_type_symbol
 _atom_site_label
 _atom_site_symmetry_multiplicity
 _atom_site_fract_x
 _atom_site_fract_y
 _atom_site_fract_z
 _atom_site_occupancy
  Li  Li0  1  0.12500000  0.00000000  0.25000000  1
  Li  Li1  1  0.00000000  0.00000000  0.00000000  1
  Li  Li2  1  0.37500000  0.00000000  0.25000000  1
  Cu  Cu3  1  0.25000000  0.25000000  0.25000000  1
  Cu  Cu4  1  0.00000000  0.25000000  0.12500000  1
  Ni  Ni5  1  0.83842021  0.23672084  0.36489150  1
  Ni  Ni6  1  0.06913904  0.52931106  0.27648391  1
  As  As7  1  0.51807890  0.91577934  0.03889883  1
  As  As8  1  0.22991368  0.68305616  0.16428700  1
  As  As9  1  0.95266127  0.28207906  0.22717750  1
  As  As10  1  0.75506510  0.13295124  0.43161067  1
  As  As11  1  0.91539612  0.84841192  0.24819491  1
  As  As12  1  0.90737890  0.03090091  0.40177043  1
  O  O13  1  0.00078361  0.67032704  0.78733091  1
  O  O14  1  0.70640026  0.34638832  0.57975116  1
  O  O15  1  0.66186098  0.03157489  0.34459338  1
  O  O16  1  0.05077292  0.59126650  0.31828959  1
  O  O17  1  0.88889110  0.21450983  0.80886812  1
  O  O18  1  0.57656769  0.39646881  0.10651442  1
  O  O19  1  0.73847638  0.00122853  0.30370078  1
