# generated using pymatgen
data_LiLuTi2P6F2
_symmetry_space_group_name_H-M   'P 1'
_cell_length_a   7.41243595
_cell_length_b   7.22427570
_cell_length_c   7.97449423
_cell_angle_alpha   91.16143443
_cell_angle_beta   92.83953396
_cell_angle_gamma   91.33796177
_symmetry_Int_Tables_number   1
_chemical_formula_structural   LiLuTi2P6F2
_chemical_formula_sum   'Li1 Lu1 Ti2 P6 F2'
_cell_volume   426.29125351
_cell_formula_units_Z   1
loop_
 _symmetry_equiv_pos_site_id
 _symmetry_equiv_pos_as_xyz
  1  'x, y, z'
loop_
 _atom_site_type_symbol
 _atom_site_label
 _atom_site_symmetry_multiplicity
 _atom_site_fract_x
 _atom_site_fract_y
 _atom_site_fract_z
 _atom_site_occupancy
  P  P0  1  0.00000000  0.00000000  0.00000000  1
  P  P1  1  0.50000000  0.50000000  0.50000000  1
  P  P2  1  0.25000000  0.25000000  0.25000000  1
  P  P3  1  0.75000000  0.25000000  0.00000000  1
  P  P4  1  0.25000000  0.75000000  0.50000000  1
  P  P5  1  0.83069851  0.70776038  0.64902890  1
  Lu  Lu6  1  0.08989985  0.60208412  0.07355029  1
  Li  Li7  1  0.40328937  0.03729851  0.60535852  1
  F  F8  1  0.81555636  0.73194157  0.51431466  1
  F  F9  1  0.49455972  0.50771748  0.45425247  1
  Ti  Ti10  1  0.66204535  0.42865413  0.88978887  1
  Ti  Ti11  1  0.88630690  0.44536944  0.05782682  1
