# generated using pymatgen
data_Li3LuTi(PN)5
_symmetry_space_group_name_H-M   'P 1'
_cell_length_a   7.86617721
_cell_length_b   7.67194033
_cell_length_c   8.09192038
_cell_angle_alpha   92.35900796
_cell_angle_beta   91.81479187
_cell_angle_gamma   92.54298799
_symmetry_Int_Tables_number   1
_chemical_formula_structural   Li3LuTi(PN)5
_chemical_formula_sum   'Li3 Lu1 Ti1 P5 N5'
_cell_volume   487.16915729
_cell_formula_units_Z   1
loop_
 _symmetry_equiv_pos_site_id
 _symmetry_equiv_pos_as_xyz
  1  'x, y, z'
loop_
 _atom_site_type_symbol
 _atom_site_label
 _atom_site_symmetry_multiplicity
 _atom_site_fract_x
 _atom_site_fract_y
 _atom_site_fract_z
 _atom_site_occupancy
  P  P0  1  0.00000000  0.00000000  0.00000000  1
  P  P1  1  0.50000000  0.50000000  0.50000000  1
  P  P2  1  0.50000000  0.50000000  0.00000000  1
  P  P3  1  0.50000000  0.00000000  0.50000000  1
  P  P4  1  0.00000000  0.50000000  0.50000000  1
  Lu  Lu5  1  0.09001397  0.71751039  0.26252194  1
  Li  Li6  1  0.49520374  0.76779810  0.04817701  1
  Li  Li7  1  0.17004746  0.54972383  0.56378494  1
  Li  Li8  1  0.60910797  0.03835224  0.81371628  1
  Ti  Ti9  1  0.51081057  0.76911366  0.21170453  1
  N  N10  1  0.59180209  0.52533443  0.07215692  1
  N  N11  1  0.03566676  0.84388504  0.96875445  1
  N  N12  1  0.82711931  0.92450060  0.97874505  1
  N  N13  1  0.32259001  0.53500516  0.94501283  1
  N  N14  1  0.88829842  0.87188857  0.59164330  1
