# generated using pymatgen
data_Li3Ti(IO)4
_symmetry_space_group_name_H-M   'P 1'
_cell_length_a   8.87687184
_cell_length_b   8.75761409
_cell_length_c   7.20693757
_cell_angle_alpha   90.00000000
_cell_angle_beta   90.00000000
_cell_angle_gamma   90.00000000
_symmetry_Int_Tables_number   1
_chemical_formula_structural   Li3Ti(IO)4
_chemical_formula_sum   'Li3 Ti1 I4 O4'
_cell_volume   560.26889682
_cell_formula_units_Z   1
loop_
 _symmetry_equiv_pos_site_id
 _symmetry_equiv_pos_as_xyz
  1  'x, y, z'
loop_
 _atom_site_type_symbol
 _atom_site_label
 _atom_site_symmetry_multiplicity
 _atom_site_fract_x
 _atom_site_fract_y
 _atom_site_fract_z
 _atom_site_occupancy
  I  I0  1  0.12500000  0.12500000  0.12500000  1
  I  I1  1  0.50000000  0.50000000  0.50000000  1
  I  I2  1  0.25000000  0.25000000  0.25000000  1
  I  I3  1  0.75000000  0.75000000  0.75000000  1
  Li  Li4  1  0.89643271  0.89029725  0.84940694  1
  Li  Li5  1  0.64248634  0.61334863  0.42454316  1
  Li  Li6  1  0.60351632  0.80250855  0.18401758  1
  Ti  Ti7  1  0.05225373  0.27050963  0.39327905  1
  O  O8  1  0.36419234  0.43611371  0.17246717  1
  O  O9  1  0.48275205  0.95699645  0.26611438  1
  O  O10  1  0.53346885  0.76843594  0.18578729  1
  O  O11  1  0.70192389  0.01435647  0.70729090  1
