# generated using pymatgen
data_Li2Lu(CuP2)2
_symmetry_space_group_name_H-M   'P 1'
_cell_length_a   7.08340134
_cell_length_b   7.04623408
_cell_length_c   7.85663666
_cell_angle_alpha   94.74723215
_cell_angle_beta   95.67196176
_cell_angle_gamma   94.66287757
_symmetry_Int_Tables_number   1
_chemical_formula_structural   Li2Lu(CuP2)2
_chemical_formula_sum   'Li2 Lu1 Cu2 P4'
_cell_volume   387.29051744
_cell_formula_units_Z   1
loop_
 _symmetry_equiv_pos_site_id
 _symmetry_equiv_pos_as_xyz
  1  'x, y, z'
loop_
 _atom_site_type_symbol
 _atom_site_label
 _atom_site_symmetry_multiplicity
 _atom_site_fract_x
 _atom_site_fract_y
 _atom_site_fract_z
 _atom_site_occupancy
  P  P0  1  0.00000000  0.00000000  0.00000000  1
  P  P1  1  0.50000000  0.50000000  0.50000000  1
  P  P2  1  0.50000000  0.50000000  0.00000000  1
  P  P3  1  0.50000000  0.00000000  0.50000000  1
  Lu  Lu4  1  0.00000000  0.50000000  0.50000000  1
  Li  Li5  1  0.58644544  0.64949617  0.11090394  1
  Li  Li6  1  0.85835319  0.38554938  0.42026574  1
  Cu  Cu7  1  0.22125160  0.01163500  0.78314391  1
  Cu  Cu8  1  0.76136296  0.82121932  0.98357458  1
