# generated using pymatgen
data_LiSb4P3F4
_symmetry_space_group_name_H-M   'P 1'
_cell_length_a   5.12338785
_cell_length_b   5.07275857
_cell_length_c   6.23536410
_cell_angle_alpha   97.69592432
_cell_angle_beta   93.43213153
_cell_angle_gamma   97.79267016
_symmetry_Int_Tables_number   1
_chemical_formula_structural   LiSb4P3F4
_chemical_formula_sum   'Li1 Sb4 P3 F4'
_cell_volume   158.60936705
_cell_formula_units_Z   1
loop_
 _symmetry_equiv_pos_site_id
 _symmetry_equiv_pos_as_xyz
  1  'x, y, z'
loop_
 _atom_site_type_symbol
 _atom_site_label
 _atom_site_symmetry_multiplicity
 _atom_site_fract_x
 _atom_site_fract_y
 _atom_site_fract_z
 _atom_site_occupancy
  Sb  Sb0  1  0.12500000  0.12500000  0.12500000  1
  Sb  Sb1  1  0.50000000  0.50000000  0.50000000  1
  Sb  Sb2  1  0.25000000  0.25000000  0.25000000  1
  Sb  Sb3  1  0.75000000  0.75000000  0.75000000  1
  F  F4  1  0.78497203  0.71135124  0.67594775  1
  F  F5  1  0.59061563  0.39151614  0.76410057  1
  F  F6  1  0.08210841  0.48619113  0.74868665  1
  F  F7  1  0.67806800  0.52477771  0.40770881  1
  P  P8  1  0.74799291  0.55027421  0.70118624  1
  P  P9  1  0.71052951  0.22609987  0.44043134  1
  P  P10  1  0.42895575  0.01915868  0.78875068  1
  Li  Li11  1  0.24430006  0.39021423  0.54082501  1
