# generated using pymatgen
data_Li3LuTi(CuI2)2
_symmetry_space_group_name_H-M   'P 1'
_cell_length_a   8.11863022
_cell_length_b   7.93842536
_cell_length_c   7.71828507
_cell_angle_alpha   90.97622934
_cell_angle_beta   90.82849284
_cell_angle_gamma   91.13048470
_symmetry_Int_Tables_number   1
_chemical_formula_structural   Li3LuTi(CuI2)2
_chemical_formula_sum   'Li3 Lu1 Ti1 Cu2 I4'
_cell_volume   497.21335575
_cell_formula_units_Z   1
loop_
 _symmetry_equiv_pos_site_id
 _symmetry_equiv_pos_as_xyz
  1  'x, y, z'
loop_
 _atom_site_type_symbol
 _atom_site_label
 _atom_site_symmetry_multiplicity
 _atom_site_fract_x
 _atom_site_fract_y
 _atom_site_fract_z
 _atom_site_occupancy
  I  I0  1  0.00000000  0.00000000  0.00000000  1
  I  I1  1  0.50000000  0.50000000  0.50000000  1
  I  I2  1  0.25000000  0.25000000  0.25000000  1
  I  I3  1  0.75000000  0.25000000  0.00000000  1
  Lu  Lu4  1  0.25000000  0.75000000  0.50000000  1
  Li  Li5  1  0.67122928  0.12062805  0.22479720  1
  Li  Li6  1  0.45077535  0.51149159  0.45779463  1
  Li  Li7  1  0.61327685  0.24836665  0.75667242  1
  Cu  Cu8  1  0.86881605  0.76958936  0.61913555  1
  Cu  Cu9  1  0.79532090  0.30646534  0.52435890  1
  Ti  Ti10  1  0.12714610  0.17773535  0.32510057  1
