# generated using pymatgen
data_Li3TiSe(OF)3
_symmetry_space_group_name_H-M   'P 1'
_cell_length_a   6.06510096
_cell_length_b   5.80149064
_cell_length_c   7.04346651
_cell_angle_alpha   99.42199222
_cell_angle_beta   102.67253379
_cell_angle_gamma   98.86768560
_symmetry_Int_Tables_number   1
_chemical_formula_structural   Li3TiSe(OF)3
_chemical_formula_sum   'Li3 Ti1 Se1 O3 F3'
_cell_volume   233.83915740
_cell_formula_units_Z   1
loop_
 _symmetry_equiv_pos_site_id
 _symmetry_equiv_pos_as_xyz
  1  'x, y, z'
loop_
 _atom_site_type_symbol
 _atom_site_label
 _atom_site_symmetry_multiplicity
 _atom_site_fract_x
 _atom_site_fract_y
 _atom_site_fract_z
 _atom_site_occupancy
  Li  Li0  1  0.00000000  0.00000000  0.00000000  1
  Li  Li1  1  0.50000000  0.50000000  0.50000000  1
  Li  Li2  1  0.25000000  0.25000000  0.25000000  1
  F  F3  1  0.75000000  0.25000000  0.00000000  1
  F  F4  1  0.25000000  0.75000000  0.50000000  1
  F  F5  1  0.21979298  0.22309648  0.77251481  1
  Se  Se6  1  0.67226283  0.00056159  0.29143248  1
  Ti  Ti7  1  0.58630731  0.45034855  0.40366711  1
  O  O8  1  0.54277892  0.71110599  0.06938360  1
  O  O9  1  0.80399726  0.39488470  0.57289289  1
  O  O10  1  0.80554656  0.70767082  0.75033622  1
