# generated using pymatgen
data_Li3Ni2As6O7
_symmetry_space_group_name_H-M   'P 1'
_cell_length_a   7.66702954
_cell_length_b   7.47197427
_cell_length_c   8.64889580
_cell_angle_alpha   91.67514557
_cell_angle_beta   91.20947465
_cell_angle_gamma   91.94063792
_symmetry_Int_Tables_number   1
_chemical_formula_structural   Li3Ni2As6O7
_chemical_formula_sum   'Li3 Ni2 As6 O7'
_cell_volume   494.85970559
_cell_formula_units_Z   1
loop_
 _symmetry_equiv_pos_site_id
 _symmetry_equiv_pos_as_xyz
  1  'x, y, z'
loop_
 _atom_site_type_symbol
 _atom_site_label
 _atom_site_symmetry_multiplicity
 _atom_site_fract_x
 _atom_site_fract_y
 _atom_site_fract_z
 _atom_site_occupancy
  Li  Li0  1  0.00000000  0.00000000  0.00000000  1
  Li  Li1  1  0.33300000  0.66700000  0.25000000  1
  Li  Li2  1  0.66700000  0.33300000  0.50000000  1
  Ni  Ni3  1  0.00000000  0.00000000  0.75000000  1
  Ni  Ni4  1  0.42265228  0.71252365  0.14831241  1
  As  As5  1  0.76465543  0.80295241  0.70041054  1
  As  As6  1  0.30351981  0.30882043  0.38539689  1
  As  As7  1  0.18620311  0.19471717  0.42018003  1
  As  As8  1  0.84907090  0.49537875  0.78961353  1
  As  As9  1  0.29587054  0.00849529  0.68436027  1
  As  As10  1  0.67674729  0.37908381  0.60319631  1
  O  O11  1  0.90714974  0.59079267  0.22562521  1
  O  O12  1  0.00343111  0.62221595  0.74448557  1
  O  O13  1  0.70300730  0.03648564  0.81404294  1
  O  O14  1  0.97547403  0.05073366  0.48585556  1
  O  O15  1  0.29701350  0.49354579  0.18865640  1
  O  O16  1  0.31327618  0.89800550  0.00332550  1
  O  O17  1  0.92457458  0.23876891  0.64901642  1
