# generated using pymatgen
data_Li2Ni2P8O5
_symmetry_space_group_name_H-M   'P 1'
_cell_length_a   8.17390027
_cell_length_b   7.92196251
_cell_length_c   8.68429430
_cell_angle_alpha   90.00000000
_cell_angle_beta   90.00000000
_cell_angle_gamma   90.00000000
_symmetry_Int_Tables_number   1
_chemical_formula_structural   Li2Ni2P8O5
_chemical_formula_sum   'Li2 Ni2 P8 O5'
_cell_volume   562.33698766
_cell_formula_units_Z   1
loop_
 _symmetry_equiv_pos_site_id
 _symmetry_equiv_pos_as_xyz
  1  'x, y, z'
loop_
 _atom_site_type_symbol
 _atom_site_label
 _atom_site_symmetry_multiplicity
 _atom_site_fract_x
 _atom_site_fract_y
 _atom_site_fract_z
 _atom_site_occupancy
  P  P0  1  0.00000000  0.00000000  0.00000000  1
  P  P1  1  0.50000000  0.50000000  0.50000000  1
  P  P2  1  0.50000000  0.50000000  0.00000000  1
  P  P3  1  0.50000000  0.00000000  0.50000000  1
  P  P4  1  0.00000000  0.50000000  0.50000000  1
  P  P5  1  0.60205923  0.47504523  0.65695178  1
  P  P6  1  0.18688225  0.24047118  0.01755357  1
  P  P7  1  0.73946584  0.88006555  0.34910030  1
  Li  Li8  1  0.80847192  0.25982647  0.70735898  1
  Li  Li9  1  0.15116955  0.02061194  0.46164256  1
  Ni  Ni10  1  0.88732544  0.20380199  0.33387075  1
  Ni  Ni11  1  0.96274725  0.53916274  0.12958693  1
  O  O12  1  0.34740679  0.82334307  0.92158808  1
  O  O13  1  0.51591333  0.95282153  0.28938524  1
  O  O14  1  0.29883834  0.83703529  0.68032027  1
  O  O15  1  0.62217485  0.50719634  0.05827771  1
  O  O16  1  0.26893359  0.50519283  0.98431768  1
