# generated using pymatgen
data_Li3Ni2As6O7
_symmetry_space_group_name_H-M   'P 1'
_cell_length_a   7.69311728
_cell_length_b   7.50476593
_cell_length_c   8.77614953
_cell_angle_alpha   91.66069374
_cell_angle_beta   91.15317953
_cell_angle_gamma   91.92406861
_symmetry_Int_Tables_number   1
_chemical_formula_structural   Li3Ni2As6O7
_chemical_formula_sum   'Li3 Ni2 As6 O7'
_cell_volume   506.08010932
_cell_formula_units_Z   1
loop_
 _symmetry_equiv_pos_site_id
 _symmetry_equiv_pos_as_xyz
  1  'x, y, z'
loop_
 _atom_site_type_symbol
 _atom_site_label
 _atom_site_symmetry_multiplicity
 _atom_site_fract_x
 _atom_site_fract_y
 _atom_site_fract_z
 _atom_site_occupancy
  Li  Li0  1  0.12500000  0.12500000  0.12500000  1
  Li  Li1  1  0.50000000  0.50000000  0.50000000  1
  Li  Li2  1  0.25000000  0.25000000  0.25000000  1
  Ni  Ni3  1  0.75000000  0.75000000  0.75000000  1
  Ni  Ni4  1  0.77149658  0.55124717  0.23930368  1
  As  As5  1  0.68170861  0.34189400  0.17087304  1
  As  As6  1  0.16502253  0.14987719  0.41953308  1
  As  As7  1  0.83915373  0.52689001  0.58868537  1
  As  As8  1  0.53786428  0.66200339  0.71810729  1
  As  As9  1  0.48227234  0.96317481  0.56446061  1
  As  As10  1  0.16319448  0.82823522  0.28419635  1
  O  O11  1  0.04600983  0.93707721  0.67518248  1
  O  O12  1  0.29073463  0.87770690  0.73825400  1
  O  O13  1  0.72806434  0.96117648  0.14119887  1
  O  O14  1  0.35898611  0.04043055  0.58341885  1
  O  O15  1  0.97840762  0.76878239  0.10682475  1
  O  O16  1  0.46201548  0.74420427  0.98511435  1
  O  O17  1  0.98763106  0.61737841  0.22897271  1
