# generated using pymatgen
data_Li3Ti2Cu2(As3S)2
_symmetry_space_group_name_H-M   'P 1'
_cell_length_a   5.96843704
_cell_length_b   5.90844252
_cell_length_c   7.84198319
_cell_angle_alpha   95.63952387
_cell_angle_beta   97.32409963
_cell_angle_gamma   95.14940940
_symmetry_Int_Tables_number   1
_chemical_formula_structural   Li3Ti2Cu2(As3S)2
_chemical_formula_sum   'Li3 Ti2 Cu2 As6 S2'
_cell_volume   271.48765915
_cell_formula_units_Z   1
loop_
 _symmetry_equiv_pos_site_id
 _symmetry_equiv_pos_as_xyz
  1  'x, y, z'
loop_
 _atom_site_type_symbol
 _atom_site_label
 _atom_site_symmetry_multiplicity
 _atom_site_fract_x
 _atom_site_fract_y
 _atom_site_fract_z
 _atom_site_occupancy
  S  S0  1  0.00000000  0.00000000  0.00000000  1
  S  S1  1  0.50000000  0.50000000  0.50000000  1
  Ti  Ti2  1  0.25000000  0.25000000  0.25000000  1
  Ti  Ti3  1  0.75000000  0.25000000  0.00000000  1
  As  As4  1  0.25000000  0.75000000  0.50000000  1
  As  As5  1  0.91581878  0.45323497  0.33954095  1
  As  As6  1  0.41253076  0.99208195  0.04880203  1
  As  As7  1  0.47951488  0.78917329  0.53872456  1
  As  As8  1  0.09905733  0.54380825  0.54774826  1
  As  As9  1  0.52609070  0.38577079  0.66187702  1
  Li  Li10  1  0.32141112  0.73046257  0.99418961  1
  Li  Li11  1  0.69585444  0.67871731  0.60422763  1
  Li  Li12  1  0.62364710  0.24598748  0.08087174  1
  Cu  Cu13  1  0.35075905  0.39376751  0.05547832  1
  Cu  Cu14  1  0.47368618  0.04743093  0.98068474  1
