# generated using pymatgen
data_Li3Zn2(NiO3)2
_symmetry_space_group_name_H-M   'P 1'
_cell_length_a   8.44758943
_cell_length_b   8.60660226
_cell_length_c   8.49940881
_cell_angle_alpha   90.00000000
_cell_angle_beta   90.00000000
_cell_angle_gamma   90.00000000
_symmetry_Int_Tables_number   1
_chemical_formula_structural   Li3Zn2(NiO3)2
_chemical_formula_sum   'Li3 Zn2 Ni2 O6'
_cell_volume   617.94987741
_cell_formula_units_Z   1
loop_
 _symmetry_equiv_pos_site_id
 _symmetry_equiv_pos_as_xyz
  1  'x, y, z'
loop_
 _atom_site_type_symbol
 _atom_site_label
 _atom_site_symmetry_multiplicity
 _atom_site_fract_x
 _atom_site_fract_y
 _atom_site_fract_z
 _atom_site_occupancy
  Li  Li0  1  0.00000000  0.00000000  0.00000000  1
  Li  Li1  1  0.50000000  0.50000000  0.50000000  1
  Li  Li2  1  0.50000000  0.50000000  0.00000000  1
  Zn  Zn3  1  0.50000000  0.00000000  0.50000000  1
  Zn  Zn4  1  0.00000000  0.50000000  0.50000000  1
  Ni  Ni5  1  0.33546386  0.61268402  0.47756173  1
  Ni  Ni6  1  0.56767776  0.75520217  0.27600589  1
  O  O7  1  0.72970642  0.88507150  0.90499467  1
  O  O8  1  0.21384165  0.81194863  0.46862947  1
  O  O9  1  0.56308453  0.50413444  0.15754490  1
  O  O10  1  0.02716276  0.21314689  0.34878340  1
  O  O11  1  0.71073612  0.74301559  0.39333793  1
  O  O12  1  0.29444835  0.88379302  0.66790445  1
