# generated using pymatgen
data_Li3Ni2P4SeO4
_symmetry_space_group_name_H-M   'P 1'
_cell_length_a   6.02567106
_cell_length_b   5.73941697
_cell_length_c   7.37951611
_cell_angle_alpha   99.18178280
_cell_angle_beta   101.45367910
_cell_angle_gamma   98.81304774
_symmetry_Int_Tables_number   1
_chemical_formula_structural   Li3Ni2P4SeO4
_chemical_formula_sum   'Li3 Ni2 P4 Se1 O4'
_cell_volume   242.37388869
_cell_formula_units_Z   1
loop_
 _symmetry_equiv_pos_site_id
 _symmetry_equiv_pos_as_xyz
  1  'x, y, z'
loop_
 _atom_site_type_symbol
 _atom_site_label
 _atom_site_symmetry_multiplicity
 _atom_site_fract_x
 _atom_site_fract_y
 _atom_site_fract_z
 _atom_site_occupancy
  P  P0  1  0.00000000  0.00000000  0.00000000  1
  P  P1  1  0.50000000  0.50000000  0.50000000  1
  P  P2  1  0.50000000  0.50000000  0.00000000  1
  P  P3  1  0.50000000  0.00000000  0.50000000  1
  Li  Li4  1  0.00000000  0.50000000  0.50000000  1
  Li  Li5  1  0.74114148  0.72594531  0.50370740  1
  Li  Li6  1  0.34744997  0.30425872  0.67186098  1
  Se  Se7  1  0.03282482  0.12533022  0.75814451  1
  Ni  Ni8  1  0.12014999  0.55420522  0.87045611  1
  Ni  Ni9  1  0.27981853  0.74125247  0.17679846  1
  O  O10  1  0.77104468  0.66464191  0.96737032  1
  O  O11  1  0.09484393  0.89136399  0.53886051  1
  O  O12  1  0.79679930  0.50453138  0.09314521  1
  O  O13  1  0.40193551  0.95934874  0.14498005  1
