# generated using pymatgen
data_Li(SF)2
_symmetry_space_group_name_H-M   'P 1'
_cell_length_a   5.13634815
_cell_length_b   4.70586241
_cell_length_c   6.88715989
_cell_angle_alpha   95.39647632
_cell_angle_beta   99.46488207
_cell_angle_gamma   95.09094455
_symmetry_Int_Tables_number   1
_chemical_formula_structural   Li(SF)2
_chemical_formula_sum   'Li1 S2 F2'
_cell_volume   162.55224968
_cell_formula_units_Z   1
loop_
 _symmetry_equiv_pos_site_id
 _symmetry_equiv_pos_as_xyz
  1  'x, y, z'
loop_
 _atom_site_type_symbol
 _atom_site_label
 _atom_site_symmetry_multiplicity
 _atom_site_fract_x
 _atom_site_fract_y
 _atom_site_fract_z
 _atom_site_occupancy
  Li  Li0  1  0.12500000  0.12500000  0.12500000  1
  F  F1  1  0.50000000  0.50000000  0.50000000  1
  F  F2  1  0.25000000  0.25000000  0.25000000  1
  S  S3  1  0.75000000  0.75000000  0.75000000  1
  S  S4  1  0.58471075  0.82089403  0.02065277  1
