# generated using pymatgen
data_Li3TiP3Cl2F3
_symmetry_space_group_name_H-M   'P 1'
_cell_length_a   7.11154789
_cell_length_b   6.92267092
_cell_length_c   7.30865881
_cell_angle_alpha   94.19569259
_cell_angle_beta   95.16426831
_cell_angle_gamma   94.00655010
_symmetry_Int_Tables_number   1
_chemical_formula_structural   Li3TiP3Cl2F3
_chemical_formula_sum   'Li3 Ti1 P3 Cl2 F3'
_cell_volume   356.33058785
_cell_formula_units_Z   1
loop_
 _symmetry_equiv_pos_site_id
 _symmetry_equiv_pos_as_xyz
  1  'x, y, z'
loop_
 _atom_site_type_symbol
 _atom_site_label
 _atom_site_symmetry_multiplicity
 _atom_site_fract_x
 _atom_site_fract_y
 _atom_site_fract_z
 _atom_site_occupancy
  P  P0  1  0.12500000  0.00000000  0.25000000  1
  P  P1  1  0.00000000  0.00000000  0.00000000  1
  P  P2  1  0.37500000  0.00000000  0.25000000  1
  Li  Li3  1  0.25000000  0.25000000  0.25000000  1
  Li  Li4  1  0.00000000  0.25000000  0.12500000  1
  Li  Li5  1  0.62594764  0.52572470  0.57693232  1
  F  F6  1  0.92488472  0.41835987  0.82240421  1
  F  F7  1  0.14222684  0.74721926  0.91118695  1
  F  F8  1  0.31316977  0.71470450  0.29820076  1
  Cl  Cl9  1  0.20537988  0.47808937  0.99440579  1
  Cl  Cl10  1  0.79935686  0.39213280  0.06848139  1
  Ti  Ti11  1  0.31184198  0.29592958  0.70584069  1
