# generated using pymatgen
data_Li5Cr2As3P3S2
_symmetry_space_group_name_H-M   'P 1'
_cell_length_a   6.32203964
_cell_length_b   5.69932260
_cell_length_c   7.70400452
_cell_angle_alpha   95.57622787
_cell_angle_beta   96.11172148
_cell_angle_gamma   95.01640814
_symmetry_Int_Tables_number   1
_chemical_formula_structural   Li5Cr2As3P3S2
_chemical_formula_sum   'Li5 Cr2 As3 P3 S2'
_cell_volume   273.35737657
_cell_formula_units_Z   1
loop_
 _symmetry_equiv_pos_site_id
 _symmetry_equiv_pos_as_xyz
  1  'x, y, z'
loop_
 _atom_site_type_symbol
 _atom_site_label
 _atom_site_symmetry_multiplicity
 _atom_site_fract_x
 _atom_site_fract_y
 _atom_site_fract_z
 _atom_site_occupancy
  S  S0  1  0.12500000  0.00000000  0.25000000  1
  S  S1  1  0.00000000  0.00000000  0.00000000  1
  P  P2  1  0.37500000  0.00000000  0.25000000  1
  P  P3  1  0.25000000  0.25000000  0.25000000  1
  P  P4  1  0.00000000  0.25000000  0.12500000  1
  As  As5  1  0.89293485  0.84614176  0.15979324  1
  As  As6  1  0.44663459  0.07212433  0.73316219  1
  As  As7  1  0.20598482  0.21888244  0.19302349  1
  Li  Li8  1  0.50301676  0.42724811  0.09044991  1
  Li  Li9  1  0.11517438  0.01082260  0.53261880  1
  Li  Li10  1  0.02579165  0.27557557  0.57456737  1
  Li  Li11  1  0.96104847  0.32915027  0.24563874  1
  Li  Li12  1  0.65822386  0.14223503  0.39447091  1
  Cr  Cr13  1  0.67683913  0.26347454  0.96305960  1
  Cr  Cr14  1  0.27797637  0.66093573  0.57535665  1
