# generated using pymatgen
data_LiTi2As6F2
_symmetry_space_group_name_H-M   'P 1'
_cell_length_a   6.92541721
_cell_length_b   7.05720323
_cell_length_c   8.06331266
_cell_angle_alpha   90.85640894
_cell_angle_beta   94.07453364
_cell_angle_gamma   90.97910410
_symmetry_Int_Tables_number   1
_chemical_formula_structural   LiTi2As6F2
_chemical_formula_sum   'Li1 Ti2 As6 F2'
_cell_volume   392.98189484
_cell_formula_units_Z   1
loop_
 _symmetry_equiv_pos_site_id
 _symmetry_equiv_pos_as_xyz
  1  'x, y, z'
loop_
 _atom_site_type_symbol
 _atom_site_label
 _atom_site_symmetry_multiplicity
 _atom_site_fract_x
 _atom_site_fract_y
 _atom_site_fract_z
 _atom_site_occupancy
  F  F0  1  0.12500000  0.12500000  0.12500000  1
  F  F1  1  0.50000000  0.50000000  0.50000000  1
  Ti  Ti2  1  0.25000000  0.25000000  0.25000000  1
  Ti  Ti3  1  0.75000000  0.75000000  0.75000000  1
  As  As4  1  0.88476368  0.10923559  0.88867659  1
  As  As5  1  0.97848552  0.30541609  0.44261678  1
  As  As6  1  0.34199696  0.14920813  0.53142091  1
  As  As7  1  0.23289122  0.04296177  0.05197098  1
  As  As8  1  0.25031249  0.31568566  0.41017910  1
  As  As9  1  0.58233786  0.77989761  0.95915208  1
  Li  Li10  1  0.25274242  0.96009725  0.10796628  1
