# generated using pymatgen
data_Li2La3Si2P3I5
_symmetry_space_group_name_H-M   'P 1'
_cell_length_a   11.11630223
_cell_length_b   10.73671261
_cell_length_c   10.59266388
_cell_angle_alpha   90.00000000
_cell_angle_beta   90.00000000
_cell_angle_gamma   90.00000000
_symmetry_Int_Tables_number   1
_chemical_formula_structural   Li2La3Si2P3I5
_chemical_formula_sum   'Li2 La3 Si2 P3 I5'
_cell_volume   1264.26136434
_cell_formula_units_Z   1
loop_
 _symmetry_equiv_pos_site_id
 _symmetry_equiv_pos_as_xyz
  1  'x, y, z'
loop_
 _atom_site_type_symbol
 _atom_site_label
 _atom_site_symmetry_multiplicity
 _atom_site_fract_x
 _atom_site_fract_y
 _atom_site_fract_z
 _atom_site_occupancy
  I  I0  1  0.12500000  0.00000000  0.25000000  1
  I  I1  1  0.00000000  0.00000000  0.00000000  1
  I  I2  1  0.37500000  0.00000000  0.25000000  1
  I  I3  1  0.25000000  0.25000000  0.25000000  1
  I  I4  1  0.00000000  0.25000000  0.12500000  1
  P  P5  1  0.77633801  0.45469340  0.25926911  1
  P  P6  1  0.42922802  0.93097571  0.64810251  1
  P  P7  1  0.94955047  0.10591507  0.65747238  1
  Li  Li8  1  0.51158161  0.49899868  0.18664806  1
  Li  Li9  1  0.83101000  0.99981530  0.40622477  1
  La  La10  1  0.29062369  0.01083837  0.20954200  1
  La  La11  1  0.23475034  0.01691569  0.78415152  1
  La  La12  1  0.04282367  0.17468271  0.21797009  1
  Si  Si13  1  0.71639062  0.39055043  0.75483187  1
  Si  Si14  1  0.58097651  0.04305052  0.01412626  1
