# generated using pymatgen
data_Li3TiSe(IO)4
_symmetry_space_group_name_H-M   'P 1'
_cell_length_a   6.15545682
_cell_length_b   5.89653403
_cell_length_c   6.87775605
_cell_angle_alpha   100.45178081
_cell_angle_beta   103.49737365
_cell_angle_gamma   99.80371460
_symmetry_Int_Tables_number   1
_chemical_formula_structural   Li3TiSe(IO)4
_chemical_formula_sum   'Li3 Ti1 Se1 I4 O4'
_cell_volume   232.73651177
_cell_formula_units_Z   1
loop_
 _symmetry_equiv_pos_site_id
 _symmetry_equiv_pos_as_xyz
  1  'x, y, z'
loop_
 _atom_site_type_symbol
 _atom_site_label
 _atom_site_symmetry_multiplicity
 _atom_site_fract_x
 _atom_site_fract_y
 _atom_site_fract_z
 _atom_site_occupancy
  I  I0  1  0.00000000  0.00000000  0.00000000  1
  I  I1  1  0.50000000  0.50000000  0.50000000  1
  I  I2  1  0.50000000  0.50000000  0.00000000  1
  I  I3  1  0.50000000  0.00000000  0.50000000  1
  Li  Li4  1  0.00000000  0.50000000  0.50000000  1
  Li  Li5  1  0.28179581  0.47660827  0.59419774  1
  Li  Li6  1  0.12288655  0.70073599  0.37081438  1
  Se  Se7  1  0.22470538  0.01973293  0.56653181  1
  Ti  Ti8  1  0.59135133  0.89772686  0.69195845  1
  O  O9  1  0.77549339  0.04222233  0.18380494  1
  O  O10  1  0.68504504  0.51012377  0.22315357  1
  O  O11  1  0.61856765  0.24271703  0.30613211  1
  O  O12  1  0.82296833  0.94167293  0.25260103  1
