# generated using pymatgen
data_Li3Ti2P4N5F3
_symmetry_space_group_name_H-M   'P 1'
_cell_length_a   7.17102590
_cell_length_b   6.98115226
_cell_length_c   7.56888068
_cell_angle_alpha   93.51758385
_cell_angle_beta   93.82937877
_cell_angle_gamma   93.48085338
_symmetry_Int_Tables_number   1
_chemical_formula_structural   Li3Ti2P4N5F3
_chemical_formula_sum   'Li3 Ti2 P4 N5 F3'
_cell_volume   376.55525088
_cell_formula_units_Z   1
loop_
 _symmetry_equiv_pos_site_id
 _symmetry_equiv_pos_as_xyz
  1  'x, y, z'
loop_
 _atom_site_type_symbol
 _atom_site_label
 _atom_site_symmetry_multiplicity
 _atom_site_fract_x
 _atom_site_fract_y
 _atom_site_fract_z
 _atom_site_occupancy
  P  P0  1  0.00000000  0.00000000  0.00000000  1
  P  P1  1  0.50000000  0.50000000  0.50000000  1
  P  P2  1  0.25000000  0.25000000  0.25000000  1
  P  P3  1  0.75000000  0.25000000  0.00000000  1
  Li  Li4  1  0.25000000  0.75000000  0.50000000  1
  Li  Li5  1  0.29767160  0.60895939  0.51153841  1
  Li  Li6  1  0.95911783  0.17035516  0.87838561  1
  F  F7  1  0.64908987  0.83526995  0.74572239  1
  F  F8  1  0.85791212  0.36374812  0.40821443  1
  F  F9  1  0.06282862  0.60595801  0.12781571  1
  Ti  Ti10  1  0.45358266  0.00576806  0.71105297  1
  Ti  Ti11  1  0.38829234  0.84606445  0.95693418  1
  N  N12  1  0.49810684  0.41667494  0.56897825  1
  N  N13  1  0.60926692  0.32210340  0.73502070  1
  N  N14  1  0.35445341  0.38330957  0.82622256  1
  N  N15  1  0.96134239  0.77717312  0.22998129  1
  N  N16  1  0.54659728  0.63920498  0.02178763  1
