# generated using pymatgen
data_Li2TiAs6
_symmetry_space_group_name_H-M   'P 1'
_cell_length_a   7.34764648
_cell_length_b   7.15245506
_cell_length_c   7.99194401
_cell_angle_alpha   91.62666789
_cell_angle_beta   91.94054424
_cell_angle_gamma   91.61801070
_symmetry_Int_Tables_number   1
_chemical_formula_structural   Li2TiAs6
_chemical_formula_sum   'Li2 Ti1 As6'
_cell_volume   419.41704981
_cell_formula_units_Z   1
loop_
 _symmetry_equiv_pos_site_id
 _symmetry_equiv_pos_as_xyz
  1  'x, y, z'
loop_
 _atom_site_type_symbol
 _atom_site_label
 _atom_site_symmetry_multiplicity
 _atom_site_fract_x
 _atom_site_fract_y
 _atom_site_fract_z
 _atom_site_occupancy
  Li  Li0  1  0.00000000  0.00000000  0.00000000  1
  Li  Li1  1  0.50000000  0.50000000  0.50000000  1
  Ti  Ti2  1  0.50000000  0.50000000  0.00000000  1
  As  As3  1  0.50000000  0.00000000  0.50000000  1
  As  As4  1  0.00000000  0.50000000  0.50000000  1
  As  As5  1  0.90427200  0.60595068  0.95340246  1
  As  As6  1  0.62201433  0.67054993  0.32167459  1
  As  As7  1  0.00165514  0.69979897  0.89969590  1
  As  As8  1  0.23358425  0.27982633  0.62366339  1
