# generated using pymatgen
data_Li2As6P8F3
_symmetry_space_group_name_H-M   'P 1'
_cell_length_a   6.44701019
_cell_length_b   6.25701245
_cell_length_c   7.91199959
_cell_angle_alpha   97.54165243
_cell_angle_beta   100.65572497
_cell_angle_gamma   97.13226770
_symmetry_Int_Tables_number   1
_chemical_formula_structural   Li2As6P8F3
_chemical_formula_sum   'Li2 As6 P8 F3'
_cell_volume   307.31560923
_cell_formula_units_Z   1
loop_
 _symmetry_equiv_pos_site_id
 _symmetry_equiv_pos_as_xyz
  1  'x, y, z'
loop_
 _atom_site_type_symbol
 _atom_site_label
 _atom_site_symmetry_multiplicity
 _atom_site_fract_x
 _atom_site_fract_y
 _atom_site_fract_z
 _atom_site_occupancy
  F  F0  1  0.00000000  0.00000000  0.00000000  1
  F  F1  1  0.33300000  0.66700000  0.25000000  1
  F  F2  1  0.66700000  0.33300000  0.50000000  1
  P  P3  1  0.00000000  0.00000000  0.75000000  1
  P  P4  1  0.59629720  0.94453207  0.99363341  1
  P  P5  1  0.26975198  0.91799793  0.79659304  1
  P  P6  1  0.09451807  0.97305221  0.89320452  1
  P  P7  1  0.85147316  0.67968561  0.80354713  1
  P  P8  1  0.93483264  0.13210850  0.42587004  1
  P  P9  1  0.67180384  0.81245390  0.60084262  1
  P  P10  1  0.58655250  0.42097416  0.35248662  1
  As  As11  1  0.15856985  0.25494583  0.74250216  1
  As  As12  1  0.49935636  0.96950782  0.54296031  1
  As  As13  1  0.98511458  0.91966582  0.62551937  1
  As  As14  1  0.04108083  0.64142351  0.75951416  1
  As  As15  1  0.11299855  0.24037548  0.01518821  1
  As  As16  1  0.18546456  0.04421867  0.60489877  1
  Li  Li17  1  0.62438635  0.31297766  0.78020958  1
  Li  Li18  1  0.44838027  0.97267289  0.66828184  1
