# generated using pymatgen
data_Li2Lu(TiP2)2
_symmetry_space_group_name_H-M   'P 1'
_cell_length_a   7.16885365
_cell_length_b   6.83404966
_cell_length_c   7.56866540
_cell_angle_alpha   92.23794169
_cell_angle_beta   93.35183957
_cell_angle_gamma   92.26244767
_symmetry_Int_Tables_number   1
_chemical_formula_structural   Li2Lu(TiP2)2
_chemical_formula_sum   'Li2 Lu1 Ti2 P4'
_cell_volume   369.56540445
_cell_formula_units_Z   1
loop_
 _symmetry_equiv_pos_site_id
 _symmetry_equiv_pos_as_xyz
  1  'x, y, z'
loop_
 _atom_site_type_symbol
 _atom_site_label
 _atom_site_symmetry_multiplicity
 _atom_site_fract_x
 _atom_site_fract_y
 _atom_site_fract_z
 _atom_site_occupancy
  P  P0  1  0.12500000  0.12500000  0.12500000  1
  P  P1  1  0.50000000  0.50000000  0.50000000  1
  P  P2  1  0.25000000  0.25000000  0.25000000  1
  P  P3  1  0.75000000  0.75000000  0.75000000  1
  Lu  Lu4  1  0.96398974  0.53349812  0.45658269  1
  Li  Li5  1  0.69926715  0.16678722  0.96933346  1
  Li  Li6  1  0.76817133  0.20724901  0.63544631  1
  Ti  Ti7  1  0.84132765  0.15836360  0.00088542  1
  Ti  Ti8  1  0.46860103  0.96010585  0.27158854  1
