# generated using pymatgen
data_Li2Ti(OF)2
_symmetry_space_group_name_H-M   'P 1'
_cell_length_a   5.23800724
_cell_length_b   5.14934733
_cell_length_c   6.89679621
_cell_angle_alpha   99.78188821
_cell_angle_beta   104.44551492
_cell_angle_gamma   99.99558757
_symmetry_Int_Tables_number   1
_chemical_formula_structural   Li2Ti(OF)2
_chemical_formula_sum   'Li2 Ti1 O2 F2'
_cell_volume   172.91742371
_cell_formula_units_Z   1
loop_
 _symmetry_equiv_pos_site_id
 _symmetry_equiv_pos_as_xyz
  1  'x, y, z'
loop_
 _atom_site_type_symbol
 _atom_site_label
 _atom_site_symmetry_multiplicity
 _atom_site_fract_x
 _atom_site_fract_y
 _atom_site_fract_z
 _atom_site_occupancy
  Li  Li0  1  0.00000000  0.00000000  0.00000000  1
  Li  Li1  1  0.33300000  0.66700000  0.25000000  1
  F  F2  1  0.66700000  0.33300000  0.50000000  1
  F  F3  1  0.00000000  0.00000000  0.75000000  1
  Ti  Ti4  1  0.48820454  0.01968958  0.23076832  1
  O  O5  1  0.20657098  0.66045857  0.73088227  1
  O  O6  1  0.94355127  0.52815234  0.71865273  1
