# generated using pymatgen
data_Li2TiCu2(As3P2)2
_symmetry_space_group_name_H-M   'P 1'
_cell_length_a   7.08900955
_cell_length_b   7.11580501
_cell_length_c   8.15530681
_cell_angle_alpha   92.46340602
_cell_angle_beta   93.69844736
_cell_angle_gamma   92.37969454
_symmetry_Int_Tables_number   1
_chemical_formula_structural   Li2TiCu2(As3P2)2
_chemical_formula_sum   'Li2 Ti1 Cu2 As6 P4'
_cell_volume   409.74524936
_cell_formula_units_Z   1
loop_
 _symmetry_equiv_pos_site_id
 _symmetry_equiv_pos_as_xyz
  1  'x, y, z'
loop_
 _atom_site_type_symbol
 _atom_site_label
 _atom_site_symmetry_multiplicity
 _atom_site_fract_x
 _atom_site_fract_y
 _atom_site_fract_z
 _atom_site_occupancy
  Ti  Ti0  1  0.00000000  0.00000000  0.00000000  1
  P  P1  1  0.50000000  0.50000000  0.50000000  1
  P  P2  1  0.25000000  0.25000000  0.25000000  1
  P  P3  1  0.75000000  0.25000000  0.00000000  1
  P  P4  1  0.25000000  0.75000000  0.50000000  1
  As  As5  1  0.24819613  0.40379383  0.90656786  1
  As  As6  1  0.17296662  0.18961807  0.75830602  1
  As  As7  1  0.57704669  0.00216061  0.67501864  1
  As  As8  1  0.06251015  0.07295318  0.97870924  1
  As  As9  1  0.21087970  0.26448172  0.67513082  1
  As  As10  1  0.28581222  0.54893884  0.66529925  1
  Li  Li11  1  0.24950767  0.96351910  0.80164037  1
  Li  Li12  1  0.43231579  0.19369436  0.05061450  1
  Cu  Cu13  1  0.74974647  0.06124664  0.67849656  1
  Cu  Cu14  1  0.82860103  0.35297193  0.16014525  1
