# generated using pymatgen
data_Li2Mn2Sb4P3
_symmetry_space_group_name_H-M   'P 1'
_cell_length_a   5.76504900
_cell_length_b   6.24989962
_cell_length_c   7.45062293
_cell_angle_alpha   94.76531407
_cell_angle_beta   95.64495483
_cell_angle_gamma   95.42351578
_symmetry_Int_Tables_number   1
_chemical_formula_structural   Li2Mn2Sb4P3
_chemical_formula_sum   'Li2 Mn2 Sb4 P3'
_cell_volume   264.79683326
_cell_formula_units_Z   1
loop_
 _symmetry_equiv_pos_site_id
 _symmetry_equiv_pos_as_xyz
  1  'x, y, z'
loop_
 _atom_site_type_symbol
 _atom_site_label
 _atom_site_symmetry_multiplicity
 _atom_site_fract_x
 _atom_site_fract_y
 _atom_site_fract_z
 _atom_site_occupancy
  Mn  Mn0  1  0.00000000  0.00000000  0.00000000  1
  Mn  Mn1  1  0.50000000  0.50000000  0.50000000  1
  Sb  Sb2  1  0.50000000  0.50000000  0.00000000  1
  Sb  Sb3  1  0.50000000  0.00000000  0.50000000  1
  Sb  Sb4  1  0.00000000  0.50000000  0.50000000  1
  Sb  Sb5  1  0.27400896  0.27878547  0.64268996  1
  P  P6  1  0.63864200  0.72445841  0.51897811  1
  P  P7  1  0.83183545  0.40407737  0.56674475  1
  P  P8  1  0.21365847  0.82071597  0.47298023  1
  Li  Li9  1  0.70692623  0.04751191  0.07230227  1
  Li  Li10  1  0.58822556  0.93045153  0.66975897  1
