# generated using pymatgen
data_Li2TiCu2(As3O)2
_symmetry_space_group_name_H-M   'P 1'
_cell_length_a   7.38096984
_cell_length_b   7.30749743
_cell_length_c   7.48560812
_cell_angle_alpha   92.69908444
_cell_angle_beta   94.39754504
_cell_angle_gamma   92.58573265
_symmetry_Int_Tables_number   1
_chemical_formula_structural   Li2TiCu2(As3O)2
_chemical_formula_sum   'Li2 Ti1 Cu2 As6 O2'
_cell_volume   401.63017810
_cell_formula_units_Z   1
loop_
 _symmetry_equiv_pos_site_id
 _symmetry_equiv_pos_as_xyz
  1  'x, y, z'
loop_
 _atom_site_type_symbol
 _atom_site_label
 _atom_site_symmetry_multiplicity
 _atom_site_fract_x
 _atom_site_fract_y
 _atom_site_fract_z
 _atom_site_occupancy
  Li  Li0  1  0.12500000  0.00000000  0.25000000  1
  Li  Li1  1  0.00000000  0.00000000  0.00000000  1
  Cu  Cu2  1  0.37500000  0.00000000  0.25000000  1
  Cu  Cu3  1  0.25000000  0.25000000  0.25000000  1
  Ti  Ti4  1  0.00000000  0.25000000  0.12500000  1
  As  As5  1  0.78388021  0.80082643  0.15596295  1
  As  As6  1  0.34565449  0.09345630  0.08544909  1
  As  As7  1  0.86112780  0.51397913  0.42128778  1
  As  As8  1  0.45002915  0.38603318  0.59133058  1
  As  As9  1  0.98643510  0.80970408  0.99754085  1
  As  As10  1  0.00395540  0.85488097  0.22919808  1
  O  O11  1  0.97553854  0.48950556  0.65132899  1
  O  O12  1  0.55661445  0.98726980  0.40100064  1
