# generated using pymatgen
data_Li2TiP5N5O3
_symmetry_space_group_name_H-M   'P 1'
_cell_length_a   7.74528659
_cell_length_b   7.56997259
_cell_length_c   7.85340639
_cell_angle_alpha   91.65903198
_cell_angle_beta   92.16888226
_cell_angle_gamma   91.76930305
_symmetry_Int_Tables_number   1
_chemical_formula_structural   Li2TiP5N5O3
_chemical_formula_sum   'Li2 Ti1 P5 N5 O3'
_cell_volume   459.69944265
_cell_formula_units_Z   1
loop_
 _symmetry_equiv_pos_site_id
 _symmetry_equiv_pos_as_xyz
  1  'x, y, z'
loop_
 _atom_site_type_symbol
 _atom_site_label
 _atom_site_symmetry_multiplicity
 _atom_site_fract_x
 _atom_site_fract_y
 _atom_site_fract_z
 _atom_site_occupancy
  P  P0  1  0.12500000  0.00000000  0.25000000  1
  P  P1  1  0.00000000  0.00000000  0.00000000  1
  P  P2  1  0.37500000  0.00000000  0.25000000  1
  P  P3  1  0.25000000  0.25000000  0.25000000  1
  P  P4  1  0.00000000  0.25000000  0.12500000  1
  Li  Li5  1  0.96041705  0.74235897  0.75706529  1
  Li  Li6  1  0.23967550  0.37654213  0.99146242  1
  Ti  Ti7  1  0.14529701  0.05778018  0.50418706  1
  O  O8  1  0.59941371  0.88711147  0.28712690  1
  O  O9  1  0.64687974  0.29648707  0.90358712  1
  O  O10  1  0.10149750  0.84658315  0.65044307  1
  N  N11  1  0.19930498  0.98632860  0.51227905  1
  N  N12  1  0.03200532  0.30925794  0.63422308  1
  N  N13  1  0.68802695  0.82325845  0.71622166  1
  N  N14  1  0.65359236  0.19456947  0.66291903  1
  N  N15  1  0.34359435  0.52763213  0.89209667  1
