# generated using pymatgen
data_Li3Ti(IO)4
_symmetry_space_group_name_H-M   'P 1'
_cell_length_a   8.85762484
_cell_length_b   8.73755557
_cell_length_c   7.29041006
_cell_angle_alpha   90.00000000
_cell_angle_beta   90.00000000
_cell_angle_gamma   90.00000000
_symmetry_Int_Tables_number   1
_chemical_formula_structural   Li3Ti(IO)4
_chemical_formula_sum   'Li3 Ti1 I4 O4'
_cell_volume   564.23391775
_cell_formula_units_Z   1
loop_
 _symmetry_equiv_pos_site_id
 _symmetry_equiv_pos_as_xyz
  1  'x, y, z'
loop_
 _atom_site_type_symbol
 _atom_site_label
 _atom_site_symmetry_multiplicity
 _atom_site_fract_x
 _atom_site_fract_y
 _atom_site_fract_z
 _atom_site_occupancy
  I  I0  1  0.00000000  0.00000000  0.00000000  1
  I  I1  1  0.50000000  0.50000000  0.50000000  1
  I  I2  1  0.50000000  0.50000000  0.00000000  1
  I  I3  1  0.50000000  0.00000000  0.50000000  1
  Li  Li4  1  0.00000000  0.50000000  0.50000000  1
  Li  Li5  1  0.50895757  0.61814198  0.27368894  1
  Li  Li6  1  0.37684895  0.12056051  0.29404529  1
  Ti  Ti7  1  0.23312359  0.63726573  0.25724271  1
  O  O8  1  0.89662395  0.12687902  0.06017277  1
  O  O9  1  0.73893661  0.60556719  0.72162078  1
  O  O10  1  0.70364717  0.55708446  0.96780633  1
  O  O11  1  0.29673300  0.92645948  0.83610508  1
