# generated using pymatgen
data_Li2TiI4(OF)3
_symmetry_space_group_name_H-M   'P 1'
_cell_length_a   8.39100871
_cell_length_b   8.24675431
_cell_length_c   7.36465900
_cell_angle_alpha   90.17856527
_cell_angle_beta   90.84955933
_cell_angle_gamma   90.20414779
_symmetry_Int_Tables_number   1
_chemical_formula_structural   Li2TiI4(OF)3
_chemical_formula_sum   'Li2 Ti1 I4 O3 F3'
_cell_volume   509.56218265
_cell_formula_units_Z   1
loop_
 _symmetry_equiv_pos_site_id
 _symmetry_equiv_pos_as_xyz
  1  'x, y, z'
loop_
 _atom_site_type_symbol
 _atom_site_label
 _atom_site_symmetry_multiplicity
 _atom_site_fract_x
 _atom_site_fract_y
 _atom_site_fract_z
 _atom_site_occupancy
  I  I0  1  0.12500000  0.00000000  0.25000000  1
  I  I1  1  0.00000000  0.00000000  0.00000000  1
  I  I2  1  0.37500000  0.00000000  0.25000000  1
  I  I3  1  0.25000000  0.25000000  0.25000000  1
  Li  Li4  1  0.00000000  0.25000000  0.12500000  1
  Li  Li5  1  0.75960138  0.13706931  0.05605082  1
  F  F6  1  0.98346669  0.32028679  0.75157314  1
  F  F7  1  0.85018264  0.46417418  0.69605619  1
  F  F8  1  0.90615949  0.04017186  0.24555494  1
  Ti  Ti9  1  0.11034739  0.53895925  0.48262104  1
  O  O10  1  0.91828443  0.80273405  0.18379967  1
  O  O11  1  0.16285667  0.72693977  0.56442087  1
  O  O12  1  0.31198237  0.33224490  0.45160292  1
