# generated using pymatgen
data_Li3Ti2(Te3O2)2
_symmetry_space_group_name_H-M   'P 1'
_cell_length_a   6.70794083
_cell_length_b   6.78225761
_cell_length_c   7.01380524
_cell_angle_alpha   94.43922506
_cell_angle_beta   95.55105182
_cell_angle_gamma   94.03917075
_symmetry_Int_Tables_number   1
_chemical_formula_structural   Li3Ti2(Te3O2)2
_chemical_formula_sum   'Li3 Ti2 Te6 O4'
_cell_volume   315.66590369
_cell_formula_units_Z   1
loop_
 _symmetry_equiv_pos_site_id
 _symmetry_equiv_pos_as_xyz
  1  'x, y, z'
loop_
 _atom_site_type_symbol
 _atom_site_label
 _atom_site_symmetry_multiplicity
 _atom_site_fract_x
 _atom_site_fract_y
 _atom_site_fract_z
 _atom_site_occupancy
  Li  Li0  1  0.00000000  0.00000000  0.00000000  1
  Li  Li1  1  0.50000000  0.50000000  0.50000000  1
  Li  Li2  1  0.50000000  0.50000000  0.00000000  1
  Te  Te3  1  0.50000000  0.00000000  0.50000000  1
  Te  Te4  1  0.00000000  0.50000000  0.50000000  1
  Te  Te5  1  0.00557530  0.43277130  0.35059221  1
  Te  Te6  1  0.42536496  0.08383314  0.87059589  1
  Te  Te7  1  0.48471261  0.18287242  0.97588641  1
  Te  Te8  1  0.68425827  0.14831923  0.81894409  1
  Ti  Ti9  1  0.91018725  0.05958785  0.96982635  1
  Ti  Ti10  1  0.46341279  0.53118721  0.23232637  1
  O  O11  1  0.68023892  0.23299538  0.74643126  1
  O  O12  1  0.34000398  0.27808247  0.91720404  1
  O  O13  1  0.13906532  0.07783002  0.03330871  1
  O  O14  1  0.93623126  0.61854848  0.68627724  1
