# generated using pymatgen
data_Li2TiN5F2
_symmetry_space_group_name_H-M   'P 1'
_cell_length_a   6.73234989
_cell_length_b   6.62697650
_cell_length_c   7.61080855
_cell_angle_alpha   91.72379363
_cell_angle_beta   94.88154269
_cell_angle_gamma   91.98327807
_symmetry_Int_Tables_number   1
_chemical_formula_structural   Li2TiN5F2
_chemical_formula_sum   'Li2 Ti1 N5 F2'
_cell_volume   337.93682812
_cell_formula_units_Z   1
loop_
 _symmetry_equiv_pos_site_id
 _symmetry_equiv_pos_as_xyz
  1  'x, y, z'
loop_
 _atom_site_type_symbol
 _atom_site_label
 _atom_site_symmetry_multiplicity
 _atom_site_fract_x
 _atom_site_fract_y
 _atom_site_fract_z
 _atom_site_occupancy
  Li  Li0  1  0.12500000  0.12500000  0.12500000  1
  Li  Li1  1  0.50000000  0.50000000  0.50000000  1
  F  F2  1  0.25000000  0.25000000  0.25000000  1
  F  F3  1  0.75000000  0.75000000  0.75000000  1
  Ti  Ti4  1  0.77367384  0.75346821  0.25171722  1
  N  N5  1  0.69859323  0.85515702  0.08336867  1
  N  N6  1  0.10392259  0.04700897  0.42213262  1
  N  N7  1  0.13904702  0.23690606  0.20636236  1
  N  N8  1  0.56243453  0.24217439  0.42008289  1
  N  N9  1  0.77113363  0.41041070  0.82109154  1
