# generated using pymatgen
data_Li2Ti2P5(IO)4
_symmetry_space_group_name_H-M   'P 1'
_cell_length_a   8.17555082
_cell_length_b   8.25287670
_cell_length_c   7.89378380
_cell_angle_alpha   91.20565323
_cell_angle_beta   90.54105479
_cell_angle_gamma   91.39797876
_symmetry_Int_Tables_number   1
_chemical_formula_structural   Li2Ti2P5(IO)4
_chemical_formula_sum   'Li2 Ti2 P5 I4 O4'
_cell_volume   532.30508259
_cell_formula_units_Z   1
loop_
 _symmetry_equiv_pos_site_id
 _symmetry_equiv_pos_as_xyz
  1  'x, y, z'
loop_
 _atom_site_type_symbol
 _atom_site_label
 _atom_site_symmetry_multiplicity
 _atom_site_fract_x
 _atom_site_fract_y
 _atom_site_fract_z
 _atom_site_occupancy
  P  P0  1  0.00000000  0.00000000  0.00000000  1
  P  P1  1  0.50000000  0.50000000  0.50000000  1
  P  P2  1  0.50000000  0.50000000  0.00000000  1
  P  P3  1  0.50000000  0.00000000  0.50000000  1
  P  P4  1  0.00000000  0.50000000  0.50000000  1
  I  I5  1  0.40251090  0.88282248  0.78327671  1
  I  I6  1  0.99818016  0.86679221  0.45532213  1
  I  I7  1  0.30019885  0.40609220  0.84570131  1
  I  I8  1  0.54133529  0.45457602  0.89584202  1
  Li  Li9  1  0.10517910  0.48666359  0.93067128  1
  Li  Li10  1  0.58742803  0.02096207  0.63203482  1
  Ti  Ti11  1  0.45106918  0.60323258  0.37067576  1
  Ti  Ti12  1  0.16741245  0.26435077  0.89579237  1
  O  O13  1  0.20921671  0.09207384  0.54615071  1
  O  O14  1  0.73685229  0.61651590  0.64987888  1
  O  O15  1  0.36783182  0.47971943  0.17821063  1
  O  O16  1  0.57579871  0.64392217  0.82533552  1
