# generated using pymatgen
data_Li3LuCu2Ni2P5
_symmetry_space_group_name_H-M   'P 1'
_cell_length_a   6.53181098
_cell_length_b   6.22680465
_cell_length_c   7.69911018
_cell_angle_alpha   97.70564265
_cell_angle_beta   99.43583879
_cell_angle_gamma   97.45311841
_symmetry_Int_Tables_number   1
_chemical_formula_structural   Li3LuCu2Ni2P5
_chemical_formula_sum   'Li3 Lu1 Cu2 Ni2 P5'
_cell_volume   302.40619744
_cell_formula_units_Z   1
loop_
 _symmetry_equiv_pos_site_id
 _symmetry_equiv_pos_as_xyz
  1  'x, y, z'
loop_
 _atom_site_type_symbol
 _atom_site_label
 _atom_site_symmetry_multiplicity
 _atom_site_fract_x
 _atom_site_fract_y
 _atom_site_fract_z
 _atom_site_occupancy
  Ni  Ni0  1  0.00000000  0.00000000  0.00000000  1
  Ni  Ni1  1  0.50000000  0.50000000  0.50000000  1
  P  P2  1  0.50000000  0.50000000  0.00000000  1
  P  P3  1  0.50000000  0.00000000  0.50000000  1
  P  P4  1  0.00000000  0.50000000  0.50000000  1
  P  P5  1  0.09830218  0.90733205  0.07404412  1
  P  P6  1  0.19709529  0.53923681  0.81465298  1
  Lu  Lu7  1  0.62946464  0.95470024  0.32005532  1
  Li  Li8  1  0.10636484  0.87437053  0.53400370  1
  Li  Li9  1  0.26983180  0.33290393  0.72625920  1
  Li  Li10  1  0.91572093  0.10513646  0.89382258  1
  Cu  Cu11  1  0.11169052  0.30131697  0.30379087  1
  Cu  Cu12  1  0.04105198  0.37211438  0.01421503  1
