# generated using pymatgen
data_Li3Ti(IO)4
_symmetry_space_group_name_H-M   'P 1'
_cell_length_a   8.87687184
_cell_length_b   8.75761409
_cell_length_c   7.20693757
_cell_angle_alpha   90.00000000
_cell_angle_beta   90.00000000
_cell_angle_gamma   90.00000000
_symmetry_Int_Tables_number   1
_chemical_formula_structural   Li3Ti(IO)4
_chemical_formula_sum   'Li3 Ti1 I4 O4'
_cell_volume   560.26889682
_cell_formula_units_Z   1
loop_
 _symmetry_equiv_pos_site_id
 _symmetry_equiv_pos_as_xyz
  1  'x, y, z'
loop_
 _atom_site_type_symbol
 _atom_site_label
 _atom_site_symmetry_multiplicity
 _atom_site_fract_x
 _atom_site_fract_y
 _atom_site_fract_z
 _atom_site_occupancy
  I  I0  1  0.00000000  0.00000000  0.00000000  1
  I  I1  1  0.33300000  0.66700000  0.25000000  1
  I  I2  1  0.66700000  0.33300000  0.50000000  1
  I  I3  1  0.00000000  0.00000000  0.75000000  1
  Li  Li4  1  0.81905221  0.93408560  0.01951526  1
  Li  Li5  1  0.35113462  0.40904267  0.16919165  1
  Li  Li6  1  0.67953983  0.13970723  0.36887577  1
  Ti  Ti7  1  0.77338510  0.01025267  0.27636730  1
  O  O8  1  0.41357611  0.20627093  0.23781075  1
  O  O9  1  0.98395368  0.20798202  0.85729292  1
  O  O10  1  0.85779646  0.21375801  0.51931103  1
  O  O11  1  0.27321520  0.51807736  0.73598257  1
