# generated using pymatgen
data_Li3Ti2I4(ClO2)2
_symmetry_space_group_name_H-M   'P 1'
_cell_length_a   5.40152662
_cell_length_b   5.12951037
_cell_length_c   7.12232696
_cell_angle_alpha   101.26748304
_cell_angle_beta   104.70835341
_cell_angle_gamma   100.53951603
_symmetry_Int_Tables_number   1
_chemical_formula_structural   Li3Ti2I4(ClO2)2
_chemical_formula_sum   'Li3 Ti2 I4 Cl2 O4'
_cell_volume   181.48300758
_cell_formula_units_Z   1
loop_
 _symmetry_equiv_pos_site_id
 _symmetry_equiv_pos_as_xyz
  1  'x, y, z'
loop_
 _atom_site_type_symbol
 _atom_site_label
 _atom_site_symmetry_multiplicity
 _atom_site_fract_x
 _atom_site_fract_y
 _atom_site_fract_z
 _atom_site_occupancy
  Cl  Cl0  1  0.12500000  0.00000000  0.25000000  1
  Cl  Cl1  1  0.00000000  0.00000000  0.00000000  1
  Ti  Ti2  1  0.37500000  0.00000000  0.25000000  1
  Ti  Ti3  1  0.25000000  0.25000000  0.25000000  1
  I  I4  1  0.00000000  0.25000000  0.12500000  1
  I  I5  1  0.26825403  0.74632259  0.70617531  1
  I  I6  1  0.15346806  0.60590557  0.46097544  1
  I  I7  1  0.86797184  0.85386260  0.37939897  1
  O  O8  1  0.88477535  0.33819458  0.18993601  1
  O  O9  1  0.77372135  0.73433823  0.72828295  1
  O  O10  1  0.32062329  0.07643001  0.03098476  1
  O  O11  1  0.66271615  0.75070339  0.20240919  1
  Li  Li12  1  0.35867015  0.14710377  0.60643631  1
  Li  Li13  1  0.89807361  0.56598757  0.25100456  1
  Li  Li14  1  0.47766945  0.99739444  0.65045129  1
