# generated using pymatgen
data_LiF2
_symmetry_space_group_name_H-M   'P 1'
_cell_length_a   6.88059614
_cell_length_b   7.00724954
_cell_length_c   8.03308259
_cell_angle_alpha   90.88696401
_cell_angle_beta   94.21990539
_cell_angle_gamma   91.01403670
_symmetry_Int_Tables_number   1
_chemical_formula_structural   LiF2
_chemical_formula_sum   'Li1 F2'
_cell_volume   386.14228492
_cell_formula_units_Z   1
loop_
 _symmetry_equiv_pos_site_id
 _symmetry_equiv_pos_as_xyz
  1  'x, y, z'
loop_
 _atom_site_type_symbol
 _atom_site_label
 _atom_site_symmetry_multiplicity
 _atom_site_fract_x
 _atom_site_fract_y
 _atom_site_fract_z
 _atom_site_occupancy
  F  F0  1  0.12500000  0.00000000  0.25000000  1
  F  F1  1  0.00000000  0.00000000  0.00000000  1
  Li  Li2  1  0.37500000  0.00000000  0.25000000  1
