# generated using pymatgen
data_Li2LuI4(OF)3
_symmetry_space_group_name_H-M   'P 1'
_cell_length_a   7.77485531
_cell_length_b   7.58526506
_cell_length_c   8.09275908
_cell_angle_alpha   91.18144589
_cell_angle_beta   91.36892015
_cell_angle_gamma   91.36674629
_symmetry_Int_Tables_number   1
_chemical_formula_structural   Li2LuI4(OF)3
_chemical_formula_sum   'Li2 Lu1 I4 O3 F3'
_cell_volume   476.88594857
_cell_formula_units_Z   1
loop_
 _symmetry_equiv_pos_site_id
 _symmetry_equiv_pos_as_xyz
  1  'x, y, z'
loop_
 _atom_site_type_symbol
 _atom_site_label
 _atom_site_symmetry_multiplicity
 _atom_site_fract_x
 _atom_site_fract_y
 _atom_site_fract_z
 _atom_site_occupancy
  I  I0  1  0.12500000  0.00000000  0.25000000  1
  I  I1  1  0.00000000  0.00000000  0.00000000  1
  I  I2  1  0.37500000  0.00000000  0.25000000  1
  I  I3  1  0.25000000  0.25000000  0.25000000  1
  Lu  Lu4  1  0.00000000  0.25000000  0.12500000  1
  Li  Li5  1  0.10594315  0.83663618  0.65598505  1
  Li  Li6  1  0.08142945  0.73219766  0.94161704  1
  F  F7  1  0.71030955  0.90028147  0.31058684  1
  F  F8  1  0.95879235  0.29362894  0.53712390  1
  F  F9  1  0.13495810  0.50015578  0.69105107  1
  O  O10  1  0.26246928  0.10033525  0.25168011  1
  O  O11  1  0.56666669  0.76942790  0.77660050  1
  O  O12  1  0.05637266  0.35588869  0.92645235  1
