# generated using pymatgen
data_Li3P5O2
_symmetry_space_group_name_H-M   'P 1'
_cell_length_a   5.64697212
_cell_length_b   5.26608052
_cell_length_c   7.19155210
_cell_angle_alpha   101.63587712
_cell_angle_beta   104.59312470
_cell_angle_gamma   100.86936283
_symmetry_Int_Tables_number   1
_chemical_formula_structural   Li3P5O2
_chemical_formula_sum   'Li3 P5 O2'
_cell_volume   196.13441670
_cell_formula_units_Z   1
loop_
 _symmetry_equiv_pos_site_id
 _symmetry_equiv_pos_as_xyz
  1  'x, y, z'
loop_
 _atom_site_type_symbol
 _atom_site_label
 _atom_site_symmetry_multiplicity
 _atom_site_fract_x
 _atom_site_fract_y
 _atom_site_fract_z
 _atom_site_occupancy
  P  P0  1  0.00000000  0.00000000  0.00000000  1
  P  P1  1  0.50000000  0.50000000  0.50000000  1
  P  P2  1  0.25000000  0.25000000  0.25000000  1
  P  P3  1  0.75000000  0.25000000  0.00000000  1
  P  P4  1  0.25000000  0.75000000  0.50000000  1
  Li  Li5  1  0.93571482  0.75697998  0.09618722  1
  Li  Li6  1  0.14570534  0.14981044  0.72959548  1
  Li  Li7  1  0.38624540  0.36714355  0.01066119  1
  O  O8  1  0.09659523  0.39777900  0.57140165  1
  O  O9  1  0.39409105  0.09805142  0.30709123  1
