# generated using pymatgen
data_Li3TiI4(OF)3
_symmetry_space_group_name_H-M   'P 1'
_cell_length_a   7.37113641
_cell_length_b   7.18618839
_cell_length_c   7.07238950
_cell_angle_alpha   95.11862842
_cell_angle_beta   96.79250495
_cell_angle_gamma   94.81204394
_symmetry_Int_Tables_number   1
_chemical_formula_structural   Li3TiI4(OF)3
_chemical_formula_sum   'Li3 Ti1 I4 O3 F3'
_cell_volume   368.82109671
_cell_formula_units_Z   1
loop_
 _symmetry_equiv_pos_site_id
 _symmetry_equiv_pos_as_xyz
  1  'x, y, z'
loop_
 _atom_site_type_symbol
 _atom_site_label
 _atom_site_symmetry_multiplicity
 _atom_site_fract_x
 _atom_site_fract_y
 _atom_site_fract_z
 _atom_site_occupancy
  I  I0  1  0.12500000  0.00000000  0.25000000  1
  I  I1  1  0.00000000  0.00000000  0.00000000  1
  I  I2  1  0.37500000  0.00000000  0.25000000  1
  I  I3  1  0.25000000  0.25000000  0.25000000  1
  Li  Li4  1  0.00000000  0.25000000  0.12500000  1
  Li  Li5  1  0.62320422  0.63201854  0.61271596  1
  Li  Li6  1  0.33576137  0.85630319  0.90406137  1
  F  F7  1  0.10388053  0.31768753  0.19212982  1
  F  F8  1  0.43135464  0.42716318  0.87312721  1
  F  F9  1  0.20878524  0.02847479  0.75511973  1
  Ti  Ti10  1  0.54076095  0.46842319  0.88064007  1
  O  O11  1  0.81208977  0.37153972  0.95222779  1
  O  O12  1  0.66790637  0.82592459  0.93767405  1
  O  O13  1  0.43048259  0.48200883  0.36736688  1
