# generated using pymatgen
data_Li3LuP4SeF3
_symmetry_space_group_name_H-M   'P 1'
_cell_length_a   5.26448704
_cell_length_b   5.06181922
_cell_length_c   7.06040166
_cell_angle_alpha   103.32783606
_cell_angle_beta   107.10325393
_cell_angle_gamma   102.54549170
_symmetry_Int_Tables_number   1
_chemical_formula_structural   Li3LuP4SeF3
_chemical_formula_sum   'Li3 Lu1 P4 Se1 F3'
_cell_volume   166.56211097
_cell_formula_units_Z   1
loop_
 _symmetry_equiv_pos_site_id
 _symmetry_equiv_pos_as_xyz
  1  'x, y, z'
loop_
 _atom_site_type_symbol
 _atom_site_label
 _atom_site_symmetry_multiplicity
 _atom_site_fract_x
 _atom_site_fract_y
 _atom_site_fract_z
 _atom_site_occupancy
  P  P0  1  0.00000000  0.00000000  0.00000000  1
  P  P1  1  0.50000000  0.50000000  0.50000000  1
  P  P2  1  0.25000000  0.25000000  0.25000000  1
  P  P3  1  0.75000000  0.25000000  0.00000000  1
  Lu  Lu4  1  0.25000000  0.75000000  0.50000000  1
  Li  Li5  1  0.09006766  0.56591646  0.26365993  1
  Li  Li6  1  0.52553381  0.54223249  0.48237873  1
  Li  Li7  1  0.45613333  0.88495871  0.06096372  1
  Se  Se8  1  0.22629635  0.76004679  0.19924449  1
  F  F9  1  0.53584170  0.76757966  0.61559741  1
  F  F10  1  0.32065257  0.27130468  0.07821242  1
  F  F11  1  0.53539182  0.46457834  0.49318398  1
