# generated using pymatgen
data_Li2TiS3O4
_symmetry_space_group_name_H-M   'P 1'
_cell_length_a   7.72228699
_cell_length_b   7.72117288
_cell_length_c   7.67158186
_cell_angle_alpha   90.52440286
_cell_angle_beta   92.49494954
_cell_angle_gamma   90.59953250
_symmetry_Int_Tables_number   1
_chemical_formula_structural   Li2TiS3O4
_chemical_formula_sum   'Li2 Ti1 S3 O4'
_cell_volume   456.93917726
_cell_formula_units_Z   1
loop_
 _symmetry_equiv_pos_site_id
 _symmetry_equiv_pos_as_xyz
  1  'x, y, z'
loop_
 _atom_site_type_symbol
 _atom_site_label
 _atom_site_symmetry_multiplicity
 _atom_site_fract_x
 _atom_site_fract_y
 _atom_site_fract_z
 _atom_site_occupancy
  Li  Li0  1  0.12500000  0.12500000  0.12500000  1
  Li  Li1  1  0.50000000  0.50000000  0.50000000  1
  S  S2  1  0.25000000  0.25000000  0.25000000  1
  S  S3  1  0.75000000  0.75000000  0.75000000  1
  S  S4  1  0.60829377  0.09290123  0.30112097  1
  Ti  Ti5  1  0.89468246  0.12145496  0.71809754  1
  O  O6  1  0.03174090  0.44357412  0.94949585  1
  O  O7  1  0.60507458  0.68543464  0.76202559  1
  O  O8  1  0.42436417  0.30761710  0.36115864  1
  O  O9  1  0.64143069  0.57788185  0.15363369  1
