# generated using pymatgen
data_LiTi2Cu2S3
_symmetry_space_group_name_H-M   'P 1'
_cell_length_a   6.36018534
_cell_length_b   6.42724468
_cell_length_c   7.68208583
_cell_angle_alpha   91.24173440
_cell_angle_beta   95.90779514
_cell_angle_gamma   91.41963399
_symmetry_Int_Tables_number   1
_chemical_formula_structural   LiTi2Cu2S3
_chemical_formula_sum   'Li1 Ti2 Cu2 S3'
_cell_volume   312.17549248
_cell_formula_units_Z   1
loop_
 _symmetry_equiv_pos_site_id
 _symmetry_equiv_pos_as_xyz
  1  'x, y, z'
loop_
 _atom_site_type_symbol
 _atom_site_label
 _atom_site_symmetry_multiplicity
 _atom_site_fract_x
 _atom_site_fract_y
 _atom_site_fract_z
 _atom_site_occupancy
  Li  Li0  1  0.00000000  0.00000000  0.00000000  1
  Cu  Cu1  1  0.33300000  0.66700000  0.25000000  1
  Cu  Cu2  1  0.66700000  0.33300000  0.50000000  1
  S  S3  1  0.00000000  0.00000000  0.75000000  1
  S  S4  1  0.61314527  0.48107478  0.58767163  1
  S  S5  1  0.90671065  0.12619592  0.23309834  1
  Ti  Ti6  1  0.00235767  0.12624475  0.11803826  1
  Ti  Ti7  1  0.45170554  0.73681171  0.85802304  1
