# generated using pymatgen
data_Li2TiS3(I2F)2
_symmetry_space_group_name_H-M   'P 1'
_cell_length_a   6.06584791
_cell_length_b   5.92485468
_cell_length_c   7.45771923
_cell_angle_alpha   93.86405628
_cell_angle_beta   97.08016642
_cell_angle_gamma   93.80235797
_symmetry_Int_Tables_number   1
_chemical_formula_structural   Li2TiS3(I2F)2
_chemical_formula_sum   'Li2 Ti1 S3 I4 F2'
_cell_volume   264.62179756
_cell_formula_units_Z   1
loop_
 _symmetry_equiv_pos_site_id
 _symmetry_equiv_pos_as_xyz
  1  'x, y, z'
loop_
 _atom_site_type_symbol
 _atom_site_label
 _atom_site_symmetry_multiplicity
 _atom_site_fract_x
 _atom_site_fract_y
 _atom_site_fract_z
 _atom_site_occupancy
  I  I0  1  0.00000000  0.00000000  0.00000000  1
  I  I1  1  0.50000000  0.50000000  0.50000000  1
  I  I2  1  0.25000000  0.25000000  0.25000000  1
  I  I3  1  0.75000000  0.25000000  0.00000000  1
  Li  Li4  1  0.25000000  0.75000000  0.50000000  1
  Li  Li5  1  0.76905216  0.02613316  0.59764895  1
  F  F6  1  0.50810695  0.70646341  0.31275131  1
  F  F7  1  0.19984036  0.60401279  0.08019978  1
  S  S8  1  0.03763681  0.63959209  0.58970654  1
  S  S9  1  0.20595194  0.74166535  0.85140062  1
  S  S10  1  0.82197193  0.08795760  0.13826068  1
  Ti  Ti11  1  0.48023973  0.95381211  0.55965805  1
