# generated using pymatgen
data_Li2Ni3Mo2P3W
_symmetry_space_group_name_H-M   'P 1'
_cell_length_a   4.63430816
_cell_length_b   4.46049009
_cell_length_c   6.37077249
_cell_angle_alpha   101.64169477
_cell_angle_beta   93.26673511
_cell_angle_gamma   101.46584353
_symmetry_Int_Tables_number   1
_chemical_formula_structural   Li2Ni3Mo2P3W
_chemical_formula_sum   'Li2 Ni3 Mo2 P3 W1'
_cell_volume   125.76051773
_cell_formula_units_Z   1
loop_
 _symmetry_equiv_pos_site_id
 _symmetry_equiv_pos_as_xyz
  1  'x, y, z'
loop_
 _atom_site_type_symbol
 _atom_site_label
 _atom_site_symmetry_multiplicity
 _atom_site_fract_x
 _atom_site_fract_y
 _atom_site_fract_z
 _atom_site_occupancy
  Ni  Ni0  1  0.12500000  0.00000000  0.25000000  1
  Ni  Ni1  1  0.00000000  0.00000000  0.00000000  1
  Ni  Ni2  1  0.37500000  0.00000000  0.25000000  1
  W  W3  1  0.25000000  0.25000000  0.25000000  1
  P  P4  1  0.00000000  0.25000000  0.12500000  1
  P  P5  1  0.57067649  0.27019705  0.00913025  1
  P  P6  1  0.59080684  0.30678513  0.78300868  1
  Mo  Mo7  1  0.52440023  0.48623728  0.54711895  1
  Mo  Mo8  1  0.49088758  0.15945012  0.19234041  1
  Li  Li9  1  0.48513170  0.72101185  0.39377931  1
  Li  Li10  1  0.67401519  0.63282312  0.17851358  1
