# generated using pymatgen
data_Li3LuNi2As6N5
_symmetry_space_group_name_H-M   'P 1'
_cell_length_a   7.44191009
_cell_length_b   7.24512464
_cell_length_c   8.40367087
_cell_angle_alpha   92.95050639
_cell_angle_beta   92.52244986
_cell_angle_gamma   93.17536505
_symmetry_Int_Tables_number   1
_chemical_formula_structural   Li3LuNi2As6N5
_chemical_formula_sum   'Li3 Lu1 Ni2 As6 N5'
_cell_volume   451.31086369
_cell_formula_units_Z   1
loop_
 _symmetry_equiv_pos_site_id
 _symmetry_equiv_pos_as_xyz
  1  'x, y, z'
loop_
 _atom_site_type_symbol
 _atom_site_label
 _atom_site_symmetry_multiplicity
 _atom_site_fract_x
 _atom_site_fract_y
 _atom_site_fract_z
 _atom_site_occupancy
  Lu  Lu0  1  0.00000000  0.00000000  0.00000000  1
  Li  Li1  1  0.50000000  0.50000000  0.50000000  1
  Li  Li2  1  0.50000000  0.50000000  0.00000000  1
  Li  Li3  1  0.50000000  0.00000000  0.50000000  1
  Ni  Ni4  1  0.00000000  0.50000000  0.50000000  1
  Ni  Ni5  1  0.65405940  0.24127797  0.50724049  1
  As  As6  1  0.46019560  0.54590994  0.53040400  1
  As  As7  1  0.12969099  0.78657716  0.68629762  1
  As  As8  1  0.57019092  0.30979293  0.17917342  1
  As  As9  1  0.96237104  0.92695495  0.50851460  1
  As  As10  1  0.42580092  0.05679959  0.10881591  1
  As  As11  1  0.76538455  0.20603419  0.77742300  1
  N  N12  1  0.62110846  0.12347196  0.10043470  1
  N  N13  1  0.07005732  0.48662439  0.25895296  1
  N  N14  1  0.41582719  0.43104479  0.74181332  1
  N  N15  1  0.12181193  0.56114889  0.70275220  1
  N  N16  1  0.28676747  0.34522057  0.52441310  1
