# generated using pymatgen
data_Li2TiCu2P4F2
_symmetry_space_group_name_H-M   'P 1'
_cell_length_a   7.06296515
_cell_length_b   6.91956741
_cell_length_c   7.44036182
_cell_angle_alpha   91.34822947
_cell_angle_beta   92.22904930
_cell_angle_gamma   91.02284641
_symmetry_Int_Tables_number   1
_chemical_formula_structural   Li2TiCu2P4F2
_chemical_formula_sum   'Li2 Ti1 Cu2 P4 F2'
_cell_volume   363.19045560
_cell_formula_units_Z   1
loop_
 _symmetry_equiv_pos_site_id
 _symmetry_equiv_pos_as_xyz
  1  'x, y, z'
loop_
 _atom_site_type_symbol
 _atom_site_label
 _atom_site_symmetry_multiplicity
 _atom_site_fract_x
 _atom_site_fract_y
 _atom_site_fract_z
 _atom_site_occupancy
  P  P0  1  0.12500000  0.00000000  0.25000000  1
  P  P1  1  0.00000000  0.00000000  0.00000000  1
  P  P2  1  0.37500000  0.00000000  0.25000000  1
  P  P3  1  0.25000000  0.25000000  0.25000000  1
  Li  Li4  1  0.00000000  0.25000000  0.12500000  1
  Li  Li5  1  0.16008110  0.90444689  0.33738190  1
  Cu  Cu6  1  0.49908344  0.02563288  0.80162098  1
  Cu  Cu7  1  0.57554886  0.80251387  0.65828231  1
  F  F8  1  0.50885470  0.96668098  0.05885688  1
  F  F9  1  0.81123405  0.44901793  0.91557910  1
  Ti  Ti10  1  0.89607100  0.90700280  0.98121193  1
