# generated using pymatgen
data_Li2Lu(CuAs3)2
_symmetry_space_group_name_H-M   'P 1'
_cell_length_a   7.40919577
_cell_length_b   7.40326434
_cell_length_c   8.40445623
_cell_angle_alpha   92.08216221
_cell_angle_beta   92.72975705
_cell_angle_gamma   92.22072912
_symmetry_Int_Tables_number   1
_chemical_formula_structural   Li2Lu(CuAs3)2
_chemical_formula_sum   'Li2 Lu1 Cu2 As6'
_cell_volume   459.79752849
_cell_formula_units_Z   1
loop_
 _symmetry_equiv_pos_site_id
 _symmetry_equiv_pos_as_xyz
  1  'x, y, z'
loop_
 _atom_site_type_symbol
 _atom_site_label
 _atom_site_symmetry_multiplicity
 _atom_site_fract_x
 _atom_site_fract_y
 _atom_site_fract_z
 _atom_site_occupancy
  Lu  Lu0  1  0.12500000  0.12500000  0.12500000  1
  Li  Li1  1  0.50000000  0.50000000  0.50000000  1
  Li  Li2  1  0.25000000  0.25000000  0.25000000  1
  Cu  Cu3  1  0.75000000  0.75000000  0.75000000  1
  Cu  Cu4  1  0.07507608  0.82779930  0.52940726  1
  As  As5  1  0.40437527  0.79649925  0.61954064  1
  As  As6  1  0.76726749  0.16108066  0.91767627  1
  As  As7  1  0.28918774  0.02652053  0.32638744  1
  As  As8  1  0.22562144  0.79314536  0.27745624  1
  As  As9  1  0.93955145  0.83994436  0.42858804  1
  As  As10  1  0.55914677  0.31416399  0.15412124  1
