# generated using pymatgen
data_Li2LuTiP4
_symmetry_space_group_name_H-M   'P 1'
_cell_length_a   6.51709713
_cell_length_b   6.45663996
_cell_length_c   7.44480003
_cell_angle_alpha   97.64742918
_cell_angle_beta   99.83117529
_cell_angle_gamma   97.25531622
_symmetry_Int_Tables_number   1
_chemical_formula_structural   Li2LuTiP4
_chemical_formula_sum   'Li2 Lu1 Ti1 P4'
_cell_volume   302.33822756
_cell_formula_units_Z   1
loop_
 _symmetry_equiv_pos_site_id
 _symmetry_equiv_pos_as_xyz
  1  'x, y, z'
loop_
 _atom_site_type_symbol
 _atom_site_label
 _atom_site_symmetry_multiplicity
 _atom_site_fract_x
 _atom_site_fract_y
 _atom_site_fract_z
 _atom_site_occupancy
  P  P0  1  0.12500000  0.00000000  0.25000000  1
  P  P1  1  0.00000000  0.00000000  0.00000000  1
  P  P2  1  0.37500000  0.00000000  0.25000000  1
  P  P3  1  0.25000000  0.25000000  0.25000000  1
  Lu  Lu4  1  0.00000000  0.25000000  0.12500000  1
  Li  Li5  1  0.61934634  0.33589703  0.88697359  1
  Li  Li6  1  0.45262238  0.06560964  0.94549157  1
  Ti  Ti7  1  0.81155952  0.07053886  0.85886683  1
