# generated using pymatgen
data_Li2Lu(NiP2)2
_symmetry_space_group_name_H-M   'P 1'
_cell_length_a   7.10192051
_cell_length_b   6.77086438
_cell_length_c   7.75731093
_cell_angle_alpha   92.53358376
_cell_angle_beta   93.56452703
_cell_angle_gamma   92.57482814
_symmetry_Int_Tables_number   1
_chemical_formula_structural   Li2Lu(NiP2)2
_chemical_formula_sum   'Li2 Lu1 Ni2 P4'
_cell_volume   371.50822463
_cell_formula_units_Z   1
loop_
 _symmetry_equiv_pos_site_id
 _symmetry_equiv_pos_as_xyz
  1  'x, y, z'
loop_
 _atom_site_type_symbol
 _atom_site_label
 _atom_site_symmetry_multiplicity
 _atom_site_fract_x
 _atom_site_fract_y
 _atom_site_fract_z
 _atom_site_occupancy
  P  P0  1  0.00000000  0.00000000  0.00000000  1
  P  P1  1  0.33300000  0.66700000  0.25000000  1
  P  P2  1  0.66700000  0.33300000  0.50000000  1
  P  P3  1  0.00000000  0.00000000  0.75000000  1
  Lu  Lu4  1  0.21883003  0.15604003  0.75054039  1
  Li  Li5  1  0.83083924  0.68933181  0.84436627  1
  Li  Li6  1  0.87898034  0.79715486  0.57430310  1
  Ni  Ni7  1  0.20289649  0.78035259  0.75011660  1
  Ni  Ni8  1  0.60167099  0.52781552  0.55738312  1
