# generated using pymatgen
data_Li2Ni2I4F3
_symmetry_space_group_name_H-M   'P 1'
_cell_length_a   7.83137297
_cell_length_b   7.64779265
_cell_length_c   7.95427271
_cell_angle_alpha   90.98403565
_cell_angle_beta   91.39704555
_cell_angle_gamma   91.13740497
_symmetry_Int_Tables_number   1
_chemical_formula_structural   Li2Ni2I4F3
_chemical_formula_sum   'Li2 Ni2 I4 F3'
_cell_volume   476.09323701
_cell_formula_units_Z   1
loop_
 _symmetry_equiv_pos_site_id
 _symmetry_equiv_pos_as_xyz
  1  'x, y, z'
loop_
 _atom_site_type_symbol
 _atom_site_label
 _atom_site_symmetry_multiplicity
 _atom_site_fract_x
 _atom_site_fract_y
 _atom_site_fract_z
 _atom_site_occupancy
  I  I0  1  0.12500000  0.00000000  0.25000000  1
  I  I1  1  0.00000000  0.00000000  0.00000000  1
  I  I2  1  0.37500000  0.00000000  0.25000000  1
  I  I3  1  0.25000000  0.25000000  0.25000000  1
  Li  Li4  1  0.00000000  0.25000000  0.12500000  1
  Li  Li5  1  0.36397412  0.30375377  0.61704350  1
  F  F6  1  0.97977100  0.73212423  0.55240767  1
  F  F7  1  0.07874185  0.61767212  0.95553262  1
  F  F8  1  0.40166933  0.02542058  0.45201523  1
  Ni  Ni9  1  0.82217837  0.83585321  0.65681757  1
  Ni  Ni10  1  0.96601899  0.86079506  0.62690837  1
