# generated using pymatgen
data_Li2Lu(CuAs3)2
_symmetry_space_group_name_H-M   'P 1'
_cell_length_a   7.56731598
_cell_length_b   7.51686124
_cell_length_c   8.44597701
_cell_angle_alpha   91.22704013
_cell_angle_beta   91.68446613
_cell_angle_gamma   91.41850070
_symmetry_Int_Tables_number   1
_chemical_formula_structural   Li2Lu(CuAs3)2
_chemical_formula_sum   'Li2 Lu1 Cu2 As6'
_cell_volume   479.95534123
_cell_formula_units_Z   1
loop_
 _symmetry_equiv_pos_site_id
 _symmetry_equiv_pos_as_xyz
  1  'x, y, z'
loop_
 _atom_site_type_symbol
 _atom_site_label
 _atom_site_symmetry_multiplicity
 _atom_site_fract_x
 _atom_site_fract_y
 _atom_site_fract_z
 _atom_site_occupancy
  Lu  Lu0  1  0.12500000  0.12500000  0.12500000  1
  As  As1  1  0.50000000  0.50000000  0.50000000  1
  As  As2  1  0.25000000  0.25000000  0.25000000  1
  As  As3  1  0.75000000  0.75000000  0.75000000  1
  As  As4  1  0.22814313  0.34496059  0.90252455  1
  As  As5  1  0.54429239  0.18754111  0.37096618  1
  As  As6  1  0.75383589  0.17836513  0.84414310  1
  Li  Li7  1  0.85431033  0.35270505  0.13630894  1
  Li  Li8  1  0.51836136  0.99263135  0.62174825  1
  Cu  Cu9  1  0.36477775  0.81782180  0.62781847  1
  Cu  Cu10  1  0.33193244  0.41631096  0.39045702  1
