# generated using pymatgen
data_Li2Ti2As6(NF)3
_symmetry_space_group_name_H-M   'P 1'
_cell_length_a   7.66764986
_cell_length_b   7.43203770
_cell_length_c   8.56219514
_cell_angle_alpha   91.81005515
_cell_angle_beta   91.61278410
_cell_angle_gamma   92.09101729
_symmetry_Int_Tables_number   1
_chemical_formula_structural   Li2Ti2As6(NF)3
_chemical_formula_sum   'Li2 Ti2 As6 N3 F3'
_cell_volume   487.14961795
_cell_formula_units_Z   1
loop_
 _symmetry_equiv_pos_site_id
 _symmetry_equiv_pos_as_xyz
  1  'x, y, z'
loop_
 _atom_site_type_symbol
 _atom_site_label
 _atom_site_symmetry_multiplicity
 _atom_site_fract_x
 _atom_site_fract_y
 _atom_site_fract_z
 _atom_site_occupancy
  Li  Li0  1  0.00000000  0.00000000  0.00000000  1
  Li  Li1  1  0.50000000  0.50000000  0.50000000  1
  F  F2  1  0.50000000  0.50000000  0.00000000  1
  F  F3  1  0.50000000  0.00000000  0.50000000  1
  F  F4  1  0.00000000  0.50000000  0.50000000  1
  Ti  Ti5  1  0.41771405  0.31747515  0.91921855  1
  Ti  Ti6  1  0.47731543  0.32973427  0.29855929  1
  As  As7  1  0.60504760  0.93565229  0.13798030  1
  As  As8  1  0.86047308  0.69291402  0.33614659  1
  As  As9  1  0.70293975  0.42506034  0.16082193  1
  As  As10  1  0.17935333  0.15819899  0.54748942  1
  As  As11  1  0.18549564  0.07398060  0.54759051  1
  As  As12  1  0.17989586  0.47194883  0.82466690  1
  N  N13  1  0.54885528  0.84777641  0.06952738  1
  N  N14  1  0.18226193  0.29727875  0.03703647  1
  N  N15  1  0.56380124  0.43270946  0.11333921  1
