# generated using pymatgen
data_Li2LuTi2(NiP2)2
_symmetry_space_group_name_H-M   'P 1'
_cell_length_a   7.15027363
_cell_length_b   6.75626658
_cell_length_c   7.97455885
_cell_angle_alpha   92.97517849
_cell_angle_beta   93.09482616
_cell_angle_gamma   93.14524996
_symmetry_Int_Tables_number   1
_chemical_formula_structural   Li2LuTi2(NiP2)2
_chemical_formula_sum   'Li2 Lu1 Ti2 Ni2 P4'
_cell_volume   383.52087129
_cell_formula_units_Z   1
loop_
 _symmetry_equiv_pos_site_id
 _symmetry_equiv_pos_as_xyz
  1  'x, y, z'
loop_
 _atom_site_type_symbol
 _atom_site_label
 _atom_site_symmetry_multiplicity
 _atom_site_fract_x
 _atom_site_fract_y
 _atom_site_fract_z
 _atom_site_occupancy
  P  P0  1  0.12500000  0.00000000  0.25000000  1
  P  P1  1  0.00000000  0.00000000  0.00000000  1
  P  P2  1  0.37500000  0.00000000  0.25000000  1
  P  P3  1  0.25000000  0.25000000  0.25000000  1
  Lu  Lu4  1  0.00000000  0.25000000  0.12500000  1
  Li  Li5  1  0.44872841  0.39846178  0.65914752  1
  Li  Li6  1  0.71143430  0.25415162  0.64247372  1
  Ni  Ni7  1  0.31877575  0.75638583  0.04916267  1
  Ni  Ni8  1  0.43169877  0.18553199  0.32981271  1
  Ti  Ti9  1  0.94069170  0.76976586  0.85544431  1
  Ti  Ti10  1  0.50868673  0.21127420  0.87981730  1
