# generated using pymatgen
data_Li2TiP3(I2O)2
_symmetry_space_group_name_H-M   'P 1'
_cell_length_a   7.29376537
_cell_length_b   7.05451175
_cell_length_c   7.27986105
_cell_angle_alpha   92.55050726
_cell_angle_beta   93.60459631
_cell_angle_gamma   92.34829624
_symmetry_Int_Tables_number   1
_chemical_formula_structural   Li2TiP3(I2O)2
_chemical_formula_sum   'Li2 Ti1 P3 I4 O2'
_cell_volume   373.10619072
_cell_formula_units_Z   1
loop_
 _symmetry_equiv_pos_site_id
 _symmetry_equiv_pos_as_xyz
  1  'x, y, z'
loop_
 _atom_site_type_symbol
 _atom_site_label
 _atom_site_symmetry_multiplicity
 _atom_site_fract_x
 _atom_site_fract_y
 _atom_site_fract_z
 _atom_site_occupancy
  I  I0  1  0.00000000  0.00000000  0.00000000  1
  I  I1  1  0.50000000  0.50000000  0.50000000  1
  I  I2  1  0.50000000  0.50000000  0.00000000  1
  I  I3  1  0.50000000  0.00000000  0.50000000  1
  P  P4  1  0.00000000  0.50000000  0.50000000  1
  P  P5  1  0.73994615  0.28370670  0.38343137  1
  P  P6  1  0.40355577  0.00902745  0.47971874  1
  Li  Li7  1  0.66115938  0.12734147  0.42190494  1
  Li  Li8  1  0.37726633  0.21116568  0.72169907  1
  Ti  Ti9  1  0.36137997  0.12952362  0.39872365  1
  O  O10  1  0.36305835  0.57409326  0.95748920  1
  O  O11  1  0.78674219  0.17507655  0.23534355  1
