# generated using pymatgen
data_Li2Mn2Sb4P3
_symmetry_space_group_name_H-M   'P 1'
_cell_length_a   6.71371670
_cell_length_b   7.30227517
_cell_length_c   7.39813119
_cell_angle_alpha   92.27088764
_cell_angle_beta   92.69007624
_cell_angle_gamma   92.58455052
_symmetry_Int_Tables_number   1
_chemical_formula_structural   Li2Mn2Sb4P3
_chemical_formula_sum   'Li2 Mn2 Sb4 P3'
_cell_volume   361.61139903
_cell_formula_units_Z   1
loop_
 _symmetry_equiv_pos_site_id
 _symmetry_equiv_pos_as_xyz
  1  'x, y, z'
loop_
 _atom_site_type_symbol
 _atom_site_label
 _atom_site_symmetry_multiplicity
 _atom_site_fract_x
 _atom_site_fract_y
 _atom_site_fract_z
 _atom_site_occupancy
  Mn  Mn0  1  0.00000000  0.00000000  0.00000000  1
  Mn  Mn1  1  0.50000000  0.50000000  0.50000000  1
  Sb  Sb2  1  0.25000000  0.25000000  0.25000000  1
  Sb  Sb3  1  0.75000000  0.25000000  0.00000000  1
  Sb  Sb4  1  0.25000000  0.75000000  0.50000000  1
  Sb  Sb5  1  0.74629761  0.10737236  0.22693754  1
  P  P6  1  0.32755434  0.97555603  0.30505141  1
  P  P7  1  0.53095753  0.68125708  0.80001167  1
  P  P8  1  0.69731947  0.49446744  0.26116712  1
  Li  Li9  1  0.49633540  0.97902552  0.64168390  1
  Li  Li10  1  0.94953688  0.30600125  0.80020144  1
