# generated using pymatgen
data_Li2Cu2(As2N)3
_symmetry_space_group_name_H-M   'P 1'
_cell_length_a   7.60981311
_cell_length_b   7.51225015
_cell_length_c   8.51316811
_cell_angle_alpha   91.53702659
_cell_angle_beta   91.67400557
_cell_angle_gamma   91.77850028
_symmetry_Int_Tables_number   1
_chemical_formula_structural   Li2Cu2(As2N)3
_chemical_formula_sum   'Li2 Cu2 As6 N3'
_cell_volume   486.04138812
_cell_formula_units_Z   1
loop_
 _symmetry_equiv_pos_site_id
 _symmetry_equiv_pos_as_xyz
  1  'x, y, z'
loop_
 _atom_site_type_symbol
 _atom_site_label
 _atom_site_symmetry_multiplicity
 _atom_site_fract_x
 _atom_site_fract_y
 _atom_site_fract_z
 _atom_site_occupancy
  As  As0  1  0.12500000  0.00000000  0.25000000  1
  As  As1  1  0.00000000  0.00000000  0.00000000  1
  As  As2  1  0.37500000  0.00000000  0.25000000  1
  As  As3  1  0.25000000  0.25000000  0.25000000  1
  As  As4  1  0.00000000  0.25000000  0.12500000  1
  As  As5  1  0.43128895  0.08422526  0.87650688  1
  Li  Li6  1  0.35585581  0.21206314  0.36488918  1
  Li  Li7  1  0.07276351  0.11877371  0.09258287  1
  N  N8  1  0.93659286  0.23190657  0.21996069  1
  N  N9  1  0.33487269  0.80333211  0.38193640  1
  N  N10  1  0.98339047  0.00295720  0.94354843  1
  Cu  Cu11  1  0.12328759  0.05203995  0.07289868  1
  Cu  Cu12  1  0.04855075  0.71416821  0.33616082  1
