# generated using pymatgen
data_Li4Ti2Cl2O7
_symmetry_space_group_name_H-M   'P 1'
_cell_length_a   6.16044084
_cell_length_b   5.99980217
_cell_length_c   7.94078391
_cell_angle_alpha   97.58188123
_cell_angle_beta   102.95567499
_cell_angle_gamma   97.17167052
_symmetry_Int_Tables_number   1
_chemical_formula_structural   Li4Ti2Cl2O7
_chemical_formula_sum   'Li4 Ti2 Cl2 O7'
_cell_volume   279.88448598
_cell_formula_units_Z   1
loop_
 _symmetry_equiv_pos_site_id
 _symmetry_equiv_pos_as_xyz
  1  'x, y, z'
loop_
 _atom_site_type_symbol
 _atom_site_label
 _atom_site_symmetry_multiplicity
 _atom_site_fract_x
 _atom_site_fract_y
 _atom_site_fract_z
 _atom_site_occupancy
  Li  Li0  1  0.00000000  0.00000000  0.00000000  1
  Li  Li1  1  0.50000000  0.50000000  0.50000000  1
  Li  Li2  1  0.25000000  0.25000000  0.25000000  1
  Li  Li3  1  0.75000000  0.25000000  0.00000000  1
  Cl  Cl4  1  0.25000000  0.75000000  0.50000000  1
  Cl  Cl5  1  0.80352828  0.50054206  0.94555161  1
  Ti  Ti6  1  0.56856175  0.12004150  0.95482582  1
  Ti  Ti7  1  0.20401084  0.87286497  0.68246246  1
  O  O8  1  0.76634350  0.84387015  0.83099016  1
  O  O9  1  0.64605348  0.57937905  0.45938067  1
  O  O10  1  0.29034389  0.65236617  0.16299458  1
  O  O11  1  0.12928359  0.42940830  0.70088612  1
  O  O12  1  0.70499569  0.96619303  0.89803529  1
  O  O13  1  0.96660936  0.85676502  0.95367004  1
  O  O14  1  0.80073639  0.82085042  0.38665556  1
