# generated using pymatgen
data_Li3Cu2As6P8O3
_symmetry_space_group_name_H-M   'P 1'
_cell_length_a   7.32255111
_cell_length_b   7.37579900
_cell_length_c   8.39632570
_cell_angle_alpha   92.62581917
_cell_angle_beta   94.61627094
_cell_angle_gamma   92.51757455
_symmetry_Int_Tables_number   1
_chemical_formula_structural   Li3Cu2As6P8O3
_chemical_formula_sum   'Li3 Cu2 As6 P8 O3'
_cell_volume   451.02053907
_cell_formula_units_Z   1
loop_
 _symmetry_equiv_pos_site_id
 _symmetry_equiv_pos_as_xyz
  1  'x, y, z'
loop_
 _atom_site_type_symbol
 _atom_site_label
 _atom_site_symmetry_multiplicity
 _atom_site_fract_x
 _atom_site_fract_y
 _atom_site_fract_z
 _atom_site_occupancy
  P  P0  1  0.12500000  0.00000000  0.25000000  1
  P  P1  1  0.00000000  0.00000000  0.00000000  1
  P  P2  1  0.37500000  0.00000000  0.25000000  1
  P  P3  1  0.25000000  0.25000000  0.25000000  1
  P  P4  1  0.00000000  0.25000000  0.12500000  1
  P  P5  1  0.86662055  0.27936131  0.57475815  1
  P  P6  1  0.35194183  0.38813706  0.72402829  1
  P  P7  1  0.81099188  0.49399106  0.96112484  1
  Li  Li8  1  0.93053380  0.90919859  0.86378657  1
  Li  Li9  1  0.43715465  0.58314963  0.01426370  1
  Li  Li10  1  0.98574266  0.30775816  0.90588617  1
  Cu  Cu11  1  0.61566235  0.23701603  0.83317852  1
  Cu  Cu12  1  0.33799079  0.45669737  0.72825577  1
  As  As13  1  0.21540209  0.32878458  0.82822189  1
  As  As14  1  0.25814821  0.52155903  0.10799180  1
  As  As15  1  0.49429705  0.15852346  0.56246251  1
  As  As16  1  0.79887509  0.26268750  0.68409904  1
  As  As17  1  0.58207205  0.11360440  0.06881652  1
  As  As18  1  0.29633677  0.99683617  0.57411440  1
  O  O19  1  0.83774422  0.20471653  0.44481354  1
  O  O20  1  0.30805985  0.48394022  0.27016689  1
  O  O21  1  0.90809624  0.35840456  0.45667653  1
