# generated using pymatgen
data_Li3LuNi2(PO)4
_symmetry_space_group_name_H-M   'P 1'
_cell_length_a   7.32872511
_cell_length_b   7.19522878
_cell_length_c   8.09420199
_cell_angle_alpha   92.54064202
_cell_angle_beta   92.90926122
_cell_angle_gamma   93.02123754
_symmetry_Int_Tables_number   1
_chemical_formula_structural   Li3LuNi2(PO)4
_chemical_formula_sum   'Li3 Lu1 Ni2 P4 O4'
_cell_volume   425.20666753
_cell_formula_units_Z   1
loop_
 _symmetry_equiv_pos_site_id
 _symmetry_equiv_pos_as_xyz
  1  'x, y, z'
loop_
 _atom_site_type_symbol
 _atom_site_label
 _atom_site_symmetry_multiplicity
 _atom_site_fract_x
 _atom_site_fract_y
 _atom_site_fract_z
 _atom_site_occupancy
  P  P0  1  0.12500000  0.00000000  0.25000000  1
  P  P1  1  0.00000000  0.00000000  0.00000000  1
  P  P2  1  0.37500000  0.00000000  0.25000000  1
  P  P3  1  0.25000000  0.25000000  0.25000000  1
  Lu  Lu4  1  0.00000000  0.25000000  0.12500000  1
  Li  Li5  1  0.52502810  0.02014663  0.55654063  1
  Li  Li6  1  0.39849796  0.16712545  0.13336136  1
  Li  Li7  1  0.95994499  0.64305674  0.29019754  1
  Ni  Ni8  1  0.32512861  0.08660573  0.77143627  1
  Ni  Ni9  1  0.34580332  0.47620886  0.02688658  1
  O  O10  1  0.99012220  0.05460703  0.15618082  1
  O  O11  1  0.29180587  0.24332869  0.82229389  1
  O  O12  1  0.89694484  0.20021086  0.19883468  1
  O  O13  1  0.88117060  0.56438716  0.75849849  1
