# generated using pymatgen
data_Li2LuTiO4
_symmetry_space_group_name_H-M   'P 1'
_cell_length_a   7.75794335
_cell_length_b   7.73723967
_cell_length_c   7.51578400
_cell_angle_alpha   93.46256049
_cell_angle_beta   94.30597627
_cell_angle_gamma   93.31524157
_symmetry_Int_Tables_number   1
_chemical_formula_structural   Li2LuTiO4
_chemical_formula_sum   'Li2 Lu1 Ti1 O4'
_cell_volume   448.15852684
_cell_formula_units_Z   1
loop_
 _symmetry_equiv_pos_site_id
 _symmetry_equiv_pos_as_xyz
  1  'x, y, z'
loop_
 _atom_site_type_symbol
 _atom_site_label
 _atom_site_symmetry_multiplicity
 _atom_site_fract_x
 _atom_site_fract_y
 _atom_site_fract_z
 _atom_site_occupancy
  O  O0  1  0.12500000  0.00000000  0.25000000  1
  O  O1  1  0.00000000  0.00000000  0.00000000  1
  O  O2  1  0.37500000  0.00000000  0.25000000  1
  O  O3  1  0.25000000  0.25000000  0.25000000  1
  Ti  Ti4  1  0.00000000  0.25000000  0.12500000  1
  Lu  Lu5  1  0.76132109  0.55739174  0.33513831  1
  Li  Li6  1  0.51112998  0.68897451  0.54464216  1
  Li  Li7  1  0.48048980  0.05659477  0.99689672  1
