# generated using pymatgen
data_Li3As6O7
_symmetry_space_group_name_H-M   'P 1'
_cell_length_a   7.95193687
_cell_length_b   7.71325740
_cell_length_c   8.21582858
_cell_angle_alpha   91.79016727
_cell_angle_beta   90.86657671
_cell_angle_gamma   92.07549592
_symmetry_Int_Tables_number   1
_chemical_formula_structural   Li3As6O7
_chemical_formula_sum   'Li3 As6 O7'
_cell_volume   503.27757853
_cell_formula_units_Z   1
loop_
 _symmetry_equiv_pos_site_id
 _symmetry_equiv_pos_as_xyz
  1  'x, y, z'
loop_
 _atom_site_type_symbol
 _atom_site_label
 _atom_site_symmetry_multiplicity
 _atom_site_fract_x
 _atom_site_fract_y
 _atom_site_fract_z
 _atom_site_occupancy
  Li  Li0  1  0.12500000  0.12500000  0.12500000  1
  Li  Li1  1  0.50000000  0.50000000  0.50000000  1
  Li  Li2  1  0.25000000  0.25000000  0.25000000  1
  As  As3  1  0.75000000  0.75000000  0.75000000  1
  As  As4  1  0.73595345  0.27307171  0.75031911  1
  As  As5  1  0.64351112  0.96153477  0.57976896  1
  As  As6  1  0.46884295  0.62107601  0.13965314  1
  As  As7  1  0.48112746  0.96951641  0.31742629  1
  As  As8  1  0.38522043  0.50558975  0.78026434  1
  O  O9  1  0.38875268  0.17325558  0.14902228  1
  O  O10  1  0.15408021  0.71266457  0.58149535  1
  O  O11  1  0.82930303  0.03784509  0.43725388  1
  O  O12  1  0.34236810  0.35467351  0.50441053  1
  O  O13  1  0.10156005  0.09640301  0.98202592  1
  O  O14  1  0.13606175  0.69553132  0.69594313  1
  O  O15  1  0.64384964  0.04080514  0.42351772  1
