# generated using pymatgen
data_Li2Ti2As6P5N3
_symmetry_space_group_name_H-M   'P 1'
_cell_length_a   7.73759154
_cell_length_b   7.43496764
_cell_length_c   8.72652490
_cell_angle_alpha   92.22096686
_cell_angle_beta   91.08893483
_cell_angle_gamma   92.57490707
_symmetry_Int_Tables_number   1
_chemical_formula_structural   Li2Ti2As6P5N3
_chemical_formula_sum   'Li2 Ti2 As6 P5 N3'
_cell_volume   501.03415995
_cell_formula_units_Z   1
loop_
 _symmetry_equiv_pos_site_id
 _symmetry_equiv_pos_as_xyz
  1  'x, y, z'
loop_
 _atom_site_type_symbol
 _atom_site_label
 _atom_site_symmetry_multiplicity
 _atom_site_fract_x
 _atom_site_fract_y
 _atom_site_fract_z
 _atom_site_occupancy
  P  P0  1  0.00000000  0.00000000  0.00000000  1
  P  P1  1  0.50000000  0.50000000  0.50000000  1
  P  P2  1  0.50000000  0.50000000  0.00000000  1
  P  P3  1  0.50000000  0.00000000  0.50000000  1
  P  P4  1  0.00000000  0.50000000  0.50000000  1
  Li  Li5  1  0.45669825  0.35833941  0.74443107  1
  Li  Li6  1  0.37396341  0.79155440  0.17648566  1
  Ti  Ti7  1  0.88888047  0.87684354  0.03414680  1
  Ti  Ti8  1  0.51134544  0.91208662  0.69802571  1
  As  As9  1  0.06229198  0.61996652  0.55028514  1
  As  As10  1  0.46036595  0.13865429  0.86851719  1
  As  As11  1  0.43494905  0.18152197  0.91726052  1
  As  As12  1  0.64558972  0.51230397  0.28249937  1
  As  As13  1  0.62361897  0.83817389  0.17313604  1
  As  As14  1  0.69971436  0.30759387  0.01122368  1
  N  N15  1  0.02247338  0.71716954  0.21003239  1
  N  N16  1  0.45347907  0.95176892  0.92255129  1
  N  N17  1  0.60475964  0.31063481  0.28626929  1
