# generated using pymatgen
data_Li2As6P4N3
_symmetry_space_group_name_H-M   'P 1'
_cell_length_a   7.66260836
_cell_length_b   7.41579272
_cell_length_c   8.21356411
_cell_angle_alpha   91.70956888
_cell_angle_beta   91.46290612
_cell_angle_gamma   91.91906511
_symmetry_Int_Tables_number   1
_chemical_formula_structural   Li2As6P4N3
_chemical_formula_sum   'Li2 As6 P4 N3'
_cell_volume   466.09632131
_cell_formula_units_Z   1
loop_
 _symmetry_equiv_pos_site_id
 _symmetry_equiv_pos_as_xyz
  1  'x, y, z'
loop_
 _atom_site_type_symbol
 _atom_site_label
 _atom_site_symmetry_multiplicity
 _atom_site_fract_x
 _atom_site_fract_y
 _atom_site_fract_z
 _atom_site_occupancy
  P  P0  1  0.12500000  0.00000000  0.25000000  1
  P  P1  1  0.00000000  0.00000000  0.00000000  1
  P  P2  1  0.37500000  0.00000000  0.25000000  1
  P  P3  1  0.25000000  0.25000000  0.25000000  1
  Li  Li4  1  0.00000000  0.25000000  0.12500000  1
  Li  Li5  1  0.45015637  0.50959448  0.47253899  1
  As  As6  1  0.68277640  0.98118777  0.29332292  1
  As  As7  1  0.48088293  0.53415022  0.21852546  1
  As  As8  1  0.33203312  0.64028245  0.51337024  1
  As  As9  1  0.37397610  0.96827177  0.00750425  1
  As  As10  1  0.58747683  0.77206204  0.36491600  1
  As  As11  1  0.52717751  0.62612305  0.65732023  1
  N  N12  1  0.30829650  0.44372289  0.82218279  1
  N  N13  1  0.57802762  0.41035791  0.19073525  1
  N  N14  1  0.62335204  0.24629900  0.15212048  1
