# generated using pymatgen
data_Li2LuTi2(NiP2)2
_symmetry_space_group_name_H-M   'P 1'
_cell_length_a   7.61194399
_cell_length_b   7.33595208
_cell_length_c   8.23857548
_cell_angle_alpha   92.01640500
_cell_angle_beta   91.34520003
_cell_angle_gamma   92.33640069
_symmetry_Int_Tables_number   1
_chemical_formula_structural   Li2LuTi2(NiP2)2
_chemical_formula_sum   'Li2 Lu1 Ti2 Ni2 P4'
_cell_volume   459.23907525
_cell_formula_units_Z   1
loop_
 _symmetry_equiv_pos_site_id
 _symmetry_equiv_pos_as_xyz
  1  'x, y, z'
loop_
 _atom_site_type_symbol
 _atom_site_label
 _atom_site_symmetry_multiplicity
 _atom_site_fract_x
 _atom_site_fract_y
 _atom_site_fract_z
 _atom_site_occupancy
  P  P0  1  0.00000000  0.00000000  0.00000000  1
  P  P1  1  0.50000000  0.50000000  0.50000000  1
  P  P2  1  0.50000000  0.50000000  0.00000000  1
  P  P3  1  0.50000000  0.00000000  0.50000000  1
  Lu  Lu4  1  0.00000000  0.50000000  0.50000000  1
  Li  Li5  1  0.78308067  0.82847584  0.21539495  1
  Li  Li6  1  0.35429537  0.89590745  0.11050995  1
  Ni  Ni7  1  0.78380703  0.54870387  0.55342346  1
  Ni  Ni8  1  0.54758596  0.02958578  0.90325294  1
  Ti  Ti9  1  0.92166076  0.35497304  0.60707170  1
  Ti  Ti10  1  0.04722053  0.66707154  0.03333097  1
