# generated using pymatgen
data_Li2LuCu2As6F3
_symmetry_space_group_name_H-M   'P 1'
_cell_length_a   7.88417974
_cell_length_b   7.68852187
_cell_length_c   7.84655264
_cell_angle_alpha   91.08878408
_cell_angle_beta   91.34977986
_cell_angle_gamma   91.22131621
_symmetry_Int_Tables_number   1
_chemical_formula_structural   Li2LuCu2As6F3
_chemical_formula_sum   'Li2 Lu1 Cu2 As6 F3'
_cell_volume   475.30935712
_cell_formula_units_Z   1
loop_
 _symmetry_equiv_pos_site_id
 _symmetry_equiv_pos_as_xyz
  1  'x, y, z'
loop_
 _atom_site_type_symbol
 _atom_site_label
 _atom_site_symmetry_multiplicity
 _atom_site_fract_x
 _atom_site_fract_y
 _atom_site_fract_z
 _atom_site_occupancy
  Lu  Lu0  1  0.00000000  0.00000000  0.00000000  1
  Li  Li1  1  0.50000000  0.50000000  0.50000000  1
  Li  Li2  1  0.25000000  0.25000000  0.25000000  1
  Cu  Cu3  1  0.75000000  0.25000000  0.00000000  1
  Cu  Cu4  1  0.25000000  0.75000000  0.50000000  1
  F  F5  1  0.55934443  0.84446754  0.90252499  1
  F  F6  1  0.75029368  0.30629217  0.61838161  1
  F  F7  1  0.62810971  0.72633683  0.50112703  1
  As  As8  1  0.95070957  0.89211391  0.23146278  1
  As  As9  1  0.58804120  0.73953243  0.94789537  1
  As  As10  1  0.22923899  0.35862740  0.77806619  1
  As  As11  1  0.97299576  0.77222410  0.25602811  1
  As  As12  1  0.63706293  0.42077833  0.13428360  1
  As  As13  1  0.19592609  0.13915283  0.70739124  1
