# generated using pymatgen
data_Li3LuNi2O7
_symmetry_space_group_name_H-M   'P 1'
_cell_length_a   7.61822444
_cell_length_b   7.35907421
_cell_length_c   8.97318720
_cell_angle_alpha   92.40036659
_cell_angle_beta   91.11718598
_cell_angle_gamma   92.78312171
_symmetry_Int_Tables_number   1
_chemical_formula_structural   Li3LuNi2O7
_chemical_formula_sum   'Li3 Lu1 Ni2 O7'
_cell_volume   501.91338360
_cell_formula_units_Z   1
loop_
 _symmetry_equiv_pos_site_id
 _symmetry_equiv_pos_as_xyz
  1  'x, y, z'
loop_
 _atom_site_type_symbol
 _atom_site_label
 _atom_site_symmetry_multiplicity
 _atom_site_fract_x
 _atom_site_fract_y
 _atom_site_fract_z
 _atom_site_occupancy
  Lu  Lu0  1  0.00000000  0.00000000  0.00000000  1
  Li  Li1  1  0.33300000  0.66700000  0.25000000  1
  Li  Li2  1  0.66700000  0.33300000  0.50000000  1
  Li  Li3  1  0.00000000  0.00000000  0.75000000  1
  Ni  Ni4  1  0.55236857  0.88744538  0.24187269  1
  Ni  Ni5  1  0.19265000  0.32597968  0.64432637  1
  O  O6  1  0.06646684  0.36070946  0.70265568  1
  O  O7  1  0.35319930  0.38590736  0.22017480  1
  O  O8  1  0.88170787  0.13535023  0.84287000  1
  O  O9  1  0.02847338  0.85024518  0.10500757  1
  O  O10  1  0.92040599  0.13145506  0.99942486  1
  O  O11  1  0.59952898  0.00235395  0.38280633  1
  O  O12  1  0.09888023  0.84772989  0.76457141  1
