# generated using pymatgen
data_Li3Ni2As6(PN)5
_symmetry_space_group_name_H-M   'P 1'
_cell_length_a   7.50657327
_cell_length_b   7.32125927
_cell_length_c   8.64089437
_cell_angle_alpha   92.80918637
_cell_angle_beta   92.30707087
_cell_angle_gamma   93.03419734
_symmetry_Int_Tables_number   1
_chemical_formula_structural   Li3Ni2As6(PN)5
_chemical_formula_sum   'Li3 Ni2 As6 P5 N5'
_cell_volume   473.20965492
_cell_formula_units_Z   1
loop_
 _symmetry_equiv_pos_site_id
 _symmetry_equiv_pos_as_xyz
  1  'x, y, z'
loop_
 _atom_site_type_symbol
 _atom_site_label
 _atom_site_symmetry_multiplicity
 _atom_site_fract_x
 _atom_site_fract_y
 _atom_site_fract_z
 _atom_site_occupancy
  P  P0  1  0.00000000  0.00000000  0.00000000  1
  P  P1  1  0.50000000  0.50000000  0.50000000  1
  P  P2  1  0.25000000  0.25000000  0.25000000  1
  P  P3  1  0.75000000  0.25000000  0.00000000  1
  P  P4  1  0.25000000  0.75000000  0.50000000  1
  Li  Li5  1  0.84499820  0.53291103  0.05452372  1
  Li  Li6  1  0.26326302  0.66670449  0.23131664  1
  Li  Li7  1  0.41658135  0.34033959  0.30919724  1
  Ni  Ni8  1  0.06650011  0.35657860  0.05106395  1
  Ni  Ni9  1  0.61406272  0.77360392  0.41505110  1
  As  As10  1  0.01365143  0.89594814  0.66529199  1
  As  As11  1  0.87025802  0.46297517  0.09439616  1
  As  As12  1  0.56993190  0.85154324  0.16740531  1
  As  As13  1  0.22996985  0.08528106  0.35400507  1
  As  As14  1  0.96530494  0.72312177  0.70742342  1
  As  As15  1  0.78746098  0.93874652  0.37295795  1
  N  N16  1  0.98371558  0.45382357  0.11930958  1
  N  N17  1  0.39155555  0.63842760  0.00319160  1
  N  N18  1  0.32335815  0.75192539  0.63647835  1
  N  N19  1  0.65924866  0.95761063  0.45431607  1
  N  N20  1  0.45038053  0.44131072  0.37076031  1
