# generated using pymatgen
data_Li3TiCu2(As2O)3
_symmetry_space_group_name_H-M   'P 1'
_cell_length_a   8.18410804
_cell_length_b   8.10704721
_cell_length_c   7.79953973
_cell_angle_alpha   91.49483596
_cell_angle_beta   92.34551371
_cell_angle_gamma   91.41584214
_symmetry_Int_Tables_number   1
_chemical_formula_structural   Li3TiCu2(As2O)3
_chemical_formula_sum   'Li3 Ti1 Cu2 As6 O3'
_cell_volume   516.70960931
_cell_formula_units_Z   1
loop_
 _symmetry_equiv_pos_site_id
 _symmetry_equiv_pos_as_xyz
  1  'x, y, z'
loop_
 _atom_site_type_symbol
 _atom_site_label
 _atom_site_symmetry_multiplicity
 _atom_site_fract_x
 _atom_site_fract_y
 _atom_site_fract_z
 _atom_site_occupancy
  Li  Li0  1  0.12500000  0.00000000  0.25000000  1
  Li  Li1  1  0.00000000  0.00000000  0.00000000  1
  Li  Li2  1  0.37500000  0.00000000  0.25000000  1
  Cu  Cu3  1  0.25000000  0.25000000  0.25000000  1
  Cu  Cu4  1  0.00000000  0.25000000  0.12500000  1
  Ti  Ti5  1  0.94589682  0.15868932  0.71052324  1
  As  As6  1  0.86269531  0.38444865  0.79314397  1
  As  As7  1  0.45764869  0.55684013  0.95352970  1
  As  As8  1  0.97951745  0.73667628  0.70749558  1
  As  As9  1  0.85629656  0.08731364  0.13674915  1
  As  As10  1  0.88110388  0.65849236  0.80012256  1
  As  As11  1  0.67201757  0.79988991  0.91326455  1
  O  O12  1  0.85345011  0.08664133  0.48014868  1
  O  O13  1  0.97797296  0.08699487  0.69367718  1
  O  O14  1  0.56148265  0.11187794  0.30100051  1
