# generated using pymatgen
data_Li3TiCu2P3Cl2
_symmetry_space_group_name_H-M   'P 1'
_cell_length_a   6.95572680
_cell_length_b   6.79829726
_cell_length_c   7.41645290
_cell_angle_alpha   95.71740721
_cell_angle_beta   97.92153017
_cell_angle_gamma   95.41463263
_symmetry_Int_Tables_number   1
_chemical_formula_structural   Li3TiCu2P3Cl2
_chemical_formula_sum   'Li3 Ti1 Cu2 P3 Cl2'
_cell_volume   343.54291190
_cell_formula_units_Z   1
loop_
 _symmetry_equiv_pos_site_id
 _symmetry_equiv_pos_as_xyz
  1  'x, y, z'
loop_
 _atom_site_type_symbol
 _atom_site_label
 _atom_site_symmetry_multiplicity
 _atom_site_fract_x
 _atom_site_fract_y
 _atom_site_fract_z
 _atom_site_occupancy
  Cl  Cl0  1  0.00000000  0.00000000  0.00000000  1
  Cl  Cl1  1  0.50000000  0.50000000  0.50000000  1
  Ti  Ti2  1  0.50000000  0.50000000  0.00000000  1
  P  P3  1  0.50000000  0.00000000  0.50000000  1
  P  P4  1  0.00000000  0.50000000  0.50000000  1
  P  P5  1  0.61734253  0.61795918  0.09909063  1
  Li  Li6  1  0.38580889  0.97761342  0.28718873  1
  Li  Li7  1  0.50372736  0.52281817  0.16181095  1
  Li  Li8  1  0.63866306  0.95337554  0.43146854  1
  Cu  Cu9  1  0.54397232  0.16074639  0.46413923  1
  Cu  Cu10  1  0.16602104  0.15367863  0.22478203  1
