# generated using pymatgen
data_Li3TiI4N5
_symmetry_space_group_name_H-M   'P 1'
_cell_length_a   8.11721607
_cell_length_b   7.86066603
_cell_length_c   8.08061798
_cell_angle_alpha   91.83952674
_cell_angle_beta   90.65034995
_cell_angle_gamma   92.13362833
_symmetry_Int_Tables_number   1
_chemical_formula_structural   Li3TiI4N5
_chemical_formula_sum   'Li3 Ti1 I4 N5'
_cell_volume   514.93415579
_cell_formula_units_Z   1
loop_
 _symmetry_equiv_pos_site_id
 _symmetry_equiv_pos_as_xyz
  1  'x, y, z'
loop_
 _atom_site_type_symbol
 _atom_site_label
 _atom_site_symmetry_multiplicity
 _atom_site_fract_x
 _atom_site_fract_y
 _atom_site_fract_z
 _atom_site_occupancy
  I  I0  1  0.12500000  0.12500000  0.12500000  1
  I  I1  1  0.50000000  0.50000000  0.50000000  1
  I  I2  1  0.25000000  0.25000000  0.25000000  1
  I  I3  1  0.75000000  0.75000000  0.75000000  1
  Li  Li4  1  0.70127457  0.55539252  0.61612658  1
  Li  Li5  1  0.09746909  0.43796586  0.20236027  1
  Li  Li6  1  0.81937190  0.34115601  0.73236179  1
  Ti  Ti7  1  0.09559049  0.21037307  0.42656133  1
  N  N8  1  0.23995801  0.17709749  0.89637173  1
  N  N9  1  0.35801252  0.60390792  0.51359323  1
  N  N10  1  0.50686196  0.09582035  0.88877508  1
  N  N11  1  0.26966522  0.05060275  0.91674413  1
  N  N12  1  0.15962630  0.75986798  0.48041669  1
