# generated using pymatgen
data_Li2Sb4Mo2P3
_symmetry_space_group_name_H-M   'P 1'
_cell_length_a   4.73375639
_cell_length_b   5.07489688
_cell_length_c   6.83665702
_cell_angle_alpha   98.81005364
_cell_angle_beta   97.01567811
_cell_angle_gamma   99.55055745
_symmetry_Int_Tables_number   1
_chemical_formula_structural   Li2Sb4Mo2P3
_chemical_formula_sum   'Li2 Sb4 Mo2 P3'
_cell_volume   158.20659083
_cell_formula_units_Z   1
loop_
 _symmetry_equiv_pos_site_id
 _symmetry_equiv_pos_as_xyz
  1  'x, y, z'
loop_
 _atom_site_type_symbol
 _atom_site_label
 _atom_site_symmetry_multiplicity
 _atom_site_fract_x
 _atom_site_fract_y
 _atom_site_fract_z
 _atom_site_occupancy
  Sb  Sb0  1  0.00000000  0.00000000  0.00000000  1
  Sb  Sb1  1  0.50000000  0.50000000  0.50000000  1
  Sb  Sb2  1  0.50000000  0.50000000  0.00000000  1
  Sb  Sb3  1  0.50000000  0.00000000  0.50000000  1
  P  P4  1  0.00000000  0.50000000  0.50000000  1
  P  P5  1  0.05937902  0.77364260  0.44357257  1
  P  P6  1  0.45201069  0.75633186  0.35463683  1
  Mo  Mo7  1  0.38708372  0.58067335  0.56994205  1
  Mo  Mo8  1  0.63733178  0.05642410  0.03878604  1
  Li  Li9  1  0.43565231  0.19558759  0.89297633  1
  Li  Li10  1  0.36776996  0.90144414  0.63091658  1
