# generated using pymatgen
data_Li2LuCu2As6F3
_symmetry_space_group_name_H-M   'P 1'
_cell_length_a   7.57057876
_cell_length_b   7.50682778
_cell_length_c   8.31985282
_cell_angle_alpha   90.78034270
_cell_angle_beta   92.24482997
_cell_angle_gamma   90.85263790
_symmetry_Int_Tables_number   1
_chemical_formula_structural   Li2LuCu2As6F3
_chemical_formula_sum   'Li2 Lu1 Cu2 As6 F3'
_cell_volume   472.36291347
_cell_formula_units_Z   1
loop_
 _symmetry_equiv_pos_site_id
 _symmetry_equiv_pos_as_xyz
  1  'x, y, z'
loop_
 _atom_site_type_symbol
 _atom_site_label
 _atom_site_symmetry_multiplicity
 _atom_site_fract_x
 _atom_site_fract_y
 _atom_site_fract_z
 _atom_site_occupancy
  Lu  Lu0  1  0.12500000  0.00000000  0.25000000  1
  Li  Li1  1  0.00000000  0.00000000  0.00000000  1
  Li  Li2  1  0.37500000  0.00000000  0.25000000  1
  Cu  Cu3  1  0.25000000  0.25000000  0.25000000  1
  Cu  Cu4  1  0.00000000  0.25000000  0.12500000  1
  F  F5  1  0.67609121  0.30419414  0.63728466  1
  F  F6  1  0.35496375  0.94347990  0.38225018  1
  F  F7  1  0.83261861  0.13161439  0.00331367  1
  As  As8  1  0.70992989  0.35066810  0.09760121  1
  As  As9  1  0.10321793  0.18343682  0.64532476  1
  As  As10  1  0.34697219  0.97106391  0.96565983  1
  As  As11  1  0.53308091  0.64703301  0.71552194  1
  As  As12  1  0.83743396  0.65527693  0.00085660  1
  As  As13  1  0.60308466  0.14188097  0.01939458  1
