# generated using pymatgen
data_Li4Ti(OF)3
_symmetry_space_group_name_H-M   'P 1'
_cell_length_a   4.90480565
_cell_length_b   4.58897454
_cell_length_c   6.75636334
_cell_angle_alpha   104.83781228
_cell_angle_beta   109.27598620
_cell_angle_gamma   103.92457021
_symmetry_Int_Tables_number   1
_chemical_formula_structural   Li4Ti(OF)3
_chemical_formula_sum   'Li4 Ti1 O3 F3'
_cell_volume   129.64972314
_cell_formula_units_Z   1
loop_
 _symmetry_equiv_pos_site_id
 _symmetry_equiv_pos_as_xyz
  1  'x, y, z'
loop_
 _atom_site_type_symbol
 _atom_site_label
 _atom_site_symmetry_multiplicity
 _atom_site_fract_x
 _atom_site_fract_y
 _atom_site_fract_z
 _atom_site_occupancy
  Li  Li0  1  0.00000000  0.00000000  0.00000000  1
  Li  Li1  1  0.50000000  0.50000000  0.50000000  1
  Li  Li2  1  0.25000000  0.25000000  0.25000000  1
  Li  Li3  1  0.75000000  0.25000000  0.00000000  1
  F  F4  1  0.25000000  0.75000000  0.50000000  1
  F  F5  1  0.45788397  0.88516773  0.23340380  1
  F  F6  1  0.31458721  0.29944382  0.19920429  1
  Ti  Ti7  1  0.18076930  0.38701152  0.78674268  1
  O  O8  1  0.77736848  0.62374873  0.04083689  1
  O  O9  1  0.64982482  0.75055846  0.47697458  1
  O  O10  1  0.49314845  0.15612503  0.93318868  1
