# generated using pymatgen
data_Li3LuTiI4N5
_symmetry_space_group_name_H-M   'P 1'
_cell_length_a   8.14484887
_cell_length_b   7.89329290
_cell_length_c   8.04883748
_cell_angle_alpha   91.77261316
_cell_angle_beta   90.62669319
_cell_angle_gamma   92.05601668
_symmetry_Int_Tables_number   1
_chemical_formula_structural   Li3LuTiI4N5
_chemical_formula_sum   'Li3 Lu1 Ti1 I4 N5'
_cell_volume   516.83898436
_cell_formula_units_Z   1
loop_
 _symmetry_equiv_pos_site_id
 _symmetry_equiv_pos_as_xyz
  1  'x, y, z'
loop_
 _atom_site_type_symbol
 _atom_site_label
 _atom_site_symmetry_multiplicity
 _atom_site_fract_x
 _atom_site_fract_y
 _atom_site_fract_z
 _atom_site_occupancy
  I  I0  1  0.00000000  0.00000000  0.00000000  1
  I  I1  1  0.50000000  0.50000000  0.50000000  1
  I  I2  1  0.25000000  0.25000000  0.25000000  1
  I  I3  1  0.75000000  0.25000000  0.00000000  1
  Lu  Lu4  1  0.25000000  0.75000000  0.50000000  1
  Li  Li5  1  0.94256861  0.81821733  0.76758790  1
  Li  Li6  1  0.73106949  0.40991064  0.24224354  1
  Li  Li7  1  0.00537748  0.14452588  0.66362713  1
  Ti  Ti8  1  0.44436917  0.38942137  0.37042628  1
  N  N9  1  0.01435018  0.82112004  0.28651156  1
  N  N10  1  0.22885104  0.67631823  0.57749122  1
  N  N11  1  0.85702640  0.43025669  0.72143498  1
  N  N12  1  0.75463337  0.27739805  0.74743510  1
  N  N13  1  0.73519373  0.44807676  0.43208804  1
