# generated using pymatgen
data_Li2Ti2P5O3F4
_symmetry_space_group_name_H-M   'P 1'
_cell_length_a   6.97679914
_cell_length_b   6.70342008
_cell_length_c   6.99278904
_cell_angle_alpha   90.70953543
_cell_angle_beta   94.97089378
_cell_angle_gamma   90.75702429
_symmetry_Int_Tables_number   1
_chemical_formula_structural   Li2Ti2P5O3F4
_chemical_formula_sum   'Li2 Ti2 P5 O3 F4'
_cell_volume   325.75312676
_cell_formula_units_Z   1
loop_
 _symmetry_equiv_pos_site_id
 _symmetry_equiv_pos_as_xyz
  1  'x, y, z'
loop_
 _atom_site_type_symbol
 _atom_site_label
 _atom_site_symmetry_multiplicity
 _atom_site_fract_x
 _atom_site_fract_y
 _atom_site_fract_z
 _atom_site_occupancy
  P  P0  1  0.12500000  0.00000000  0.25000000  1
  P  P1  1  0.00000000  0.00000000  0.00000000  1
  P  P2  1  0.37500000  0.00000000  0.25000000  1
  P  P3  1  0.25000000  0.25000000  0.25000000  1
  P  P4  1  0.00000000  0.25000000  0.12500000  1
  Li  Li5  1  0.84151798  0.20310156  0.95482113  1
  Li  Li6  1  0.56783769  0.97963212  0.09201738  1
  F  F7  1  0.13372595  0.74461973  0.81216258  1
  F  F8  1  0.47442310  0.94228652  0.85762398  1
  F  F9  1  0.26089056  0.18660087  0.30697358  1
  F  F10  1  0.98959772  0.47646554  0.63672932  1
  Ti  Ti11  1  0.97393243  0.83593549  0.93773777  1
  Ti  Ti12  1  0.94387509  0.87710754  0.79078543  1
  O  O13  1  0.43163904  0.26316216  0.59023089  1
  O  O14  1  0.14234423  0.09474733  0.42899386  1
  O  O15  1  0.56747443  0.15712742  0.90204650  1
