# generated using pymatgen
data_Li2LuCu2(PN)5
_symmetry_space_group_name_H-M   'P 1'
_cell_length_a   7.28370423
_cell_length_b   7.12929980
_cell_length_c   8.14526177
_cell_angle_alpha   92.67196222
_cell_angle_beta   93.26528467
_cell_angle_gamma   92.77044357
_symmetry_Int_Tables_number   1
_chemical_formula_structural   Li2LuCu2(PN)5
_chemical_formula_sum   'Li2 Lu1 Cu2 P5 N5'
_cell_volume   421.26732331
_cell_formula_units_Z   1
loop_
 _symmetry_equiv_pos_site_id
 _symmetry_equiv_pos_as_xyz
  1  'x, y, z'
loop_
 _atom_site_type_symbol
 _atom_site_label
 _atom_site_symmetry_multiplicity
 _atom_site_fract_x
 _atom_site_fract_y
 _atom_site_fract_z
 _atom_site_occupancy
  P  P0  1  0.00000000  0.00000000  0.00000000  1
  P  P1  1  0.50000000  0.50000000  0.50000000  1
  P  P2  1  0.50000000  0.50000000  0.00000000  1
  P  P3  1  0.50000000  0.00000000  0.50000000  1
  P  P4  1  0.00000000  0.50000000  0.50000000  1
  Lu  Lu5  1  0.22556571  0.30818269  0.75885982  1
  Li  Li6  1  0.12237828  0.88663111  0.87613684  1
  Li  Li7  1  0.07568432  0.03463019  0.52953454  1
  Cu  Cu8  1  0.44056618  0.79225384  0.68626084  1
  Cu  Cu9  1  0.51880410  0.93740415  0.71412689  1
  N  N10  1  0.66417394  0.49501314  0.18021065  1
  N  N11  1  0.11977157  0.17270237  0.60187204  1
  N  N12  1  0.60976541  0.39810023  0.79435226  1
  N  N13  1  0.10851143  0.51797936  0.60986716  1
  N  N14  1  0.61570569  0.17059866  0.67939039  1
