# generated using pymatgen
data_Li3Ti2S2(OF)3
_symmetry_space_group_name_H-M   'P 1'
_cell_length_a   4.57373879
_cell_length_b   4.06926075
_cell_length_c   6.66568640
_cell_angle_alpha   102.49350831
_cell_angle_beta   106.49981346
_cell_angle_gamma   101.65078448
_symmetry_Int_Tables_number   1
_chemical_formula_structural   Li3Ti2S2(OF)3
_chemical_formula_sum   'Li3 Ti2 S2 O3 F3'
_cell_volume   111.44299146
_cell_formula_units_Z   1
loop_
 _symmetry_equiv_pos_site_id
 _symmetry_equiv_pos_as_xyz
  1  'x, y, z'
loop_
 _atom_site_type_symbol
 _atom_site_label
 _atom_site_symmetry_multiplicity
 _atom_site_fract_x
 _atom_site_fract_y
 _atom_site_fract_z
 _atom_site_occupancy
  Li  Li0  1  0.00000000  0.00000000  0.00000000  1
  Li  Li1  1  0.50000000  0.50000000  0.50000000  1
  Li  Li2  1  0.50000000  0.50000000  0.00000000  1
  F  F3  1  0.50000000  0.00000000  0.50000000  1
  F  F4  1  0.00000000  0.50000000  0.50000000  1
  F  F5  1  0.71409841  0.91706847  0.42488337  1
  S  S6  1  0.64199454  0.25896507  0.69519912  1
  S  S7  1  0.92783587  0.05734996  0.04068426  1
  Ti  Ti8  1  0.35038468  0.87165388  0.92996444  1
  Ti  Ti9  1  0.21832765  0.06410309  0.87276767  1
  O  O10  1  0.86739498  0.13141489  0.82688549  1
  O  O11  1  0.14793889  0.34597145  0.92288702  1
  O  O12  1  0.70790217  0.32363194  0.43579355  1
