# generated using pymatgen
data_Li2Lu(CuAs3)2
_symmetry_space_group_name_H-M   'P 1'
_cell_length_a   7.52065450
_cell_length_b   7.32647205
_cell_length_c   8.27833191
_cell_angle_alpha   92.27888349
_cell_angle_beta   92.11473327
_cell_angle_gamma   92.46939784
_symmetry_Int_Tables_number   1
_chemical_formula_structural   Li2Lu(CuAs3)2
_chemical_formula_sum   'Li2 Lu1 Cu2 As6'
_cell_volume   455.01020945
_cell_formula_units_Z   1
loop_
 _symmetry_equiv_pos_site_id
 _symmetry_equiv_pos_as_xyz
  1  'x, y, z'
loop_
 _atom_site_type_symbol
 _atom_site_label
 _atom_site_symmetry_multiplicity
 _atom_site_fract_x
 _atom_site_fract_y
 _atom_site_fract_z
 _atom_site_occupancy
  Lu  Lu0  1  0.00000000  0.00000000  0.00000000  1
  Li  Li1  1  0.50000000  0.50000000  0.50000000  1
  Li  Li2  1  0.25000000  0.25000000  0.25000000  1
  Cu  Cu3  1  0.75000000  0.25000000  0.00000000  1
  Cu  Cu4  1  0.25000000  0.75000000  0.50000000  1
  As  As5  1  0.24862866  0.73632556  0.26479617  1
  As  As6  1  0.49090569  0.87134156  0.75135028  1
  As  As7  1  0.63778049  0.49520374  0.54654774  1
  As  As8  1  0.95676506  0.09888663  0.08687693  1
  As  As9  1  0.02652172  0.02637819  0.76669074  1
  As  As10  1  0.34085519  0.56501275  0.24033924  1
