# generated using pymatgen
data_Li3As6I4O5F3
_symmetry_space_group_name_H-M   'P 1'
_cell_length_a   6.56176959
_cell_length_b   6.33971483
_cell_length_c   7.62217149
_cell_angle_alpha   97.16309898
_cell_angle_beta   99.14348341
_cell_angle_gamma   96.84832781
_symmetry_Int_Tables_number   1
_chemical_formula_structural   Li3As6I4O5F3
_chemical_formula_sum   'Li3 As6 I4 O5 F3'
_cell_volume   307.46268521
_cell_formula_units_Z   1
loop_
 _symmetry_equiv_pos_site_id
 _symmetry_equiv_pos_as_xyz
  1  'x, y, z'
loop_
 _atom_site_type_symbol
 _atom_site_label
 _atom_site_symmetry_multiplicity
 _atom_site_fract_x
 _atom_site_fract_y
 _atom_site_fract_z
 _atom_site_occupancy
  I  I0  1  0.00000000  0.00000000  0.00000000  1
  I  I1  1  0.50000000  0.50000000  0.50000000  1
  I  I2  1  0.50000000  0.50000000  0.00000000  1
  I  I3  1  0.50000000  0.00000000  0.50000000  1
  Li  Li4  1  0.00000000  0.50000000  0.50000000  1
  Li  Li5  1  0.09005540  0.14820515  0.20165623  1
  Li  Li6  1  0.75899236  0.34682413  0.95932821  1
  F  F7  1  0.13573672  0.08700693  0.82165424  1
  F  F8  1  0.58607658  0.33901508  0.48283695  1
  F  F9  1  0.08436903  0.43809109  0.47928551  1
  As  As10  1  0.12609538  0.37761958  0.10748411  1
  As  As11  1  0.99988306  0.53874544  0.34649767  1
  As  As12  1  0.01840716  0.28084485  0.89956497  1
  As  As13  1  0.51426819  0.65922709  0.91285130  1
  As  As14  1  0.50127566  0.08556846  0.05037936  1
  As  As15  1  0.46438775  0.74581627  0.51928636  1
  O  O16  1  0.11427641  0.88689047  0.92192199  1
  O  O17  1  0.03724124  0.94078438  0.55287581  1
  O  O18  1  0.22604274  0.13407597  0.45263196  1
  O  O19  1  0.43169975  0.46255499  0.40693865  1
  O  O20  1  0.34876634  0.54158757  0.71263514  1
