# generated using pymatgen
data_Li2TiI4(OF)3
_symmetry_space_group_name_H-M   'P 1'
_cell_length_a   8.38861092
_cell_length_b   8.24441586
_cell_length_c   7.44438812
_cell_angle_alpha   90.17221470
_cell_angle_beta   90.81934522
_cell_angle_gamma   90.19688738
_symmetry_Int_Tables_number   1
_chemical_formula_structural   Li2TiI4(OF)3
_chemical_formula_sum   'Li2 Ti1 I4 O3 F3'
_cell_volume   514.78982094
_cell_formula_units_Z   1
loop_
 _symmetry_equiv_pos_site_id
 _symmetry_equiv_pos_as_xyz
  1  'x, y, z'
loop_
 _atom_site_type_symbol
 _atom_site_label
 _atom_site_symmetry_multiplicity
 _atom_site_fract_x
 _atom_site_fract_y
 _atom_site_fract_z
 _atom_site_occupancy
  I  I0  1  0.12500000  0.00000000  0.25000000  1
  I  I1  1  0.00000000  0.00000000  0.00000000  1
  I  I2  1  0.37500000  0.00000000  0.25000000  1
  I  I3  1  0.25000000  0.25000000  0.25000000  1
  Li  Li4  1  0.00000000  0.25000000  0.12500000  1
  Li  Li5  1  0.04500487  0.83588256  0.20914065  1
  F  F6  1  0.83302816  0.97809065  0.81269260  1
  F  F7  1  0.53824178  0.27713197  0.02774285  1
  F  F8  1  0.72088381  0.11745412  0.01654774  1
  Ti  Ti9  1  0.27705175  0.94221877  0.06631226  1
  O  O10  1  0.21332850  0.25557577  0.49952840  1
  O  O11  1  0.86689861  0.47274581  0.44907166  1
  O  O12  1  0.30373829  0.79881423  0.73337557  1
