# generated using pymatgen
data_Li2(NiP)3
_symmetry_space_group_name_H-M   'P 1'
_cell_length_a   4.43456428
_cell_length_b   4.31972474
_cell_length_c   6.89775246
_cell_angle_alpha   98.71709396
_cell_angle_beta   98.45738461
_cell_angle_gamma   99.32441071
_symmetry_Int_Tables_number   1
_chemical_formula_structural   Li2(NiP)3
_chemical_formula_sum   'Li2 Ni3 P3'
_cell_volume   126.87104070
_cell_formula_units_Z   1
loop_
 _symmetry_equiv_pos_site_id
 _symmetry_equiv_pos_as_xyz
  1  'x, y, z'
loop_
 _atom_site_type_symbol
 _atom_site_label
 _atom_site_symmetry_multiplicity
 _atom_site_fract_x
 _atom_site_fract_y
 _atom_site_fract_z
 _atom_site_occupancy
  P  P0  1  0.00000000  0.00000000  0.00000000  1
  P  P1  1  0.33300000  0.66700000  0.25000000  1
  P  P2  1  0.66700000  0.33300000  0.50000000  1
  Li  Li3  1  0.00000000  0.00000000  0.75000000  1
  Li  Li4  1  0.26747753  0.06807892  0.18432807  1
  Ni  Ni5  1  0.69338301  0.72467394  0.29129259  1
  Ni  Ni6  1  0.22820124  0.05343878  0.89718293  1
  Ni  Ni7  1  0.18018246  0.60957760  0.70153872  1
