# generated using pymatgen
data_LiTiCu2(SO)2
_symmetry_space_group_name_H-M   'P 1'
_cell_length_a   5.76259983
_cell_length_b   5.72230573
_cell_length_c   6.87148293
_cell_angle_alpha   95.85002478
_cell_angle_beta   99.38523304
_cell_angle_gamma   96.81748975
_symmetry_Int_Tables_number   1
_chemical_formula_structural   LiTiCu2(SO)2
_chemical_formula_sum   'Li1 Ti1 Cu2 S2 O2'
_cell_volume   220.26811973
_cell_formula_units_Z   1
loop_
 _symmetry_equiv_pos_site_id
 _symmetry_equiv_pos_as_xyz
  1  'x, y, z'
loop_
 _atom_site_type_symbol
 _atom_site_label
 _atom_site_symmetry_multiplicity
 _atom_site_fract_x
 _atom_site_fract_y
 _atom_site_fract_z
 _atom_site_occupancy
  Li  Li0  1  0.12500000  0.00000000  0.25000000  1
  Cu  Cu1  1  0.00000000  0.00000000  0.00000000  1
  Cu  Cu2  1  0.37500000  0.00000000  0.25000000  1
  S  S3  1  0.25000000  0.25000000  0.25000000  1
  S  S4  1  0.00000000  0.25000000  0.12500000  1
  Ti  Ti5  1  0.60447087  0.31229763  0.99855547  1
  O  O6  1  0.84103895  0.44993041  0.51786315  1
  O  O7  1  0.50386715  0.54703351  0.17686798  1
