# generated using pymatgen
data_Li2TiCu2F2
_symmetry_space_group_name_H-M   'P 1'
_cell_length_a   7.60548284
_cell_length_b   7.43707696
_cell_length_c   7.37837500
_cell_angle_alpha   90.74268814
_cell_angle_beta   92.05640808
_cell_angle_gamma   90.59526835
_symmetry_Int_Tables_number   1
_chemical_formula_structural   Li2TiCu2F2
_chemical_formula_sum   'Li2 Ti1 Cu2 F2'
_cell_volume   417.01137301
_cell_formula_units_Z   1
loop_
 _symmetry_equiv_pos_site_id
 _symmetry_equiv_pos_as_xyz
  1  'x, y, z'
loop_
 _atom_site_type_symbol
 _atom_site_label
 _atom_site_symmetry_multiplicity
 _atom_site_fract_x
 _atom_site_fract_y
 _atom_site_fract_z
 _atom_site_occupancy
  Li  Li0  1  0.00000000  0.00000000  0.00000000  1
  Li  Li1  1  0.50000000  0.50000000  0.50000000  1
  Cu  Cu2  1  0.50000000  0.50000000  0.00000000  1
  Cu  Cu3  1  0.50000000  0.00000000  0.50000000  1
  F  F4  1  0.00000000  0.50000000  0.50000000  1
  F  F5  1  0.52140924  0.76469737  0.93857876  1
  Ti  Ti6  1  0.57907890  0.06970496  0.40126220  1
