# generated using pymatgen
data_Li2TiI4O3
_symmetry_space_group_name_H-M   'P 1'
_cell_length_a   8.30888323
_cell_length_b   8.16054647
_cell_length_c   7.45303950
_cell_angle_alpha   90.20309460
_cell_angle_beta   90.96626244
_cell_angle_gamma   90.23219136
_symmetry_Int_Tables_number   1
_chemical_formula_structural   Li2TiI4O3
_chemical_formula_sum   'Li2 Ti1 I4 O3'
_cell_volume   505.27423959
_cell_formula_units_Z   1
loop_
 _symmetry_equiv_pos_site_id
 _symmetry_equiv_pos_as_xyz
  1  'x, y, z'
loop_
 _atom_site_type_symbol
 _atom_site_label
 _atom_site_symmetry_multiplicity
 _atom_site_fract_x
 _atom_site_fract_y
 _atom_site_fract_z
 _atom_site_occupancy
  I  I0  1  0.12500000  0.12500000  0.12500000  1
  I  I1  1  0.50000000  0.50000000  0.50000000  1
  I  I2  1  0.25000000  0.25000000  0.25000000  1
  I  I3  1  0.75000000  0.75000000  0.75000000  1
  Li  Li4  1  0.49132465  0.87138917  0.10797302  1
  Li  Li5  1  0.04322461  0.62455150  0.21064416  1
  Ti  Ti6  1  0.38313245  0.72282132  0.50034995  1
  O  O7  1  0.69124066  0.94982460  0.78944893  1
  O  O8  1  0.29551901  0.28231661  0.16365194  1
  O  O9  1  0.93539495  0.89157696  0.26841613  1
