# generated using pymatgen
data_Li3LuTiF3
_symmetry_space_group_name_H-M   'P 1'
_cell_length_a   6.93131728
_cell_length_b   6.69709321
_cell_length_c   7.60551257
_cell_angle_alpha   94.92608923
_cell_angle_beta   96.03310131
_cell_angle_gamma   94.86058354
_symmetry_Int_Tables_number   1
_chemical_formula_structural   Li3LuTiF3
_chemical_formula_sum   'Li3 Lu1 Ti1 F3'
_cell_volume   348.22358305
_cell_formula_units_Z   1
loop_
 _symmetry_equiv_pos_site_id
 _symmetry_equiv_pos_as_xyz
  1  'x, y, z'
loop_
 _atom_site_type_symbol
 _atom_site_label
 _atom_site_symmetry_multiplicity
 _atom_site_fract_x
 _atom_site_fract_y
 _atom_site_fract_z
 _atom_site_occupancy
  Lu  Lu0  1  0.00000000  0.00000000  0.00000000  1
  Li  Li1  1  0.50000000  0.50000000  0.50000000  1
  Li  Li2  1  0.50000000  0.50000000  0.00000000  1
  Li  Li3  1  0.50000000  0.00000000  0.50000000  1
  F  F4  1  0.00000000  0.50000000  0.50000000  1
  F  F5  1  0.68903885  0.90182929  0.33580629  1
  F  F6  1  0.89135679  0.52957402  0.90716733  1
  Ti  Ti7  1  0.84463795  0.36807245  0.82595284  1
