# generated using pymatgen
data_LiTiS3(IO)4
_symmetry_space_group_name_H-M   'P 1'
_cell_length_a   7.14209738
_cell_length_b   7.08764325
_cell_length_c   7.33456861
_cell_angle_alpha   90.90758087
_cell_angle_beta   94.31799415
_cell_angle_gamma   91.03760728
_symmetry_Int_Tables_number   1
_chemical_formula_structural   LiTiS3(IO)4
_chemical_formula_sum   'Li1 Ti1 S3 I4 O4'
_cell_volume   370.11086153
_cell_formula_units_Z   1
loop_
 _symmetry_equiv_pos_site_id
 _symmetry_equiv_pos_as_xyz
  1  'x, y, z'
loop_
 _atom_site_type_symbol
 _atom_site_label
 _atom_site_symmetry_multiplicity
 _atom_site_fract_x
 _atom_site_fract_y
 _atom_site_fract_z
 _atom_site_occupancy
  I  I0  1  0.12500000  0.00000000  0.25000000  1
  I  I1  1  0.00000000  0.00000000  0.00000000  1
  I  I2  1  0.37500000  0.00000000  0.25000000  1
  I  I3  1  0.25000000  0.25000000  0.25000000  1
  Li  Li4  1  0.00000000  0.25000000  0.12500000  1
  S  S5  1  0.02954455  0.09798983  0.91024966  1
  S  S6  1  0.98367487  0.10415086  0.21511163  1
  S  S7  1  0.20021252  0.41502096  0.37060862  1
  Ti  Ti8  1  0.93551334  0.00488703  0.05938243  1
  O  O9  1  0.95373496  0.25469164  0.83734093  1
  O  O10  1  0.35507193  0.47683875  0.55976819  1
  O  O11  1  0.03991193  0.56272412  0.30146659  1
  O  O12  1  0.51079652  0.84695418  0.57932340  1
