# generated using pymatgen
data_Li2LuP6
_symmetry_space_group_name_H-M   'P 1'
_cell_length_a   5.95240174
_cell_length_b   5.73875498
_cell_length_c   7.49000558
_cell_angle_alpha   101.30691116
_cell_angle_beta   104.35305927
_cell_angle_gamma   100.67858559
_symmetry_Int_Tables_number   1
_chemical_formula_structural   Li2LuP6
_chemical_formula_sum   'Li2 Lu1 P6'
_cell_volume   235.57433680
_cell_formula_units_Z   1
loop_
 _symmetry_equiv_pos_site_id
 _symmetry_equiv_pos_as_xyz
  1  'x, y, z'
loop_
 _atom_site_type_symbol
 _atom_site_label
 _atom_site_symmetry_multiplicity
 _atom_site_fract_x
 _atom_site_fract_y
 _atom_site_fract_z
 _atom_site_occupancy
  P  P0  1  0.12500000  0.00000000  0.25000000  1
  P  P1  1  0.00000000  0.00000000  0.00000000  1
  P  P2  1  0.37500000  0.00000000  0.25000000  1
  P  P3  1  0.25000000  0.25000000  0.25000000  1
  P  P4  1  0.00000000  0.25000000  0.12500000  1
  P  P5  1  0.26106480  0.12302591  0.88782960  1
  Lu  Lu6  1  0.96981760  0.56759594  0.20759148  1
  Li  Li7  1  0.25262147  0.72559173  0.99201160  1
  Li  Li8  1  0.26274598  0.07471059  0.38272958  1
