# generated using pymatgen
data_Li4Ti3(P4O)2
_symmetry_space_group_name_H-M   'P 1'
_cell_length_a   5.57120012
_cell_length_b   5.98234154
_cell_length_c   6.43603513
_cell_angle_alpha   94.01663463
_cell_angle_beta   98.35415422
_cell_angle_gamma   98.15437823
_symmetry_Int_Tables_number   1
_chemical_formula_structural   Li4Ti3(P4O)2
_chemical_formula_sum   'Li4 Ti3 P8 O2'
_cell_volume   209.18166932
_cell_formula_units_Z   1
loop_
 _symmetry_equiv_pos_site_id
 _symmetry_equiv_pos_as_xyz
  1  'x, y, z'
loop_
 _atom_site_type_symbol
 _atom_site_label
 _atom_site_symmetry_multiplicity
 _atom_site_fract_x
 _atom_site_fract_y
 _atom_site_fract_z
 _atom_site_occupancy
  Li  Li0  1  0.00000000  0.00000000  0.00000000  1
  Li  Li1  1  0.50000000  0.50000000  0.50000000  1
  Li  Li2  1  0.25000000  0.25000000  0.25000000  1
  Li  Li3  1  0.75000000  0.25000000  0.00000000  1
  Ti  Ti4  1  0.25000000  0.75000000  0.50000000  1
  Ti  Ti5  1  0.96719013  0.00974798  0.02148178  1
  Ti  Ti6  1  0.99974753  0.08750210  0.44840930  1
  P  P7  1  0.25742361  0.28967144  0.73985718  1
  P  P8  1  0.96968287  0.25744262  0.90195072  1
  P  P9  1  0.06969054  0.52112996  0.85988039  1
  P  P10  1  0.42198993  0.21435106  0.73550068  1
  P  P11  1  0.17360367  0.57212197  0.24017238  1
  P  P12  1  0.37669497  0.66458283  0.44130415  1
  P  P13  1  0.32412640  0.45628240  0.46457746  1
  P  P14  1  0.44476447  0.22759582  0.02213839  1
  O  O15  1  0.44317010  0.27630161  0.38718565  1
  O  O16  1  0.63591789  0.84599677  0.13370345  1
