# generated using pymatgen
data_Li3(NiP4)2
_symmetry_space_group_name_H-M   'P 1'
_cell_length_a   6.59045913
_cell_length_b   6.29837957
_cell_length_c   7.93106886
_cell_angle_alpha   97.60942959
_cell_angle_beta   99.24113296
_cell_angle_gamma   97.35934317
_symmetry_Int_Tables_number   1
_chemical_formula_structural   Li3(NiP4)2
_chemical_formula_sum   'Li3 Ni2 P8'
_cell_volume   318.30273432
_cell_formula_units_Z   1
loop_
 _symmetry_equiv_pos_site_id
 _symmetry_equiv_pos_as_xyz
  1  'x, y, z'
loop_
 _atom_site_type_symbol
 _atom_site_label
 _atom_site_symmetry_multiplicity
 _atom_site_fract_x
 _atom_site_fract_y
 _atom_site_fract_z
 _atom_site_occupancy
  Ni  Ni0  1  0.00000000  0.00000000  0.00000000  1
  Ni  Ni1  1  0.33300000  0.66700000  0.25000000  1
  P  P2  1  0.66700000  0.33300000  0.50000000  1
  P  P3  1  0.00000000  0.00000000  0.75000000  1
  P  P4  1  0.84504815  0.86862764  0.09785171  1
  P  P5  1  0.18346089  0.56819259  0.44307889  1
  P  P6  1  0.13033024  0.25252795  0.98049913  1
  P  P7  1  0.03400622  0.45613839  0.60636654  1
  P  P8  1  0.68959695  0.81338326  0.50274833  1
  P  P9  1  0.48364300  0.33049669  0.76684173  1
  Li  Li10  1  0.56154623  0.69109884  0.13088734  1
  Li  Li11  1  0.40154399  0.72687802  0.49684087  1
  Li  Li12  1  0.85223727  0.42743873  0.49962949  1
