# generated using pymatgen
data_Li2Lu(CuAs3)2
_symmetry_space_group_name_H-M   'P 1'
_cell_length_a   7.53914270
_cell_length_b   7.56154154
_cell_length_c   8.44192999
_cell_angle_alpha   91.00581578
_cell_angle_beta   91.86751035
_cell_angle_gamma   91.16092179
_symmetry_Int_Tables_number   1
_chemical_formula_structural   Li2Lu(CuAs3)2
_chemical_formula_sum   'Li2 Lu1 Cu2 As6'
_cell_volume   480.81942515
_cell_formula_units_Z   1
loop_
 _symmetry_equiv_pos_site_id
 _symmetry_equiv_pos_as_xyz
  1  'x, y, z'
loop_
 _atom_site_type_symbol
 _atom_site_label
 _atom_site_symmetry_multiplicity
 _atom_site_fract_x
 _atom_site_fract_y
 _atom_site_fract_z
 _atom_site_occupancy
  Lu  Lu0  1  0.12500000  0.12500000  0.12500000  1
  As  As1  1  0.50000000  0.50000000  0.50000000  1
  As  As2  1  0.25000000  0.25000000  0.25000000  1
  As  As3  1  0.75000000  0.75000000  0.75000000  1
  As  As4  1  0.85637602  0.44155282  0.05513652  1
  As  As5  1  0.42919696  0.55411077  0.50874152  1
  As  As6  1  0.82088418  0.23268028  0.00844852  1
  Li  Li7  1  0.41602751  0.41801350  0.45851528  1
  Li  Li8  1  0.00435343  0.07979741  0.14050022  1
  Cu  Cu9  1  0.65681274  0.68817110  0.58439710  1
  Cu  Cu10  1  0.86330907  0.90326843  0.12989866  1
