# generated using pymatgen
data_LiSb3Se2Br3O
_symmetry_space_group_name_H-M   'P 1'
_cell_length_a   8.06033836
_cell_length_b   8.34664589
_cell_length_c   7.62448449
_cell_angle_alpha   90.00000000
_cell_angle_beta   90.00000000
_cell_angle_gamma   90.00000000
_symmetry_Int_Tables_number   1
_chemical_formula_structural   LiSb3Se2Br3O
_chemical_formula_sum   'Li1 Sb3 Se2 Br3 O1'
_cell_volume   512.95084241
_cell_formula_units_Z   1
loop_
 _symmetry_equiv_pos_site_id
 _symmetry_equiv_pos_as_xyz
  1  'x, y, z'
loop_
 _atom_site_type_symbol
 _atom_site_label
 _atom_site_symmetry_multiplicity
 _atom_site_fract_x
 _atom_site_fract_y
 _atom_site_fract_z
 _atom_site_occupancy
  Sb  Sb0  1  0.12500000  0.00000000  0.25000000  1
  Sb  Sb1  1  0.00000000  0.00000000  0.00000000  1
  Sb  Sb2  1  0.37500000  0.00000000  0.25000000  1
  Li  Li3  1  0.25000000  0.25000000  0.25000000  1
  Br  Br4  1  0.00000000  0.25000000  0.12500000  1
  Br  Br5  1  0.51806143  0.09159160  0.55061101  1
  Br  Br6  1  0.71933138  0.23759063  0.07477034  1
  Se  Se7  1  0.78173131  0.53245945  0.69132502  1
  Se  Se8  1  0.28348893  0.13068979  0.29345618  1
  O  O9  1  0.34240543  0.84007311  0.41861049  1
