# generated using pymatgen
data_LiAs3
_symmetry_space_group_name_H-M   'P 1'
_cell_length_a   7.70192599
_cell_length_b   7.52311875
_cell_length_c   8.65671381
_cell_angle_alpha   91.50377161
_cell_angle_beta   91.26647366
_cell_angle_gamma   91.70625460
_symmetry_Int_Tables_number   1
_chemical_formula_structural   LiAs3
_chemical_formula_sum   'Li2 As6'
_cell_volume   501.06514953
_cell_formula_units_Z   2
loop_
 _symmetry_equiv_pos_site_id
 _symmetry_equiv_pos_as_xyz
  1  'x, y, z'
loop_
 _atom_site_type_symbol
 _atom_site_label
 _atom_site_symmetry_multiplicity
 _atom_site_fract_x
 _atom_site_fract_y
 _atom_site_fract_z
 _atom_site_occupancy
  Li  Li0  1  0.00000000  0.00000000  0.00000000  1
  Li  Li1  1  0.50000000  0.50000000  0.50000000  1
  As  As2  1  0.50000000  0.50000000  0.00000000  1
  As  As3  1  0.50000000  0.00000000  0.50000000  1
  As  As4  1  0.00000000  0.50000000  0.50000000  1
  As  As5  1  0.19350670  0.12379857  0.20890805  1
  As  As6  1  0.30489738  0.09037164  0.73075541  1
  As  As7  1  0.65700834  0.84776835  0.35322028  1
