# generated using pymatgen
data_Li2Ti(IO)4
_symmetry_space_group_name_H-M   'P 1'
_cell_length_a   8.18025478
_cell_length_b   8.21059228
_cell_length_c   7.89344471
_cell_angle_alpha   90.23198231
_cell_angle_beta   91.10370137
_cell_angle_gamma   90.26521772
_symmetry_Int_Tables_number   1
_chemical_formula_structural   Li2Ti(IO)4
_chemical_formula_sum   'Li2 Ti1 I4 O4'
_cell_volume   530.05255602
_cell_formula_units_Z   1
loop_
 _symmetry_equiv_pos_site_id
 _symmetry_equiv_pos_as_xyz
  1  'x, y, z'
loop_
 _atom_site_type_symbol
 _atom_site_label
 _atom_site_symmetry_multiplicity
 _atom_site_fract_x
 _atom_site_fract_y
 _atom_site_fract_z
 _atom_site_occupancy
  Li  Li0  1  0.12500000  0.12500000  0.12500000  1
  Li  Li1  1  0.50000000  0.50000000  0.50000000  1
  Ti  Ti2  1  0.25000000  0.25000000  0.25000000  1
  I  I3  1  0.75000000  0.75000000  0.75000000  1
  I  I4  1  0.02689450  0.85472351  0.40948337  1
  I  I5  1  0.70674177  0.23595253  0.14979960  1
  I  I6  1  0.81341812  0.35963266  0.54778111  1
  O  O7  1  0.53649238  0.44292888  0.22070363  1
  O  O8  1  0.71922449  0.64197964  0.75134190  1
  O  O9  1  0.17516883  0.38903104  0.44741762  1
  O  O10  1  0.21245580  0.56699022  0.16367480  1
