# generated using pymatgen
data_Li2Ti(CuAs3)2
_symmetry_space_group_name_H-M   'P 1'
_cell_length_a   6.72985100
_cell_length_b   6.90241193
_cell_length_c   7.72429377
_cell_angle_alpha   93.58614540
_cell_angle_beta   95.96640085
_cell_angle_gamma   94.38752794
_symmetry_Int_Tables_number   1
_chemical_formula_structural   Li2Ti(CuAs3)2
_chemical_formula_sum   'Li2 Ti1 Cu2 As6'
_cell_volume   354.92062616
_cell_formula_units_Z   1
loop_
 _symmetry_equiv_pos_site_id
 _symmetry_equiv_pos_as_xyz
  1  'x, y, z'
loop_
 _atom_site_type_symbol
 _atom_site_label
 _atom_site_symmetry_multiplicity
 _atom_site_fract_x
 _atom_site_fract_y
 _atom_site_fract_z
 _atom_site_occupancy
  Li  Li0  1  0.12500000  0.00000000  0.25000000  1
  Li  Li1  1  0.00000000  0.00000000  0.00000000  1
  Cu  Cu2  1  0.37500000  0.00000000  0.25000000  1
  Cu  Cu3  1  0.25000000  0.25000000  0.25000000  1
  Ti  Ti4  1  0.00000000  0.25000000  0.12500000  1
  As  As5  1  0.58055722  0.95066238  0.64192561  1
  As  As6  1  0.09717035  0.95541974  0.68743774  1
  As  As7  1  0.83622463  0.30473373  0.47163442  1
  As  As8  1  0.36752593  0.71934073  0.82039004  1
  As  As9  1  0.92082914  0.14612914  0.39439137  1
  As  As10  1  0.97463182  0.84893484  0.97253820  1
