# generated using pymatgen
data_Li3TiI4N5
_symmetry_space_group_name_H-M   'P 1'
_cell_length_a   6.99578226
_cell_length_b   6.74552270
_cell_length_c   7.48124792
_cell_angle_alpha   96.04557585
_cell_angle_beta   97.18119147
_cell_angle_gamma   95.87342558
_symmetry_Int_Tables_number   1
_chemical_formula_structural   Li3TiI4N5
_chemical_formula_sum   'Li3 Ti1 I4 N5'
_cell_volume   345.92942250
_cell_formula_units_Z   1
loop_
 _symmetry_equiv_pos_site_id
 _symmetry_equiv_pos_as_xyz
  1  'x, y, z'
loop_
 _atom_site_type_symbol
 _atom_site_label
 _atom_site_symmetry_multiplicity
 _atom_site_fract_x
 _atom_site_fract_y
 _atom_site_fract_z
 _atom_site_occupancy
  I  I0  1  0.12500000  0.12500000  0.12500000  1
  I  I1  1  0.50000000  0.50000000  0.50000000  1
  I  I2  1  0.25000000  0.25000000  0.25000000  1
  I  I3  1  0.75000000  0.75000000  0.75000000  1
  Li  Li4  1  0.83547951  0.86410252  0.50172837  1
  Li  Li5  1  0.19003333  0.12996230  0.06735092  1
  Li  Li6  1  0.31755458  0.87464664  0.06353843  1
  Ti  Ti7  1  0.52893193  0.43250770  0.61150346  1
  N  N8  1  0.79572862  0.64314740  0.34960832  1
  N  N9  1  0.94509931  0.39435822  0.70578688  1
  N  N10  1  0.40319606  0.66444584  0.72435958  1
  N  N11  1  0.55134250  0.14989265  0.62616842  1
  N  N12  1  0.47468167  0.78382053  0.70936049  1
