# generated using pymatgen
data_LiCuAs3O2
_symmetry_space_group_name_H-M   'P 1'
_cell_length_a   7.23933683
_cell_length_b   7.36172818
_cell_length_c   7.54225897
_cell_angle_alpha   95.05196718
_cell_angle_beta   96.84559978
_cell_angle_gamma   94.77547353
_symmetry_Int_Tables_number   1
_chemical_formula_structural   LiCuAs3O2
_chemical_formula_sum   'Li2 Cu2 As6 O4'
_cell_volume   395.75146146
_cell_formula_units_Z   2
loop_
 _symmetry_equiv_pos_site_id
 _symmetry_equiv_pos_as_xyz
  1  'x, y, z'
loop_
 _atom_site_type_symbol
 _atom_site_label
 _atom_site_symmetry_multiplicity
 _atom_site_fract_x
 _atom_site_fract_y
 _atom_site_fract_z
 _atom_site_occupancy
  Li  Li0  1  0.12500000  0.12500000  0.12500000  1
  Li  Li1  1  0.50000000  0.50000000  0.50000000  1
  Cu  Cu2  1  0.25000000  0.25000000  0.25000000  1
  Cu  Cu3  1  0.75000000  0.75000000  0.75000000  1
  As  As4  1  0.64470481  0.59019943  0.08613063  1
  As  As5  1  0.74654886  0.47504920  0.63510106  1
  As  As6  1  0.43242750  0.72648170  0.33550466  1
  As  As7  1  0.48891668  0.53050269  0.55590541  1
  As  As8  1  0.79820305  0.90310341  0.01401492  1
  As  As9  1  0.95749834  0.89453515  0.13398329  1
  O  O10  1  0.33995396  0.66903736  0.45501234  1
  O  O11  1  0.74988364  0.40883711  0.73060300  1
  O  O12  1  0.42799282  0.57020235  0.24858849  1
  O  O13  1  0.22414475  0.43717198  0.10756612  1
