# generated using pymatgen
data_Li2As6P5
_symmetry_space_group_name_H-M   'P 1'
_cell_length_a   7.36565922
_cell_length_b   7.31954422
_cell_length_c   8.17778144
_cell_angle_alpha   90.99251368
_cell_angle_beta   93.03504502
_cell_angle_gamma   90.99872353
_symmetry_Int_Tables_number   1
_chemical_formula_structural   Li2As6P5
_chemical_formula_sum   'Li2 As6 P5'
_cell_volume   440.13211993
_cell_formula_units_Z   1
loop_
 _symmetry_equiv_pos_site_id
 _symmetry_equiv_pos_as_xyz
  1  'x, y, z'
loop_
 _atom_site_type_symbol
 _atom_site_label
 _atom_site_symmetry_multiplicity
 _atom_site_fract_x
 _atom_site_fract_y
 _atom_site_fract_z
 _atom_site_occupancy
  P  P0  1  0.12500000  0.12500000  0.12500000  1
  P  P1  1  0.50000000  0.50000000  0.50000000  1
  P  P2  1  0.25000000  0.25000000  0.25000000  1
  P  P3  1  0.75000000  0.75000000  0.75000000  1
  P  P4  1  0.27289559  0.82654680  0.74841794  1
  As  As5  1  0.47626980  0.83342259  0.25803272  1
  As  As6  1  0.77806854  0.20987824  0.81880615  1
  As  As7  1  0.97362667  0.47164565  0.90933859  1
  As  As8  1  0.28323918  0.05276654  0.77268747  1
  As  As9  1  0.33810904  0.66411719  0.26258796  1
  As  As10  1  0.08134649  0.14471680  0.36649199  1
  Li  Li11  1  0.53475993  0.41062828  0.07691086  1
  Li  Li12  1  0.72922447  0.34809194  0.24674945  1
