# generated using pymatgen
data_Li2TiI4(OF)3
_symmetry_space_group_name_H-M   'P 1'
_cell_length_a   7.39725155
_cell_length_b   7.20883435
_cell_length_c   7.31865199
_cell_angle_alpha   93.24336200
_cell_angle_beta   95.04692729
_cell_angle_gamma   93.09309415
_symmetry_Int_Tables_number   1
_chemical_formula_structural   Li2TiI4(OF)3
_chemical_formula_sum   'Li2 Ti1 I4 O3 F3'
_cell_volume   387.45331894
_cell_formula_units_Z   1
loop_
 _symmetry_equiv_pos_site_id
 _symmetry_equiv_pos_as_xyz
  1  'x, y, z'
loop_
 _atom_site_type_symbol
 _atom_site_label
 _atom_site_symmetry_multiplicity
 _atom_site_fract_x
 _atom_site_fract_y
 _atom_site_fract_z
 _atom_site_occupancy
  I  I0  1  0.00000000  0.00000000  0.00000000  1
  I  I1  1  0.50000000  0.50000000  0.50000000  1
  I  I2  1  0.50000000  0.50000000  0.00000000  1
  I  I3  1  0.50000000  0.00000000  0.50000000  1
  Li  Li4  1  0.00000000  0.50000000  0.50000000  1
  Li  Li5  1  0.25954199  0.75857402  0.73942710  1
  F  F6  1  0.73064152  0.01462860  0.09975622  1
  F  F7  1  0.91990321  0.85781158  0.02381907  1
  F  F8  1  0.90408284  0.12702759  0.76143109  1
  Ti  Ti9  1  0.22536951  0.57070085  0.19820789  1
  O  O10  1  0.26833267  0.31788681  0.58921244  1
  O  O11  1  0.53771505  0.84405339  0.75776913  1
  O  O12  1  0.08014427  0.64520345  0.14658461  1
