# generated using pymatgen
data_Li2LuCu2(As3P2)2
_symmetry_space_group_name_H-M   'P 1'
_cell_length_a   7.62501632
_cell_length_b   7.43843281
_cell_length_c   8.01415012
_cell_angle_alpha   91.29603281
_cell_angle_beta   91.65028014
_cell_angle_gamma   91.40567444
_symmetry_Int_Tables_number   1
_chemical_formula_structural   Li2LuCu2(As3P2)2
_chemical_formula_sum   'Li2 Lu1 Cu2 As6 P4'
_cell_volume   454.09892505
_cell_formula_units_Z   1
loop_
 _symmetry_equiv_pos_site_id
 _symmetry_equiv_pos_as_xyz
  1  'x, y, z'
loop_
 _atom_site_type_symbol
 _atom_site_label
 _atom_site_symmetry_multiplicity
 _atom_site_fract_x
 _atom_site_fract_y
 _atom_site_fract_z
 _atom_site_occupancy
  P  P0  1  0.00000000  0.00000000  0.00000000  1
  P  P1  1  0.50000000  0.50000000  0.50000000  1
  P  P2  1  0.25000000  0.25000000  0.25000000  1
  P  P3  1  0.75000000  0.25000000  0.00000000  1
  Lu  Lu4  1  0.25000000  0.75000000  0.50000000  1
  Li  Li5  1  0.73620273  0.99350428  0.83762614  1
  Li  Li6  1  0.15921213  0.06911737  0.63091260  1
  Cu  Cu7  1  0.63532113  0.77191464  0.95459101  1
  Cu  Cu8  1  0.47765549  0.31203845  0.01287917  1
  As  As9  1  0.85356333  0.26761694  0.23731472  1
  As  As10  1  0.69003322  0.60197230  0.01369113  1
  As  As11  1  0.10275262  0.37206112  0.15321713  1
  As  As12  1  0.33269849  0.81854625  0.67442658  1
  As  As13  1  0.24817474  0.57564628  0.99116963  1
  As  As14  1  0.96828796  0.82399552  0.99232737  1
