# generated using pymatgen
data_Li5Ti2SeO4F3
_symmetry_space_group_name_H-M   'P 1'
_cell_length_a   4.36707186
_cell_length_b   4.01636783
_cell_length_c   6.66143356
_cell_angle_alpha   107.32019578
_cell_angle_beta   112.36720788
_cell_angle_gamma   106.24625117
_symmetry_Int_Tables_number   1
_chemical_formula_structural   Li5Ti2SeO4F3
_chemical_formula_sum   'Li5 Ti2 Se1 O4 F3'
_cell_volume   92.36251186
_cell_formula_units_Z   1
loop_
 _symmetry_equiv_pos_site_id
 _symmetry_equiv_pos_as_xyz
  1  'x, y, z'
loop_
 _atom_site_type_symbol
 _atom_site_label
 _atom_site_symmetry_multiplicity
 _atom_site_fract_x
 _atom_site_fract_y
 _atom_site_fract_z
 _atom_site_occupancy
  Li  Li0  1  0.00000000  0.00000000  0.00000000  1
  Li  Li1  1  0.50000000  0.50000000  0.50000000  1
  Li  Li2  1  0.25000000  0.25000000  0.25000000  1
  Li  Li3  1  0.75000000  0.25000000  0.00000000  1
  Li  Li4  1  0.25000000  0.75000000  0.50000000  1
  Se  Se5  1  0.98218396  0.40445913  0.68662485  1
  F  F6  1  0.87615437  0.02668450  0.46931694  1
  F  F7  1  0.60570248  0.07348199  0.95823206  1
  F  F8  1  0.96585664  0.60555204  0.60048783  1
  Ti  Ti9  1  0.57484761  0.90783443  0.43499228  1
  Ti  Ti10  1  0.54518997  0.77639794  0.56607238  1
  O  O11  1  0.51972733  0.49568857  0.47905314  1
  O  O12  1  0.77454912  0.15694436  0.01479748  1
  O  O13  1  0.28812487  0.01337439  0.68605182  1
  O  O14  1  0.42017013  0.89486354  0.97536525  1
