# generated using pymatgen
data_Li3Se3S2
_symmetry_space_group_name_H-M   'P 1'
_cell_length_a   6.29811002
_cell_length_b   6.47569849
_cell_length_c   7.66756480
_cell_angle_alpha   94.85535609
_cell_angle_beta   95.32162329
_cell_angle_gamma   94.36790756
_symmetry_Int_Tables_number   1
_chemical_formula_structural   Li3Se3S2
_chemical_formula_sum   'Li3 Se3 S2'
_cell_volume   309.13948095
_cell_formula_units_Z   1
loop_
 _symmetry_equiv_pos_site_id
 _symmetry_equiv_pos_as_xyz
  1  'x, y, z'
loop_
 _atom_site_type_symbol
 _atom_site_label
 _atom_site_symmetry_multiplicity
 _atom_site_fract_x
 _atom_site_fract_y
 _atom_site_fract_z
 _atom_site_occupancy
  Se  Se0  1  0.00000000  0.00000000  0.00000000  1
  Se  Se1  1  0.50000000  0.50000000  0.50000000  1
  Se  Se2  1  0.50000000  0.50000000  0.00000000  1
  Li  Li3  1  0.50000000  0.00000000  0.50000000  1
  Li  Li4  1  0.00000000  0.50000000  0.50000000  1
  Li  Li5  1  0.67617984  0.01454174  0.25660775  1
  S  S6  1  0.58272068  0.77521679  0.07653308  1
  S  S7  1  0.84326071  0.62805531  0.22052675  1
