# generated using pymatgen
data_Li2I4N5
_symmetry_space_group_name_H-M   'P 1'
_cell_length_a   7.44719339
_cell_length_b   7.35775904
_cell_length_c   7.91404794
_cell_angle_alpha   94.18358139
_cell_angle_beta   94.43210384
_cell_angle_gamma   94.18082829
_symmetry_Int_Tables_number   1
_chemical_formula_structural   Li2I4N5
_chemical_formula_sum   'Li2 I4 N5'
_cell_volume   429.85145892
_cell_formula_units_Z   1
loop_
 _symmetry_equiv_pos_site_id
 _symmetry_equiv_pos_as_xyz
  1  'x, y, z'
loop_
 _atom_site_type_symbol
 _atom_site_label
 _atom_site_symmetry_multiplicity
 _atom_site_fract_x
 _atom_site_fract_y
 _atom_site_fract_z
 _atom_site_occupancy
  I  I0  1  0.00000000  0.00000000  0.00000000  1
  I  I1  1  0.33300000  0.66700000  0.25000000  1
  I  I2  1  0.66700000  0.33300000  0.50000000  1
  I  I3  1  0.00000000  0.00000000  0.75000000  1
  Li  Li4  1  0.44260986  0.65196483  0.23255472  1
  Li  Li5  1  0.13546006  0.28599480  0.67293964  1
  N  N6  1  0.91390641  0.16871607  0.80792859  1
  N  N7  1  0.52589192  0.63236366  0.30520067  1
  N  N8  1  0.78533922  0.14711446  0.57669217  1
  N  N9  1  0.82748331  0.99551185  0.97308821  1
  N  N10  1  0.82894773  0.36755668  0.81199897  1
