# generated using pymatgen
data_Li2Cu2As6I4F3
_symmetry_space_group_name_H-M   'P 1'
_cell_length_a   7.80410945
_cell_length_b   7.78327300
_cell_length_c   7.86148081
_cell_angle_alpha   90.38124228
_cell_angle_beta   91.81383500
_cell_angle_gamma   90.43586173
_symmetry_Int_Tables_number   1
_chemical_formula_structural   Li2Cu2As6I4F3
_chemical_formula_sum   'Li2 Cu2 As6 I4 F3'
_cell_volume   477.25382204
_cell_formula_units_Z   1
loop_
 _symmetry_equiv_pos_site_id
 _symmetry_equiv_pos_as_xyz
  1  'x, y, z'
loop_
 _atom_site_type_symbol
 _atom_site_label
 _atom_site_symmetry_multiplicity
 _atom_site_fract_x
 _atom_site_fract_y
 _atom_site_fract_z
 _atom_site_occupancy
  F  F0  1  0.00000000  0.00000000  0.00000000  1
  F  F1  1  0.50000000  0.50000000  0.50000000  1
  F  F2  1  0.50000000  0.50000000  0.00000000  1
  I  I3  1  0.50000000  0.00000000  0.50000000  1
  I  I4  1  0.00000000  0.50000000  0.50000000  1
  I  I5  1  0.05175415  0.89578568  0.08000954  1
  I  I6  1  0.04733229  0.75495513  0.12035849  1
  As  As7  1  0.08967910  0.30584819  0.10258830  1
  As  As8  1  0.50933446  0.44675844  0.13768177  1
  As  As9  1  0.28810656  0.90118916  0.90714007  1
  As  As10  1  0.55218083  0.27521198  0.32376838  1
  As  As11  1  0.96643584  0.25348204  0.53878945  1
  As  As12  1  0.90172707  0.53978648  0.89519645  1
  Li  Li13  1  0.24139511  0.17299573  0.30451294  1
  Li  Li14  1  0.86379993  0.36687407  0.70167289  1
  Cu  Cu15  1  0.41303814  0.21762501  0.61709512  1
  Cu  Cu16  1  0.43263121  0.50153737  0.40172877  1
