# generated using pymatgen
data_LiCuAs3
_symmetry_space_group_name_H-M   'P 1'
_cell_length_a   7.57920497
_cell_length_b   7.49512318
_cell_length_c   8.49807491
_cell_angle_alpha   91.01242550
_cell_angle_beta   92.01989332
_cell_angle_gamma   91.16012451
_symmetry_Int_Tables_number   1
_chemical_formula_structural   LiCuAs3
_chemical_formula_sum   'Li2 Cu2 As6'
_cell_volume   482.27028323
_cell_formula_units_Z   2
loop_
 _symmetry_equiv_pos_site_id
 _symmetry_equiv_pos_as_xyz
  1  'x, y, z'
loop_
 _atom_site_type_symbol
 _atom_site_label
 _atom_site_symmetry_multiplicity
 _atom_site_fract_x
 _atom_site_fract_y
 _atom_site_fract_z
 _atom_site_occupancy
  Li  Li0  1  0.00000000  0.00000000  0.00000000  1
  Li  Li1  1  0.33300000  0.66700000  0.25000000  1
  Cu  Cu2  1  0.66700000  0.33300000  0.50000000  1
  Cu  Cu3  1  0.00000000  0.00000000  0.75000000  1
  As  As4  1  0.38675972  0.16376883  0.25887458  1
  As  As5  1  0.11637444  0.97048682  0.12415695  1
  As  As6  1  0.52117611  0.87843091  0.00289623  1
  As  As7  1  0.58732125  0.40067584  0.95702531  1
  As  As8  1  0.08026532  0.50492722  0.49281908  1
  As  As9  1  0.36460329  0.23248871  0.32656451  1
