# generated using pymatgen
data_LiCu2S3F2
_symmetry_space_group_name_H-M   'P 1'
_cell_length_a   6.89979631
_cell_length_b   7.02864840
_cell_length_c   8.04603236
_cell_angle_alpha   90.87387502
_cell_angle_beta   94.15763193
_cell_angle_gamma   90.99907249
_symmetry_Int_Tables_number   1
_chemical_formula_structural   LiCu2S3F2
_chemical_formula_sum   'Li1 Cu2 S3 F2'
_cell_volume   389.06293137
_cell_formula_units_Z   1
loop_
 _symmetry_equiv_pos_site_id
 _symmetry_equiv_pos_as_xyz
  1  'x, y, z'
loop_
 _atom_site_type_symbol
 _atom_site_label
 _atom_site_symmetry_multiplicity
 _atom_site_fract_x
 _atom_site_fract_y
 _atom_site_fract_z
 _atom_site_occupancy
  F  F0  1  0.00000000  0.00000000  0.00000000  1
  F  F1  1  0.50000000  0.50000000  0.50000000  1
  S  S2  1  0.50000000  0.50000000  0.00000000  1
  S  S3  1  0.50000000  0.00000000  0.50000000  1
  S  S4  1  0.00000000  0.50000000  0.50000000  1
  Li  Li5  1  0.96581063  0.15003803  0.57148890  1
  Cu  Cu6  1  0.54210141  0.22200924  0.01951086  1
  Cu  Cu7  1  0.18844549  0.55918800  0.16957216  1
