# generated using pymatgen
data_Li2MnSb4P3
_symmetry_space_group_name_H-M   'P 1'
_cell_length_a   5.82271188
_cell_length_b   6.06247745
_cell_length_c   6.95662394
_cell_angle_alpha   97.09564056
_cell_angle_beta   92.75053619
_cell_angle_gamma   97.28819238
_symmetry_Int_Tables_number   1
_chemical_formula_structural   Li2MnSb4P3
_chemical_formula_sum   'Li2 Mn1 Sb4 P3'
_cell_volume   241.21363323
_cell_formula_units_Z   1
loop_
 _symmetry_equiv_pos_site_id
 _symmetry_equiv_pos_as_xyz
  1  'x, y, z'
loop_
 _atom_site_type_symbol
 _atom_site_label
 _atom_site_symmetry_multiplicity
 _atom_site_fract_x
 _atom_site_fract_y
 _atom_site_fract_z
 _atom_site_occupancy
  Mn  Mn0  1  0.12500000  0.00000000  0.25000000  1
  Sb  Sb1  1  0.00000000  0.00000000  0.00000000  1
  Sb  Sb2  1  0.37500000  0.00000000  0.25000000  1
  Sb  Sb3  1  0.25000000  0.25000000  0.25000000  1
  Sb  Sb4  1  0.00000000  0.25000000  0.12500000  1
  P  P5  1  0.29438135  0.44441917  0.08745756  1
  P  P6  1  0.93146821  0.90863302  0.34833028  1
  P  P7  1  0.08188207  0.72082513  0.66114358  1
  Li  Li8  1  0.16574633  0.84156236  0.14075620  1
  Li  Li9  1  0.14647447  0.77195899  0.40196680  1
