# generated using pymatgen
data_Li3LuTi(NiAs3)2
_symmetry_space_group_name_H-M   'P 1'
_cell_length_a   7.98702240
_cell_length_b   7.81415564
_cell_length_c   8.33437592
_cell_angle_alpha   91.24123435
_cell_angle_beta   90.87681989
_cell_angle_gamma   91.43802953
_symmetry_Int_Tables_number   1
_chemical_formula_structural   Li3LuTi(NiAs3)2
_chemical_formula_sum   'Li3 Lu1 Ti1 Ni2 As6'
_cell_volume   519.81251542
_cell_formula_units_Z   1
loop_
 _symmetry_equiv_pos_site_id
 _symmetry_equiv_pos_as_xyz
  1  'x, y, z'
loop_
 _atom_site_type_symbol
 _atom_site_label
 _atom_site_symmetry_multiplicity
 _atom_site_fract_x
 _atom_site_fract_y
 _atom_site_fract_z
 _atom_site_occupancy
  Lu  Lu0  1  0.00000000  0.00000000  0.00000000  1
  Li  Li1  1  0.50000000  0.50000000  0.50000000  1
  Li  Li2  1  0.25000000  0.25000000  0.25000000  1
  Li  Li3  1  0.75000000  0.25000000  0.00000000  1
  Ni  Ni4  1  0.25000000  0.75000000  0.50000000  1
  Ni  Ni5  1  0.93718838  0.40905314  0.51414328  1
  Ti  Ti6  1  0.66716109  0.03998915  0.09419662  1
  As  As7  1  0.82061553  0.90961986  0.31887080  1
  As  As8  1  0.11841883  0.49574372  0.14744421  1
  As  As9  1  0.44135954  0.06631462  0.79514085  1
  As  As10  1  0.27339298  0.32874283  0.27568443  1
  As  As11  1  0.18550894  0.06539122  0.65040580  1
  As  As12  1  0.50604073  0.47167002  0.97660023  1
