# generated using pymatgen
data_Li5Ti2SeCl2
_symmetry_space_group_name_H-M   'P 1'
_cell_length_a   3.84448103
_cell_length_b   3.49799549
_cell_length_c   6.37235448
_cell_angle_alpha   109.60462989
_cell_angle_beta   117.94871657
_cell_angle_gamma   108.47737744
_symmetry_Int_Tables_number   1
_chemical_formula_structural   Li5Ti2SeCl2
_chemical_formula_sum   'Li5 Ti2 Se1 Cl2'
_cell_volume   58.60181507
_cell_formula_units_Z   1
loop_
 _symmetry_equiv_pos_site_id
 _symmetry_equiv_pos_as_xyz
  1  'x, y, z'
loop_
 _atom_site_type_symbol
 _atom_site_label
 _atom_site_symmetry_multiplicity
 _atom_site_fract_x
 _atom_site_fract_y
 _atom_site_fract_z
 _atom_site_occupancy
  Li  Li0  1  0.12500000  0.12500000  0.12500000  1
  Li  Li1  1  0.50000000  0.50000000  0.50000000  1
  Li  Li2  1  0.25000000  0.25000000  0.25000000  1
  Li  Li3  1  0.75000000  0.75000000  0.75000000  1
  Li  Li4  1  0.91203495  0.03521785  0.14006707  1
  Se  Se5  1  0.76483588  0.04353130  0.21211515  1
  Cl  Cl6  1  0.06277922  0.10494415  0.40192198  1
  Cl  Cl7  1  0.39175100  0.38566024  0.31066945  1
  Ti  Ti8  1  0.48657860  0.36301146  0.48005419  1
  Ti  Ti9  1  0.78366297  0.28136986  0.89099042  1
