# generated using pymatgen
data_Li2LuCu2(As3P2)2
_symmetry_space_group_name_H-M   'P 1'
_cell_length_a   7.09422931
_cell_length_b   7.07626499
_cell_length_c   7.84383731
_cell_angle_alpha   94.70761262
_cell_angle_beta   95.86639794
_cell_angle_gamma   94.55902363
_symmetry_Int_Tables_number   1
_chemical_formula_structural   Li2LuCu2(As3P2)2
_chemical_formula_sum   'Li2 Lu1 Cu2 As6 P4'
_cell_volume   388.84559626
_cell_formula_units_Z   1
loop_
 _symmetry_equiv_pos_site_id
 _symmetry_equiv_pos_as_xyz
  1  'x, y, z'
loop_
 _atom_site_type_symbol
 _atom_site_label
 _atom_site_symmetry_multiplicity
 _atom_site_fract_x
 _atom_site_fract_y
 _atom_site_fract_z
 _atom_site_occupancy
  P  P0  1  0.00000000  0.00000000  0.00000000  1
  P  P1  1  0.50000000  0.50000000  0.50000000  1
  P  P2  1  0.50000000  0.50000000  0.00000000  1
  P  P3  1  0.50000000  0.00000000  0.50000000  1
  Lu  Lu4  1  0.00000000  0.50000000  0.50000000  1
  As  As5  1  0.94149757  0.50747821  0.86470744  1
  As  As6  1  0.43642748  0.22836260  0.57624363  1
  As  As7  1  0.82716310  0.89921962  0.16359320  1
  As  As8  1  0.66580892  0.71207628  0.99331091  1
  As  As9  1  0.14295941  0.78353340  0.15617271  1
  As  As10  1  0.76239977  0.53838718  0.23831878  1
  Li  Li11  1  0.38000409  0.71339384  0.69210520  1
  Li  Li12  1  0.38232238  0.75951979  0.37358278  1
  Cu  Cu13  1  0.50384141  0.18256662  0.18309797  1
  Cu  Cu14  1  0.03574934  0.51170772  0.48274579  1
