# generated using pymatgen
data_Li2As6Cl2F3
_symmetry_space_group_name_H-M   'P 1'
_cell_length_a   6.26517880
_cell_length_b   6.04101121
_cell_length_c   7.81131874
_cell_angle_alpha   98.72570797
_cell_angle_beta   101.99696442
_cell_angle_gamma   98.23986369
_symmetry_Int_Tables_number   1
_chemical_formula_structural   Li2As6Cl2F3
_chemical_formula_sum   'Li2 As6 Cl2 F3'
_cell_volume   281.12541601
_cell_formula_units_Z   1
loop_
 _symmetry_equiv_pos_site_id
 _symmetry_equiv_pos_as_xyz
  1  'x, y, z'
loop_
 _atom_site_type_symbol
 _atom_site_label
 _atom_site_symmetry_multiplicity
 _atom_site_fract_x
 _atom_site_fract_y
 _atom_site_fract_z
 _atom_site_occupancy
  F  F0  1  0.12500000  0.12500000  0.12500000  1
  F  F1  1  0.50000000  0.50000000  0.50000000  1
  F  F2  1  0.25000000  0.25000000  0.25000000  1
  Cl  Cl3  1  0.75000000  0.75000000  0.75000000  1
  Cl  Cl4  1  0.50027219  0.17704740  0.51730232  1
  As  As5  1  0.03674245  0.52239545  0.92440002  1
  As  As6  1  0.96106715  0.36844308  0.37062262  1
  As  As7  1  0.29118364  0.53460753  0.34096671  1
  As  As8  1  0.40008573  0.00238563  0.05267141  1
  As  As9  1  0.61269716  0.02634033  0.01662821  1
  As  As10  1  0.12459496  0.93945965  0.74862008  1
  Li  Li11  1  0.63863094  0.52027070  0.19174005  1
  Li  Li12  1  0.42107836  0.39051063  0.22399260  1
