# generated using pymatgen
data_LiMnSb4P3
_symmetry_space_group_name_H-M   'P 1'
_cell_length_a   5.10601950
_cell_length_b   5.02410363
_cell_length_c   6.25583794
_cell_angle_alpha   96.10467179
_cell_angle_beta   92.19298840
_cell_angle_gamma   95.87936436
_symmetry_Int_Tables_number   1
_chemical_formula_structural   LiMnSb4P3
_chemical_formula_sum   'Li1 Mn1 Sb4 P3'
_cell_volume   158.53647800
_cell_formula_units_Z   1
loop_
 _symmetry_equiv_pos_site_id
 _symmetry_equiv_pos_as_xyz
  1  'x, y, z'
loop_
 _atom_site_type_symbol
 _atom_site_label
 _atom_site_symmetry_multiplicity
 _atom_site_fract_x
 _atom_site_fract_y
 _atom_site_fract_z
 _atom_site_occupancy
  Mn  Mn0  1  0.12500000  0.12500000  0.12500000  1
  Sb  Sb1  1  0.50000000  0.50000000  0.50000000  1
  Sb  Sb2  1  0.25000000  0.25000000  0.25000000  1
  Sb  Sb3  1  0.75000000  0.75000000  0.75000000  1
  Sb  Sb4  1  0.57472001  0.61436925  0.47939888  1
  P  P5  1  0.70094731  0.82206649  0.78766343  1
  P  P6  1  0.75433685  0.91179905  0.33830215  1
  P  P7  1  0.22084712  0.09176861  0.27212307  1
  Li  Li8  1  0.29827542  0.07890547  0.34727067  1
