# generated using pymatgen
data_Li3LuCu2(AsP)6
_symmetry_space_group_name_H-M   'P 1'
_cell_length_a   7.44372966
_cell_length_b   7.34097428
_cell_length_c   8.19124672
_cell_angle_alpha   92.43451275
_cell_angle_beta   93.62258500
_cell_angle_gamma   92.39757913
_symmetry_Int_Tables_number   1
_chemical_formula_structural   Li3LuCu2(AsP)6
_chemical_formula_sum   'Li3 Lu1 Cu2 As6 P6'
_cell_volume   445.86176476
_cell_formula_units_Z   1
loop_
 _symmetry_equiv_pos_site_id
 _symmetry_equiv_pos_as_xyz
  1  'x, y, z'
loop_
 _atom_site_type_symbol
 _atom_site_label
 _atom_site_symmetry_multiplicity
 _atom_site_fract_x
 _atom_site_fract_y
 _atom_site_fract_z
 _atom_site_occupancy
  P  P0  1  0.00000000  0.00000000  0.00000000  1
  P  P1  1  0.50000000  0.50000000  0.50000000  1
  P  P2  1  0.25000000  0.25000000  0.25000000  1
  P  P3  1  0.75000000  0.25000000  0.00000000  1
  P  P4  1  0.25000000  0.75000000  0.50000000  1
  P  P5  1  0.25957012  0.53387512  0.18003471  1
  Lu  Lu6  1  0.54663137  0.97236703  0.73603934  1
  Li  Li7  1  0.87798808  0.32798293  0.83125758  1
  Li  Li8  1  0.68301699  0.79716890  0.66796365  1
  Li  Li9  1  0.08610214  0.38089270  0.81670448  1
  Cu  Cu10  1  0.33554928  0.63646166  0.43144908  1
  Cu  Cu11  1  0.09650908  0.99873892  0.86189187  1
  As  As12  1  0.98743322  0.82329461  0.16509990  1
  As  As13  1  0.33723057  0.90212976  0.98329286  1
  As  As14  1  0.82714574  0.83729633  0.79564013  1
  As  As15  1  0.79840935  0.03575713  0.99338454  1
  As  As16  1  0.63334751  0.09272884  0.12950071  1
  As  As17  1  0.80897290  0.36989488  0.60300869  1
