# generated using pymatgen
data_Li2LuTi(CuP2)2
_symmetry_space_group_name_H-M   'P 1'
_cell_length_a   7.20127943
_cell_length_b   7.00131730
_cell_length_c   7.67954589
_cell_angle_alpha   91.69069691
_cell_angle_beta   92.26218134
_cell_angle_gamma   91.60200517
_symmetry_Int_Tables_number   1
_chemical_formula_structural   Li2LuTi(CuP2)2
_chemical_formula_sum   'Li2 Lu1 Ti1 Cu2 P4'
_cell_volume   386.55615162
_cell_formula_units_Z   1
loop_
 _symmetry_equiv_pos_site_id
 _symmetry_equiv_pos_as_xyz
  1  'x, y, z'
loop_
 _atom_site_type_symbol
 _atom_site_label
 _atom_site_symmetry_multiplicity
 _atom_site_fract_x
 _atom_site_fract_y
 _atom_site_fract_z
 _atom_site_occupancy
  P  P0  1  0.00000000  0.00000000  0.00000000  1
  P  P1  1  0.50000000  0.50000000  0.50000000  1
  P  P2  1  0.50000000  0.50000000  0.00000000  1
  P  P3  1  0.50000000  0.00000000  0.50000000  1
  Lu  Lu4  1  0.00000000  0.50000000  0.50000000  1
  Li  Li5  1  0.38115982  0.03416157  0.50807962  1
  Li  Li6  1  0.31999641  0.39657349  0.46322754  1
  Cu  Cu7  1  0.73606786  0.82380792  0.69007269  1
  Cu  Cu8  1  0.24874666  0.28317766  0.85567711  1
  Ti  Ti9  1  0.61289029  0.81419419  0.06295795  1
