# generated using pymatgen
data_Li3Ti(IO)4
_symmetry_space_group_name_H-M   'P 1'
_cell_length_a   8.60024869
_cell_length_b   8.46771941
_cell_length_c   7.73002224
_cell_angle_alpha   90.36122263
_cell_angle_beta   90.22901396
_cell_angle_gamma   90.41859241
_symmetry_Int_Tables_number   1
_chemical_formula_structural   Li3Ti(IO)4
_chemical_formula_sum   'Li3 Ti1 I4 O4'
_cell_volume   562.90413708
_cell_formula_units_Z   1
loop_
 _symmetry_equiv_pos_site_id
 _symmetry_equiv_pos_as_xyz
  1  'x, y, z'
loop_
 _atom_site_type_symbol
 _atom_site_label
 _atom_site_symmetry_multiplicity
 _atom_site_fract_x
 _atom_site_fract_y
 _atom_site_fract_z
 _atom_site_occupancy
  I  I0  1  0.12500000  0.12500000  0.12500000  1
  I  I1  1  0.50000000  0.50000000  0.50000000  1
  I  I2  1  0.25000000  0.25000000  0.25000000  1
  I  I3  1  0.75000000  0.75000000  0.75000000  1
  Li  Li4  1  0.18176154  0.69364138  0.90901856  1
  Li  Li5  1  0.72710652  0.74378250  0.15849836  1
  Li  Li6  1  0.75492246  0.87592224  0.17833172  1
  Ti  Ti7  1  0.21281258  0.93795700  0.50456575  1
  O  O8  1  0.03110808  0.95623930  0.54499875  1
  O  O9  1  0.10707971  0.94678116  0.48742812  1
  O  O10  1  0.98565669  0.69947614  0.51704197  1
  O  O11  1  0.52327216  0.59847848  0.43702436  1
