# generated using pymatgen
data_Li2TiCu2I4O3
_symmetry_space_group_name_H-M   'P 1'
_cell_length_a   7.73399422
_cell_length_b   7.71087319
_cell_length_c   7.20355155
_cell_angle_alpha   92.68560898
_cell_angle_beta   93.80729786
_cell_angle_gamma   93.30288199
_symmetry_Int_Tables_number   1
_chemical_formula_structural   Li2TiCu2I4O3
_chemical_formula_sum   'Li2 Ti1 Cu2 I4 O3'
_cell_volume   427.37558671
_cell_formula_units_Z   1
loop_
 _symmetry_equiv_pos_site_id
 _symmetry_equiv_pos_as_xyz
  1  'x, y, z'
loop_
 _atom_site_type_symbol
 _atom_site_label
 _atom_site_symmetry_multiplicity
 _atom_site_fract_x
 _atom_site_fract_y
 _atom_site_fract_z
 _atom_site_occupancy
  I  I0  1  0.00000000  0.00000000  0.00000000  1
  I  I1  1  0.50000000  0.50000000  0.50000000  1
  I  I2  1  0.25000000  0.25000000  0.25000000  1
  I  I3  1  0.75000000  0.25000000  0.00000000  1
  Li  Li4  1  0.25000000  0.75000000  0.50000000  1
  Li  Li5  1  0.64453764  0.64676102  0.71893673  1
  Cu  Cu6  1  0.66150959  0.30430138  0.79110497  1
  Cu  Cu7  1  0.81397318  0.58554731  0.54106834  1
  Ti  Ti8  1  0.25621411  0.19925009  0.98802525  1
  O  O9  1  0.89784081  0.45174872  0.16043215  1
  O  O10  1  0.33405483  0.60269073  0.49941979  1
  O  O11  1  0.47950545  0.95857822  0.95416380  1
