# generated using pymatgen
data_Li3Cu2(IO)4
_symmetry_space_group_name_H-M   'P 1'
_cell_length_a   8.06951512
_cell_length_b   7.91161219
_cell_length_c   7.90198245
_cell_angle_alpha   91.83905545
_cell_angle_beta   91.61192405
_cell_angle_gamma   91.94365669
_symmetry_Int_Tables_number   1
_chemical_formula_structural   Li3Cu2(IO)4
_chemical_formula_sum   'Li3 Cu2 I4 O4'
_cell_volume   503.71970005
_cell_formula_units_Z   1
loop_
 _symmetry_equiv_pos_site_id
 _symmetry_equiv_pos_as_xyz
  1  'x, y, z'
loop_
 _atom_site_type_symbol
 _atom_site_label
 _atom_site_symmetry_multiplicity
 _atom_site_fract_x
 _atom_site_fract_y
 _atom_site_fract_z
 _atom_site_occupancy
  I  I0  1  0.12500000  0.00000000  0.25000000  1
  I  I1  1  0.00000000  0.00000000  0.00000000  1
  I  I2  1  0.37500000  0.00000000  0.25000000  1
  I  I3  1  0.25000000  0.25000000  0.25000000  1
  Li  Li4  1  0.00000000  0.25000000  0.12500000  1
  Li  Li5  1  0.69650779  0.84963186  0.94664130  1
  Li  Li6  1  0.58490076  0.90738904  0.50944005  1
  Cu  Cu7  1  0.19155341  0.54616766  0.54258526  1
  Cu  Cu8  1  0.12395932  0.65827321  0.98054254  1
  O  O9  1  0.09332307  0.97300333  0.40999533  1
  O  O10  1  0.67170635  0.60693320  0.02282094  1
  O  O11  1  0.64725936  0.29027017  0.80422755  1
  O  O12  1  0.68091799  0.76710849  0.27752787  1
