# generated using pymatgen
data_Li3Ni2N5O7
_symmetry_space_group_name_H-M   'P 1'
_cell_length_a   7.90188010
_cell_length_b   7.69350899
_cell_length_c   8.64518689
_cell_angle_alpha   91.71707865
_cell_angle_beta   90.87412523
_cell_angle_gamma   91.99059602
_symmetry_Int_Tables_number   1
_chemical_formula_structural   Li3Ni2N5O7
_chemical_formula_sum   'Li3 Ni2 N5 O7'
_cell_volume   524.94557232
_cell_formula_units_Z   1
loop_
 _symmetry_equiv_pos_site_id
 _symmetry_equiv_pos_as_xyz
  1  'x, y, z'
loop_
 _atom_site_type_symbol
 _atom_site_label
 _atom_site_symmetry_multiplicity
 _atom_site_fract_x
 _atom_site_fract_y
 _atom_site_fract_z
 _atom_site_occupancy
  Li  Li0  1  0.00000000  0.00000000  0.00000000  1
  Li  Li1  1  0.50000000  0.50000000  0.50000000  1
  Li  Li2  1  0.50000000  0.50000000  0.00000000  1
  Ni  Ni3  1  0.50000000  0.00000000  0.50000000  1
  Ni  Ni4  1  0.00000000  0.50000000  0.50000000  1
  O  O5  1  0.40972704  0.18182748  0.51492420  1
  O  O6  1  0.67451548  0.42139169  0.55374678  1
  O  O7  1  0.58927121  0.73088987  0.50225805  1
  O  O8  1  0.71210704  0.05176744  0.89566777  1
  O  O9  1  0.02249488  0.03037473  0.15614170  1
  O  O10  1  0.22200737  0.61046035  0.13544724  1
  O  O11  1  0.64589064  0.85472084  0.58225524  1
  N  N12  1  0.31543191  0.61613636  0.69927056  1
  N  N13  1  0.49812298  0.11607822  0.59866972  1
  N  N14  1  0.83122034  0.63383846  0.89339086  1
  N  N15  1  0.78771829  0.01218291  0.23197483  1
  N  N16  1  0.09071781  0.83166442  0.02372229  1
