# generated using pymatgen
data_Li2Sb2Mo2P3
_symmetry_space_group_name_H-M   'P 1'
_cell_length_a   5.28437182
_cell_length_b   5.58451128
_cell_length_c   6.28966463
_cell_angle_alpha   99.02284485
_cell_angle_beta   90.94959241
_cell_angle_gamma   98.77871585
_symmetry_Int_Tables_number   1
_chemical_formula_structural   Li2Sb2Mo2P3
_chemical_formula_sum   'Li2 Sb2 Mo2 P3'
_cell_volume   181.01161055
_cell_formula_units_Z   1
loop_
 _symmetry_equiv_pos_site_id
 _symmetry_equiv_pos_as_xyz
  1  'x, y, z'
loop_
 _atom_site_type_symbol
 _atom_site_label
 _atom_site_symmetry_multiplicity
 _atom_site_fract_x
 _atom_site_fract_y
 _atom_site_fract_z
 _atom_site_occupancy
  Sb  Sb0  1  0.00000000  0.00000000  0.00000000  1
  Sb  Sb1  1  0.33300000  0.66700000  0.25000000  1
  P  P2  1  0.66700000  0.33300000  0.50000000  1
  P  P3  1  0.00000000  0.00000000  0.75000000  1
  P  P4  1  0.30815399  0.53011345  0.54311573  1
  Mo  Mo5  1  0.04530213  0.25099445  0.05912609  1
  Mo  Mo6  1  0.71141892  0.83368063  0.44070872  1
  Li  Li7  1  0.25958616  0.50945046  0.67380308  1
  Li  Li8  1  0.19284974  0.59103004  0.21462001  1
