# generated using pymatgen
data_Li3TiI4(OF)3
_symmetry_space_group_name_H-M   'P 1'
_cell_length_a   6.37195017
_cell_length_b   6.12407846
_cell_length_c   7.11250331
_cell_angle_alpha   97.99471547
_cell_angle_beta   100.92061858
_cell_angle_gamma   97.53431213
_symmetry_Int_Tables_number   1
_chemical_formula_structural   Li3TiI4(OF)3
_chemical_formula_sum   'Li3 Ti1 I4 O3 F3'
_cell_volume   266.30909873
_cell_formula_units_Z   1
loop_
 _symmetry_equiv_pos_site_id
 _symmetry_equiv_pos_as_xyz
  1  'x, y, z'
loop_
 _atom_site_type_symbol
 _atom_site_label
 _atom_site_symmetry_multiplicity
 _atom_site_fract_x
 _atom_site_fract_y
 _atom_site_fract_z
 _atom_site_occupancy
  I  I0  1  0.12500000  0.00000000  0.25000000  1
  I  I1  1  0.00000000  0.00000000  0.00000000  1
  I  I2  1  0.37500000  0.00000000  0.25000000  1
  I  I3  1  0.25000000  0.25000000  0.25000000  1
  Li  Li4  1  0.00000000  0.25000000  0.12500000  1
  Li  Li5  1  0.40771653  0.60703033  0.84864504  1
  Li  Li6  1  0.05295269  0.11999427  0.46711092  1
  F  F7  1  0.39503196  0.44592448  0.71974671  1
  F  F8  1  0.51719682  0.48295274  0.93434631  1
  F  F9  1  0.34459166  0.30473251  0.38278181  1
  Ti  Ti10  1  0.58821636  0.47834338  0.06217208  1
  O  O11  1  0.61504452  0.77400303  0.68941251  1
  O  O12  1  0.76803291  0.83049588  0.68515669  1
  O  O13  1  0.06359787  0.25643937  0.30542324  1
