# generated using pymatgen
data_Li2LuCu2(As3P2)2
_symmetry_space_group_name_H-M   'P 1'
_cell_length_a   7.58631035
_cell_length_b   7.38086932
_cell_length_c   8.02412115
_cell_angle_alpha   91.50356820
_cell_angle_beta   91.57187159
_cell_angle_gamma   91.69000548
_symmetry_Int_Tables_number   1
_chemical_formula_structural   Li2LuCu2(As3P2)2
_chemical_formula_sum   'Li2 Lu1 Cu2 As6 P4'
_cell_volume   448.77020070
_cell_formula_units_Z   1
loop_
 _symmetry_equiv_pos_site_id
 _symmetry_equiv_pos_as_xyz
  1  'x, y, z'
loop_
 _atom_site_type_symbol
 _atom_site_label
 _atom_site_symmetry_multiplicity
 _atom_site_fract_x
 _atom_site_fract_y
 _atom_site_fract_z
 _atom_site_occupancy
  P  P0  1  0.00000000  0.00000000  0.00000000  1
  P  P1  1  0.50000000  0.50000000  0.50000000  1
  P  P2  1  0.50000000  0.50000000  0.00000000  1
  P  P3  1  0.50000000  0.00000000  0.50000000  1
  Lu  Lu4  1  0.00000000  0.50000000  0.50000000  1
  Li  Li5  1  0.48923761  0.48983263  0.70451455  1
  Li  Li6  1  0.98109861  0.09518056  0.23305165  1
  Cu  Cu7  1  0.89992072  0.78956076  0.39311977  1
  Cu  Cu8  1  0.04545195  0.50306105  0.14802518  1
  As  As9  1  0.84764150  0.36293645  0.52062900  1
  As  As10  1  0.79767114  0.33742851  0.51677226  1
  As  As11  1  0.64346450  0.38931531  0.47907298  1
  As  As12  1  0.55938964  0.74869994  0.65226144  1
  As  As13  1  0.48849586  0.34951284  0.76174397  1
  As  As14  1  0.40842542  0.29724947  0.56712710  1
