# generated using pymatgen
data_Li2Cu2As6I4F3
_symmetry_space_group_name_H-M   'P 1'
_cell_length_a   6.87729600
_cell_length_b   6.78059216
_cell_length_c   7.84308333
_cell_angle_alpha   94.45336327
_cell_angle_beta   97.06546779
_cell_angle_gamma   94.22971276
_symmetry_Int_Tables_number   1
_chemical_formula_structural   Li2Cu2As6I4F3
_chemical_formula_sum   'Li2 Cu2 As6 I4 F3'
_cell_volume   360.58161604
_cell_formula_units_Z   1
loop_
 _symmetry_equiv_pos_site_id
 _symmetry_equiv_pos_as_xyz
  1  'x, y, z'
loop_
 _atom_site_type_symbol
 _atom_site_label
 _atom_site_symmetry_multiplicity
 _atom_site_fract_x
 _atom_site_fract_y
 _atom_site_fract_z
 _atom_site_occupancy
  I  I0  1  0.00000000  0.00000000  0.00000000  1
  I  I1  1  0.50000000  0.50000000  0.50000000  1
  I  I2  1  0.25000000  0.25000000  0.25000000  1
  I  I3  1  0.75000000  0.25000000  0.00000000  1
  Li  Li4  1  0.25000000  0.75000000  0.50000000  1
  Li  Li5  1  0.60296303  0.60655788  0.43959245  1
  Cu  Cu6  1  0.98064248  0.33951261  0.56436173  1
  Cu  Cu7  1  0.16320195  0.66463609  0.55835688  1
  F  F8  1  0.50357409  0.85970275  0.89261590  1
  F  F9  1  0.09748411  0.01046344  0.48697198  1
  F  F10  1  0.68755451  0.02618596  0.18920072  1
  As  As11  1  0.02754080  0.70649028  0.74976466  1
  As  As12  1  0.58068105  0.22442297  0.30068379  1
  As  As13  1  0.73314586  0.36107898  0.74809313  1
  As  As14  1  0.39476432  0.16956365  0.17173683  1
  As  As15  1  0.97126080  0.18605244  0.15832028  1
  As  As16  1  0.30326833  0.84210310  0.75465493  1
