# generated using pymatgen
data_Li2Nb2Ni2(OF)3
_symmetry_space_group_name_H-M   'P 1'
_cell_length_a   7.24680971
_cell_length_b   7.02829238
_cell_length_c   8.21447799
_cell_angle_alpha   91.47139709
_cell_angle_beta   92.27758914
_cell_angle_gamma   91.70001385
_symmetry_Int_Tables_number   1
_chemical_formula_structural   Li2Nb2Ni2(OF)3
_chemical_formula_sum   'Li2 Nb2 Ni2 O3 F3'
_cell_volume   417.71989625
_cell_formula_units_Z   1
loop_
 _symmetry_equiv_pos_site_id
 _symmetry_equiv_pos_as_xyz
  1  'x, y, z'
loop_
 _atom_site_type_symbol
 _atom_site_label
 _atom_site_symmetry_multiplicity
 _atom_site_fract_x
 _atom_site_fract_y
 _atom_site_fract_z
 _atom_site_occupancy
  Li  Li0  1  0.12500000  0.00000000  0.25000000  1
  Li  Li1  1  0.00000000  0.00000000  0.00000000  1
  Nb  Nb2  1  0.37500000  0.00000000  0.25000000  1
  Nb  Nb3  1  0.25000000  0.25000000  0.25000000  1
  F  F4  1  0.00000000  0.25000000  0.12500000  1
  F  F5  1  0.63973571  0.73372530  0.00547889  1
  F  F6  1  0.10334051  0.10041744  0.09812105  1
  Ni  Ni7  1  0.20469251  0.58062605  0.91444303  1
  Ni  Ni8  1  0.58394301  0.00922307  0.60386015  1
  O  O9  1  0.54289240  0.41003649  0.12788754  1
  O  O10  1  0.90405126  0.81476905  0.56120256  1
  O  O11  1  0.54201499  0.95542041  0.70844705  1
