# generated using pymatgen
data_Li3Cu2As6(PN)5
_symmetry_space_group_name_H-M   'P 1'
_cell_length_a   7.44068319
_cell_length_b   7.24441398
_cell_length_c   8.41032343
_cell_angle_alpha   92.96823535
_cell_angle_beta   92.53735391
_cell_angle_gamma   93.19232078
_symmetry_Int_Tables_number   1
_chemical_formula_structural   Li3Cu2As6(PN)5
_chemical_formula_sum   'Li3 Cu2 As6 P5 N5'
_cell_volume   451.52843079
_cell_formula_units_Z   1
loop_
 _symmetry_equiv_pos_site_id
 _symmetry_equiv_pos_as_xyz
  1  'x, y, z'
loop_
 _atom_site_type_symbol
 _atom_site_label
 _atom_site_symmetry_multiplicity
 _atom_site_fract_x
 _atom_site_fract_y
 _atom_site_fract_z
 _atom_site_occupancy
  P  P0  1  0.00000000  0.00000000  0.00000000  1
  P  P1  1  0.50000000  0.50000000  0.50000000  1
  P  P2  1  0.25000000  0.25000000  0.25000000  1
  P  P3  1  0.75000000  0.25000000  0.00000000  1
  P  P4  1  0.25000000  0.75000000  0.50000000  1
  Li  Li5  1  0.30082775  0.25535429  0.28117198  1
  Li  Li6  1  0.47618949  0.73786411  0.68354525  1
  Li  Li7  1  0.65019012  0.83403380  0.08992205  1
  Cu  Cu8  1  0.82607506  0.04838864  0.55928373  1
  Cu  Cu9  1  0.12783272  0.06782814  0.25570190  1
  As  As10  1  0.69128349  0.49015582  0.65275083  1
  As  As11  1  0.22281077  0.78274095  0.23165192  1
  As  As12  1  0.57527263  0.04469774  0.50016302  1
  As  As13  1  0.04669738  0.70977520  0.67999144  1
  As  As14  1  0.06578747  0.86343164  0.31026402  1
  As  As15  1  0.23878462  0.95731854  0.32016724  1
  N  N16  1  0.59994913  0.95050466  0.80845395  1
  N  N17  1  0.68493488  0.48127322  0.64159321  1
  N  N18  1  0.38459051  0.20879114  0.69792750  1
  N  N19  1  0.55781763  0.43951772  0.10100725  1
  N  N20  1  0.77860810  0.80411339  0.62253310  1
