# generated using pymatgen
data_Li2TiI4(OF)3
_symmetry_space_group_name_H-M   'P 1'
_cell_length_a   8.02328352
_cell_length_b   7.86011044
_cell_length_c   7.48403036
_cell_angle_alpha   90.31371228
_cell_angle_beta   91.49254774
_cell_angle_gamma   90.35865690
_symmetry_Int_Tables_number   1
_chemical_formula_structural   Li2TiI4(OF)3
_chemical_formula_sum   'Li2 Ti1 I4 O3 F3'
_cell_volume   471.79522268
_cell_formula_units_Z   1
loop_
 _symmetry_equiv_pos_site_id
 _symmetry_equiv_pos_as_xyz
  1  'x, y, z'
loop_
 _atom_site_type_symbol
 _atom_site_label
 _atom_site_symmetry_multiplicity
 _atom_site_fract_x
 _atom_site_fract_y
 _atom_site_fract_z
 _atom_site_occupancy
  I  I0  1  0.00000000  0.00000000  0.00000000  1
  I  I1  1  0.50000000  0.50000000  0.50000000  1
  I  I2  1  0.25000000  0.25000000  0.25000000  1
  I  I3  1  0.75000000  0.25000000  0.00000000  1
  Li  Li4  1  0.25000000  0.75000000  0.50000000  1
  Li  Li5  1  0.38366694  0.35044651  0.59122542  1
  F  F6  1  0.39998431  0.42764706  0.16445970  1
  F  F7  1  0.32419332  0.73087931  0.98034313  1
  F  F8  1  0.64432949  0.54335065  0.04516748  1
  Ti  Ti9  1  0.45784679  0.49679818  0.76931009  1
  O  O10  1  0.57988185  0.13371369  0.76224798  1
  O  O11  1  0.65738397  0.73465224  0.71575367  1
  O  O12  1  0.65229975  0.85398709  0.44164015  1
