# generated using pymatgen
data_Li2TiP4(IO)4
_symmetry_space_group_name_H-M   'P 1'
_cell_length_a   7.80165130
_cell_length_b   7.74474152
_cell_length_c   7.26124252
_cell_angle_alpha   90.33607550
_cell_angle_beta   90.94106422
_cell_angle_gamma   89.94302875
_symmetry_Int_Tables_number   1
_chemical_formula_structural   Li2TiP4(IO)4
_chemical_formula_sum   'Li2 Ti1 P4 I4 O4'
_cell_volume   438.67024391
_cell_formula_units_Z   1
loop_
 _symmetry_equiv_pos_site_id
 _symmetry_equiv_pos_as_xyz
  1  'x, y, z'
loop_
 _atom_site_type_symbol
 _atom_site_label
 _atom_site_symmetry_multiplicity
 _atom_site_fract_x
 _atom_site_fract_y
 _atom_site_fract_z
 _atom_site_occupancy
  I  I0  1  0.12500000  0.00000000  0.25000000  1
  I  I1  1  0.00000000  0.00000000  0.00000000  1
  I  I2  1  0.37500000  0.00000000  0.25000000  1
  I  I3  1  0.25000000  0.25000000  0.25000000  1
  P  P4  1  0.00000000  0.25000000  0.12500000  1
  P  P5  1  0.11474735  0.61671550  0.97334896  1
  P  P6  1  0.32049729  0.95502700  0.99869843  1
  P  P7  1  0.93225148  0.93564179  0.11480585  1
  Li  Li8  1  0.45593355  0.20763307  0.55460674  1
  Li  Li9  1  0.42624640  0.24236410  0.12424958  1
  Ti  Ti10  1  0.85004617  0.42364460  0.44038806  1
  O  O11  1  0.84068446  0.54860777  0.95739103  1
  O  O12  1  0.29215903  0.99721029  0.80809769  1
  O  O13  1  0.52861921  0.36871393  0.33317357  1
  O  O14  1  0.21831213  0.68595966  0.86802076  1
