# generated using pymatgen
data_Li2Cu2Ni2P4O7
_symmetry_space_group_name_H-M   'P 1'
_cell_length_a   7.24461585
_cell_length_b   7.17116965
_cell_length_c   8.12442739
_cell_angle_alpha   93.96411829
_cell_angle_beta   94.51560261
_cell_angle_gamma   93.96693851
_symmetry_Int_Tables_number   1
_chemical_formula_structural   Li2Cu2Ni2P4O7
_chemical_formula_sum   'Li2 Cu2 Ni2 P4 O7'
_cell_volume   418.58301567
_cell_formula_units_Z   1
loop_
 _symmetry_equiv_pos_site_id
 _symmetry_equiv_pos_as_xyz
  1  'x, y, z'
loop_
 _atom_site_type_symbol
 _atom_site_label
 _atom_site_symmetry_multiplicity
 _atom_site_fract_x
 _atom_site_fract_y
 _atom_site_fract_z
 _atom_site_occupancy
  P  P0  1  0.00000000  0.00000000  0.00000000  1
  P  P1  1  0.50000000  0.50000000  0.50000000  1
  P  P2  1  0.50000000  0.50000000  0.00000000  1
  P  P3  1  0.50000000  0.00000000  0.50000000  1
  Li  Li4  1  0.00000000  0.50000000  0.50000000  1
  Li  Li5  1  0.55843484  0.28678212  0.15961581  1
  Cu  Cu6  1  0.39807456  0.19465223  0.99075306  1
  Cu  Cu7  1  0.92988810  0.22019642  0.56647856  1
  Ni  Ni8  1  0.73269014  0.96515571  0.68608466  1
  Ni  Ni9  1  0.92939785  0.33610840  0.42453129  1
  O  O10  1  0.68126441  0.38093962  0.01181168  1
  O  O11  1  0.74260059  0.79156601  0.19091058  1
  O  O12  1  0.92059796  0.30620475  0.85042209  1
  O  O13  1  0.42936784  0.12203139  0.33321228  1
  O  O14  1  0.64171860  0.57595495  0.98242567  1
  O  O15  1  0.56419448  0.82326919  0.43035994  1
  O  O16  1  0.44956028  0.13697312  0.95053051  1
