# generated using pymatgen
data_Li3LuP5N5Cl2
_symmetry_space_group_name_H-M   'P 1'
_cell_length_a   6.93805001
_cell_length_b   6.74525455
_cell_length_c   7.90883040
_cell_angle_alpha   94.22690815
_cell_angle_beta   94.76193476
_cell_angle_gamma   94.21205958
_symmetry_Int_Tables_number   1
_chemical_formula_structural   Li3LuP5N5Cl2
_chemical_formula_sum   'Li3 Lu1 P5 N5 Cl2'
_cell_volume   366.66304057
_cell_formula_units_Z   1
loop_
 _symmetry_equiv_pos_site_id
 _symmetry_equiv_pos_as_xyz
  1  'x, y, z'
loop_
 _atom_site_type_symbol
 _atom_site_label
 _atom_site_symmetry_multiplicity
 _atom_site_fract_x
 _atom_site_fract_y
 _atom_site_fract_z
 _atom_site_occupancy
  P  P0  1  0.00000000  0.00000000  0.00000000  1
  P  P1  1  0.50000000  0.50000000  0.50000000  1
  P  P2  1  0.25000000  0.25000000  0.25000000  1
  P  P3  1  0.75000000  0.25000000  0.00000000  1
  P  P4  1  0.25000000  0.75000000  0.50000000  1
  Lu  Lu5  1  0.39861315  0.08404530  0.33361418  1
  Li  Li6  1  0.71058800  0.91560345  0.53717238  1
  Li  Li7  1  0.34508412  0.02345882  0.99283252  1
  Li  Li8  1  0.83278277  0.22047990  0.37190626  1
  Cl  Cl9  1  0.55179941  0.15536531  0.87146662  1
  Cl  Cl10  1  0.81724115  0.87060994  0.82477941  1
  N  N11  1  0.96748831  0.00628394  0.10279855  1
  N  N12  1  0.22579649  0.78774249  0.20179829  1
  N  N13  1  0.77511627  0.19753633  0.35809752  1
  N  N14  1  0.53661290  0.32079469  0.55587849  1
  N  N15  1  0.81551582  0.28120750  0.24804808  1
