# generated using pymatgen
data_Li3Cu2Ni2As6O7
_symmetry_space_group_name_H-M   'P 1'
_cell_length_a   7.67901925
_cell_length_b   7.48704504
_cell_length_c   8.70738055
_cell_angle_alpha   91.66850363
_cell_angle_beta   91.18360188
_cell_angle_gamma   91.93302281
_symmetry_Int_Tables_number   1
_chemical_formula_structural   Li3Cu2Ni2As6O7
_chemical_formula_sum   'Li3 Cu2 Ni2 As6 O7'
_cell_volume   500.00050868
_cell_formula_units_Z   1
loop_
 _symmetry_equiv_pos_site_id
 _symmetry_equiv_pos_as_xyz
  1  'x, y, z'
loop_
 _atom_site_type_symbol
 _atom_site_label
 _atom_site_symmetry_multiplicity
 _atom_site_fract_x
 _atom_site_fract_y
 _atom_site_fract_z
 _atom_site_occupancy
  Li  Li0  1  0.00000000  0.00000000  0.00000000  1
  Li  Li1  1  0.50000000  0.50000000  0.50000000  1
  Li  Li2  1  0.25000000  0.25000000  0.25000000  1
  Cu  Cu3  1  0.75000000  0.25000000  0.00000000  1
  Cu  Cu4  1  0.25000000  0.75000000  0.50000000  1
  Ni  Ni5  1  0.18696856  0.80360935  0.80614848  1
  Ni  Ni6  1  0.64358967  0.21719697  0.92523548  1
  As  As7  1  0.88952929  0.83770380  0.34066529  1
  As  As8  1  0.02479049  0.69167040  0.36093376  1
  As  As9  1  0.68682835  0.41219077  0.45313521  1
  As  As10  1  0.10331917  0.33079078  0.84487275  1
  As  As11  1  0.49543929  0.47142847  0.15989582  1
  As  As12  1  0.40296523  0.39245031  0.83249145  1
  O  O13  1  0.88775839  0.13124454  0.09461358  1
  O  O14  1  0.49743219  0.98009312  0.24593869  1
  O  O15  1  0.18406247  0.48436847  0.32937477  1
  O  O16  1  0.05569589  0.18046559  0.67819641  1
  O  O17  1  0.99838677  0.91938215  0.34614837  1
  O  O18  1  0.64031191  0.11573327  0.85640132  1
  O  O19  1  0.61098998  0.94260590  0.49768977  1
