# generated using pymatgen
data_Li3LuTi(NiAs3)2
_symmetry_space_group_name_H-M   'P 1'
_cell_length_a   7.59296036
_cell_length_b   7.38947249
_cell_length_c   8.50572179
_cell_angle_alpha   92.58395913
_cell_angle_beta   92.51416320
_cell_angle_gamma   92.72700716
_symmetry_Int_Tables_number   1
_chemical_formula_structural   Li3LuTi(NiAs3)2
_chemical_formula_sum   'Li3 Lu1 Ti1 Ni2 As6'
_cell_volume   475.70713802
_cell_formula_units_Z   1
loop_
 _symmetry_equiv_pos_site_id
 _symmetry_equiv_pos_as_xyz
  1  'x, y, z'
loop_
 _atom_site_type_symbol
 _atom_site_label
 _atom_site_symmetry_multiplicity
 _atom_site_fract_x
 _atom_site_fract_y
 _atom_site_fract_z
 _atom_site_occupancy
  Lu  Lu0  1  0.00000000  0.00000000  0.00000000  1
  Li  Li1  1  0.50000000  0.50000000  0.50000000  1
  Li  Li2  1  0.50000000  0.50000000  0.00000000  1
  Li  Li3  1  0.50000000  0.00000000  0.50000000  1
  Ni  Ni4  1  0.00000000  0.50000000  0.50000000  1
  Ni  Ni5  1  0.07086844  0.70637728  0.12440997  1
  Ti  Ti6  1  0.62982988  0.06026412  0.72113601  1
  As  As7  1  0.38678054  0.33620544  0.29921799  1
  As  As8  1  0.73527639  0.21529318  0.91503127  1
  As  As9  1  0.15343368  0.01831794  0.94608404  1
  As  As10  1  0.94203914  0.42256616  0.45811698  1
  As  As11  1  0.44989055  0.19716206  0.15852618  1
  As  As12  1  0.96865054  0.78596951  0.61168632  1
