# generated using pymatgen
data_Li2Ti(As3O2)2
_symmetry_space_group_name_H-M   'P 1'
_cell_length_a   8.22783683
_cell_length_b   8.17337242
_cell_length_c   7.83996781
_cell_angle_alpha   90.21843595
_cell_angle_beta   91.27005117
_cell_angle_gamma   90.24189366
_symmetry_Int_Tables_number   1
_chemical_formula_structural   Li2Ti(As3O2)2
_chemical_formula_sum   'Li2 Ti1 As6 O4'
_cell_volume   527.09312016
_cell_formula_units_Z   1
loop_
 _symmetry_equiv_pos_site_id
 _symmetry_equiv_pos_as_xyz
  1  'x, y, z'
loop_
 _atom_site_type_symbol
 _atom_site_label
 _atom_site_symmetry_multiplicity
 _atom_site_fract_x
 _atom_site_fract_y
 _atom_site_fract_z
 _atom_site_occupancy
  Li  Li0  1  0.00000000  0.00000000  0.00000000  1
  Li  Li1  1  0.50000000  0.50000000  0.50000000  1
  Ti  Ti2  1  0.50000000  0.50000000  0.00000000  1
  As  As3  1  0.50000000  0.00000000  0.50000000  1
  As  As4  1  0.00000000  0.50000000  0.50000000  1
  As  As5  1  0.37652450  0.18039653  0.67723750  1
  As  As6  1  0.47922487  0.73339550  0.92937614  1
  As  As7  1  0.19988966  0.28809385  0.95660931  1
  As  As8  1  0.27624591  0.43267695  0.08530706  1
  O  O9  1  0.95208328  0.49713263  0.35676037  1
  O  O10  1  0.28023228  0.39142128  0.06639063  1
  O  O11  1  0.68119755  0.50746756  0.37166239  1
  O  O12  1  0.16835149  0.07015398  0.99406262  1
