# generated using pymatgen
data_Li3TiNi2(PI)4
_symmetry_space_group_name_H-M   'P 1'
_cell_length_a   7.82425864
_cell_length_b   7.58255821
_cell_length_c   8.05777341
_cell_angle_alpha   91.79133063
_cell_angle_beta   91.07276955
_cell_angle_gamma   92.07606909
_symmetry_Int_Tables_number   1
_chemical_formula_structural   Li3TiNi2(PI)4
_chemical_formula_sum   'Li3 Ti1 Ni2 P4 I4'
_cell_volume   477.40914834
_cell_formula_units_Z   1
loop_
 _symmetry_equiv_pos_site_id
 _symmetry_equiv_pos_as_xyz
  1  'x, y, z'
loop_
 _atom_site_type_symbol
 _atom_site_label
 _atom_site_symmetry_multiplicity
 _atom_site_fract_x
 _atom_site_fract_y
 _atom_site_fract_z
 _atom_site_occupancy
  I  I0  1  0.12500000  0.00000000  0.25000000  1
  I  I1  1  0.00000000  0.00000000  0.00000000  1
  I  I2  1  0.37500000  0.00000000  0.25000000  1
  I  I3  1  0.25000000  0.25000000  0.25000000  1
  P  P4  1  0.00000000  0.25000000  0.12500000  1
  P  P5  1  0.07405783  0.30559518  0.98239011  1
  P  P6  1  0.97803014  0.50265962  0.33415331  1
  P  P7  1  0.40265833  0.03640178  0.99807708  1
  Li  Li8  1  0.02281585  0.61274776  0.11144312  1
  Li  Li9  1  0.96846654  0.58885834  0.73944684  1
  Li  Li10  1  0.34996188  0.28490533  0.20639229  1
  Ni  Ni11  1  0.09590540  0.42927080  0.01998802  1
  Ni  Ni12  1  0.56312357  0.81593683  0.37691977  1
  Ti  Ti13  1  0.24096207  0.04899919  0.15735751  1
