# generated using pymatgen
data_Li3Ni2I4(OF)3
_symmetry_space_group_name_H-M   'P 1'
_cell_length_a   6.14380800
_cell_length_b   5.92161878
_cell_length_c   7.15949686
_cell_angle_alpha   99.68386615
_cell_angle_beta   102.70245092
_cell_angle_gamma   99.10564721
_symmetry_Int_Tables_number   1
_chemical_formula_structural   Li3Ni2I4(OF)3
_chemical_formula_sum   'Li3 Ni2 I4 O3 F3'
_cell_volume   245.25903148
_cell_formula_units_Z   1
loop_
 _symmetry_equiv_pos_site_id
 _symmetry_equiv_pos_as_xyz
  1  'x, y, z'
loop_
 _atom_site_type_symbol
 _atom_site_label
 _atom_site_symmetry_multiplicity
 _atom_site_fract_x
 _atom_site_fract_y
 _atom_site_fract_z
 _atom_site_occupancy
  I  I0  1  0.00000000  0.00000000  0.00000000  1
  I  I1  1  0.50000000  0.50000000  0.50000000  1
  I  I2  1  0.25000000  0.25000000  0.25000000  1
  I  I3  1  0.75000000  0.25000000  0.00000000  1
  Li  Li4  1  0.25000000  0.75000000  0.50000000  1
  Li  Li5  1  0.24750944  0.44184455  0.39993019  1
  Li  Li6  1  0.56985797  0.23841454  0.72598161  1
  F  F7  1  0.88590583  0.31569636  0.18739633  1
  F  F8  1  0.21093787  0.43026395  0.75713252  1
  F  F9  1  0.21576546  0.48803818  0.87751457  1
  Ni  Ni10  1  0.43142568  0.86387146  0.10466873  1
  Ni  Ni11  1  0.78377882  0.37019737  0.76630637  1
  O  O12  1  0.22786892  0.45645846  0.84972503  1
  O  O13  1  0.19949580  0.61584531  0.83817103  1
  O  O14  1  0.13803457  0.60192622  0.81878876  1
