# generated using pymatgen
data_Li2TiCu2P3Cl2
_symmetry_space_group_name_H-M   'P 1'
_cell_length_a   6.31020010
_cell_length_b   6.15026605
_cell_length_c   7.12307311
_cell_angle_alpha   95.15456074
_cell_angle_beta   96.94985848
_cell_angle_gamma   94.73649717
_symmetry_Int_Tables_number   1
_chemical_formula_structural   Li2TiCu2P3Cl2
_chemical_formula_sum   'Li2 Ti1 Cu2 P3 Cl2'
_cell_volume   272.07781555
_cell_formula_units_Z   1
loop_
 _symmetry_equiv_pos_site_id
 _symmetry_equiv_pos_as_xyz
  1  'x, y, z'
loop_
 _atom_site_type_symbol
 _atom_site_label
 _atom_site_symmetry_multiplicity
 _atom_site_fract_x
 _atom_site_fract_y
 _atom_site_fract_z
 _atom_site_occupancy
  P  P0  1  0.00000000  0.00000000  0.00000000  1
  P  P1  1  0.50000000  0.50000000  0.50000000  1
  P  P2  1  0.25000000  0.25000000  0.25000000  1
  Li  Li3  1  0.75000000  0.25000000  0.00000000  1
  Li  Li4  1  0.25000000  0.75000000  0.50000000  1
  Cu  Cu5  1  0.89840831  0.77749903  0.33035854  1
  Cu  Cu6  1  0.30861712  0.58957966  0.63633796  1
  Cl  Cl7  1  0.24556905  0.32305908  0.26136542  1
  Cl  Cl8  1  0.51811578  0.98636603  0.25117464  1
  Ti  Ti9  1  0.69230944  0.70044952  0.69150529  1
