# generated using pymatgen
data_Li3Ti(IO)4
_symmetry_space_group_name_H-M   'P 1'
_cell_length_a   6.71489852
_cell_length_b   6.60586082
_cell_length_c   6.99440870
_cell_angle_alpha   94.20090142
_cell_angle_beta   95.84721595
_cell_angle_gamma   93.86186316
_symmetry_Int_Tables_number   1
_chemical_formula_structural   Li3Ti(IO)4
_chemical_formula_sum   'Li3 Ti1 I4 O4'
_cell_volume   306.93591405
_cell_formula_units_Z   1
loop_
 _symmetry_equiv_pos_site_id
 _symmetry_equiv_pos_as_xyz
  1  'x, y, z'
loop_
 _atom_site_type_symbol
 _atom_site_label
 _atom_site_symmetry_multiplicity
 _atom_site_fract_x
 _atom_site_fract_y
 _atom_site_fract_z
 _atom_site_occupancy
  I  I0  1  0.00000000  0.00000000  0.00000000  1
  I  I1  1  0.50000000  0.50000000  0.50000000  1
  I  I2  1  0.25000000  0.25000000  0.25000000  1
  I  I3  1  0.75000000  0.25000000  0.00000000  1
  Li  Li4  1  0.25000000  0.75000000  0.50000000  1
  Li  Li5  1  0.41839164  0.00454500  0.77446734  1
  Li  Li6  1  0.38934916  0.76757569  0.21965311  1
  Ti  Ti7  1  0.15737993  0.77453947  0.30806394  1
  O  O8  1  0.70513252  0.03464165  0.90293699  1
  O  O9  1  0.63550296  0.37556163  0.39115824  1
  O  O10  1  0.42857476  0.41629290  0.57510946  1
  O  O11  1  0.35809184  0.16830229  0.00209130  1
