# generated using pymatgen
data_Li2Mn2Sb4P3
_symmetry_space_group_name_H-M   'P 1'
_cell_length_a   4.50426091
_cell_length_b   4.73994352
_cell_length_c   6.22614448
_cell_angle_alpha   102.87290732
_cell_angle_beta   92.95159856
_cell_angle_gamma   102.93835658
_symmetry_Int_Tables_number   1
_chemical_formula_structural   Li2Mn2Sb4P3
_chemical_formula_sum   'Li2 Mn2 Sb4 P3'
_cell_volume   125.57592205
_cell_formula_units_Z   1
loop_
 _symmetry_equiv_pos_site_id
 _symmetry_equiv_pos_as_xyz
  1  'x, y, z'
loop_
 _atom_site_type_symbol
 _atom_site_label
 _atom_site_symmetry_multiplicity
 _atom_site_fract_x
 _atom_site_fract_y
 _atom_site_fract_z
 _atom_site_occupancy
  Mn  Mn0  1  0.12500000  0.12500000  0.12500000  1
  Mn  Mn1  1  0.50000000  0.50000000  0.50000000  1
  Sb  Sb2  1  0.25000000  0.25000000  0.25000000  1
  Sb  Sb3  1  0.75000000  0.75000000  0.75000000  1
  Sb  Sb4  1  0.85675649  0.51682694  0.23027227  1
  Sb  Sb5  1  0.69897779  0.15538535  0.42231364  1
  P  P6  1  0.68755261  0.45316515  0.12456719  1
  P  P7  1  0.25422370  0.79812367  0.57109916  1
  P  P8  1  0.84595102  0.21502364  0.29569605  1
  Li  Li9  1  0.03737361  0.66164020  0.25994758  1
  Li  Li10  1  0.98785173  0.47348606  0.54112665  1
