# generated using pymatgen
data_Li2LuAs6P4F3
_symmetry_space_group_name_H-M   'P 1'
_cell_length_a   7.30078236
_cell_length_b   7.33069043
_cell_length_c   8.25762959
_cell_angle_alpha   92.44922332
_cell_angle_beta   94.40007674
_cell_angle_gamma   92.38944288
_symmetry_Int_Tables_number   1
_chemical_formula_structural   Li2LuAs6P4F3
_chemical_formula_sum   'Li2 Lu1 As6 P4 F3'
_cell_volume   439.79253898
_cell_formula_units_Z   1
loop_
 _symmetry_equiv_pos_site_id
 _symmetry_equiv_pos_as_xyz
  1  'x, y, z'
loop_
 _atom_site_type_symbol
 _atom_site_label
 _atom_site_symmetry_multiplicity
 _atom_site_fract_x
 _atom_site_fract_y
 _atom_site_fract_z
 _atom_site_occupancy
  F  F0  1  0.00000000  0.00000000  0.00000000  1
  F  F1  1  0.50000000  0.50000000  0.50000000  1
  F  F2  1  0.25000000  0.25000000  0.25000000  1
  P  P3  1  0.75000000  0.25000000  0.00000000  1
  P  P4  1  0.25000000  0.75000000  0.50000000  1
  P  P5  1  0.43415245  0.14821280  0.08325030  1
  P  P6  1  0.74903461  0.12298007  0.59810539  1
  Lu  Lu7  1  0.50125497  0.83048103  0.75296795  1
  As  As8  1  0.91326542  0.46832681  0.70043696  1
  As  As9  1  0.03385260  0.62859355  0.51222227  1
  As  As10  1  0.46211528  0.81616301  0.81031014  1
  As  As11  1  0.11698667  0.11723237  0.93741176  1
  As  As12  1  0.50715683  0.16907966  0.51472092  1
  As  As13  1  0.54690956  0.33537228  0.40402710  1
  Li  Li14  1  0.94986580  0.62789704  0.69803620  1
  Li  Li15  1  0.33408613  0.46807769  0.07376873  1
