# generated using pymatgen
data_LiCuAs3P3Cl
_symmetry_space_group_name_H-M   'P 1'
_cell_length_a   6.28786359
_cell_length_b   5.97823011
_cell_length_c   7.59740698
_cell_angle_alpha   99.16478110
_cell_angle_beta   101.69948605
_cell_angle_gamma   98.69822364
_symmetry_Int_Tables_number   1
_chemical_formula_structural   LiCuAs3P3Cl
_chemical_formula_sum   'Li2 Cu2 As6 P6 Cl2'
_cell_volume   271.06471439
_cell_formula_units_Z   2
loop_
 _symmetry_equiv_pos_site_id
 _symmetry_equiv_pos_as_xyz
  1  'x, y, z'
loop_
 _atom_site_type_symbol
 _atom_site_label
 _atom_site_symmetry_multiplicity
 _atom_site_fract_x
 _atom_site_fract_y
 _atom_site_fract_z
 _atom_site_occupancy
  Cl  Cl0  1  0.00000000  0.00000000  0.00000000  1
  Cl  Cl1  1  0.50000000  0.50000000  0.50000000  1
  P  P2  1  0.50000000  0.50000000  0.00000000  1
  P  P3  1  0.50000000  0.00000000  0.50000000  1
  P  P4  1  0.00000000  0.50000000  0.50000000  1
  P  P5  1  0.37734672  0.02732360  0.99708690  1
  P  P6  1  0.07433833  0.50398599  0.36841317  1
  P  P7  1  0.22885122  0.64250588  0.93691713  1
  As  As8  1  0.92418717  0.61933959  0.34451938  1
  As  As9  1  0.62626974  0.57259841  0.71001053  1
  As  As10  1  0.86515402  0.08439982  0.01238057  1
  As  As11  1  0.32162903  0.86813798  0.48930436  1
  As  As12  1  0.63273773  0.56641555  0.63489341  1
  As  As13  1  0.95735700  0.05898611  0.25940592  1
  Li  Li14  1  0.62043019  0.47569666  0.27449587  1
  Li  Li15  1  0.37329043  0.82269364  0.65063358  1
  Cu  Cu16  1  0.99536897  0.66037793  0.79671135  1
  Cu  Cu17  1  0.58144344  0.75302096  0.52600009  1
