# generated using pymatgen
data_Li3TiP3SeCl2
_symmetry_space_group_name_H-M   'P 1'
_cell_length_a   6.31560918
_cell_length_b   6.09085353
_cell_length_c   6.99834340
_cell_angle_alpha   96.05411044
_cell_angle_beta   99.91712024
_cell_angle_gamma   95.82248086
_symmetry_Int_Tables_number   1
_chemical_formula_structural   Li3TiP3SeCl2
_chemical_formula_sum   'Li3 Ti1 P3 Se1 Cl2'
_cell_volume   261.73357755
_cell_formula_units_Z   1
loop_
 _symmetry_equiv_pos_site_id
 _symmetry_equiv_pos_as_xyz
  1  'x, y, z'
loop_
 _atom_site_type_symbol
 _atom_site_label
 _atom_site_symmetry_multiplicity
 _atom_site_fract_x
 _atom_site_fract_y
 _atom_site_fract_z
 _atom_site_occupancy
  P  P0  1  0.00000000  0.00000000  0.00000000  1
  P  P1  1  0.50000000  0.50000000  0.50000000  1
  P  P2  1  0.25000000  0.25000000  0.25000000  1
  Li  Li3  1  0.75000000  0.25000000  0.00000000  1
  Li  Li4  1  0.25000000  0.75000000  0.50000000  1
  Li  Li5  1  0.33888092  0.27490307  0.11427187  1
  Se  Se6  1  0.38675290  0.06624971  0.26441593  1
  Cl  Cl7  1  0.81497811  0.04120524  0.50852937  1
  Cl  Cl8  1  0.74258072  0.92986837  0.68369910  1
  Ti  Ti9  1  0.26874936  0.59577698  0.22893242  1
