# generated using pymatgen
data_Li3TiI4(OF)3
_symmetry_space_group_name_H-M   'P 1'
_cell_length_a   7.00533354
_cell_length_b   6.80444938
_cell_length_c   7.10813882
_cell_angle_alpha   96.30958642
_cell_angle_beta   98.37292601
_cell_angle_gamma   95.93166853
_symmetry_Int_Tables_number   1
_chemical_formula_structural   Li3TiI4(OF)3
_chemical_formula_sum   'Li3 Ti1 I4 O3 F3'
_cell_volume   330.72177375
_cell_formula_units_Z   1
loop_
 _symmetry_equiv_pos_site_id
 _symmetry_equiv_pos_as_xyz
  1  'x, y, z'
loop_
 _atom_site_type_symbol
 _atom_site_label
 _atom_site_symmetry_multiplicity
 _atom_site_fract_x
 _atom_site_fract_y
 _atom_site_fract_z
 _atom_site_occupancy
  I  I0  1  0.12500000  0.00000000  0.25000000  1
  I  I1  1  0.00000000  0.00000000  0.00000000  1
  I  I2  1  0.37500000  0.00000000  0.25000000  1
  I  I3  1  0.25000000  0.25000000  0.25000000  1
  Li  Li4  1  0.00000000  0.25000000  0.12500000  1
  Li  Li5  1  0.94796663  0.78809274  0.74406150  1
  Li  Li6  1  0.64604248  0.12397739  0.12217942  1
  F  F7  1  0.85049681  0.96924161  0.33854947  1
  F  F8  1  0.37696422  0.67041289  0.19209417  1
  F  F9  1  0.83812858  0.77044099  0.58878481  1
  Ti  Ti10  1  0.17547532  0.21518553  0.68601465  1
  O  O11  1  0.68815998  0.58506060  0.48933618  1
  O  O12  1  0.26752845  0.55675535  0.18544525  1
  O  O13  1  0.64217710  0.15997180  0.05386749  1
