# generated using pymatgen
data_Li4SeBr3Cl2O3
_symmetry_space_group_name_H-M   'P 1'
_cell_length_a   5.15771175
_cell_length_b   5.01852668
_cell_length_c   7.07979794
_cell_angle_alpha   104.95620179
_cell_angle_beta   109.09563460
_cell_angle_gamma   104.06953659
_symmetry_Int_Tables_number   1
_chemical_formula_structural   Li4SeBr3Cl2O3
_chemical_formula_sum   'Li4 Se1 Br3 Cl2 O3'
_cell_volume   156.16695697
_cell_formula_units_Z   1
loop_
 _symmetry_equiv_pos_site_id
 _symmetry_equiv_pos_as_xyz
  1  'x, y, z'
loop_
 _atom_site_type_symbol
 _atom_site_label
 _atom_site_symmetry_multiplicity
 _atom_site_fract_x
 _atom_site_fract_y
 _atom_site_fract_z
 _atom_site_occupancy
  Li  Li0  1  0.00000000  0.00000000  0.00000000  1
  Li  Li1  1  0.50000000  0.50000000  0.50000000  1
  Li  Li2  1  0.25000000  0.25000000  0.25000000  1
  Li  Li3  1  0.75000000  0.25000000  0.00000000  1
  Br  Br4  1  0.25000000  0.75000000  0.50000000  1
  Br  Br5  1  0.33815241  0.88829218  0.13102247  1
  Br  Br6  1  0.69954446  0.16380798  0.64947396  1
  Se  Se7  1  0.01029561  0.07969238  0.43785982  1
  Cl  Cl8  1  0.51665364  0.02965591  0.25646895  1
  Cl  Cl9  1  0.77743970  0.47601513  0.94107297  1
  O  O10  1  0.45287599  0.21015672  0.82816494  1
  O  O11  1  0.35947344  0.96770830  0.06273361  1
  O  O12  1  0.27540090  0.79533380  0.17029190  1
