# generated using pymatgen
data_Li3Cu2Ni2As6O7
_symmetry_space_group_name_H-M   'P 1'
_cell_length_a   7.62932592
_cell_length_b   7.42458173
_cell_length_c   8.46498083
_cell_angle_alpha   91.69603226
_cell_angle_beta   91.29083584
_cell_angle_gamma   91.96458492
_symmetry_Int_Tables_number   1
_chemical_formula_structural   Li3Cu2Ni2As6O7
_chemical_formula_sum   'Li3 Cu2 Ni2 As6 O7'
_cell_volume   478.87025105
_cell_formula_units_Z   1
loop_
 _symmetry_equiv_pos_site_id
 _symmetry_equiv_pos_as_xyz
  1  'x, y, z'
loop_
 _atom_site_type_symbol
 _atom_site_label
 _atom_site_symmetry_multiplicity
 _atom_site_fract_x
 _atom_site_fract_y
 _atom_site_fract_z
 _atom_site_occupancy
  Li  Li0  1  0.00000000  0.00000000  0.00000000  1
  Li  Li1  1  0.50000000  0.50000000  0.50000000  1
  Li  Li2  1  0.25000000  0.25000000  0.25000000  1
  Cu  Cu3  1  0.75000000  0.25000000  0.00000000  1
  Cu  Cu4  1  0.25000000  0.75000000  0.50000000  1
  Ni  Ni5  1  0.20147144  0.03179295  0.05724371  1
  Ni  Ni6  1  0.79539650  0.73559215  0.39723696  1
  As  As7  1  0.38105677  0.69955213  0.99463347  1
  As  As8  1  0.97536463  0.36440133  0.11075528  1
  As  As9  1  0.56681106  0.69295874  0.42085649  1
  As  As10  1  0.29932025  0.05171003  0.62833744  1
  As  As11  1  0.21990640  0.16058186  0.72998690  1
  As  As12  1  0.25662071  0.24096989  0.05786015  1
  O  O13  1  0.46644939  0.68360496  0.45204553  1
  O  O14  1  0.22472796  0.72476861  0.92026237  1
  O  O15  1  0.25058987  0.94276910  0.72607191  1
  O  O16  1  0.42186917  0.81618294  0.93681191  1
  O  O17  1  0.28784636  0.51556424  0.47339292  1
  O  O18  1  0.38001404  0.58766006  0.61943332  1
  O  O19  1  0.37542258  0.47580400  0.42578586  1
