# generated using pymatgen
data_Li4Ti2Cu2(As2O)3
_symmetry_space_group_name_H-M   'P 1'
_cell_length_a   6.23160307
_cell_length_b   6.11483400
_cell_length_c   8.18694012
_cell_angle_alpha   95.98928148
_cell_angle_beta   96.56444125
_cell_angle_gamma   95.38799366
_symmetry_Int_Tables_number   1
_chemical_formula_structural   Li4Ti2Cu2(As2O)3
_chemical_formula_sum   'Li4 Ti2 Cu2 As6 O3'
_cell_volume   306.45492555
_cell_formula_units_Z   1
loop_
 _symmetry_equiv_pos_site_id
 _symmetry_equiv_pos_as_xyz
  1  'x, y, z'
loop_
 _atom_site_type_symbol
 _atom_site_label
 _atom_site_symmetry_multiplicity
 _atom_site_fract_x
 _atom_site_fract_y
 _atom_site_fract_z
 _atom_site_occupancy
  Li  Li0  1  0.00000000  0.00000000  0.00000000  1
  Li  Li1  1  0.50000000  0.50000000  0.50000000  1
  Li  Li2  1  0.25000000  0.25000000  0.25000000  1
  Li  Li3  1  0.75000000  0.25000000  0.00000000  1
  Cu  Cu4  1  0.25000000  0.75000000  0.50000000  1
  Cu  Cu5  1  0.83414520  0.80335552  0.68577952  1
  Ti  Ti6  1  0.74923544  0.64131420  0.35122465  1
  Ti  Ti7  1  0.26857484  0.12472104  0.62691953  1
  As  As8  1  0.37953802  0.31621528  0.96894372  1
  As  As9  1  0.23330242  0.93027172  0.69371508  1
  As  As10  1  0.46396371  0.06989534  0.01471005  1
  As  As11  1  0.51970693  0.90159485  0.39376790  1
  As  As12  1  0.17615290  0.11711711  0.87535277  1
  As  As13  1  0.60945525  0.40845937  0.96709116  1
  O  O14  1  0.42730493  0.52634123  0.51016642  1
  O  O15  1  0.93655619  0.55785574  0.08974642  1
  O  O16  1  0.74330383  0.42613350  0.62624159  1
