# generated using pymatgen
data_Li2Ti2P5N3
_symmetry_space_group_name_H-M   'P 1'
_cell_length_a   7.73273280
_cell_length_b   7.37355975
_cell_length_c   8.58555227
_cell_angle_alpha   92.48098177
_cell_angle_beta   91.11337741
_cell_angle_gamma   92.87674742
_symmetry_Int_Tables_number   1
_chemical_formula_structural   Li2Ti2P5N3
_chemical_formula_sum   'Li2 Ti2 P5 N3'
_cell_volume   488.33933888
_cell_formula_units_Z   1
loop_
 _symmetry_equiv_pos_site_id
 _symmetry_equiv_pos_as_xyz
  1  'x, y, z'
loop_
 _atom_site_type_symbol
 _atom_site_label
 _atom_site_symmetry_multiplicity
 _atom_site_fract_x
 _atom_site_fract_y
 _atom_site_fract_z
 _atom_site_occupancy
  P  P0  1  0.00000000  0.00000000  0.00000000  1
  P  P1  1  0.50000000  0.50000000  0.50000000  1
  P  P2  1  0.25000000  0.25000000  0.25000000  1
  P  P3  1  0.75000000  0.25000000  0.00000000  1
  P  P4  1  0.25000000  0.75000000  0.50000000  1
  Li  Li5  1  0.09627515  0.28663444  0.53456729  1
  Li  Li6  1  0.53009869  0.88355140  0.31662895  1
  Ti  Ti7  1  0.60256984  0.23363648  0.58396216  1
  Ti  Ti8  1  0.30002068  0.57482566  0.29464968  1
  N  N9  1  0.58694646  0.69145395  0.50795007  1
  N  N10  1  0.15609230  0.00668217  0.96528706  1
  N  N11  1  0.20710299  0.27054031  0.76120400  1
