# generated using pymatgen
data_Li3TiI4N5O4
_symmetry_space_group_name_H-M   'P 1'
_cell_length_a   6.85598129
_cell_length_b   6.70940223
_cell_length_c   7.29399589
_cell_angle_alpha   94.00310601
_cell_angle_beta   95.07775291
_cell_angle_gamma   93.79452547
_symmetry_Int_Tables_number   1
_chemical_formula_structural   Li3TiI4N5O4
_chemical_formula_sum   'Li3 Ti1 I4 N5 O4'
_cell_volume   332.50319829
_cell_formula_units_Z   1
loop_
 _symmetry_equiv_pos_site_id
 _symmetry_equiv_pos_as_xyz
  1  'x, y, z'
loop_
 _atom_site_type_symbol
 _atom_site_label
 _atom_site_symmetry_multiplicity
 _atom_site_fract_x
 _atom_site_fract_y
 _atom_site_fract_z
 _atom_site_occupancy
  I  I0  1  0.00000000  0.00000000  0.00000000  1
  I  I1  1  0.50000000  0.50000000  0.50000000  1
  I  I2  1  0.25000000  0.25000000  0.25000000  1
  I  I3  1  0.75000000  0.25000000  0.00000000  1
  Li  Li4  1  0.25000000  0.75000000  0.50000000  1
  Li  Li5  1  0.81356129  0.51946924  0.70921025  1
  Li  Li6  1  0.44413510  0.49982564  0.13047743  1
  Ti  Ti7  1  0.15227408  0.82173239  0.87390786  1
  O  O8  1  0.59819382  0.87359300  0.78160036  1
  O  O9  1  0.70981023  0.62551900  0.75007081  1
  O  O10  1  0.72594489  0.98235832  0.16767717  1
  O  O11  1  0.01521056  0.28658107  0.78072793  1
  N  N12  1  0.32749555  0.39670356  0.92697847  1
  N  N13  1  0.42429554  0.07324439  0.79694624  1
  N  N14  1  0.01169157  0.07996176  0.11800808  1
  N  N15  1  0.46784791  0.38839821  0.39064890  1
  N  N16  1  0.73005893  0.81876340  0.71176119  1
