# generated using pymatgen
data_Li2LuP4(IO)4
_symmetry_space_group_name_H-M   'P 1'
_cell_length_a   7.90782134
_cell_length_b   7.87391656
_cell_length_c   7.47441470
_cell_angle_alpha   92.99875819
_cell_angle_beta   93.72920030
_cell_angle_gamma   92.87117231
_symmetry_Int_Tables_number   1
_chemical_formula_structural   Li2LuP4(IO)4
_chemical_formula_sum   'Li2 Lu1 P4 I4 O4'
_cell_volume   463.10831017
_cell_formula_units_Z   1
loop_
 _symmetry_equiv_pos_site_id
 _symmetry_equiv_pos_as_xyz
  1  'x, y, z'
loop_
 _atom_site_type_symbol
 _atom_site_label
 _atom_site_symmetry_multiplicity
 _atom_site_fract_x
 _atom_site_fract_y
 _atom_site_fract_z
 _atom_site_occupancy
  O  O0  1  0.12500000  0.00000000  0.25000000  1
  O  O1  1  0.00000000  0.00000000  0.00000000  1
  O  O2  1  0.37500000  0.00000000  0.25000000  1
  O  O3  1  0.25000000  0.25000000  0.25000000  1
  P  P4  1  0.00000000  0.25000000  0.12500000  1
  P  P5  1  0.63565905  0.38113663  0.45803331  1
  P  P6  1  0.67510579  0.61085101  0.65326676  1
  P  P7  1  0.44678525  0.55975994  0.17698933  1
  Lu  Lu8  1  0.42056470  0.26902943  0.99723763  1
  I  I9  1  0.41576919  0.34859751  0.40201355  1
  I  I10  1  0.90443540  0.23222656  0.79679144  1
  I  I11  1  0.43200102  0.38342143  0.30156321  1
  I  I12  1  0.90102256  0.35484472  0.01789760  1
  Li  Li13  1  0.43783188  0.65299405  0.09204177  1
  Li  Li14  1  0.81738334  0.07305462  0.20932056  1
