# generated using pymatgen
data_Li3Cu2As6(PN)5
_symmetry_space_group_name_H-M   'P 1'
_cell_length_a   7.48034407
_cell_length_b   7.29381327
_cell_length_c   8.59689385
_cell_angle_alpha   92.93696634
_cell_angle_beta   92.44508487
_cell_angle_gamma   93.15830859
_symmetry_Int_Tables_number   1
_chemical_formula_structural   Li3Cu2As6(PN)5
_chemical_formula_sum   'Li3 Cu2 As6 P5 N5'
_cell_volume   467.23411605
_cell_formula_units_Z   1
loop_
 _symmetry_equiv_pos_site_id
 _symmetry_equiv_pos_as_xyz
  1  'x, y, z'
loop_
 _atom_site_type_symbol
 _atom_site_label
 _atom_site_symmetry_multiplicity
 _atom_site_fract_x
 _atom_site_fract_y
 _atom_site_fract_z
 _atom_site_occupancy
  P  P0  1  0.00000000  0.00000000  0.00000000  1
  P  P1  1  0.50000000  0.50000000  0.50000000  1
  P  P2  1  0.50000000  0.50000000  0.00000000  1
  P  P3  1  0.50000000  0.00000000  0.50000000  1
  P  P4  1  0.00000000  0.50000000  0.50000000  1
  Li  Li5  1  0.95099358  0.71635909  0.99718962  1
  Li  Li6  1  0.62909209  0.28949235  0.99062514  1
  Li  Li7  1  0.10340439  0.40094484  0.90200264  1
  Cu  Cu8  1  0.21348772  0.19688850  0.43272191  1
  Cu  Cu9  1  0.64928284  0.32887069  0.25070257  1
  As  As10  1  0.91625147  0.71314967  0.11831997  1
  As  As11  1  0.38963820  0.26979567  0.65674357  1
  As  As12  1  0.92724512  0.81642280  0.25844562  1
  As  As13  1  0.42034759  0.59004674  0.39232161  1
  As  As14  1  0.42432385  0.80488614  0.50480230  1
  As  As15  1  0.01139231  0.42971570  0.95700280  1
  N  N16  1  0.64018245  0.84829192  0.90580408  1
  N  N17  1  0.52293834  0.08613170  0.98734908  1
  N  N18  1  0.70144382  0.02848266  0.70597128  1
  N  N19  1  0.01388346  0.93193333  0.67098929  1
  N  N20  1  0.18545405  0.27205843  0.42135934  1
