# generated using pymatgen
data_LiTi2Cu2As6F3
_symmetry_space_group_name_H-M   'P 1'
_cell_length_a   7.14237953
_cell_length_b   7.20160190
_cell_length_c   8.23040554
_cell_angle_alpha   90.71426056
_cell_angle_beta   93.64654453
_cell_angle_gamma   90.80815900
_symmetry_Int_Tables_number   1
_chemical_formula_structural   LiTi2Cu2As6F3
_chemical_formula_sum   'Li1 Ti2 Cu2 As6 F3'
_cell_volume   422.40685124
_cell_formula_units_Z   1
loop_
 _symmetry_equiv_pos_site_id
 _symmetry_equiv_pos_as_xyz
  1  'x, y, z'
loop_
 _atom_site_type_symbol
 _atom_site_label
 _atom_site_symmetry_multiplicity
 _atom_site_fract_x
 _atom_site_fract_y
 _atom_site_fract_z
 _atom_site_occupancy
  Li  Li0  1  0.00000000  0.00000000  0.00000000  1
  Cu  Cu1  1  0.50000000  0.50000000  0.50000000  1
  Cu  Cu2  1  0.50000000  0.50000000  0.00000000  1
  F  F3  1  0.50000000  0.00000000  0.50000000  1
  F  F4  1  0.00000000  0.50000000  0.50000000  1
  F  F5  1  0.28336230  0.97389970  0.61970043  1
  Ti  Ti6  1  0.86852338  0.01912274  0.59101459  1
  Ti  Ti7  1  0.41114450  0.49063742  0.18294196  1
  As  As8  1  0.12128308  0.32936281  0.02530514  1
  As  As9  1  0.57618334  0.15324362  0.59759262  1
  As  As10  1  0.37283183  0.48075562  0.26520232  1
  As  As11  1  0.79753030  0.43889826  0.51490894  1
  As  As12  1  0.04419330  0.03144098  0.73467956  1
  As  As13  1  0.76202907  0.42142178  0.79032127  1
