# generated using pymatgen
data_Li3O4
_symmetry_space_group_name_H-M   'P 1'
_cell_length_a   6.75200991
_cell_length_b   6.46671194
_cell_length_c   7.34212096
_cell_angle_alpha   98.77139744
_cell_angle_beta   101.19905995
_cell_angle_gamma   98.25139290
_symmetry_Int_Tables_number   1
_chemical_formula_structural   Li3O4
_chemical_formula_sum   'Li3 O4'
_cell_volume   305.80280108
_cell_formula_units_Z   1
loop_
 _symmetry_equiv_pos_site_id
 _symmetry_equiv_pos_as_xyz
  1  'x, y, z'
loop_
 _atom_site_type_symbol
 _atom_site_label
 _atom_site_symmetry_multiplicity
 _atom_site_fract_x
 _atom_site_fract_y
 _atom_site_fract_z
 _atom_site_occupancy
  O  O0  1  0.00000000  0.00000000  0.00000000  1
  O  O1  1  0.50000000  0.50000000  0.50000000  1
  O  O2  1  0.50000000  0.50000000  0.00000000  1
  O  O3  1  0.50000000  0.00000000  0.50000000  1
  Li  Li4  1  0.00000000  0.50000000  0.50000000  1
  Li  Li5  1  0.77278081  0.25164179  0.90427112  1
  Li  Li6  1  0.43771912  0.94486043  0.54690409  1
