# generated using pymatgen
data_Li3As6SeO4
_symmetry_space_group_name_H-M   'P 1'
_cell_length_a   6.33477105
_cell_length_b   6.32948002
_cell_length_c   7.78351791
_cell_angle_alpha   96.65222541
_cell_angle_beta   99.65228965
_cell_angle_gamma   96.30262171
_symmetry_Int_Tables_number   1
_chemical_formula_structural   Li3As6SeO4
_chemical_formula_sum   'Li3 As6 Se1 O4'
_cell_volume   302.92511858
_cell_formula_units_Z   1
loop_
 _symmetry_equiv_pos_site_id
 _symmetry_equiv_pos_as_xyz
  1  'x, y, z'
loop_
 _atom_site_type_symbol
 _atom_site_label
 _atom_site_symmetry_multiplicity
 _atom_site_fract_x
 _atom_site_fract_y
 _atom_site_fract_z
 _atom_site_occupancy
  Li  Li0  1  0.12500000  0.00000000  0.25000000  1
  Li  Li1  1  0.00000000  0.00000000  0.00000000  1
  Li  Li2  1  0.37500000  0.00000000  0.25000000  1
  Se  Se3  1  0.25000000  0.25000000  0.25000000  1
  As  As4  1  0.00000000  0.25000000  0.12500000  1
  As  As5  1  0.28159567  0.42072869  0.99937836  1
  As  As6  1  0.79091099  0.66163174  0.92715668  1
  As  As7  1  0.67656080  0.51988837  0.14327520  1
  As  As8  1  0.90051325  0.47141218  0.78177912  1
  As  As9  1  0.70330195  0.30992953  0.09396793  1
  O  O10  1  0.79779858  0.02415194  0.68804620  1
  O  O11  1  0.00635966  0.27465227  0.98033776  1
  O  O12  1  0.28616744  0.94222681  0.48722264  1
  O  O13  1  0.62214685  0.84483986  0.16156866  1
