# generated using pymatgen
data_Li3TiI4N5F3
_symmetry_space_group_name_H-M   'P 1'
_cell_length_a   7.10160442
_cell_length_b   6.87887206
_cell_length_c   7.32263559
_cell_angle_alpha   95.81925856
_cell_angle_beta   97.27455810
_cell_angle_gamma   95.57178226
_symmetry_Int_Tables_number   1
_chemical_formula_structural   Li3TiI4N5F3
_chemical_formula_sum   'Li3 Ti1 I4 N5 F3'
_cell_volume   350.81316731
_cell_formula_units_Z   1
loop_
 _symmetry_equiv_pos_site_id
 _symmetry_equiv_pos_as_xyz
  1  'x, y, z'
loop_
 _atom_site_type_symbol
 _atom_site_label
 _atom_site_symmetry_multiplicity
 _atom_site_fract_x
 _atom_site_fract_y
 _atom_site_fract_z
 _atom_site_occupancy
  I  I0  1  0.00000000  0.00000000  0.00000000  1
  I  I1  1  0.50000000  0.50000000  0.50000000  1
  I  I2  1  0.50000000  0.50000000  0.00000000  1
  I  I3  1  0.50000000  0.00000000  0.50000000  1
  Li  Li4  1  0.00000000  0.50000000  0.50000000  1
  Li  Li5  1  0.35502408  0.53723159  0.99448012  1
  Li  Li6  1  0.67864939  0.59131285  0.75161902  1
  F  F7  1  0.56147480  0.95125899  0.78056703  1
  F  F8  1  0.71955122  0.61814096  0.53879360  1
  F  F9  1  0.38991163  0.86864931  0.82080228  1
  Ti  Ti10  1  0.31016441  0.56137726  0.03813287  1
  N  N11  1  0.46061526  0.67609119  0.93352987  1
  N  N12  1  0.17901925  0.16308517  0.87841150  1
  N  N13  1  0.47924124  0.53875474  0.68007671  1
  N  N14  1  0.43293306  0.57874356  0.87752419  1
  N  N15  1  0.74483332  0.03713819  0.83985209  1
