# generated using pymatgen
data_Li3TiCu2(PO)4
_symmetry_space_group_name_H-M   'P 1'
_cell_length_a   8.26333251
_cell_length_b   8.09535954
_cell_length_c   7.67827736
_cell_angle_alpha   90.76968615
_cell_angle_beta   90.65320662
_cell_angle_gamma   90.89130533
_symmetry_Int_Tables_number   1
_chemical_formula_structural   Li3TiCu2(PO)4
_chemical_formula_sum   'Li3 Ti1 Cu2 P4 O4'
_cell_volume   513.49255041
_cell_formula_units_Z   1
loop_
 _symmetry_equiv_pos_site_id
 _symmetry_equiv_pos_as_xyz
  1  'x, y, z'
loop_
 _atom_site_type_symbol
 _atom_site_label
 _atom_site_symmetry_multiplicity
 _atom_site_fract_x
 _atom_site_fract_y
 _atom_site_fract_z
 _atom_site_occupancy
  P  P0  1  0.12500000  0.00000000  0.25000000  1
  P  P1  1  0.00000000  0.00000000  0.00000000  1
  P  P2  1  0.37500000  0.00000000  0.25000000  1
  P  P3  1  0.25000000  0.25000000  0.25000000  1
  Li  Li4  1  0.00000000  0.25000000  0.12500000  1
  Li  Li5  1  0.54232505  0.80291629  0.22721423  1
  Li  Li6  1  0.93559962  0.88506930  0.98438475  1
  Cu  Cu7  1  0.34285097  0.01446922  0.63388292  1
  Cu  Cu8  1  0.03152286  0.53738779  0.87577820  1
  Ti  Ti9  1  0.36831431  0.60766572  0.32623790  1
  O  O10  1  0.59361460  0.91283045  0.37086589  1
  O  O11  1  0.96138534  0.81652907  0.41652987  1
  O  O12  1  0.63087400  0.69099478  0.80404760  1
  O  O13  1  0.27241221  0.45664300  0.15054346  1
