# generated using pymatgen
data_Li2LuI4N5
_symmetry_space_group_name_H-M   'P 1'
_cell_length_a   7.48816197
_cell_length_b   7.38850931
_cell_length_c   7.92423287
_cell_angle_alpha   94.04025403
_cell_angle_beta   94.20086827
_cell_angle_gamma   94.05565213
_symmetry_Int_Tables_number   1
_chemical_formula_structural   Li2LuI4N5
_chemical_formula_sum   'Li2 Lu1 I4 N5'
_cell_volume   434.88362821
_cell_formula_units_Z   1
loop_
 _symmetry_equiv_pos_site_id
 _symmetry_equiv_pos_as_xyz
  1  'x, y, z'
loop_
 _atom_site_type_symbol
 _atom_site_label
 _atom_site_symmetry_multiplicity
 _atom_site_fract_x
 _atom_site_fract_y
 _atom_site_fract_z
 _atom_site_occupancy
  I  I0  1  0.00000000  0.00000000  0.00000000  1
  I  I1  1  0.33300000  0.66700000  0.25000000  1
  I  I2  1  0.66700000  0.33300000  0.50000000  1
  I  I3  1  0.00000000  0.00000000  0.75000000  1
  Lu  Lu4  1  0.03875828  0.21219211  0.94689662  1
  Li  Li5  1  0.19357631  0.71412540  0.65728820  1
  Li  Li6  1  0.99457616  0.96076435  0.40737570  1
  N  N7  1  0.06882167  0.33527174  0.50250548  1
  N  N8  1  0.24407875  0.56897767  0.20551613  1
  N  N9  1  0.21700114  0.71795377  0.21558929  1
  N  N10  1  0.93581023  0.12996232  0.84670248  1
  N  N11  1  0.46873207  0.27118819  0.87651308  1
