# generated using pymatgen
data_LiAs3(IO)2
_symmetry_space_group_name_H-M   'P 1'
_cell_length_a   7.88377890
_cell_length_b   7.35449528
_cell_length_c   7.96852877
_cell_angle_alpha   90.70657692
_cell_angle_beta   91.42523742
_cell_angle_gamma   90.77520062
_symmetry_Int_Tables_number   1
_chemical_formula_structural   LiAs3(IO)2
_chemical_formula_sum   'Li2 As6 I4 O4'
_cell_volume   461.80267627
_cell_formula_units_Z   2
loop_
 _symmetry_equiv_pos_site_id
 _symmetry_equiv_pos_as_xyz
  1  'x, y, z'
loop_
 _atom_site_type_symbol
 _atom_site_label
 _atom_site_symmetry_multiplicity
 _atom_site_fract_x
 _atom_site_fract_y
 _atom_site_fract_z
 _atom_site_occupancy
  I  I0  1  0.00000000  0.00000000  0.00000000  1
  I  I1  1  0.33300000  0.66700000  0.25000000  1
  I  I2  1  0.66700000  0.33300000  0.50000000  1
  I  I3  1  0.00000000  0.00000000  0.75000000  1
  Li  Li4  1  0.64706143  0.58453989  0.57428464  1
  Li  Li5  1  0.82306073  0.95168362  0.05930444  1
  As  As6  1  0.21466116  0.29623779  0.93795251  1
  As  As7  1  0.05695971  0.09383251  0.33383525  1
  As  As8  1  0.58512038  0.54397649  0.17803934  1
  As  As9  1  0.82735974  0.96042445  0.76648454  1
  As  As10  1  0.49187636  0.89541426  0.41647862  1
  As  As11  1  0.51779246  0.53661307  0.90619323  1
  O  O12  1  0.54358918  0.94596170  0.56267843  1
  O  O13  1  0.49366418  0.11502663  0.56694843  1
  O  O14  1  0.97159489  0.75639541  0.62930003  1
  O  O15  1  0.09883936  0.53029560  0.67147731  1
