# generated using pymatgen
data_Li2Lu(CuP2)2
_symmetry_space_group_name_H-M   'P 1'
_cell_length_a   6.82574717
_cell_length_b   6.84784640
_cell_length_c   7.33568328
_cell_angle_alpha   92.46002556
_cell_angle_beta   93.75442089
_cell_angle_gamma   91.85204604
_symmetry_Int_Tables_number   1
_chemical_formula_structural   Li2Lu(CuP2)2
_chemical_formula_sum   'Li2 Lu1 Cu2 P4'
_cell_volume   341.61860203
_cell_formula_units_Z   1
loop_
 _symmetry_equiv_pos_site_id
 _symmetry_equiv_pos_as_xyz
  1  'x, y, z'
loop_
 _atom_site_type_symbol
 _atom_site_label
 _atom_site_symmetry_multiplicity
 _atom_site_fract_x
 _atom_site_fract_y
 _atom_site_fract_z
 _atom_site_occupancy
  P  P0  1  0.00000000  0.00000000  0.00000000  1
  P  P1  1  0.33300000  0.66700000  0.25000000  1
  P  P2  1  0.66700000  0.33300000  0.50000000  1
  P  P3  1  0.00000000  0.00000000  0.75000000  1
  Lu  Lu4  1  0.25682018  0.61413816  0.25730896  1
  Li  Li5  1  0.03277072  0.67556052  0.71742231  1
  Li  Li6  1  0.31312562  0.79144881  0.10855880  1
  Cu  Cu7  1  0.61297587  0.11827844  0.90390714  1
  Cu  Cu8  1  0.50192318  0.14448030  0.04447116  1
