# generated using pymatgen
data_Li2TiO4
_symmetry_space_group_name_H-M   'P 1'
_cell_length_a   7.97169385
_cell_length_b   7.94280027
_cell_length_c   8.08979448
_cell_angle_alpha   90.30464214
_cell_angle_beta   91.77127944
_cell_angle_gamma   90.33735748
_symmetry_Int_Tables_number   1
_chemical_formula_structural   Li2TiO4
_chemical_formula_sum   'Li2 Ti1 O4'
_cell_volume   511.96476961
_cell_formula_units_Z   1
loop_
 _symmetry_equiv_pos_site_id
 _symmetry_equiv_pos_as_xyz
  1  'x, y, z'
loop_
 _atom_site_type_symbol
 _atom_site_label
 _atom_site_symmetry_multiplicity
 _atom_site_fract_x
 _atom_site_fract_y
 _atom_site_fract_z
 _atom_site_occupancy
  Li  Li0  1  0.00000000  0.00000000  0.00000000  1
  Li  Li1  1  0.33300000  0.66700000  0.25000000  1
  Ti  Ti2  1  0.66700000  0.33300000  0.50000000  1
  O  O3  1  0.00000000  0.00000000  0.75000000  1
  O  O4  1  0.05465366  0.19519029  0.01338055  1
  O  O5  1  0.91809570  0.43261076  0.14627371  1
  O  O6  1  0.77669017  0.17945127  0.67514473  1
