# generated using pymatgen
data_Li2TiS3O3F2
_symmetry_space_group_name_H-M   'P 1'
_cell_length_a   5.93218363
_cell_length_b   5.76120482
_cell_length_c   7.05100328
_cell_angle_alpha   97.32017477
_cell_angle_beta   101.41527477
_cell_angle_gamma   96.98247573
_symmetry_Int_Tables_number   1
_chemical_formula_structural   Li2TiS3O3F2
_chemical_formula_sum   'Li2 Ti1 S3 O3 F2'
_cell_volume   231.60111322
_cell_formula_units_Z   1
loop_
 _symmetry_equiv_pos_site_id
 _symmetry_equiv_pos_as_xyz
  1  'x, y, z'
loop_
 _atom_site_type_symbol
 _atom_site_label
 _atom_site_symmetry_multiplicity
 _atom_site_fract_x
 _atom_site_fract_y
 _atom_site_fract_z
 _atom_site_occupancy
  Li  Li0  1  0.00000000  0.00000000  0.00000000  1
  Li  Li1  1  0.50000000  0.50000000  0.50000000  1
  F  F2  1  0.50000000  0.50000000  0.00000000  1
  F  F3  1  0.50000000  0.00000000  0.50000000  1
  S  S4  1  0.00000000  0.50000000  0.50000000  1
  S  S5  1  0.07073536  0.63307995  0.02956164  1
  S  S6  1  0.37750549  0.46738121  0.54210533  1
  Ti  Ti7  1  0.85150210  0.04385742  0.11040156  1
  O  O8  1  0.60021319  0.14345766  0.20013293  1
  O  O9  1  0.57855627  0.96764242  0.64784129  1
  O  O10  1  0.42903340  0.76983877  0.95455000  1
