# generated using pymatgen
data_Li3Ni2As6I4O5
_symmetry_space_group_name_H-M   'P 1'
_cell_length_a   7.14759853
_cell_length_b   6.97432706
_cell_length_c   8.38397458
_cell_angle_alpha   95.28921411
_cell_angle_beta   96.19345364
_cell_angle_gamma   95.16555024
_symmetry_Int_Tables_number   1
_chemical_formula_structural   Li3Ni2As6I4O5
_chemical_formula_sum   'Li3 Ni2 As6 I4 O5'
_cell_volume   411.61451057
_cell_formula_units_Z   1
loop_
 _symmetry_equiv_pos_site_id
 _symmetry_equiv_pos_as_xyz
  1  'x, y, z'
loop_
 _atom_site_type_symbol
 _atom_site_label
 _atom_site_symmetry_multiplicity
 _atom_site_fract_x
 _atom_site_fract_y
 _atom_site_fract_z
 _atom_site_occupancy
  I  I0  1  0.00000000  0.00000000  0.00000000  1
  I  I1  1  0.50000000  0.50000000  0.50000000  1
  I  I2  1  0.25000000  0.25000000  0.25000000  1
  I  I3  1  0.75000000  0.25000000  0.00000000  1
  Li  Li4  1  0.25000000  0.75000000  0.50000000  1
  Li  Li5  1  0.68663888  0.20036695  0.44825629  1
  Li  Li6  1  0.67714905  0.81212724  0.12453803  1
  Ni  Ni7  1  0.29103844  0.09372597  0.14554355  1
  Ni  Ni8  1  0.14561314  0.92425400  0.79730324  1
  As  As9  1  0.50554057  0.88116952  0.04682862  1
  As  As10  1  0.43898863  0.06821772  0.19323606  1
  As  As11  1  0.70981660  0.89609358  0.36395687  1
  As  As12  1  0.74957086  0.56922627  0.63115222  1
  As  As13  1  0.02434050  0.02748500  0.15102032  1
  As  As14  1  0.15828681  0.52376095  0.49649856  1
  O  O15  1  0.35746907  0.66554401  0.41676715  1
  O  O16  1  0.52007647  0.58626539  0.57528572  1
  O  O17  1  0.12936129  0.14720516  0.48551403  1
  O  O18  1  0.08572582  0.68870341  0.35662536  1
  O  O19  1  0.72027809  0.76216036  0.76928598  1
