# generated using pymatgen
data_Li2Zn2Cu2P5
_symmetry_space_group_name_H-M   'P 1'
_cell_length_a   7.86514108
_cell_length_b   8.02403533
_cell_length_c   7.94284522
_cell_angle_alpha   91.50333548
_cell_angle_beta   91.72186366
_cell_angle_gamma   91.59783851
_symmetry_Int_Tables_number   1
_chemical_formula_structural   Li2Zn2Cu2P5
_chemical_formula_sum   'Li2 Zn2 Cu2 P5'
_cell_volume   500.66925382
_cell_formula_units_Z   1
loop_
 _symmetry_equiv_pos_site_id
 _symmetry_equiv_pos_as_xyz
  1  'x, y, z'
loop_
 _atom_site_type_symbol
 _atom_site_label
 _atom_site_symmetry_multiplicity
 _atom_site_fract_x
 _atom_site_fract_y
 _atom_site_fract_z
 _atom_site_occupancy
  P  P0  1  0.12500000  0.00000000  0.25000000  1
  P  P1  1  0.00000000  0.00000000  0.00000000  1
  P  P2  1  0.37500000  0.00000000  0.25000000  1
  P  P3  1  0.25000000  0.25000000  0.25000000  1
  P  P4  1  0.00000000  0.25000000  0.12500000  1
  Li  Li5  1  0.29045614  0.52815320  0.96720188  1
  Li  Li6  1  0.55354315  0.34527433  0.19927203  1
  Cu  Cu7  1  0.56371947  0.39814087  0.47708290  1
  Cu  Cu8  1  0.92285205  0.36483924  0.71422603  1
  Zn  Zn9  1  0.78288420  0.04599922  0.50429334  1
  Zn  Zn10  1  0.42354235  0.33294194  0.98902898  1
