# generated using pymatgen
data_Li2TiI4(OF)3
_symmetry_space_group_name_H-M   'P 1'
_cell_length_a   8.38441090
_cell_length_b   8.23981706
_cell_length_c   7.36680079
_cell_angle_alpha   90.18099011
_cell_angle_beta   90.86109597
_cell_angle_gamma   90.20692002
_symmetry_Int_Tables_number   1
_chemical_formula_structural   Li2TiI4(OF)3
_chemical_formula_sum   'Li2 Ti1 I4 O3 F3'
_cell_volume   508.87946533
_cell_formula_units_Z   1
loop_
 _symmetry_equiv_pos_site_id
 _symmetry_equiv_pos_as_xyz
  1  'x, y, z'
loop_
 _atom_site_type_symbol
 _atom_site_label
 _atom_site_symmetry_multiplicity
 _atom_site_fract_x
 _atom_site_fract_y
 _atom_site_fract_z
 _atom_site_occupancy
  I  I0  1  0.12500000  0.00000000  0.25000000  1
  I  I1  1  0.00000000  0.00000000  0.00000000  1
  I  I2  1  0.37500000  0.00000000  0.25000000  1
  I  I3  1  0.25000000  0.25000000  0.25000000  1
  Li  Li4  1  0.00000000  0.25000000  0.12500000  1
  Li  Li5  1  0.80932002  0.22653686  0.69555733  1
  F  F6  1  0.30731039  0.93463210  0.19510366  1
  F  F7  1  0.74830862  0.52437097  0.79356959  1
  F  F8  1  0.03514026  0.15209497  0.12715974  1
  Ti  Ti9  1  0.63855128  0.67709835  0.90384090  1
  O  O10  1  0.16568267  0.18413387  0.83372913  1
  O  O11  1  0.92811818  0.96498636  0.52714197  1
  O  O12  1  0.40004360  0.33654676  0.16940896  1
