# generated using pymatgen
data_Li3TiNi2(IO)4
_symmetry_space_group_name_H-M   'P 1'
_cell_length_a   7.39637859
_cell_length_b   7.24427899
_cell_length_c   7.53379925
_cell_angle_alpha   95.73899026
_cell_angle_beta   97.32737245
_cell_angle_gamma   95.39875929
_symmetry_Int_Tables_number   1
_chemical_formula_structural   Li3TiNi2(IO)4
_chemical_formula_sum   'Li3 Ti1 Ni2 I4 O4'
_cell_volume   396.02694867
_cell_formula_units_Z   1
loop_
 _symmetry_equiv_pos_site_id
 _symmetry_equiv_pos_as_xyz
  1  'x, y, z'
loop_
 _atom_site_type_symbol
 _atom_site_label
 _atom_site_symmetry_multiplicity
 _atom_site_fract_x
 _atom_site_fract_y
 _atom_site_fract_z
 _atom_site_occupancy
  I  I0  1  0.00000000  0.00000000  0.00000000  1
  I  I1  1  0.50000000  0.50000000  0.50000000  1
  I  I2  1  0.25000000  0.25000000  0.25000000  1
  I  I3  1  0.75000000  0.25000000  0.00000000  1
  Li  Li4  1  0.25000000  0.75000000  0.50000000  1
  Li  Li5  1  0.66625353  0.04303328  0.28837996  1
  Li  Li6  1  0.44916550  0.12446588  0.99898618  1
  Ni  Ni7  1  0.94767541  0.49476213  0.18511289  1
  Ni  Ni8  1  0.44558333  0.76669207  0.93278379  1
  Ti  Ti9  1  0.27545564  0.05605363  0.65934935  1
  O  O10  1  0.72384435  0.54137156  0.98460356  1
  O  O11  1  0.83580838  0.38254632  0.43212388  1
  O  O12  1  0.81417786  0.12864106  0.70198003  1
  O  O13  1  0.98679002  0.56252620  0.42475540  1
