# generated using pymatgen
data_LiMn3Sb4Mo2P3
_symmetry_space_group_name_H-M   'P 1'
_cell_length_a   5.77498298
_cell_length_b   6.04417592
_cell_length_c   6.29282252
_cell_angle_alpha   95.31322546
_cell_angle_beta   89.37864973
_cell_angle_gamma   94.79671849
_symmetry_Int_Tables_number   1
_chemical_formula_structural   LiMn3Sb4Mo2P3
_chemical_formula_sum   'Li1 Mn3 Sb4 Mo2 P3'
_cell_volume   217.94023454
_cell_formula_units_Z   1
loop_
 _symmetry_equiv_pos_site_id
 _symmetry_equiv_pos_as_xyz
  1  'x, y, z'
loop_
 _atom_site_type_symbol
 _atom_site_label
 _atom_site_symmetry_multiplicity
 _atom_site_fract_x
 _atom_site_fract_y
 _atom_site_fract_z
 _atom_site_occupancy
  Mn  Mn0  1  0.00000000  0.00000000  0.00000000  1
  Mn  Mn1  1  0.50000000  0.50000000  0.50000000  1
  Mn  Mn2  1  0.25000000  0.25000000  0.25000000  1
  Sb  Sb3  1  0.75000000  0.25000000  0.00000000  1
  Sb  Sb4  1  0.25000000  0.75000000  0.50000000  1
  Sb  Sb5  1  0.87766586  0.39871508  0.09616070  1
  Sb  Sb6  1  0.84305076  0.66454166  0.17094165  1
  P  P7  1  0.53419754  0.30287220  0.73838665  1
  P  P8  1  0.78606163  0.79880246  0.13372029  1
  P  P9  1  0.94655134  0.92131641  0.55775061  1
  Mo  Mo10  1  0.25906878  0.64945949  0.78472645  1
  Mo  Mo11  1  0.21697182  0.47942665  0.76570369  1
  Li  Li12  1  0.66543861  0.79467734  0.07254238  1
