# generated using pymatgen
data_Li2LuCu2(NiAs3)2
_symmetry_space_group_name_H-M   'P 1'
_cell_length_a   7.50872620
_cell_length_b   7.48146752
_cell_length_c   8.22388269
_cell_angle_alpha   91.14638762
_cell_angle_beta   91.86928320
_cell_angle_gamma   91.32414888
_symmetry_Int_Tables_number   1
_chemical_formula_structural   Li2LuCu2(NiAs3)2
_chemical_formula_sum   'Li2 Lu1 Cu2 Ni2 As6'
_cell_volume   461.51842635
_cell_formula_units_Z   1
loop_
 _symmetry_equiv_pos_site_id
 _symmetry_equiv_pos_as_xyz
  1  'x, y, z'
loop_
 _atom_site_type_symbol
 _atom_site_label
 _atom_site_symmetry_multiplicity
 _atom_site_fract_x
 _atom_site_fract_y
 _atom_site_fract_z
 _atom_site_occupancy
  Lu  Lu0  1  0.12500000  0.00000000  0.25000000  1
  Li  Li1  1  0.00000000  0.00000000  0.00000000  1
  Li  Li2  1  0.37500000  0.00000000  0.25000000  1
  Cu  Cu3  1  0.25000000  0.25000000  0.25000000  1
  Cu  Cu4  1  0.00000000  0.25000000  0.12500000  1
  Ni  Ni5  1  0.84255196  0.89437595  0.31005144  1
  Ni  Ni6  1  0.62847229  0.97894275  0.06489679  1
  As  As7  1  0.09414039  0.57859553  0.35918076  1
  As  As8  1  0.04791226  0.60120152  0.69628981  1
  As  As9  1  0.17459090  0.84612828  0.86551171  1
  As  As10  1  0.51987223  0.68959649  0.99290574  1
  As  As11  1  0.53411066  0.16337667  0.77636919  1
  As  As12  1  0.14032810  0.65133935  0.21808709  1
