# generated using pymatgen
data_Li3TiN5Cl2
_symmetry_space_group_name_H-M   'P 1'
_cell_length_a   6.46470790
_cell_length_b   6.14097865
_cell_length_c   7.47502826
_cell_angle_alpha   99.74701370
_cell_angle_beta   102.10563675
_cell_angle_gamma   99.24965954
_symmetry_Int_Tables_number   1
_chemical_formula_structural   Li3TiN5Cl2
_chemical_formula_sum   'Li3 Ti1 N5 Cl2'
_cell_volume   279.97590457
_cell_formula_units_Z   1
loop_
 _symmetry_equiv_pos_site_id
 _symmetry_equiv_pos_as_xyz
  1  'x, y, z'
loop_
 _atom_site_type_symbol
 _atom_site_label
 _atom_site_symmetry_multiplicity
 _atom_site_fract_x
 _atom_site_fract_y
 _atom_site_fract_z
 _atom_site_occupancy
  Cl  Cl0  1  0.12500000  0.12500000  0.12500000  1
  Cl  Cl1  1  0.50000000  0.50000000  0.50000000  1
  Ti  Ti2  1  0.25000000  0.25000000  0.25000000  1
  Li  Li3  1  0.75000000  0.75000000  0.75000000  1
  Li  Li4  1  0.85361222  0.62465020  0.88479367  1
  Li  Li5  1  0.10402547  0.96349021  0.55451040  1
  N  N6  1  0.14283674  0.37734520  0.59333231  1
  N  N7  1  0.80944333  0.90718662  0.57870863  1
  N  N8  1  0.43146099  0.78712520  0.92286582  1
  N  N9  1  0.61234856  0.03046002  0.71902793  1
  N  N10  1  0.45704855  0.89170390  0.57248381  1
