# generated using pymatgen
data_Li3Cu2Ni2As6P5
_symmetry_space_group_name_H-M   'P 1'
_cell_length_a   7.53969008
_cell_length_b   7.35591240
_cell_length_c   8.69644912
_cell_angle_alpha   92.64785224
_cell_angle_beta   92.13281532
_cell_angle_gamma   92.87749530
_symmetry_Int_Tables_number   1
_chemical_formula_structural   Li3Cu2Ni2As6P5
_chemical_formula_sum   'Li3 Cu2 Ni2 As6 P5'
_cell_volume   480.81597558
_cell_formula_units_Z   1
loop_
 _symmetry_equiv_pos_site_id
 _symmetry_equiv_pos_as_xyz
  1  'x, y, z'
loop_
 _atom_site_type_symbol
 _atom_site_label
 _atom_site_symmetry_multiplicity
 _atom_site_fract_x
 _atom_site_fract_y
 _atom_site_fract_z
 _atom_site_occupancy
  P  P0  1  0.00000000  0.00000000  0.00000000  1
  P  P1  1  0.50000000  0.50000000  0.50000000  1
  P  P2  1  0.50000000  0.50000000  0.00000000  1
  P  P3  1  0.50000000  0.00000000  0.50000000  1
  P  P4  1  0.00000000  0.50000000  0.50000000  1
  Li  Li5  1  0.20614867  0.31400365  0.95223477  1
  Li  Li6  1  0.34316259  0.94617277  0.52345337  1
  Li  Li7  1  0.08744482  0.49013204  0.68772651  1
  Cu  Cu8  1  0.96312202  0.60907912  0.51068066  1
  Cu  Cu9  1  0.51897893  0.12617668  0.11312139  1
  Ni  Ni10  1  0.63939625  0.79913678  0.24554993  1
  Ni  Ni11  1  0.99020672  0.77962786  0.27526026  1
  As  As12  1  0.69938018  0.36927760  0.77708435  1
  As  As13  1  0.23931869  0.62948193  0.65168589  1
  As  As14  1  0.14902724  0.99013840  0.43607053  1
  As  As15  1  0.25368670  0.90662876  0.80250795  1
  As  As16  1  0.58738583  0.75788927  0.16736643  1
  As  As17  1  0.18537422  0.20898366  0.43269724  1
