# generated using pymatgen
data_Li2Ti2Sb2OF2
_symmetry_space_group_name_H-M   'P 1'
_cell_length_a   6.49607574
_cell_length_b   6.35647061
_cell_length_c   6.97892523
_cell_angle_alpha   96.45428747
_cell_angle_beta   101.02887899
_cell_angle_gamma   96.10508418
_symmetry_Int_Tables_number   1
_chemical_formula_structural   Li2Ti2Sb2OF2
_chemical_formula_sum   'Li2 Ti2 Sb2 O1 F2'
_cell_volume   278.63394872
_cell_formula_units_Z   1
loop_
 _symmetry_equiv_pos_site_id
 _symmetry_equiv_pos_as_xyz
  1  'x, y, z'
loop_
 _atom_site_type_symbol
 _atom_site_label
 _atom_site_symmetry_multiplicity
 _atom_site_fract_x
 _atom_site_fract_y
 _atom_site_fract_z
 _atom_site_occupancy
  Li  Li0  1  0.12500000  0.00000000  0.25000000  1
  Li  Li1  1  0.00000000  0.00000000  0.00000000  1
  Sb  Sb2  1  0.37500000  0.00000000  0.25000000  1
  Sb  Sb3  1  0.25000000  0.25000000  0.25000000  1
  F  F4  1  0.00000000  0.25000000  0.12500000  1
  F  F5  1  0.22858549  0.01683433  0.55963030  1
  Ti  Ti6  1  0.33112592  0.82327150  0.89900057  1
  Ti  Ti7  1  0.23975663  0.25732428  0.87197593  1
  O  O8  1  0.71417673  0.55347446  0.60472392  1
