# generated using pymatgen
data_Li3Cu2As6(P2O)4
_symmetry_space_group_name_H-M   'P 1'
_cell_length_a   7.40712438
_cell_length_b   7.34312024
_cell_length_c   8.58841754
_cell_angle_alpha   93.01222693
_cell_angle_beta   94.24891477
_cell_angle_gamma   92.96113534
_symmetry_Int_Tables_number   1
_chemical_formula_structural   Li3Cu2As6(P2O)4
_chemical_formula_sum   'Li3 Cu2 As6 P8 O4'
_cell_volume   464.48422236
_cell_formula_units_Z   1
loop_
 _symmetry_equiv_pos_site_id
 _symmetry_equiv_pos_as_xyz
  1  'x, y, z'
loop_
 _atom_site_type_symbol
 _atom_site_label
 _atom_site_symmetry_multiplicity
 _atom_site_fract_x
 _atom_site_fract_y
 _atom_site_fract_z
 _atom_site_occupancy
  P  P0  1  0.00000000  0.00000000  0.00000000  1
  P  P1  1  0.50000000  0.50000000  0.50000000  1
  P  P2  1  0.50000000  0.50000000  0.00000000  1
  P  P3  1  0.50000000  0.00000000  0.50000000  1
  P  P4  1  0.00000000  0.50000000  0.50000000  1
  P  P5  1  0.63824192  0.06025945  0.01252779  1
  P  P6  1  0.48684396  0.89198370  0.59914088  1
  P  P7  1  0.18446937  0.40382008  0.97200864  1
  Li  Li8  1  0.08217545  0.54879490  0.95291041  1
  Li  Li9  1  0.40435055  0.07843982  0.37859771  1
  Li  Li10  1  0.56105425  0.69860134  0.47894722  1
  Cu  Cu11  1  0.77009388  0.03656627  0.38024589  1
  Cu  Cu12  1  0.52798036  0.99907032  0.81207713  1
  As  As13  1  0.17167737  0.53582654  0.26863049  1
  As  As14  1  0.73833769  0.96696030  0.06089640  1
  As  As15  1  0.03958455  0.56316094  0.45780586  1
  As  As16  1  0.98358930  0.80990920  0.78288995  1
  As  As17  1  0.09065690  0.40205336  0.35885432  1
  As  As18  1  0.51200453  0.26211890  0.79050697  1
  O  O19  1  0.21278141  0.66435477  0.78878221  1
  O  O20  1  0.95831588  0.05928489  0.06380839  1
  O  O21  1  0.98070971  0.61030865  0.43537734  1
  O  O22  1  0.00269620  0.09030720  0.72820067  1
