# generated using pymatgen
data_Li2Ti(CuAs3)2
_symmetry_space_group_name_H-M   'P 1'
_cell_length_a   7.75686177
_cell_length_b   7.75243263
_cell_length_c   8.27725945
_cell_angle_alpha   91.08140052
_cell_angle_beta   91.57243116
_cell_angle_gamma   91.24980474
_symmetry_Int_Tables_number   1
_chemical_formula_structural   Li2Ti(CuAs3)2
_chemical_formula_sum   'Li2 Ti1 Cu2 As6'
_cell_volume   497.34902917
_cell_formula_units_Z   1
loop_
 _symmetry_equiv_pos_site_id
 _symmetry_equiv_pos_as_xyz
  1  'x, y, z'
loop_
 _atom_site_type_symbol
 _atom_site_label
 _atom_site_symmetry_multiplicity
 _atom_site_fract_x
 _atom_site_fract_y
 _atom_site_fract_z
 _atom_site_occupancy
  Ti  Ti0  1  0.00000000  0.00000000  0.00000000  1
  As  As1  1  0.50000000  0.50000000  0.50000000  1
  As  As2  1  0.25000000  0.25000000  0.25000000  1
  As  As3  1  0.75000000  0.25000000  0.00000000  1
  As  As4  1  0.25000000  0.75000000  0.50000000  1
  As  As5  1  0.42980200  0.64335183  0.06196372  1
  As  As6  1  0.74199837  0.36650206  0.58449114  1
  Li  Li7  1  0.68825077  0.60646610  0.74900893  1
  Li  Li8  1  0.91498219  0.97233002  0.68752159  1
  Cu  Cu9  1  0.87707864  0.20421395  0.03256851  1
  Cu  Cu10  1  0.33408693  0.86860311  0.49866066  1
