# generated using pymatgen
data_LiTiS3I4
_symmetry_space_group_name_H-M   'P 1'
_cell_length_a   7.32602125
_cell_length_b   7.26431924
_cell_length_c   7.34126493
_cell_angle_alpha   90.80887529
_cell_angle_beta   93.84838295
_cell_angle_gamma   90.92476044
_symmetry_Int_Tables_number   1
_chemical_formula_structural   LiTiS3I4
_chemical_formula_sum   'Li1 Ti1 S3 I4'
_cell_volume   389.71455804
_cell_formula_units_Z   1
loop_
 _symmetry_equiv_pos_site_id
 _symmetry_equiv_pos_as_xyz
  1  'x, y, z'
loop_
 _atom_site_type_symbol
 _atom_site_label
 _atom_site_symmetry_multiplicity
 _atom_site_fract_x
 _atom_site_fract_y
 _atom_site_fract_z
 _atom_site_occupancy
  I  I0  1  0.12500000  0.12500000  0.12500000  1
  I  I1  1  0.50000000  0.50000000  0.50000000  1
  I  I2  1  0.25000000  0.25000000  0.25000000  1
  I  I3  1  0.75000000  0.75000000  0.75000000  1
  Li  Li4  1  0.75893919  0.35729701  0.36829313  1
  S  S5  1  0.24344136  0.14024718  0.85048123  1
  S  S6  1  0.97154303  0.58585033  0.59912245  1
  S  S7  1  0.22611837  0.70604454  0.09761601  1
  Ti  Ti8  1  0.87220906  0.95150437  0.94416274  1
