# generated using pymatgen
data_Li3TiP3I4O3
_symmetry_space_group_name_H-M   'P 1'
_cell_length_a   7.73650144
_cell_length_b   7.51871844
_cell_length_c   7.22047629
_cell_angle_alpha   92.45726359
_cell_angle_beta   92.81948539
_cell_angle_gamma   92.21897007
_symmetry_Int_Tables_number   1
_chemical_formula_structural   Li3TiP3I4O3
_chemical_formula_sum   'Li3 Ti1 P3 I4 O3'
_cell_volume   418.75971314
_cell_formula_units_Z   1
loop_
 _symmetry_equiv_pos_site_id
 _symmetry_equiv_pos_as_xyz
  1  'x, y, z'
loop_
 _atom_site_type_symbol
 _atom_site_label
 _atom_site_symmetry_multiplicity
 _atom_site_fract_x
 _atom_site_fract_y
 _atom_site_fract_z
 _atom_site_occupancy
  I  I0  1  0.00000000  0.00000000  0.00000000  1
  I  I1  1  0.50000000  0.50000000  0.50000000  1
  I  I2  1  0.25000000  0.25000000  0.25000000  1
  I  I3  1  0.75000000  0.25000000  0.00000000  1
  P  P4  1  0.25000000  0.75000000  0.50000000  1
  P  P5  1  0.34454360  0.39188966  0.68693479  1
  P  P6  1  0.12224334  0.24575483  0.86681253  1
  Li  Li7  1  0.31606321  0.19456452  0.90815413  1
  Li  Li8  1  0.64590727  0.66416845  0.29314068  1
  Li  Li9  1  0.76015343  0.63140973  0.05840977  1
  Ti  Ti10  1  0.93967160  0.37848111  0.49587830  1
  O  O11  1  0.66063148  0.47205464  0.95730836  1
  O  O12  1  0.35740156  0.72554217  0.73940067  1
  O  O13  1  0.65760365  0.86724707  0.13578764  1
