# generated using pymatgen
data_Li3Ti(ClO2)2
_symmetry_space_group_name_H-M   'P 1'
_cell_length_a   5.61234922
_cell_length_b   5.45385637
_cell_length_c   6.50393927
_cell_angle_alpha   100.19943497
_cell_angle_beta   107.42846669
_cell_angle_gamma   99.64760392
_symmetry_Int_Tables_number   1
_chemical_formula_structural   Li3Ti(ClO2)2
_chemical_formula_sum   'Li3 Ti1 Cl2 O4'
_cell_volume   181.70479478
_cell_formula_units_Z   1
loop_
 _symmetry_equiv_pos_site_id
 _symmetry_equiv_pos_as_xyz
  1  'x, y, z'
loop_
 _atom_site_type_symbol
 _atom_site_label
 _atom_site_symmetry_multiplicity
 _atom_site_fract_x
 _atom_site_fract_y
 _atom_site_fract_z
 _atom_site_occupancy
  Li  Li0  1  0.00000000  0.00000000  0.00000000  1
  Li  Li1  1  0.33300000  0.66700000  0.25000000  1
  Li  Li2  1  0.66700000  0.33300000  0.50000000  1
  Cl  Cl3  1  0.00000000  0.00000000  0.75000000  1
  Cl  Cl4  1  0.97028854  0.28443756  0.97547461  1
  Ti  Ti5  1  0.44545818  0.09412587  0.46392594  1
  O  O6  1  0.97054627  0.20174034  0.53690059  1
  O  O7  1  0.22527290  0.33061633  0.01703287  1
  O  O8  1  0.42928857  0.39298832  0.46427415  1
  O  O9  1  0.30687739  0.23207844  0.76347863  1
