# generated using pymatgen
data_Li3Cu2(As2O)3
_symmetry_space_group_name_H-M   'P 1'
_cell_length_a   8.09461212
_cell_length_b   8.02362253
_cell_length_c   7.85515600
_cell_angle_alpha   91.70092740
_cell_angle_beta   92.66888719
_cell_angle_gamma   91.61104279
_symmetry_Int_Tables_number   1
_chemical_formula_structural   Li3Cu2(As2O)3
_chemical_formula_sum   'Li3 Cu2 As6 O3'
_cell_volume   509.17729233
_cell_formula_units_Z   1
loop_
 _symmetry_equiv_pos_site_id
 _symmetry_equiv_pos_as_xyz
  1  'x, y, z'
loop_
 _atom_site_type_symbol
 _atom_site_label
 _atom_site_symmetry_multiplicity
 _atom_site_fract_x
 _atom_site_fract_y
 _atom_site_fract_z
 _atom_site_occupancy
  Li  Li0  1  0.12500000  0.12500000  0.12500000  1
  Li  Li1  1  0.50000000  0.50000000  0.50000000  1
  Li  Li2  1  0.25000000  0.25000000  0.25000000  1
  Cu  Cu3  1  0.75000000  0.75000000  0.75000000  1
  Cu  Cu4  1  0.77383364  0.24966456  0.89268725  1
  As  As5  1  0.27092115  0.83771758  0.14988801  1
  As  As6  1  0.23391191  0.38289181  0.46662080  1
  As  As7  1  0.25141829  0.37704438  0.89060653  1
  As  As8  1  0.27097130  0.46784380  0.80046902  1
  As  As9  1  0.39881635  0.29122562  0.07809919  1
  As  As10  1  0.71644649  0.78708275  0.71313337  1
  O  O11  1  0.70863443  0.95869201  0.87457067  1
  O  O12  1  0.96799824  0.14309708  0.47056319  1
  O  O13  1  0.89040424  0.32160928  0.74691941  1
