# generated using pymatgen
data_Li2TiCu2P4F2
_symmetry_space_group_name_H-M   'P 1'
_cell_length_a   6.44802564
_cell_length_b   6.23802571
_cell_length_c   7.07467227
_cell_angle_alpha   95.49181715
_cell_angle_beta   97.83724277
_cell_angle_gamma   94.95632293
_symmetry_Int_Tables_number   1
_chemical_formula_structural   Li2TiCu2P4F2
_chemical_formula_sum   'Li2 Ti1 Cu2 P4 F2'
_cell_volume   279.18163211
_cell_formula_units_Z   1
loop_
 _symmetry_equiv_pos_site_id
 _symmetry_equiv_pos_as_xyz
  1  'x, y, z'
loop_
 _atom_site_type_symbol
 _atom_site_label
 _atom_site_symmetry_multiplicity
 _atom_site_fract_x
 _atom_site_fract_y
 _atom_site_fract_z
 _atom_site_occupancy
  P  P0  1  0.12500000  0.00000000  0.25000000  1
  P  P1  1  0.00000000  0.00000000  0.00000000  1
  P  P2  1  0.37500000  0.00000000  0.25000000  1
  P  P3  1  0.25000000  0.25000000  0.25000000  1
  Li  Li4  1  0.00000000  0.25000000  0.12500000  1
  Li  Li5  1  0.14126041  0.88989775  0.40435340  1
  Cu  Cu6  1  0.21907963  0.45734532  0.69049206  1
  Cu  Cu7  1  0.14840786  0.30758267  0.17796083  1
  F  F8  1  0.44552526  0.94341281  0.88679832  1
  F  F9  1  0.45328180  0.51061089  0.16821523  1
  Ti  Ti10  1  0.81952080  0.22851252  0.60000486  1
