# generated using pymatgen
data_Li2Cu2As6O7
_symmetry_space_group_name_H-M   'P 1'
_cell_length_a   7.58061459
_cell_length_b   7.50487795
_cell_length_c   8.46305343
_cell_angle_alpha   91.30453532
_cell_angle_beta   91.61196430
_cell_angle_gamma   91.50876254
_symmetry_Int_Tables_number   1
_chemical_formula_structural   Li2Cu2As6O7
_chemical_formula_sum   'Li2 Cu2 As6 O7'
_cell_volume   480.98600215
_cell_formula_units_Z   1
loop_
 _symmetry_equiv_pos_site_id
 _symmetry_equiv_pos_as_xyz
  1  'x, y, z'
loop_
 _atom_site_type_symbol
 _atom_site_label
 _atom_site_symmetry_multiplicity
 _atom_site_fract_x
 _atom_site_fract_y
 _atom_site_fract_z
 _atom_site_occupancy
  Li  Li0  1  0.12500000  0.12500000  0.12500000  1
  Li  Li1  1  0.50000000  0.50000000  0.50000000  1
  Cu  Cu2  1  0.25000000  0.25000000  0.25000000  1
  Cu  Cu3  1  0.75000000  0.75000000  0.75000000  1
  As  As4  1  0.48649295  0.28107737  0.92891306  1
  As  As5  1  0.06249294  0.73768832  0.14215731  1
  As  As6  1  0.62422824  0.48802638  0.17217591  1
  As  As7  1  0.59092011  0.15846166  0.18824843  1
  As  As8  1  0.82234102  0.15408219  0.12917703  1
  As  As9  1  0.73109128  0.81972518  0.34502461  1
  O  O10  1  0.44316118  0.56831682  0.03611813  1
  O  O11  1  0.77730655  0.91034763  0.05474497  1
  O  O12  1  0.38738212  0.72693786  0.94377603  1
  O  O13  1  0.50069412  0.28072708  0.97057791  1
  O  O14  1  0.14122382  0.42354803  0.06916660  1
  O  O15  1  0.60238204  0.15375182  0.08375493  1
  O  O16  1  0.82076948  0.52576097  0.04324315  1
