# generated using pymatgen
data_LiTi2As6P8F2
_symmetry_space_group_name_H-M   'P 1'
_cell_length_a   9.00859146
_cell_length_b   8.93457055
_cell_length_c   10.04089372
_cell_angle_alpha   90.49788348
_cell_angle_beta   92.36877841
_cell_angle_gamma   90.56921377
_symmetry_Int_Tables_number   1
_chemical_formula_structural   LiTi2As6P8F2
_chemical_formula_sum   'Li1 Ti2 As6 P8 F2'
_cell_volume   807.40648509
_cell_formula_units_Z   1
loop_
 _symmetry_equiv_pos_site_id
 _symmetry_equiv_pos_as_xyz
  1  'x, y, z'
loop_
 _atom_site_type_symbol
 _atom_site_label
 _atom_site_symmetry_multiplicity
 _atom_site_fract_x
 _atom_site_fract_y
 _atom_site_fract_z
 _atom_site_occupancy
  P  P0  1  0.12500000  0.00000000  0.25000000  1
  P  P1  1  0.00000000  0.00000000  0.00000000  1
  P  P2  1  0.37500000  0.00000000  0.25000000  1
  P  P3  1  0.25000000  0.25000000  0.25000000  1
  P  P4  1  0.00000000  0.25000000  0.12500000  1
  P  P5  1  0.13008358  0.88035710  0.56876561  1
  P  P6  1  0.28668574  0.20961536  0.98575079  1
  P  P7  1  0.93623543  0.01863918  0.83580308  1
  Li  Li8  1  0.65357630  0.68857036  0.29182290  1
  F  F9  1  0.51732804  0.29149113  0.83423883  1
  F  F10  1  0.59984325  0.89331015  0.40258285  1
  Ti  Ti11  1  0.67065518  0.13505494  0.64472549  1
  Ti  Ti12  1  0.22865499  0.03289675  0.14921538  1
  As  As13  1  0.74173632  0.07625273  0.15366808  1
  As  As14  1  0.66753027  0.48985968  0.00061088  1
  As  As15  1  0.67415291  0.59972699  0.00258492  1
  As  As16  1  0.91910365  0.55123749  0.02793323  1
  As  As17  1  0.10346651  0.02836761  0.52844558  1
  As  As18  1  0.64303205  0.55771109  0.29873129  1
