# generated using pymatgen
data_LiCuAs3
_symmetry_space_group_name_H-M   'P 1'
_cell_length_a   7.49772137
_cell_length_b   7.62075787
_cell_length_c   8.46514171
_cell_angle_alpha   90.47065299
_cell_angle_beta   92.42859049
_cell_angle_gamma   90.53165196
_symmetry_Int_Tables_number   1
_chemical_formula_structural   LiCuAs3
_chemical_formula_sum   'Li2 Cu2 As6'
_cell_volume   483.21078949
_cell_formula_units_Z   2
loop_
 _symmetry_equiv_pos_site_id
 _symmetry_equiv_pos_as_xyz
  1  'x, y, z'
loop_
 _atom_site_type_symbol
 _atom_site_label
 _atom_site_symmetry_multiplicity
 _atom_site_fract_x
 _atom_site_fract_y
 _atom_site_fract_z
 _atom_site_occupancy
  As  As0  1  0.00000000  0.00000000  0.00000000  1
  As  As1  1  0.50000000  0.50000000  0.50000000  1
  As  As2  1  0.25000000  0.25000000  0.25000000  1
  As  As3  1  0.75000000  0.25000000  0.00000000  1
  As  As4  1  0.25000000  0.75000000  0.50000000  1
  As  As5  1  0.54344521  0.61383875  0.15801413  1
  Li  Li6  1  0.80013311  0.37447501  0.59207524  1
  Li  Li7  1  0.59938103  0.03293723  0.06180991  1
  Cu  Cu8  1  0.86034959  0.59746030  0.83190980  1
  Cu  Cu9  1  0.47359586  0.98145795  0.30443808  1
