# generated using pymatgen
data_Li3Cu2As6(P2O)4
_symmetry_space_group_name_H-M   'P 1'
_cell_length_a   7.46558124
_cell_length_b   7.34466958
_cell_length_c   8.43461690
_cell_angle_alpha   92.54606358
_cell_angle_beta   93.22162162
_cell_angle_gamma   92.61299858
_symmetry_Int_Tables_number   1
_chemical_formula_structural   Li3Cu2As6(P2O)4
_chemical_formula_sum   'Li3 Cu2 As6 P8 O4'
_cell_volume   460.76570687
_cell_formula_units_Z   1
loop_
 _symmetry_equiv_pos_site_id
 _symmetry_equiv_pos_as_xyz
  1  'x, y, z'
loop_
 _atom_site_type_symbol
 _atom_site_label
 _atom_site_symmetry_multiplicity
 _atom_site_fract_x
 _atom_site_fract_y
 _atom_site_fract_z
 _atom_site_occupancy
  P  P0  1  0.00000000  0.00000000  0.00000000  1
  P  P1  1  0.50000000  0.50000000  0.50000000  1
  P  P2  1  0.50000000  0.50000000  0.00000000  1
  P  P3  1  0.50000000  0.00000000  0.50000000  1
  P  P4  1  0.00000000  0.50000000  0.50000000  1
  P  P5  1  0.18845510  0.07361196  0.93179464  1
  P  P6  1  0.69314697  0.81088690  0.28385130  1
  P  P7  1  0.78920219  0.06025831  0.76030513  1
  Li  Li8  1  0.13222612  0.35958254  0.70706861  1
  Li  Li9  1  0.38364984  0.02714188  0.42560472  1
  Li  Li10  1  0.46192095  0.15820683  0.74806350  1
  Cu  Cu11  1  0.38852852  0.33786546  0.87168225  1
  Cu  Cu12  1  0.18530749  0.40394705  0.28397784  1
  As  As13  1  0.28550308  0.44371927  0.61160279  1
  As  As14  1  0.29499022  0.61443972  0.59892862  1
  As  As15  1  0.02389422  0.89595550  0.44192209  1
  As  As16  1  0.68728075  0.99787830  0.54786361  1
  As  As17  1  0.73060269  0.64984699  0.98186221  1
  As  As18  1  0.69897784  0.68844028  0.73958598  1
  O  O19  1  0.10182527  0.62552843  0.50113020  1
  O  O20  1  0.84004010  0.06686303  0.28904830  1
  O  O21  1  0.01401202  0.30481023  0.49958400  1
  O  O22  1  0.47421785  0.54076207  0.97445060  1
