# generated using pymatgen
data_Li2TiP4
_symmetry_space_group_name_H-M   'P 1'
_cell_length_a   7.82146287
_cell_length_b   7.72445508
_cell_length_c   7.77151820
_cell_angle_alpha   93.05597667
_cell_angle_beta   93.24586542
_cell_angle_gamma   93.05206636
_symmetry_Int_Tables_number   1
_chemical_formula_structural   Li2TiP4
_chemical_formula_sum   'Li2 Ti1 P4'
_cell_volume   467.36238837
_cell_formula_units_Z   1
loop_
 _symmetry_equiv_pos_site_id
 _symmetry_equiv_pos_as_xyz
  1  'x, y, z'
loop_
 _atom_site_type_symbol
 _atom_site_label
 _atom_site_symmetry_multiplicity
 _atom_site_fract_x
 _atom_site_fract_y
 _atom_site_fract_z
 _atom_site_occupancy
  Ti  Ti0  1  0.12500000  0.00000000  0.25000000  1
  P  P1  1  0.00000000  0.00000000  0.00000000  1
  P  P2  1  0.37500000  0.00000000  0.25000000  1
  P  P3  1  0.25000000  0.25000000  0.25000000  1
  P  P4  1  0.00000000  0.25000000  0.12500000  1
  Li  Li5  1  0.84608291  0.79889746  0.59339518  1
  Li  Li6  1  0.16984719  0.06782000  0.80018604  1
