# generated using pymatgen
data_Li2TiCu2As6F3
_symmetry_space_group_name_H-M   'P 1'
_cell_length_a   7.71504015
_cell_length_b   7.64607652
_cell_length_c   8.38103849
_cell_angle_alpha   90.87920721
_cell_angle_beta   92.01577864
_cell_angle_gamma   91.00338579
_symmetry_Int_Tables_number   1
_chemical_formula_structural   Li2TiCu2As6F3
_chemical_formula_sum   'Li2 Ti1 Cu2 As6 F3'
_cell_volume   493.95095023
_cell_formula_units_Z   1
loop_
 _symmetry_equiv_pos_site_id
 _symmetry_equiv_pos_as_xyz
  1  'x, y, z'
loop_
 _atom_site_type_symbol
 _atom_site_label
 _atom_site_symmetry_multiplicity
 _atom_site_fract_x
 _atom_site_fract_y
 _atom_site_fract_z
 _atom_site_occupancy
  Li  Li0  1  0.00000000  0.00000000  0.00000000  1
  Li  Li1  1  0.50000000  0.50000000  0.50000000  1
  Cu  Cu2  1  0.25000000  0.25000000  0.25000000  1
  Cu  Cu3  1  0.75000000  0.25000000  0.00000000  1
  F  F4  1  0.25000000  0.75000000  0.50000000  1
  F  F5  1  0.91789168  0.83416692  0.03396451  1
  F  F6  1  0.50336949  0.01476199  0.92375580  1
  Ti  Ti7  1  0.19029832  0.80636487  0.52213565  1
  As  As8  1  0.07448529  0.28926970  0.97775446  1
  As  As9  1  0.27705191  0.94879949  0.19575327  1
  As  As10  1  0.48437791  0.79778117  0.50763725  1
  As  As11  1  0.68839711  0.08756601  0.04885741  1
  As  As12  1  0.87616551  0.64087720  0.71477115  1
  As  As13  1  0.35294574  0.36477260  0.84979003  1
