# generated using pymatgen
data_Li3LuP4N5
_symmetry_space_group_name_H-M   'P 1'
_cell_length_a   7.22906558
_cell_length_b   7.00264022
_cell_length_c   8.48217989
_cell_angle_alpha   94.46750435
_cell_angle_beta   93.53277634
_cell_angle_gamma   94.73751165
_symmetry_Int_Tables_number   1
_chemical_formula_structural   Li3LuP4N5
_chemical_formula_sum   'Li3 Lu1 P4 N5'
_cell_volume   425.62045266
_cell_formula_units_Z   1
loop_
 _symmetry_equiv_pos_site_id
 _symmetry_equiv_pos_as_xyz
  1  'x, y, z'
loop_
 _atom_site_type_symbol
 _atom_site_label
 _atom_site_symmetry_multiplicity
 _atom_site_fract_x
 _atom_site_fract_y
 _atom_site_fract_z
 _atom_site_occupancy
  P  P0  1  0.12500000  0.00000000  0.25000000  1
  P  P1  1  0.00000000  0.00000000  0.00000000  1
  P  P2  1  0.37500000  0.00000000  0.25000000  1
  P  P3  1  0.25000000  0.25000000  0.25000000  1
  Lu  Lu4  1  0.00000000  0.25000000  0.12500000  1
  Li  Li5  1  0.89245513  0.02335620  0.87964378  1
  Li  Li6  1  0.84101821  0.18821711  0.00791305  1
  Li  Li7  1  0.39796990  0.21150967  0.03086053  1
  N  N8  1  0.81641003  0.83593854  0.78184292  1
  N  N9  1  0.30428100  0.02817497  0.59972642  1
  N  N10  1  0.34686673  0.47473865  0.50578571  1
  N  N11  1  0.01719682  0.44494369  0.45942440  1
  N  N12  1  0.53748098  0.43935266  0.37539110  1
