# generated using pymatgen
data_Li2TiNi2O4F3
_symmetry_space_group_name_H-M   'P 1'
_cell_length_a   7.83679443
_cell_length_b   7.66621240
_cell_length_c   8.54528055
_cell_angle_alpha   91.20744519
_cell_angle_beta   91.18076434
_cell_angle_gamma   91.39764670
_symmetry_Int_Tables_number   1
_chemical_formula_structural   Li2TiNi2O4F3
_chemical_formula_sum   'Li2 Ti1 Ni2 O4 F3'
_cell_volume   513.00662160
_cell_formula_units_Z   1
loop_
 _symmetry_equiv_pos_site_id
 _symmetry_equiv_pos_as_xyz
  1  'x, y, z'
loop_
 _atom_site_type_symbol
 _atom_site_label
 _atom_site_symmetry_multiplicity
 _atom_site_fract_x
 _atom_site_fract_y
 _atom_site_fract_z
 _atom_site_occupancy
  Li  Li0  1  0.12500000  0.00000000  0.25000000  1
  Li  Li1  1  0.00000000  0.00000000  0.00000000  1
  F  F2  1  0.37500000  0.00000000  0.25000000  1
  F  F3  1  0.25000000  0.25000000  0.25000000  1
  F  F4  1  0.00000000  0.25000000  0.12500000  1
  Ni  Ni5  1  0.00982768  0.08272137  0.01633228  1
  Ni  Ni6  1  0.57714015  0.68683350  0.01940027  1
  Ti  Ti7  1  0.94101343  0.01965386  0.23287207  1
  O  O8  1  0.29850629  0.39037465  0.69023782  1
  O  O9  1  0.13605331  0.64303673  0.27809305  1
  O  O10  1  0.20643489  0.64378757  0.28808485  1
  O  O11  1  0.51923909  0.80916683  0.75430250  1
