# generated using pymatgen
data_LiCuAs3P2F
_symmetry_space_group_name_H-M   'P 1'
_cell_length_a   7.32535636
_cell_length_b   7.04520236
_cell_length_c   7.69261976
_cell_angle_alpha   91.83762475
_cell_angle_beta   92.90276919
_cell_angle_gamma   91.84053679
_symmetry_Int_Tables_number   1
_chemical_formula_structural   LiCuAs3P2F
_chemical_formula_sum   'Li2 Cu2 As6 P4 F2'
_cell_volume   396.06570088
_cell_formula_units_Z   2
loop_
 _symmetry_equiv_pos_site_id
 _symmetry_equiv_pos_as_xyz
  1  'x, y, z'
loop_
 _atom_site_type_symbol
 _atom_site_label
 _atom_site_symmetry_multiplicity
 _atom_site_fract_x
 _atom_site_fract_y
 _atom_site_fract_z
 _atom_site_occupancy
  P  P0  1  0.00000000  0.00000000  0.00000000  1
  P  P1  1  0.50000000  0.50000000  0.50000000  1
  P  P2  1  0.25000000  0.25000000  0.25000000  1
  P  P3  1  0.75000000  0.25000000  0.00000000  1
  Li  Li4  1  0.25000000  0.75000000  0.50000000  1
  Li  Li5  1  0.75986533  0.44553142  0.17394334  1
  Cu  Cu6  1  0.54295273  0.33083465  0.76069590  1
  Cu  Cu7  1  0.98560787  0.73546290  0.95250122  1
  F  F8  1  0.48726619  0.65601554  0.48339136  1
  F  F9  1  0.73752825  0.12121377  0.85141293  1
  As  As10  1  0.42034518  0.13983554  0.13636561  1
  As  As11  1  0.82653604  0.95755075  0.41445079  1
  As  As12  1  0.10782306  0.47478105  0.92789611  1
  As  As13  1  0.42597221  0.21533396  0.95915918  1
  As  As14  1  0.51235517  0.68949084  0.73129156  1
  As  As15  1  0.56546294  0.51295608  0.24283540  1
