# generated using pymatgen
data_Li2TiCu2P4F2
_symmetry_space_group_name_H-M   'P 1'
_cell_length_a   7.85523043
_cell_length_b   7.70631780
_cell_length_c   7.19872061
_cell_angle_alpha   90.76343128
_cell_angle_beta   91.55160628
_cell_angle_gamma   90.51527866
_symmetry_Int_Tables_number   1
_chemical_formula_structural   Li2TiCu2P4F2
_chemical_formula_sum   'Li2 Ti1 Cu2 P4 F2'
_cell_volume   435.55632476
_cell_formula_units_Z   1
loop_
 _symmetry_equiv_pos_site_id
 _symmetry_equiv_pos_as_xyz
  1  'x, y, z'
loop_
 _atom_site_type_symbol
 _atom_site_label
 _atom_site_symmetry_multiplicity
 _atom_site_fract_x
 _atom_site_fract_y
 _atom_site_fract_z
 _atom_site_occupancy
  P  P0  1  0.00000000  0.00000000  0.00000000  1
  P  P1  1  0.50000000  0.50000000  0.50000000  1
  P  P2  1  0.25000000  0.25000000  0.25000000  1
  P  P3  1  0.75000000  0.25000000  0.00000000  1
  Li  Li4  1  0.25000000  0.75000000  0.50000000  1
  Li  Li5  1  0.36086171  0.64227613  0.55437663  1
  Cu  Cu6  1  0.34062632  0.93710180  0.69324341  1
  Cu  Cu7  1  0.29651847  0.79490597  0.06316511  1
  F  F8  1  0.27918968  0.43438479  0.55314609  1
  F  F9  1  0.52137185  0.60242997  0.85090476  1
  Ti  Ti10  1  0.97537011  0.04859513  0.25235759  1
