# generated using pymatgen
data_Li2TiI4O3
_symmetry_space_group_name_H-M   'P 1'
_cell_length_a   8.36792495
_cell_length_b   8.22248294
_cell_length_c   7.37215248
_cell_angle_alpha   90.18704905
_cell_angle_beta   90.88992259
_cell_angle_gamma   90.21384702
_symmetry_Int_Tables_number   1
_chemical_formula_structural   Li2TiI4O3
_chemical_formula_sum   'Li2 Ti1 I4 O3'
_cell_volume   507.17432069
_cell_formula_units_Z   1
loop_
 _symmetry_equiv_pos_site_id
 _symmetry_equiv_pos_as_xyz
  1  'x, y, z'
loop_
 _atom_site_type_symbol
 _atom_site_label
 _atom_site_symmetry_multiplicity
 _atom_site_fract_x
 _atom_site_fract_y
 _atom_site_fract_z
 _atom_site_occupancy
  I  I0  1  0.12500000  0.12500000  0.12500000  1
  I  I1  1  0.50000000  0.50000000  0.50000000  1
  I  I2  1  0.25000000  0.25000000  0.25000000  1
  I  I3  1  0.75000000  0.75000000  0.75000000  1
  Li  Li4  1  0.49712075  0.88122926  0.35296330  1
  Li  Li5  1  0.03845333  0.47633863  0.95958038  1
  Ti  Ti6  1  0.04140599  0.42595144  0.51382658  1
  O  O7  1  0.64970455  0.84228780  0.37226447  1
  O  O8  1  0.51130043  0.47249572  0.86161016  1
  O  O9  1  0.84521622  0.51179773  0.05764908  1
