# generated using pymatgen
data_Li3TiI4N5
_symmetry_space_group_name_H-M   'P 1'
_cell_length_a   8.27568351
_cell_length_b   8.04911110
_cell_length_c   7.92913339
_cell_angle_alpha   91.43241356
_cell_angle_beta   90.50641834
_cell_angle_gamma   91.66142633
_symmetry_Int_Tables_number   1
_chemical_formula_structural   Li3TiI4N5
_chemical_formula_sum   'Li3 Ti1 I4 N5'
_cell_volume   527.76341558
_cell_formula_units_Z   1
loop_
 _symmetry_equiv_pos_site_id
 _symmetry_equiv_pos_as_xyz
  1  'x, y, z'
loop_
 _atom_site_type_symbol
 _atom_site_label
 _atom_site_symmetry_multiplicity
 _atom_site_fract_x
 _atom_site_fract_y
 _atom_site_fract_z
 _atom_site_occupancy
  I  I0  1  0.12500000  0.12500000  0.12500000  1
  I  I1  1  0.50000000  0.50000000  0.50000000  1
  I  I2  1  0.25000000  0.25000000  0.25000000  1
  I  I3  1  0.75000000  0.75000000  0.75000000  1
  Li  Li4  1  0.41811260  0.61382785  0.10388003  1
  Li  Li5  1  0.81701754  0.59476736  0.89338538  1
  Li  Li6  1  0.20265676  0.47020359  0.24031367  1
  Ti  Ti7  1  0.13462745  0.08014727  0.75726881  1
  N  N8  1  0.47297811  0.45595250  0.54723937  1
  N  N9  1  0.40730855  0.83356350  0.69327450  1
  N  N10  1  0.44010297  0.91784907  0.23732176  1
  N  N11  1  0.47471992  0.48200138  0.28667041  1
  N  N12  1  0.18763715  0.10669254  0.36356737  1
