# generated using pymatgen
data_Li3TiP8N5Cl2
_symmetry_space_group_name_H-M   'P 1'
_cell_length_a   6.80273619
_cell_length_b   6.48001680
_cell_length_c   7.71226873
_cell_angle_alpha   97.93952472
_cell_angle_beta   99.24600883
_cell_angle_gamma   97.68033539
_symmetry_Int_Tables_number   1
_chemical_formula_structural   Li3TiP8N5Cl2
_chemical_formula_sum   'Li3 Ti1 P8 N5 Cl2'
_cell_volume   328.08723312
_cell_formula_units_Z   1
loop_
 _symmetry_equiv_pos_site_id
 _symmetry_equiv_pos_as_xyz
  1  'x, y, z'
loop_
 _atom_site_type_symbol
 _atom_site_label
 _atom_site_symmetry_multiplicity
 _atom_site_fract_x
 _atom_site_fract_y
 _atom_site_fract_z
 _atom_site_occupancy
  Cl  Cl0  1  0.00000000  0.00000000  0.00000000  1
  Cl  Cl1  1  0.50000000  0.50000000  0.50000000  1
  Ti  Ti2  1  0.25000000  0.25000000  0.25000000  1
  P  P3  1  0.75000000  0.25000000  0.00000000  1
  P  P4  1  0.25000000  0.75000000  0.50000000  1
  P  P5  1  0.18998867  0.87472648  0.78413847  1
  P  P6  1  0.05190392  0.42717367  0.40922824  1
  P  P7  1  0.79878638  0.12609562  0.63205328  1
  P  P8  1  0.27545379  0.89420598  0.50135245  1
  P  P9  1  0.19500040  0.22911493  0.55589492  1
  P  P10  1  0.34813475  0.46782400  0.98945589  1
  Li  Li11  1  0.77139172  0.37813523  0.90513273  1
  Li  Li12  1  0.49225375  0.79961709  0.40404668  1
  Li  Li13  1  0.39743533  0.09794343  0.62474298  1
  N  N14  1  0.33542560  0.18079039  0.45159636  1
  N  N15  1  0.09973038  0.64643264  0.27402118  1
  N  N16  1  0.93931003  0.57917818  0.75841175  1
  N  N17  1  0.84662825  0.87613708  0.30312305  1
  N  N18  1  0.10297011  0.08804859  0.59843865  1
