# generated using pymatgen
data_Li2Mn2Sb4P3
_symmetry_space_group_name_H-M   'P 1'
_cell_length_a   5.28910930
_cell_length_b   5.66348427
_cell_length_c   6.73724651
_cell_angle_alpha   98.53250081
_cell_angle_beta   93.65209093
_cell_angle_gamma   98.81203078
_symmetry_Int_Tables_number   1
_chemical_formula_structural   Li2Mn2Sb4P3
_chemical_formula_sum   'Li2 Mn2 Sb4 P3'
_cell_volume   196.45051889
_cell_formula_units_Z   1
loop_
 _symmetry_equiv_pos_site_id
 _symmetry_equiv_pos_as_xyz
  1  'x, y, z'
loop_
 _atom_site_type_symbol
 _atom_site_label
 _atom_site_symmetry_multiplicity
 _atom_site_fract_x
 _atom_site_fract_y
 _atom_site_fract_z
 _atom_site_occupancy
  Mn  Mn0  1  0.00000000  0.00000000  0.00000000  1
  Mn  Mn1  1  0.50000000  0.50000000  0.50000000  1
  Sb  Sb2  1  0.50000000  0.50000000  0.00000000  1
  Sb  Sb3  1  0.50000000  0.00000000  0.50000000  1
  Sb  Sb4  1  0.00000000  0.50000000  0.50000000  1
  Sb  Sb5  1  0.71565675  0.30979076  0.94758734  1
  P  P6  1  0.31161194  0.39428902  0.48632517  1
  P  P7  1  0.68068631  0.75524962  0.09350169  1
  P  P8  1  0.83325454  0.80845326  0.48022165  1
  Li  Li9  1  0.52391146  0.05752972  0.53656189  1
  Li  Li10  1  0.65896149  0.00470642  0.83637448  1
