# generated using pymatgen
data_Li2LuTi2(NiAs3)2
_symmetry_space_group_name_H-M   'P 1'
_cell_length_a   7.35824625
_cell_length_b   7.07640860
_cell_length_c   7.99801013
_cell_angle_alpha   92.02794966
_cell_angle_beta   92.55213585
_cell_angle_gamma   92.14017925
_symmetry_Int_Tables_number   1
_chemical_formula_structural   Li2LuTi2(NiAs3)2
_chemical_formula_sum   'Li2 Lu1 Ti2 Ni2 As6'
_cell_volume   415.46634207
_cell_formula_units_Z   1
loop_
 _symmetry_equiv_pos_site_id
 _symmetry_equiv_pos_as_xyz
  1  'x, y, z'
loop_
 _atom_site_type_symbol
 _atom_site_label
 _atom_site_symmetry_multiplicity
 _atom_site_fract_x
 _atom_site_fract_y
 _atom_site_fract_z
 _atom_site_occupancy
  Lu  Lu0  1  0.12500000  0.00000000  0.25000000  1
  Li  Li1  1  0.00000000  0.00000000  0.00000000  1
  Li  Li2  1  0.37500000  0.00000000  0.25000000  1
  Ni  Ni3  1  0.25000000  0.25000000  0.25000000  1
  Ni  Ni4  1  0.00000000  0.25000000  0.12500000  1
  Ti  Ti5  1  0.85924060  0.05567172  0.80271544  1
  Ti  Ti6  1  0.32742277  0.11517048  0.28624147  1
  As  As7  1  0.75458695  0.59155745  0.67696194  1
  As  As8  1  0.32550734  0.44771209  0.07446402  1
  As  As9  1  0.39254338  0.18096174  0.50918610  1
  As  As10  1  0.83122221  0.15661570  0.64730257  1
  As  As11  1  0.86789208  0.14387218  0.83993094  1
  As  As12  1  0.41751405  0.15129503  0.94512446  1
