# generated using pymatgen
data_Li3Ti(As3I2)2
_symmetry_space_group_name_H-M   'P 1'
_cell_length_a   8.19001124
_cell_length_b   7.99814671
_cell_length_c   8.18439149
_cell_angle_alpha   91.28230414
_cell_angle_beta   90.61135358
_cell_angle_gamma   91.48672159
_symmetry_Int_Tables_number   1
_chemical_formula_structural   Li3Ti(As3I2)2
_chemical_formula_sum   'Li3 Ti1 As6 I4'
_cell_volume   535.76919757
_cell_formula_units_Z   1
loop_
 _symmetry_equiv_pos_site_id
 _symmetry_equiv_pos_as_xyz
  1  'x, y, z'
loop_
 _atom_site_type_symbol
 _atom_site_label
 _atom_site_symmetry_multiplicity
 _atom_site_fract_x
 _atom_site_fract_y
 _atom_site_fract_z
 _atom_site_occupancy
  I  I0  1  0.00000000  0.00000000  0.00000000  1
  I  I1  1  0.50000000  0.50000000  0.50000000  1
  I  I2  1  0.50000000  0.50000000  0.00000000  1
  I  I3  1  0.50000000  0.00000000  0.50000000  1
  Li  Li4  1  0.00000000  0.50000000  0.50000000  1
  Li  Li5  1  0.56110054  0.86280812  0.99954344  1
  Li  Li6  1  0.11344643  0.43647182  0.04296281  1
  Ti  Ti7  1  0.17219391  0.84149875  0.24707076  1
  As  As8  1  0.76424451  0.51184556  0.49855684  1
  As  As9  1  0.38342558  0.30756422  0.81331036  1
  As  As10  1  0.51049025  0.23607130  0.84348196  1
  As  As11  1  0.20601354  0.42097892  0.48170633  1
  As  As12  1  0.17572974  0.95703227  0.61519385  1
  As  As13  1  0.87292701  0.87633599  0.75177558  1
