# generated using pymatgen
data_Li4TiI4O4F3
_symmetry_space_group_name_H-M   'P 1'
_cell_length_a   7.05820728
_cell_length_b   6.84561431
_cell_length_c   6.98695247
_cell_angle_alpha   96.98470585
_cell_angle_beta   99.02001165
_cell_angle_gamma   96.55161680
_symmetry_Int_Tables_number   1
_chemical_formula_structural   Li4TiI4O4F3
_chemical_formula_sum   'Li4 Ti1 I4 O4 F3'
_cell_volume   327.87715550
_cell_formula_units_Z   1
loop_
 _symmetry_equiv_pos_site_id
 _symmetry_equiv_pos_as_xyz
  1  'x, y, z'
loop_
 _atom_site_type_symbol
 _atom_site_label
 _atom_site_symmetry_multiplicity
 _atom_site_fract_x
 _atom_site_fract_y
 _atom_site_fract_z
 _atom_site_occupancy
  I  I0  1  0.00000000  0.00000000  0.00000000  1
  I  I1  1  0.50000000  0.50000000  0.50000000  1
  I  I2  1  0.25000000  0.25000000  0.25000000  1
  I  I3  1  0.75000000  0.25000000  0.00000000  1
  Li  Li4  1  0.25000000  0.75000000  0.50000000  1
  Li  Li5  1  0.35213546  0.89020259  0.69587673  1
  Li  Li6  1  0.31505773  0.70186783  0.82440167  1
  Li  Li7  1  0.44960500  0.06923423  0.21972667  1
  F  F8  1  0.70014483  0.47894597  0.46058394  1
  F  F9  1  0.12651656  0.64357762  0.55858945  1
  F  F10  1  0.80027772  0.73519652  0.24219662  1
  Ti  Ti11  1  0.37286278  0.62923480  0.48284038  1
  O  O12  1  0.28669270  0.34639185  0.28351943  1
  O  O13  1  0.10528891  0.09108480  0.34268078  1
  O  O14  1  0.05850659  0.52952010  0.18313652  1
  O  O15  1  0.52621435  0.80275239  0.13018633  1
