# generated using pymatgen
data_Li3TiNi2As6O5
_symmetry_space_group_name_H-M   'P 1'
_cell_length_a   8.43863876
_cell_length_b   8.29808505
_cell_length_c   7.92164642
_cell_angle_alpha   90.63310580
_cell_angle_beta   90.40138700
_cell_angle_gamma   90.73365636
_symmetry_Int_Tables_number   1
_chemical_formula_structural   Li3TiNi2As6O5
_chemical_formula_sum   'Li3 Ti1 Ni2 As6 O5'
_cell_volume   554.61615785
_cell_formula_units_Z   1
loop_
 _symmetry_equiv_pos_site_id
 _symmetry_equiv_pos_as_xyz
  1  'x, y, z'
loop_
 _atom_site_type_symbol
 _atom_site_label
 _atom_site_symmetry_multiplicity
 _atom_site_fract_x
 _atom_site_fract_y
 _atom_site_fract_z
 _atom_site_occupancy
  Li  Li0  1  0.00000000  0.00000000  0.00000000  1
  Li  Li1  1  0.50000000  0.50000000  0.50000000  1
  Li  Li2  1  0.25000000  0.25000000  0.25000000  1
  Ni  Ni3  1  0.75000000  0.25000000  0.00000000  1
  Ni  Ni4  1  0.25000000  0.75000000  0.50000000  1
  Ti  Ti5  1  0.72543967  0.59867067  0.34946673  1
  As  As6  1  0.36012126  0.89698403  0.26717004  1
  As  As7  1  0.23923830  0.43324824  0.33774767  1
  As  As8  1  0.61254451  0.32016839  0.86808816  1
  As  As9  1  0.27273744  0.89752480  0.07118892  1
  As  As10  1  0.99854209  0.47989386  0.93838351  1
  As  As11  1  0.75865577  0.92399206  0.10613297  1
  O  O12  1  0.11684530  0.73779390  0.75823905  1
  O  O13  1  0.15081106  0.70686634  0.27176272  1
  O  O14  1  0.57666989  0.20227077  0.31817647  1
  O  O15  1  0.86485974  0.22114009  0.29611361  1
  O  O16  1  0.60466260  0.19038517  0.00625034  1
