# generated using pymatgen
data_LiCuNiTe3O2
_symmetry_space_group_name_H-M   'P 1'
_cell_length_a   5.99942278
_cell_length_b   5.87479173
_cell_length_c   7.08814240
_cell_angle_alpha   97.45487166
_cell_angle_beta   100.39938802
_cell_angle_gamma   97.84615231
_symmetry_Int_Tables_number   1
_chemical_formula_structural   LiCuNiTe3O2
_chemical_formula_sum   'Li2 Cu2 Ni2 Te6 O4'
_cell_volume   240.34489779
_cell_formula_units_Z   2
loop_
 _symmetry_equiv_pos_site_id
 _symmetry_equiv_pos_as_xyz
  1  'x, y, z'
loop_
 _atom_site_type_symbol
 _atom_site_label
 _atom_site_symmetry_multiplicity
 _atom_site_fract_x
 _atom_site_fract_y
 _atom_site_fract_z
 _atom_site_occupancy
  Li  Li0  1  0.00000000  0.00000000  0.00000000  1
  Li  Li1  1  0.50000000  0.50000000  0.50000000  1
  Cu  Cu2  1  0.25000000  0.25000000  0.25000000  1
  Cu  Cu3  1  0.75000000  0.25000000  0.00000000  1
  Ni  Ni4  1  0.25000000  0.75000000  0.50000000  1
  Ni  Ni5  1  0.74654248  0.81970712  0.72664835  1
  Te  Te6  1  0.66139813  0.30056620  0.74199782  1
  Te  Te7  1  0.10708051  0.14743829  0.93582132  1
  Te  Te8  1  0.07417953  0.98454041  0.69628846  1
  Te  Te9  1  0.41478462  0.30768074  0.51217892  1
  Te  Te10  1  0.13147858  0.59244988  0.00752457  1
  Te  Te11  1  0.00948043  0.92505518  0.45903989  1
  O  O12  1  0.37317949  0.71730039  0.22285700  1
  O  O13  1  0.74964632  0.76641784  0.69941043  1
  O  O14  1  0.12651197  0.00564664  0.05604155  1
  O  O15  1  0.29209682  0.99130305  0.82633918  1
