# generated using pymatgen
data_Li2TiTe6P4F2
_symmetry_space_group_name_H-M   'P 1'
_cell_length_a   6.65185096
_cell_length_b   6.47695214
_cell_length_c   7.41690655
_cell_angle_alpha   95.67388407
_cell_angle_beta   97.78720313
_cell_angle_gamma   95.14655078
_symmetry_Int_Tables_number   1
_chemical_formula_structural   Li2TiTe6P4F2
_chemical_formula_sum   'Li2 Ti1 Te6 P4 F2'
_cell_volume   313.32269094
_cell_formula_units_Z   1
loop_
 _symmetry_equiv_pos_site_id
 _symmetry_equiv_pos_as_xyz
  1  'x, y, z'
loop_
 _atom_site_type_symbol
 _atom_site_label
 _atom_site_symmetry_multiplicity
 _atom_site_fract_x
 _atom_site_fract_y
 _atom_site_fract_z
 _atom_site_occupancy
  P  P0  1  0.12500000  0.00000000  0.25000000  1
  P  P1  1  0.00000000  0.00000000  0.00000000  1
  P  P2  1  0.37500000  0.00000000  0.25000000  1
  P  P3  1  0.25000000  0.25000000  0.25000000  1
  Li  Li4  1  0.00000000  0.25000000  0.12500000  1
  Li  Li5  1  0.67818828  0.93908525  0.66292505  1
  F  F6  1  0.32761124  0.85212579  0.03579410  1
  F  F7  1  0.04572615  0.53339614  0.07400743  1
  Ti  Ti8  1  0.55460843  0.54063683  0.24842690  1
  Te  Te9  1  0.43650498  0.50775895  0.28301938  1
  Te  Te10  1  0.87190268  0.00542211  0.44795406  1
  Te  Te11  1  0.67954597  0.10431571  0.32273938  1
  Te  Te12  1  0.97285671  0.46293156  0.64566303  1
  Te  Te13  1  0.05513466  0.12954270  0.83992520  1
  Te  Te14  1  0.79827750  0.72413824  0.98898444  1
