# generated using pymatgen
data_Li2LuCu2(PN)5
_symmetry_space_group_name_H-M   'P 1'
_cell_length_a   7.47576057
_cell_length_b   7.32243374
_cell_length_c   7.92411721
_cell_angle_alpha   92.11474341
_cell_angle_beta   92.47171788
_cell_angle_gamma   92.24878428
_symmetry_Int_Tables_number   1
_chemical_formula_structural   Li2LuCu2(PN)5
_chemical_formula_sum   'Li2 Lu1 Cu2 P5 N5'
_cell_volume   432.71118477
_cell_formula_units_Z   1
loop_
 _symmetry_equiv_pos_site_id
 _symmetry_equiv_pos_as_xyz
  1  'x, y, z'
loop_
 _atom_site_type_symbol
 _atom_site_label
 _atom_site_symmetry_multiplicity
 _atom_site_fract_x
 _atom_site_fract_y
 _atom_site_fract_z
 _atom_site_occupancy
  P  P0  1  0.00000000  0.00000000  0.00000000  1
  P  P1  1  0.50000000  0.50000000  0.50000000  1
  P  P2  1  0.25000000  0.25000000  0.25000000  1
  P  P3  1  0.75000000  0.25000000  0.00000000  1
  P  P4  1  0.25000000  0.75000000  0.50000000  1
  Lu  Lu5  1  0.64245649  0.51958412  0.74415080  1
  Li  Li6  1  0.16137544  0.74798440  0.69980324  1
  Li  Li7  1  0.05399628  0.03186623  0.03511943  1
  Cu  Cu8  1  0.53323166  0.66522317  0.50027972  1
  Cu  Cu9  1  0.75432946  0.42788281  0.43235225  1
  N  N10  1  0.70283841  0.16507425  0.72175203  1
  N  N11  1  0.16309965  0.72363588  0.01145925  1
  N  N12  1  0.79808757  0.66155103  0.77109493  1
  N  N13  1  0.25882109  0.49339208  0.89417864  1
  N  N14  1  0.78333456  0.84597562  0.63763398  1
