# generated using pymatgen
data_Li2As6P5
_symmetry_space_group_name_H-M   'P 1'
_cell_length_a   6.59140676
_cell_length_b   6.30970650
_cell_length_c   7.69201064
_cell_angle_alpha   97.37851935
_cell_angle_beta   99.41824493
_cell_angle_gamma   97.04276318
_symmetry_Int_Tables_number   1
_chemical_formula_structural   Li2As6P5
_chemical_formula_sum   'Li2 As6 P5'
_cell_volume   309.59285046
_cell_formula_units_Z   1
loop_
 _symmetry_equiv_pos_site_id
 _symmetry_equiv_pos_as_xyz
  1  'x, y, z'
loop_
 _atom_site_type_symbol
 _atom_site_label
 _atom_site_symmetry_multiplicity
 _atom_site_fract_x
 _atom_site_fract_y
 _atom_site_fract_z
 _atom_site_occupancy
  P  P0  1  0.00000000  0.00000000  0.00000000  1
  P  P1  1  0.33300000  0.66700000  0.25000000  1
  P  P2  1  0.66700000  0.33300000  0.50000000  1
  P  P3  1  0.00000000  0.00000000  0.75000000  1
  P  P4  1  0.24619929  0.04069069  0.07160605  1
  As  As5  1  0.42801462  0.36800211  0.08113537  1
  As  As6  1  0.62307788  0.07023107  0.86664341  1
  As  As7  1  0.64927941  0.16233053  0.43713011  1
  As  As8  1  0.31042605  0.33055551  0.79102832  1
  As  As9  1  0.28120000  0.87919313  0.06866786  1
  As  As10  1  0.60205103  0.87890594  0.10034176  1
  Li  Li11  1  0.06678037  0.01051650  0.12555521  1
  Li  Li12  1  0.62742348  0.74626858  0.07253848  1
