# generated using pymatgen
data_Li4As6SeO5F3
_symmetry_space_group_name_H-M   'P 1'
_cell_length_a   6.41787442
_cell_length_b   6.15927307
_cell_length_c   7.80226958
_cell_angle_alpha   97.50502731
_cell_angle_beta   99.12464070
_cell_angle_gamma   97.27423571
_symmetry_Int_Tables_number   1
_chemical_formula_structural   Li4As6SeO5F3
_chemical_formula_sum   'Li4 As6 Se1 O5 F3'
_cell_volume   298.46870404
_cell_formula_units_Z   1
loop_
 _symmetry_equiv_pos_site_id
 _symmetry_equiv_pos_as_xyz
  1  'x, y, z'
loop_
 _atom_site_type_symbol
 _atom_site_label
 _atom_site_symmetry_multiplicity
 _atom_site_fract_x
 _atom_site_fract_y
 _atom_site_fract_z
 _atom_site_occupancy
  Li  Li0  1  0.12500000  0.00000000  0.25000000  1
  Li  Li1  1  0.00000000  0.00000000  0.00000000  1
  Li  Li2  1  0.37500000  0.00000000  0.25000000  1
  Li  Li3  1  0.25000000  0.25000000  0.25000000  1
  Se  Se4  1  0.00000000  0.25000000  0.12500000  1
  F  F5  1  0.09517799  0.30563514  0.01865662  1
  F  F6  1  0.83561863  0.75456360  0.56697148  1
  F  F7  1  0.57584001  0.40344705  0.28114129  1
  As  As8  1  0.39282243  0.04052944  0.93928666  1
  As  As9  1  0.92886313  0.57926025  0.62511993  1
  As  As10  1  0.09291665  0.20177540  0.09414484  1
  As  As11  1  0.44074373  0.96634668  0.46070842  1
  As  As12  1  0.22706038  0.30003328  0.47926862  1
  As  As13  1  0.44522002  0.93803546  0.88344649  1
  O  O14  1  0.59038373  0.32842862  0.68708408  1
  O  O15  1  0.67409005  0.22151746  0.39239719  1
  O  O16  1  0.28668565  0.65534005  0.01201704  1
  O  O17  1  0.95311715  0.84615287  0.61738263  1
  O  O18  1  0.23689590  0.86142865  0.69384632  1
