# generated using pymatgen
data_Li2LuCu2(As3P2)2
_symmetry_space_group_name_H-M   'P 1'
_cell_length_a   7.46068024
_cell_length_b   7.48420606
_cell_length_c   8.56195636
_cell_angle_alpha   91.37976475
_cell_angle_beta   91.98359048
_cell_angle_gamma   91.59471816
_symmetry_Int_Tables_number   1
_chemical_formula_structural   Li2LuCu2(As3P2)2
_chemical_formula_sum   'Li2 Lu1 Cu2 As6 P4'
_cell_volume   477.45464914
_cell_formula_units_Z   1
loop_
 _symmetry_equiv_pos_site_id
 _symmetry_equiv_pos_as_xyz
  1  'x, y, z'
loop_
 _atom_site_type_symbol
 _atom_site_label
 _atom_site_symmetry_multiplicity
 _atom_site_fract_x
 _atom_site_fract_y
 _atom_site_fract_z
 _atom_site_occupancy
  P  P0  1  0.12500000  0.00000000  0.25000000  1
  P  P1  1  0.00000000  0.00000000  0.00000000  1
  P  P2  1  0.37500000  0.00000000  0.25000000  1
  P  P3  1  0.25000000  0.25000000  0.25000000  1
  Lu  Lu4  1  0.00000000  0.25000000  0.12500000  1
  Li  Li5  1  0.13048558  0.67713140  0.67432701  1
  Li  Li6  1  0.84351032  0.39405189  0.24909924  1
  Cu  Cu7  1  0.54837696  0.08008685  0.43949183  1
  Cu  Cu8  1  0.99722148  0.04150807  0.33213714  1
  As  As9  1  0.17643820  0.70082078  0.71365839  1
  As  As10  1  0.16344910  0.56696324  0.38664404  1
  As  As11  1  0.42029176  0.47273558  0.11509638  1
  As  As12  1  0.52940934  0.22927180  0.96084665  1
  As  As13  1  0.11164669  0.15506850  0.71465384  1
  As  As14  1  0.43246408  0.26859058  0.29775876  1
