# generated using pymatgen
data_Li2TiP5I4N5
_symmetry_space_group_name_H-M   'P 1'
_cell_length_a   7.43166895
_cell_length_b   7.08975059
_cell_length_c   7.61068199
_cell_angle_alpha   92.25393507
_cell_angle_beta   92.90733061
_cell_angle_gamma   92.29859883
_symmetry_Int_Tables_number   1
_chemical_formula_structural   Li2TiP5I4N5
_chemical_formula_sum   'Li2 Ti1 P5 I4 N5'
_cell_volume   399.81452018
_cell_formula_units_Z   1
loop_
 _symmetry_equiv_pos_site_id
 _symmetry_equiv_pos_as_xyz
  1  'x, y, z'
loop_
 _atom_site_type_symbol
 _atom_site_label
 _atom_site_symmetry_multiplicity
 _atom_site_fract_x
 _atom_site_fract_y
 _atom_site_fract_z
 _atom_site_occupancy
  P  P0  1  0.00000000  0.00000000  0.00000000  1
  P  P1  1  0.50000000  0.50000000  0.50000000  1
  P  P2  1  0.50000000  0.50000000  0.00000000  1
  P  P3  1  0.50000000  0.00000000  0.50000000  1
  P  P4  1  0.00000000  0.50000000  0.50000000  1
  I  I5  1  0.20975351  0.02116024  0.16627964  1
  I  I6  1  0.55422656  0.38805766  0.01924657  1
  I  I7  1  0.49094988  0.60512903  0.51104757  1
  I  I8  1  0.32383432  0.52797733  0.15918281  1
  Li  Li9  1  0.00171023  0.91807641  0.79175547  1
  Li  Li10  1  0.08999172  0.52425989  0.68596232  1
  Ti  Ti11  1  0.61169240  0.24594065  0.20105780  1
  N  N12  1  0.13516736  0.15007465  0.38788368  1
  N  N13  1  0.41514356  0.59426344  0.32535918  1
  N  N14  1  0.93007939  0.66520929  0.62993636  1
  N  N15  1  0.31189823  0.35239277  0.36046976  1
  N  N16  1  0.50208712  0.11566592  0.88357214  1
