# generated using pymatgen
data_Li2TiP4I4O3
_symmetry_space_group_name_H-M   'P 1'
_cell_length_a   7.52669901
_cell_length_b   7.45773873
_cell_length_c   7.60351590
_cell_angle_alpha   92.83691113
_cell_angle_beta   94.16314339
_cell_angle_gamma   92.74979893
_symmetry_Int_Tables_number   1
_chemical_formula_structural   Li2TiP4I4O3
_chemical_formula_sum   'Li2 Ti1 P4 I4 O3'
_cell_volume   424.58381958
_cell_formula_units_Z   1
loop_
 _symmetry_equiv_pos_site_id
 _symmetry_equiv_pos_as_xyz
  1  'x, y, z'
loop_
 _atom_site_type_symbol
 _atom_site_label
 _atom_site_symmetry_multiplicity
 _atom_site_fract_x
 _atom_site_fract_y
 _atom_site_fract_z
 _atom_site_occupancy
  Ti  Ti0  1  0.00000000  0.00000000  0.00000000  1
  I  I1  1  0.50000000  0.50000000  0.50000000  1
  I  I2  1  0.25000000  0.25000000  0.25000000  1
  I  I3  1  0.75000000  0.25000000  0.00000000  1
  I  I4  1  0.25000000  0.75000000  0.50000000  1
  O  O5  1  0.90326828  0.61341894  0.55679685  1
  O  O6  1  0.28635102  0.50107152  0.21303478  1
  O  O7  1  0.40102230  0.13654220  0.97202445  1
  P  P8  1  0.74181335  0.54549001  0.60033107  1
  P  P9  1  0.65825510  0.81768268  0.08142119  1
  P  P10  1  0.45275326  0.16531500  0.46972947  1
  P  P11  1  0.77298943  0.46726569  0.33662563  1
  Li  Li12  1  0.88152567  0.14824511  0.17559169  1
  Li  Li13  1  0.15083784  0.03455443  0.36473415  1
