# generated using pymatgen
data_Li2TiCu2(NiAs3)2
_symmetry_space_group_name_H-M   'P 1'
_cell_length_a   7.46439098
_cell_length_b   7.28914586
_cell_length_c   8.45085922
_cell_angle_alpha   91.58965356
_cell_angle_beta   91.68348214
_cell_angle_gamma   91.60834117
_symmetry_Int_Tables_number   1
_chemical_formula_structural   Li2TiCu2(NiAs3)2
_chemical_formula_sum   'Li2 Ti1 Cu2 Ni2 As6'
_cell_volume   459.23576872
_cell_formula_units_Z   1
loop_
 _symmetry_equiv_pos_site_id
 _symmetry_equiv_pos_as_xyz
  1  'x, y, z'
loop_
 _atom_site_type_symbol
 _atom_site_label
 _atom_site_symmetry_multiplicity
 _atom_site_fract_x
 _atom_site_fract_y
 _atom_site_fract_z
 _atom_site_occupancy
  Li  Li0  1  0.12500000  0.00000000  0.25000000  1
  Li  Li1  1  0.00000000  0.00000000  0.00000000  1
  Cu  Cu2  1  0.37500000  0.00000000  0.25000000  1
  Cu  Cu3  1  0.25000000  0.25000000  0.25000000  1
  Ni  Ni4  1  0.00000000  0.25000000  0.12500000  1
  Ni  Ni5  1  0.24558354  0.68262172  0.92955028  1
  Ti  Ti6  1  0.11609048  0.62337667  0.07479731  1
  As  As7  1  0.92819170  0.60906581  0.00714082  1
  As  As8  1  0.49166108  0.73439907  0.23544555  1
  As  As9  1  0.69229837  0.05669027  0.93470230  1
  As  As10  1  0.50196760  0.19441552  0.70592709  1
  As  As11  1  0.32264998  0.45369576  0.73194220  1
  As  As12  1  0.52467467  0.99109282  0.18772827  1
