# generated using pymatgen
data_LiNiAs3(PO)2
_symmetry_space_group_name_H-M   'P 1'
_cell_length_a   7.32120019
_cell_length_b   7.45505359
_cell_length_c   8.35105213
_cell_angle_alpha   91.54456642
_cell_angle_beta   93.20082817
_cell_angle_gamma   91.84851234
_symmetry_Int_Tables_number   1
_chemical_formula_structural   LiNiAs3(PO)2
_chemical_formula_sum   'Li2 Ni2 As6 P4 O4'
_cell_volume   454.66315107
_cell_formula_units_Z   2
loop_
 _symmetry_equiv_pos_site_id
 _symmetry_equiv_pos_as_xyz
  1  'x, y, z'
loop_
 _atom_site_type_symbol
 _atom_site_label
 _atom_site_symmetry_multiplicity
 _atom_site_fract_x
 _atom_site_fract_y
 _atom_site_fract_z
 _atom_site_occupancy
  Ni  Ni0  1  0.00000000  0.00000000  0.00000000  1
  Ni  Ni1  1  0.50000000  0.50000000  0.50000000  1
  O  O2  1  0.25000000  0.25000000  0.25000000  1
  O  O3  1  0.75000000  0.25000000  0.00000000  1
  O  O4  1  0.25000000  0.75000000  0.50000000  1
  O  O5  1  0.04887762  0.17342671  0.33273077  1
  P  P6  1  0.81650961  0.55873258  0.03485325  1
  P  P7  1  0.13102838  0.28261982  0.25087007  1
  P  P8  1  0.76327838  0.69638552  0.75709428  1
  P  P9  1  0.07833799  0.37218689  0.69749742  1
  As  As10  1  0.39870375  0.82898663  0.53946737  1
  As  As11  1  0.42003020  0.80537591  0.59705982  1
  As  As12  1  0.46882695  0.89568246  0.89245024  1
  As  As13  1  0.73500980  0.37910406  0.93007107  1
  As  As14  1  0.84209657  0.61617984  0.50167842  1
  As  As15  1  0.75304665  0.47900089  0.01472403  1
  Li  Li16  1  0.96701724  0.64307340  0.64613368  1
  Li  Li17  1  0.36856158  0.00050873  0.61766951  1
