# generated using pymatgen
data_Li2F3
_symmetry_space_group_name_H-M   'P 1'
_cell_length_a   7.69893983
_cell_length_b   7.65406964
_cell_length_c   8.16997418
_cell_angle_alpha   90.40528311
_cell_angle_beta   92.24552897
_cell_angle_gamma   90.45257215
_symmetry_Int_Tables_number   1
_chemical_formula_structural   Li2F3
_chemical_formula_sum   'Li2 F3'
_cell_volume   481.04420849
_cell_formula_units_Z   1
loop_
 _symmetry_equiv_pos_site_id
 _symmetry_equiv_pos_as_xyz
  1  'x, y, z'
loop_
 _atom_site_type_symbol
 _atom_site_label
 _atom_site_symmetry_multiplicity
 _atom_site_fract_x
 _atom_site_fract_y
 _atom_site_fract_z
 _atom_site_occupancy
  Li  Li0  1  0.00000000  0.00000000  0.00000000  1
  Li  Li1  1  0.50000000  0.50000000  0.50000000  1
  F  F2  1  0.50000000  0.50000000  0.00000000  1
  F  F3  1  0.50000000  0.00000000  0.50000000  1
  F  F4  1  0.00000000  0.50000000  0.50000000  1
