# generated using pymatgen
data_Li2LuCu2(As3P2)2
_symmetry_space_group_name_H-M   'P 1'
_cell_length_a   7.62501632
_cell_length_b   7.43843281
_cell_length_c   8.01415012
_cell_angle_alpha   91.29603281
_cell_angle_beta   91.65028014
_cell_angle_gamma   91.40567444
_symmetry_Int_Tables_number   1
_chemical_formula_structural   Li2LuCu2(As3P2)2
_chemical_formula_sum   'Li2 Lu1 Cu2 As6 P4'
_cell_volume   454.09892505
_cell_formula_units_Z   1
loop_
 _symmetry_equiv_pos_site_id
 _symmetry_equiv_pos_as_xyz
  1  'x, y, z'
loop_
 _atom_site_type_symbol
 _atom_site_label
 _atom_site_symmetry_multiplicity
 _atom_site_fract_x
 _atom_site_fract_y
 _atom_site_fract_z
 _atom_site_occupancy
  P  P0  1  0.00000000  0.00000000  0.00000000  1
  P  P1  1  0.50000000  0.50000000  0.50000000  1
  P  P2  1  0.25000000  0.25000000  0.25000000  1
  P  P3  1  0.75000000  0.25000000  0.00000000  1
  Lu  Lu4  1  0.25000000  0.75000000  0.50000000  1
  Li  Li5  1  0.07358132  0.82719268  0.18151308  1
  Li  Li6  1  0.72954802  0.57812223  0.72330200  1
  Cu  Cu7  1  0.77169692  0.19374809  0.37172267  1
  Cu  Cu8  1  0.72630407  0.11137083  0.60886469  1
  As  As9  1  0.05177985  0.83462210  0.63216529  1
  As  As10  1  0.49880831  0.77988781  0.50228401  1
  As  As11  1  0.94610653  0.12069456  0.62433789  1
  As  As12  1  0.09534628  0.16617608  0.46225819  1
  As  As13  1  0.28370492  0.31152410  0.48690488  1
  As  As14  1  0.03508614  0.35228887  0.28946502  1
