# generated using pymatgen
data_LiTi2N3F2
_symmetry_space_group_name_H-M   'P 1'
_cell_length_a   6.76351548
_cell_length_b   6.58158100
_cell_length_c   7.94285197
_cell_angle_alpha   92.06720542
_cell_angle_beta   94.42623733
_cell_angle_gamma   92.38376948
_symmetry_Int_Tables_number   1
_chemical_formula_structural   LiTi2N3F2
_chemical_formula_sum   'Li1 Ti2 N3 F2'
_cell_volume   351.93954975
_cell_formula_units_Z   1
loop_
 _symmetry_equiv_pos_site_id
 _symmetry_equiv_pos_as_xyz
  1  'x, y, z'
loop_
 _atom_site_type_symbol
 _atom_site_label
 _atom_site_symmetry_multiplicity
 _atom_site_fract_x
 _atom_site_fract_y
 _atom_site_fract_z
 _atom_site_occupancy
  Li  Li0  1  0.12500000  0.00000000  0.25000000  1
  F  F1  1  0.00000000  0.00000000  0.00000000  1
  F  F2  1  0.37500000  0.00000000  0.25000000  1
  Ti  Ti3  1  0.25000000  0.25000000  0.25000000  1
  Ti  Ti4  1  0.00000000  0.25000000  0.12500000  1
  N  N5  1  0.18118869  0.84950802  0.53650281  1
  N  N6  1  0.02308533  0.02647069  0.23951989  1
  N  N7  1  0.44410393  0.15197195  0.69120409  1
