# generated using pymatgen
data_Li2LuCu2As6P5
_symmetry_space_group_name_H-M   'P 1'
_cell_length_a   7.57676081
_cell_length_b   7.40242405
_cell_length_c   8.29730775
_cell_angle_alpha   92.55471059
_cell_angle_beta   92.57946124
_cell_angle_gamma   92.70759049
_symmetry_Int_Tables_number   1
_chemical_formula_structural   Li2LuCu2As6P5
_chemical_formula_sum   'Li2 Lu1 Cu2 As6 P5'
_cell_volume   463.86676893
_cell_formula_units_Z   1
loop_
 _symmetry_equiv_pos_site_id
 _symmetry_equiv_pos_as_xyz
  1  'x, y, z'
loop_
 _atom_site_type_symbol
 _atom_site_label
 _atom_site_symmetry_multiplicity
 _atom_site_fract_x
 _atom_site_fract_y
 _atom_site_fract_z
 _atom_site_occupancy
  P  P0  1  0.00000000  0.00000000  0.00000000  1
  P  P1  1  0.50000000  0.50000000  0.50000000  1
  P  P2  1  0.50000000  0.50000000  0.00000000  1
  P  P3  1  0.50000000  0.00000000  0.50000000  1
  P  P4  1  0.00000000  0.50000000  0.50000000  1
  Lu  Lu5  1  0.39734334  0.86922146  0.85687925  1
  Li  Li6  1  0.97243436  0.76720252  0.44026466  1
  Li  Li7  1  0.11287712  0.19726957  0.27541510  1
  Cu  Cu8  1  0.55327691  0.19116887  0.13742924  1
  Cu  Cu9  1  0.48148754  0.47971845  0.97785193  1
  As  As10  1  0.49399857  0.09422609  0.42827500  1
  As  As11  1  0.52500927  0.05477494  0.17649636  1
  As  As12  1  0.93581572  0.19000607  0.12014164  1
  As  As13  1  0.43974551  0.28027539  0.84887031  1
  As  As14  1  0.47642374  0.99698033  0.20392312  1
  As  As15  1  0.97979277  0.01500183  0.62759178  1
