# generated using pymatgen
data_Li2As6P5
_symmetry_space_group_name_H-M   'P 1'
_cell_length_a   7.19884272
_cell_length_b   7.09319873
_cell_length_c   7.84734769
_cell_angle_alpha   91.52297786
_cell_angle_beta   93.43779300
_cell_angle_gamma   91.48776679
_symmetry_Int_Tables_number   1
_chemical_formula_structural   Li2As6P5
_chemical_formula_sum   'Li2 As6 P5'
_cell_volume   399.69283860
_cell_formula_units_Z   1
loop_
 _symmetry_equiv_pos_site_id
 _symmetry_equiv_pos_as_xyz
  1  'x, y, z'
loop_
 _atom_site_type_symbol
 _atom_site_label
 _atom_site_symmetry_multiplicity
 _atom_site_fract_x
 _atom_site_fract_y
 _atom_site_fract_z
 _atom_site_occupancy
  P  P0  1  0.00000000  0.00000000  0.00000000  1
  P  P1  1  0.33300000  0.66700000  0.25000000  1
  P  P2  1  0.66700000  0.33300000  0.50000000  1
  P  P3  1  0.00000000  0.00000000  0.75000000  1
  P  P4  1  0.78177832  0.04765891  0.89926979  1
  As  As5  1  0.32900299  0.27749463  0.75756462  1
  As  As6  1  0.67395110  0.08149861  0.41275095  1
  As  As7  1  0.00248449  0.53142074  0.50818858  1
  As  As8  1  0.83776122  0.99919667  0.77384705  1
  As  As9  1  0.92821528  0.18643384  0.84111169  1
  As  As10  1  0.88375765  0.26342978  0.70101435  1
  Li  Li11  1  0.37793584  0.91095761  0.97276487  1
  Li  Li12  1  0.39169534  0.92942496  0.23455104  1
