# generated using pymatgen
data_Li3Ti(IO)4
_symmetry_space_group_name_H-M   'P 1'
_cell_length_a   8.84534520
_cell_length_b   8.72475817
_cell_length_c   7.34366576
_cell_angle_alpha   90.00000000
_cell_angle_beta   90.00000000
_cell_angle_gamma   90.00000000
_symmetry_Int_Tables_number   1
_chemical_formula_structural   Li3Ti(IO)4
_chemical_formula_sum   'Li3 Ti1 I4 O4'
_cell_volume   566.73637370
_cell_formula_units_Z   1
loop_
 _symmetry_equiv_pos_site_id
 _symmetry_equiv_pos_as_xyz
  1  'x, y, z'
loop_
 _atom_site_type_symbol
 _atom_site_label
 _atom_site_symmetry_multiplicity
 _atom_site_fract_x
 _atom_site_fract_y
 _atom_site_fract_z
 _atom_site_occupancy
  I  I0  1  0.00000000  0.00000000  0.00000000  1
  I  I1  1  0.50000000  0.50000000  0.50000000  1
  I  I2  1  0.50000000  0.50000000  0.00000000  1
  I  I3  1  0.50000000  0.00000000  0.50000000  1
  Li  Li4  1  0.00000000  0.50000000  0.50000000  1
  Li  Li5  1  0.44743505  0.91090593  0.49846802  1
  Li  Li6  1  0.35639396  0.18165771  0.80572202  1
  Ti  Ti7  1  0.37040235  0.45600306  0.24053299  1
  O  O8  1  0.68396380  0.92093339  0.96430186  1
  O  O9  1  0.60604935  0.38026138  0.18015555  1
  O  O10  1  0.49232952  0.97491308  0.42219349  1
  O  O11  1  0.27659511  0.86782880  0.20875070  1
