# generated using pymatgen
data_LiMn3Mo2P3
_symmetry_space_group_name_H-M   'P 1'
_cell_length_a   7.03231731
_cell_length_b   7.52652965
_cell_length_c   7.00883227
_cell_angle_alpha   90.04252371
_cell_angle_beta   89.29811960
_cell_angle_gamma   89.71552769
_symmetry_Int_Tables_number   1
_chemical_formula_structural   LiMn3Mo2P3
_chemical_formula_sum   'Li1 Mn3 Mo2 P3'
_cell_volume   370.93756955
_cell_formula_units_Z   1
loop_
 _symmetry_equiv_pos_site_id
 _symmetry_equiv_pos_as_xyz
  1  'x, y, z'
loop_
 _atom_site_type_symbol
 _atom_site_label
 _atom_site_symmetry_multiplicity
 _atom_site_fract_x
 _atom_site_fract_y
 _atom_site_fract_z
 _atom_site_occupancy
  Mn  Mn0  1  0.00000000  0.00000000  0.00000000  1
  Mn  Mn1  1  0.33300000  0.66700000  0.25000000  1
  Mn  Mn2  1  0.66700000  0.33300000  0.50000000  1
  P  P3  1  0.00000000  0.00000000  0.75000000  1
  P  P4  1  0.47857323  0.68533742  0.00896081  1
  P  P5  1  0.02609783  0.73105577  0.92890594  1
  Mo  Mo6  1  0.35756091  0.08499959  0.73659807  1
  Mo  Mo7  1  0.14822095  0.88778071  0.01294133  1
  Li  Li8  1  0.02409418  0.26067637  0.10415165  1
