# generated using pymatgen
data_LiTi2Ni2(As2S)3
_symmetry_space_group_name_H-M   'P 1'
_cell_length_a   7.18288477
_cell_length_b   7.16301010
_cell_length_c   8.43091208
_cell_angle_alpha   91.28512381
_cell_angle_beta   93.07144917
_cell_angle_gamma   91.48071666
_symmetry_Int_Tables_number   1
_chemical_formula_structural   LiTi2Ni2(As2S)3
_chemical_formula_sum   'Li1 Ti2 Ni2 As6 S3'
_cell_volume   432.88851506
_cell_formula_units_Z   1
loop_
 _symmetry_equiv_pos_site_id
 _symmetry_equiv_pos_as_xyz
  1  'x, y, z'
loop_
 _atom_site_type_symbol
 _atom_site_label
 _atom_site_symmetry_multiplicity
 _atom_site_fract_x
 _atom_site_fract_y
 _atom_site_fract_z
 _atom_site_occupancy
  Li  Li0  1  0.00000000  0.00000000  0.00000000  1
  S  S1  1  0.50000000  0.50000000  0.50000000  1
  S  S2  1  0.25000000  0.25000000  0.25000000  1
  S  S3  1  0.75000000  0.25000000  0.00000000  1
  Ti  Ti4  1  0.25000000  0.75000000  0.50000000  1
  Ti  Ti5  1  0.55917039  0.89672042  0.67535229  1
  Ni  Ni6  1  0.41983410  0.94557176  0.40892857  1
  Ni  Ni7  1  0.66011098  0.49085443  0.21151545  1
  As  As8  1  0.02964456  0.44420233  0.69070430  1
  As  As9  1  0.87291317  0.98380077  0.93451356  1
  As  As10  1  0.41812896  0.55611705  0.42364283  1
  As  As11  1  0.35619201  0.13218257  0.43549454  1
  As  As12  1  0.38214664  0.16786152  0.49096868  1
  As  As13  1  0.87921195  0.99443778  0.02562476  1
