# generated using pymatgen
data_Li3TiNi2As6O5
_symmetry_space_group_name_H-M   'P 1'
_cell_length_a   8.32460283
_cell_length_b   8.17865654
_cell_length_c   8.17031672
_cell_angle_alpha   90.76438209
_cell_angle_beta   90.48461574
_cell_angle_gamma   90.88578210
_symmetry_Int_Tables_number   1
_chemical_formula_structural   Li3TiNi2As6O5
_chemical_formula_sum   'Li3 Ti1 Ni2 As6 O5'
_cell_volume   556.13153991
_cell_formula_units_Z   1
loop_
 _symmetry_equiv_pos_site_id
 _symmetry_equiv_pos_as_xyz
  1  'x, y, z'
loop_
 _atom_site_type_symbol
 _atom_site_label
 _atom_site_symmetry_multiplicity
 _atom_site_fract_x
 _atom_site_fract_y
 _atom_site_fract_z
 _atom_site_occupancy
  Li  Li0  1  0.12500000  0.00000000  0.25000000  1
  Li  Li1  1  0.00000000  0.00000000  0.00000000  1
  Li  Li2  1  0.37500000  0.00000000  0.25000000  1
  Ni  Ni3  1  0.25000000  0.25000000  0.25000000  1
  Ni  Ni4  1  0.00000000  0.25000000  0.12500000  1
  Ti  Ti5  1  0.97317350  0.43363209  0.13564857  1
  As  As6  1  0.08588897  0.62653292  0.39732492  1
  As  As7  1  0.99509856  0.58423288  0.56889685  1
  As  As8  1  0.65952122  0.79303347  0.38518000  1
  As  As9  1  0.51925022  0.08481537  0.23087185  1
  As  As10  1  0.88811754  0.99658934  0.50863283  1
  As  As11  1  0.95480717  0.09459442  0.80629514  1
  O  O12  1  0.85715511  0.03053364  0.34569126  1
  O  O13  1  0.16394024  0.99751744  0.96328954  1
  O  O14  1  0.51798810  0.65512788  0.32019887  1
  O  O15  1  0.97399538  0.89884521  0.53941225  1
  O  O16  1  0.94190153  0.90788381  0.15221866  1
