# generated using pymatgen
data_Li3Ni2Te6I4O5
_symmetry_space_group_name_H-M   'P 1'
_cell_length_a   8.48183199
_cell_length_b   8.71815785
_cell_length_c   8.20516741
_cell_angle_alpha   90.00000000
_cell_angle_beta   90.00000000
_cell_angle_gamma   90.00000000
_symmetry_Int_Tables_number   1
_chemical_formula_structural   Li3Ni2Te6I4O5
_chemical_formula_sum   'Li3 Ni2 Te6 I4 O5'
_cell_volume   606.73889958
_cell_formula_units_Z   1
loop_
 _symmetry_equiv_pos_site_id
 _symmetry_equiv_pos_as_xyz
  1  'x, y, z'
loop_
 _atom_site_type_symbol
 _atom_site_label
 _atom_site_symmetry_multiplicity
 _atom_site_fract_x
 _atom_site_fract_y
 _atom_site_fract_z
 _atom_site_occupancy
  I  I0  1  0.12500000  0.00000000  0.25000000  1
  I  I1  1  0.00000000  0.00000000  0.00000000  1
  I  I2  1  0.37500000  0.00000000  0.25000000  1
  I  I3  1  0.25000000  0.25000000  0.25000000  1
  Li  Li4  1  0.00000000  0.25000000  0.12500000  1
  Li  Li5  1  0.64528707  0.80015460  0.24394048  1
  Li  Li6  1  0.55109163  0.10821660  0.66374095  1
  Ni  Ni7  1  0.85881572  0.85136475  0.18469008  1
  Ni  Ni8  1  0.54765291  0.26089120  0.02477977  1
  Te  Te9  1  0.33149159  0.94112881  0.40383655  1
  Te  Te10  1  0.40684936  0.65400879  0.51253175  1
  Te  Te11  1  0.45549767  0.20637506  0.38430094  1
  Te  Te12  1  0.96368609  0.38521207  0.09770466  1
  Te  Te13  1  0.42419081  0.29014785  0.78649169  1
  Te  Te14  1  0.01202791  0.10306370  0.67619371  1
  O  O15  1  0.90629254  0.93922752  0.80699259  1
  O  O16  1  0.31570009  0.78278043  0.36968717  1
  O  O17  1  0.36610634  0.06320031  0.55729899  1
  O  O18  1  0.91864704  0.28154645  0.00247125  1
  O  O19  1  0.39447470  0.64367459  0.65911249  1
