# generated using pymatgen
data_Li3LuTi(CuI2)2
_symmetry_space_group_name_H-M   'P 1'
_cell_length_a   6.85518618
_cell_length_b   6.64348400
_cell_length_c   7.85408295
_cell_angle_alpha   95.84807673
_cell_angle_beta   96.74218371
_cell_angle_gamma   95.76174420
_symmetry_Int_Tables_number   1
_chemical_formula_structural   Li3LuTi(CuI2)2
_chemical_formula_sum   'Li3 Lu1 Ti1 Cu2 I4'
_cell_volume   351.07808810
_cell_formula_units_Z   1
loop_
 _symmetry_equiv_pos_site_id
 _symmetry_equiv_pos_as_xyz
  1  'x, y, z'
loop_
 _atom_site_type_symbol
 _atom_site_label
 _atom_site_symmetry_multiplicity
 _atom_site_fract_x
 _atom_site_fract_y
 _atom_site_fract_z
 _atom_site_occupancy
  I  I0  1  0.00000000  0.00000000  0.00000000  1
  I  I1  1  0.50000000  0.50000000  0.50000000  1
  I  I2  1  0.25000000  0.25000000  0.25000000  1
  I  I3  1  0.75000000  0.25000000  0.00000000  1
  Lu  Lu4  1  0.25000000  0.75000000  0.50000000  1
  Li  Li5  1  0.64555834  0.35391790  0.30934816  1
  Li  Li6  1  0.30344825  0.34334574  0.29301635  1
  Li  Li7  1  0.44016060  0.24872039  0.34001794  1
  Cu  Cu8  1  0.47181760  0.65124436  0.30654726  1
  Cu  Cu9  1  0.85591949  0.44046896  0.72756673  1
  Ti  Ti10  1  0.81121691  0.85050435  0.74846379  1
