# generated using pymatgen
data_Li3TiI4N5O4
_symmetry_space_group_name_H-M   'P 1'
_cell_length_a   8.37794548
_cell_length_b   8.52948331
_cell_length_c   7.62099124
_cell_angle_alpha   90.83395286
_cell_angle_beta   90.29483735
_cell_angle_gamma   90.96728436
_symmetry_Int_Tables_number   1
_chemical_formula_structural   Li3TiI4N5O4
_chemical_formula_sum   'Li3 Ti1 I4 N5 O4'
_cell_volume   544.44937361
_cell_formula_units_Z   1
loop_
 _symmetry_equiv_pos_site_id
 _symmetry_equiv_pos_as_xyz
  1  'x, y, z'
loop_
 _atom_site_type_symbol
 _atom_site_label
 _atom_site_symmetry_multiplicity
 _atom_site_fract_x
 _atom_site_fract_y
 _atom_site_fract_z
 _atom_site_occupancy
  I  I0  1  0.00000000  0.00000000  0.00000000  1
  I  I1  1  0.50000000  0.50000000  0.50000000  1
  I  I2  1  0.25000000  0.25000000  0.25000000  1
  I  I3  1  0.75000000  0.25000000  0.00000000  1
  Li  Li4  1  0.25000000  0.75000000  0.50000000  1
  Li  Li5  1  0.23058872  0.03997012  0.23287128  1
  Li  Li6  1  0.25943189  0.03536113  0.17025234  1
  Ti  Ti7  1  0.41803194  0.91752585  0.52221296  1
  O  O8  1  0.53546701  0.82591792  0.07995421  1
  O  O9  1  0.38732450  0.74169548  0.84234671  1
  O  O10  1  0.41256255  0.79371819  0.54832389  1
  O  O11  1  0.87872553  0.52718693  0.19841958  1
  N  N12  1  0.92830434  0.77721407  0.90695711  1
  N  N13  1  0.13218903  0.14750423  0.56298337  1
  N  N14  1  0.15634559  0.21853161  0.73117856  1
  N  N15  1  0.68235843  0.03595050  0.68886260  1
  N  N16  1  0.92616049  0.80774368  0.21062158  1
