# generated using pymatgen
data_Li2TiI4(OF)3
_symmetry_space_group_name_H-M   'P 1'
_cell_length_a   8.33859017
_cell_length_b   8.19179663
_cell_length_c   7.44981595
_cell_angle_alpha   90.19158859
_cell_angle_beta   90.91152034
_cell_angle_gamma   90.21903692
_symmetry_Int_Tables_number   1
_chemical_formula_structural   Li2TiI4(OF)3
_chemical_formula_sum   'Li2 Ti1 I4 O3 F3'
_cell_volume   508.81122310
_cell_formula_units_Z   1
loop_
 _symmetry_equiv_pos_site_id
 _symmetry_equiv_pos_as_xyz
  1  'x, y, z'
loop_
 _atom_site_type_symbol
 _atom_site_label
 _atom_site_symmetry_multiplicity
 _atom_site_fract_x
 _atom_site_fract_y
 _atom_site_fract_z
 _atom_site_occupancy
  I  I0  1  0.00000000  0.00000000  0.00000000  1
  I  I1  1  0.50000000  0.50000000  0.50000000  1
  I  I2  1  0.25000000  0.25000000  0.25000000  1
  I  I3  1  0.75000000  0.25000000  0.00000000  1
  Li  Li4  1  0.25000000  0.75000000  0.50000000  1
  Li  Li5  1  0.42860295  0.34332088  0.36015271  1
  F  F6  1  0.21190209  0.65373005  0.34270106  1
  F  F7  1  0.47443486  0.60364742  0.95028173  1
  F  F8  1  0.58179842  0.09450218  0.75272486  1
  Ti  Ti9  1  0.42407186  0.66432585  0.27841002  1
  O  O10  1  0.90983531  0.51802781  0.99790617  1
  O  O11  1  0.83594671  0.80168809  0.41070076  1
  O  O12  1  0.17152735  0.91585966  0.18867193  1
