# generated using pymatgen
data_LiCuAs3
_symmetry_space_group_name_H-M   'P 1'
_cell_length_a   7.49639237
_cell_length_b   7.54484666
_cell_length_c   8.29508249
_cell_angle_alpha   90.91996941
_cell_angle_beta   92.01629893
_cell_angle_gamma   91.06067471
_symmetry_Int_Tables_number   1
_chemical_formula_structural   LiCuAs3
_chemical_formula_sum   'Li2 Cu2 As6'
_cell_volume   468.72630427
_cell_formula_units_Z   2
loop_
 _symmetry_equiv_pos_site_id
 _symmetry_equiv_pos_as_xyz
  1  'x, y, z'
loop_
 _atom_site_type_symbol
 _atom_site_label
 _atom_site_symmetry_multiplicity
 _atom_site_fract_x
 _atom_site_fract_y
 _atom_site_fract_z
 _atom_site_occupancy
  As  As0  1  0.00000000  0.00000000  0.00000000  1
  As  As1  1  0.50000000  0.50000000  0.50000000  1
  As  As2  1  0.25000000  0.25000000  0.25000000  1
  As  As3  1  0.75000000  0.25000000  0.00000000  1
  As  As4  1  0.25000000  0.75000000  0.50000000  1
  As  As5  1  0.85688808  0.41436461  0.58297965  1
  Li  Li6  1  0.56540855  0.33823191  0.00418776  1
  Li  Li7  1  0.46535088  0.84756810  0.59348548  1
  Cu  Cu8  1  0.18297852  0.81339706  0.22450719  1
  Cu  Cu9  1  0.44175687  0.28131675  0.65547037  1
