# generated using pymatgen
data_Li3(NiAs3)2
_symmetry_space_group_name_H-M   'P 1'
_cell_length_a   7.66143089
_cell_length_b   7.46493691
_cell_length_c   8.62158609
_cell_angle_alpha   91.67824706
_cell_angle_beta   91.22155605
_cell_angle_gamma   91.94419384
_symmetry_Int_Tables_number   1
_chemical_formula_structural   Li3(NiAs3)2
_chemical_formula_sum   'Li3 Ni2 As6'
_cell_volume   492.46848812
_cell_formula_units_Z   1
loop_
 _symmetry_equiv_pos_site_id
 _symmetry_equiv_pos_as_xyz
  1  'x, y, z'
loop_
 _atom_site_type_symbol
 _atom_site_label
 _atom_site_symmetry_multiplicity
 _atom_site_fract_x
 _atom_site_fract_y
 _atom_site_fract_z
 _atom_site_occupancy
  Li  Li0  1  0.12500000  0.12500000  0.12500000  1
  Li  Li1  1  0.50000000  0.50000000  0.50000000  1
  Li  Li2  1  0.25000000  0.25000000  0.25000000  1
  Ni  Ni3  1  0.75000000  0.75000000  0.75000000  1
  Ni  Ni4  1  0.33377037  0.18825559  0.26806863  1
  As  As5  1  0.35226215  0.61667095  0.60800426  1
  As  As6  1  0.38932105  0.13982587  0.35410169  1
  As  As7  1  0.08403280  0.50384132  0.96255073  1
  As  As8  1  0.99236974  0.67196181  0.61020263  1
  As  As9  1  0.77207244  0.47844504  0.67698092  1
  As  As10  1  0.38402117  0.13965139  0.59136066  1
