# generated using pymatgen
data_Li4Cu2As6P7O3
_symmetry_space_group_name_H-M   'P 1'
_cell_length_a   7.99108402
_cell_length_b   8.25481810
_cell_length_c   7.75152698
_cell_angle_alpha   91.63605089
_cell_angle_beta   92.56709090
_cell_angle_gamma   91.54959464
_symmetry_Int_Tables_number   1
_chemical_formula_structural   Li4Cu2As6P7O3
_chemical_formula_sum   'Li4 Cu2 As6 P7 O3'
_cell_volume   510.40228290
_cell_formula_units_Z   1
loop_
 _symmetry_equiv_pos_site_id
 _symmetry_equiv_pos_as_xyz
  1  'x, y, z'
loop_
 _atom_site_type_symbol
 _atom_site_label
 _atom_site_symmetry_multiplicity
 _atom_site_fract_x
 _atom_site_fract_y
 _atom_site_fract_z
 _atom_site_occupancy
  P  P0  1  0.00000000  0.00000000  0.00000000  1
  P  P1  1  0.50000000  0.50000000  0.50000000  1
  P  P2  1  0.25000000  0.25000000  0.25000000  1
  P  P3  1  0.75000000  0.25000000  0.00000000  1
  P  P4  1  0.25000000  0.75000000  0.50000000  1
  P  P5  1  0.86675019  0.49985771  0.55151249  1
  P  P6  1  0.88028888  0.06201763  0.26442920  1
  Li  Li7  1  0.47682398  0.49547006  0.18689812  1
  Li  Li8  1  0.75376258  0.10620522  0.01679473  1
  Li  Li9  1  0.40872634  0.44432939  0.28767183  1
  Li  Li10  1  0.56179359  0.81392218  0.82588463  1
  Cu  Cu11  1  0.97455159  0.32129274  0.16093652  1
  Cu  Cu12  1  0.07116597  0.91040883  0.87050859  1
  As  As13  1  0.01343740  0.82046462  0.49589188  1
  As  As14  1  0.55293320  0.26851735  0.71570043  1
  As  As15  1  0.42650574  0.30947096  0.50681410  1
  As  As16  1  0.22229351  0.90378824  0.54094761  1
  As  As17  1  0.50231717  0.01828598  0.21395537  1
  As  As18  1  0.64589457  0.13034403  0.19535880  1
  O  O19  1  0.20457359  0.94155712  0.02741058  1
  O  O20  1  0.71777231  0.85259048  0.82453456  1
  O  O21  1  0.19123758  0.65053755  0.27268725  1
