# generated using pymatgen
data_Li2LuTiP4N5
_symmetry_space_group_name_H-M   'P 1'
_cell_length_a   8.00619013
_cell_length_b   7.81514867
_cell_length_c   7.90188680
_cell_angle_alpha   91.16563091
_cell_angle_beta   91.04449133
_cell_angle_gamma   91.30023206
_symmetry_Int_Tables_number   1
_chemical_formula_structural   Li2LuTiP4N5
_chemical_formula_sum   'Li2 Lu1 Ti1 P4 N5'
_cell_volume   494.10163413
_cell_formula_units_Z   1
loop_
 _symmetry_equiv_pos_site_id
 _symmetry_equiv_pos_as_xyz
  1  'x, y, z'
loop_
 _atom_site_type_symbol
 _atom_site_label
 _atom_site_symmetry_multiplicity
 _atom_site_fract_x
 _atom_site_fract_y
 _atom_site_fract_z
 _atom_site_occupancy
  P  P0  1  0.12500000  0.00000000  0.25000000  1
  P  P1  1  0.00000000  0.00000000  0.00000000  1
  P  P2  1  0.37500000  0.00000000  0.25000000  1
  P  P3  1  0.25000000  0.25000000  0.25000000  1
  Lu  Lu4  1  0.00000000  0.25000000  0.12500000  1
  Li  Li5  1  0.11290482  0.32263929  0.50964212  1
  Li  Li6  1  0.46245262  0.31113913  0.51163975  1
  Ti  Ti7  1  0.34570833  0.96831682  0.44742383  1
  N  N8  1  0.54415323  0.96035551  0.40293940  1
  N  N9  1  0.16988585  0.96126166  0.96194335  1
  N  N10  1  0.55219227  0.84443700  0.65454185  1
  N  N11  1  0.83521678  0.35033533  0.45634593  1
  N  N12  1  0.75940818  0.12813640  0.04736078  1
