# generated using pymatgen
data_Li(TiP3)2
_symmetry_space_group_name_H-M   'P 1'
_cell_length_a   6.67619245
_cell_length_b   6.62362881
_cell_length_c   7.61015550
_cell_angle_alpha   91.11099941
_cell_angle_beta   95.28579779
_cell_angle_gamma   91.27016899
_symmetry_Int_Tables_number   1
_chemical_formula_structural   Li(TiP3)2
_chemical_formula_sum   'Li1 Ti2 P6'
_cell_volume   334.93476500
_cell_formula_units_Z   1
loop_
 _symmetry_equiv_pos_site_id
 _symmetry_equiv_pos_as_xyz
  1  'x, y, z'
loop_
 _atom_site_type_symbol
 _atom_site_label
 _atom_site_symmetry_multiplicity
 _atom_site_fract_x
 _atom_site_fract_y
 _atom_site_fract_z
 _atom_site_occupancy
  P  P0  1  0.00000000  0.00000000  0.00000000  1
  P  P1  1  0.33300000  0.66700000  0.25000000  1
  P  P2  1  0.66700000  0.33300000  0.50000000  1
  P  P3  1  0.00000000  0.00000000  0.75000000  1
  P  P4  1  0.09451625  0.99512548  0.72393569  1
  P  P5  1  0.65484895  0.52729653  0.55510942  1
  Li  Li6  1  0.47689017  0.28895657  0.33679845  1
  Ti  Ti7  1  0.98877298  0.93936037  0.22415361  1
  Ti  Ti8  1  0.67833954  0.64032297  0.45590800  1
