# generated using pymatgen
data_Li2Mn2Sb4P2N
_symmetry_space_group_name_H-M   'P 1'
_cell_length_a   5.58546247
_cell_length_b   6.05658121
_cell_length_c   6.82846619
_cell_angle_alpha   97.02327891
_cell_angle_beta   97.20567681
_cell_angle_gamma   95.29357850
_symmetry_Int_Tables_number   1
_chemical_formula_structural   Li2Mn2Sb4P2N
_chemical_formula_sum   'Li2 Mn2 Sb4 P2 N1'
_cell_volume   226.09286975
_cell_formula_units_Z   1
loop_
 _symmetry_equiv_pos_site_id
 _symmetry_equiv_pos_as_xyz
  1  'x, y, z'
loop_
 _atom_site_type_symbol
 _atom_site_label
 _atom_site_symmetry_multiplicity
 _atom_site_fract_x
 _atom_site_fract_y
 _atom_site_fract_z
 _atom_site_occupancy
  N  N0  1  0.00000000  0.00000000  0.00000000  1
  Mn  Mn1  1  0.50000000  0.50000000  0.50000000  1
  Mn  Mn2  1  0.25000000  0.25000000  0.25000000  1
  Sb  Sb3  1  0.75000000  0.25000000  0.00000000  1
  Sb  Sb4  1  0.25000000  0.75000000  0.50000000  1
  Sb  Sb5  1  0.46994237  0.64301117  0.75466011  1
  Sb  Sb6  1  0.39199997  0.90813434  0.86471714  1
  P  P7  1  0.14180922  0.91895404  0.09310451  1
  P  P8  1  0.50875250  0.60620566  0.13616022  1
  Li  Li9  1  0.05656606  0.91332394  0.58251131  1
  Li  Li10  1  0.36737466  0.85466115  0.72293184  1
