# generated using pymatgen
data_Li3TiI4(OF)3
_symmetry_space_group_name_H-M   'P 1'
_cell_length_a   6.68132361
_cell_length_b   6.44931999
_cell_length_c   7.18210804
_cell_angle_alpha   96.55569749
_cell_angle_beta   99.15429157
_cell_angle_gamma   96.18996991
_symmetry_Int_Tables_number   1
_chemical_formula_structural   Li3TiI4(OF)3
_chemical_formula_sum   'Li3 Ti1 I4 O3 F3'
_cell_volume   301.02287282
_cell_formula_units_Z   1
loop_
 _symmetry_equiv_pos_site_id
 _symmetry_equiv_pos_as_xyz
  1  'x, y, z'
loop_
 _atom_site_type_symbol
 _atom_site_label
 _atom_site_symmetry_multiplicity
 _atom_site_fract_x
 _atom_site_fract_y
 _atom_site_fract_z
 _atom_site_occupancy
  I  I0  1  0.00000000  0.00000000  0.00000000  1
  I  I1  1  0.50000000  0.50000000  0.50000000  1
  I  I2  1  0.25000000  0.25000000  0.25000000  1
  I  I3  1  0.75000000  0.25000000  0.00000000  1
  Li  Li4  1  0.25000000  0.75000000  0.50000000  1
  Li  Li5  1  0.86072580  0.58751806  0.27042778  1
  Li  Li6  1  0.26708928  0.11623540  0.50507529  1
  F  F7  1  0.57136291  0.98117844  0.63789444  1
  F  F8  1  0.37326907  0.57087123  0.82222749  1
  F  F9  1  0.54110015  0.68882718  0.83501375  1
  Ti  Ti10  1  0.15247680  0.34492359  0.20292800  1
  O  O11  1  0.98171963  0.85533991  0.56061127  1
  O  O12  1  0.88937448  0.14512871  0.74387908  1
  O  O13  1  0.30780880  0.71315748  0.22123924  1
