# generated using pymatgen
data_Li3Ti(IO)4
_symmetry_space_group_name_H-M   'P 1'
_cell_length_a   8.86245267
_cell_length_b   8.74258696
_cell_length_c   7.26947218
_cell_angle_alpha   90.00000000
_cell_angle_beta   90.00000000
_cell_angle_gamma   90.00000000
_symmetry_Int_Tables_number   1
_chemical_formula_structural   Li3Ti(IO)4
_chemical_formula_sum   'Li3 Ti1 I4 O4'
_cell_volume   563.24425267
_cell_formula_units_Z   1
loop_
 _symmetry_equiv_pos_site_id
 _symmetry_equiv_pos_as_xyz
  1  'x, y, z'
loop_
 _atom_site_type_symbol
 _atom_site_label
 _atom_site_symmetry_multiplicity
 _atom_site_fract_x
 _atom_site_fract_y
 _atom_site_fract_z
 _atom_site_occupancy
  I  I0  1  0.12500000  0.00000000  0.25000000  1
  I  I1  1  0.00000000  0.00000000  0.00000000  1
  I  I2  1  0.37500000  0.00000000  0.25000000  1
  I  I3  1  0.25000000  0.25000000  0.25000000  1
  Li  Li4  1  0.00000000  0.25000000  0.12500000  1
  Li  Li5  1  0.01668338  0.13900624  0.40379700  1
  Li  Li6  1  0.45407222  0.57570493  0.47503237  1
  Ti  Ti7  1  0.42795966  0.16824870  0.67923810  1
  O  O8  1  0.36437367  0.62162508  0.77188097  1
  O  O9  1  0.01121257  0.31494138  0.03748700  1
  O  O10  1  0.65065255  0.66952155  0.48890665  1
  O  O11  1  0.62649574  0.09949569  0.73045062  1
