# generated using pymatgen
data_Li2Lu(CuP2)2
_symmetry_space_group_name_H-M   'P 1'
_cell_length_a   7.15423619
_cell_length_b   7.06055833
_cell_length_c   8.13780840
_cell_angle_alpha   94.63062819
_cell_angle_beta   94.96266417
_cell_angle_gamma   94.64917899
_symmetry_Int_Tables_number   1
_chemical_formula_structural   Li2Lu(CuP2)2
_chemical_formula_sum   'Li2 Lu1 Cu2 P4'
_cell_volume   406.57919122
_cell_formula_units_Z   1
loop_
 _symmetry_equiv_pos_site_id
 _symmetry_equiv_pos_as_xyz
  1  'x, y, z'
loop_
 _atom_site_type_symbol
 _atom_site_label
 _atom_site_symmetry_multiplicity
 _atom_site_fract_x
 _atom_site_fract_y
 _atom_site_fract_z
 _atom_site_occupancy
  P  P0  1  0.00000000  0.00000000  0.00000000  1
  P  P1  1  0.33300000  0.66700000  0.25000000  1
  P  P2  1  0.66700000  0.33300000  0.50000000  1
  P  P3  1  0.00000000  0.00000000  0.75000000  1
  Lu  Lu4  1  0.93182491  0.38352242  0.33993645  1
  Li  Li5  1  0.97143234  0.85457979  0.18419004  1
  Li  Li6  1  0.37681760  0.14370028  0.62292317  1
  Cu  Cu7  1  0.59711208  0.72292072  0.27588150  1
  Cu  Cu8  1  0.58255531  0.98456536  0.47781328  1
