# generated using pymatgen
data_Li3Ti2(SF)2
_symmetry_space_group_name_H-M   'P 1'
_cell_length_a   4.67041336
_cell_length_b   4.44362101
_cell_length_c   7.06020451
_cell_angle_alpha   97.43688375
_cell_angle_beta   101.56627193
_cell_angle_gamma   96.91752654
_symmetry_Int_Tables_number   1
_chemical_formula_structural   Li3Ti2(SF)2
_chemical_formula_sum   'Li3 Ti2 S2 F2'
_cell_volume   140.71587911
_cell_formula_units_Z   1
loop_
 _symmetry_equiv_pos_site_id
 _symmetry_equiv_pos_as_xyz
  1  'x, y, z'
loop_
 _atom_site_type_symbol
 _atom_site_label
 _atom_site_symmetry_multiplicity
 _atom_site_fract_x
 _atom_site_fract_y
 _atom_site_fract_z
 _atom_site_occupancy
  F  F0  1  0.00000000  0.00000000  0.00000000  1
  F  F1  1  0.50000000  0.50000000  0.50000000  1
  S  S2  1  0.50000000  0.50000000  0.00000000  1
  S  S3  1  0.50000000  0.00000000  0.50000000  1
  Ti  Ti4  1  0.00000000  0.50000000  0.50000000  1
  Ti  Ti5  1  0.53777132  0.19593240  0.45239789  1
  Li  Li6  1  0.75633603  0.60963694  0.03961386  1
  Li  Li7  1  0.75147371  0.08797073  0.84222180  1
  Li  Li8  1  0.14038938  0.49553384  0.49632865  1
