# generated using pymatgen
data_Li2LuCu2(As3P2)2
_symmetry_space_group_name_H-M   'P 1'
_cell_length_a   7.22982080
_cell_length_b   7.26434491
_cell_length_c   8.17996656
_cell_angle_alpha   93.05234950
_cell_angle_beta   94.93619281
_cell_angle_gamma   92.95989096
_symmetry_Int_Tables_number   1
_chemical_formula_structural   Li2LuCu2(As3P2)2
_chemical_formula_sum   'Li2 Lu1 Cu2 As6 P4'
_cell_volume   426.72758436
_cell_formula_units_Z   1
loop_
 _symmetry_equiv_pos_site_id
 _symmetry_equiv_pos_as_xyz
  1  'x, y, z'
loop_
 _atom_site_type_symbol
 _atom_site_label
 _atom_site_symmetry_multiplicity
 _atom_site_fract_x
 _atom_site_fract_y
 _atom_site_fract_z
 _atom_site_occupancy
  P  P0  1  0.00000000  0.00000000  0.00000000  1
  P  P1  1  0.50000000  0.50000000  0.50000000  1
  P  P2  1  0.50000000  0.50000000  0.00000000  1
  P  P3  1  0.50000000  0.00000000  0.50000000  1
  Lu  Lu4  1  0.00000000  0.50000000  0.50000000  1
  As  As5  1  0.35552950  0.80499384  0.76555485  1
  As  As6  1  0.72287303  0.23841473  0.09790712  1
  As  As7  1  0.00530358  0.12087278  0.20914142  1
  As  As8  1  0.72647356  0.94854234  0.06194807  1
  As  As9  1  0.44999033  0.25092885  0.86397426  1
  As  As10  1  0.37113529  0.93010190  0.10336235  1
  Li  Li11  1  0.20778591  0.01887912  0.94987190  1
  Li  Li12  1  0.78989703  0.50041139  0.67919585  1
  Cu  Cu13  1  0.54682761  0.83599935  0.21294880  1
  Cu  Cu14  1  0.22941774  0.48489732  0.31408047  1
