# generated using pymatgen
data_Li3Ti2SeO5F3
_symmetry_space_group_name_H-M   'P 1'
_cell_length_a   6.60120975
_cell_length_b   6.36719507
_cell_length_c   8.23751004
_cell_angle_alpha   96.95392731
_cell_angle_beta   98.27233196
_cell_angle_gamma   96.76054819
_symmetry_Int_Tables_number   1
_chemical_formula_structural   Li3Ti2SeO5F3
_chemical_formula_sum   'Li3 Ti2 Se1 O5 F3'
_cell_volume   336.87562291
_cell_formula_units_Z   1
loop_
 _symmetry_equiv_pos_site_id
 _symmetry_equiv_pos_as_xyz
  1  'x, y, z'
loop_
 _atom_site_type_symbol
 _atom_site_label
 _atom_site_symmetry_multiplicity
 _atom_site_fract_x
 _atom_site_fract_y
 _atom_site_fract_z
 _atom_site_occupancy
  Li  Li0  1  0.00000000  0.00000000  0.00000000  1
  Li  Li1  1  0.50000000  0.50000000  0.50000000  1
  Li  Li2  1  0.25000000  0.25000000  0.25000000  1
  Se  Se3  1  0.75000000  0.25000000  0.00000000  1
  F  F4  1  0.25000000  0.75000000  0.50000000  1
  F  F5  1  0.40637573  0.83024790  0.42687123  1
  F  F6  1  0.36361904  0.63153918  0.62603935  1
  Ti  Ti7  1  0.51686399  0.54705716  0.58394678  1
  Ti  Ti8  1  0.85289097  0.43444697  0.99206518  1
  O  O9  1  0.91416447  0.30336461  0.95107464  1
  O  O10  1  0.93605956  0.03256731  0.72083086  1
  O  O11  1  0.16747166  0.47645985  0.21599189  1
  O  O12  1  0.06033498  0.18986085  0.40263998  1
  O  O13  1  0.75045844  0.91244835  0.64351095  1
