# generated using pymatgen
data_LiTiAs3P2F
_symmetry_space_group_name_H-M   'P 1'
_cell_length_a   7.22525328
_cell_length_b   6.94222892
_cell_length_c   7.70803832
_cell_angle_alpha   92.07675606
_cell_angle_beta   92.81259477
_cell_angle_gamma   92.11720645
_symmetry_Int_Tables_number   1
_chemical_formula_structural   LiTiAs3P2F
_chemical_formula_sum   'Li2 Ti2 As6 P4 F2'
_cell_volume   385.62039521
_cell_formula_units_Z   2
loop_
 _symmetry_equiv_pos_site_id
 _symmetry_equiv_pos_as_xyz
  1  'x, y, z'
loop_
 _atom_site_type_symbol
 _atom_site_label
 _atom_site_symmetry_multiplicity
 _atom_site_fract_x
 _atom_site_fract_y
 _atom_site_fract_z
 _atom_site_occupancy
  P  P0  1  0.00000000  0.00000000  0.00000000  1
  P  P1  1  0.50000000  0.50000000  0.50000000  1
  P  P2  1  0.25000000  0.25000000  0.25000000  1
  P  P3  1  0.75000000  0.25000000  0.00000000  1
  Li  Li4  1  0.25000000  0.75000000  0.50000000  1
  Li  Li5  1  0.41696106  0.92793856  0.48665614  1
  F  F6  1  0.31730027  0.36743114  0.40104617  1
  F  F7  1  0.97503271  0.12273959  0.74700357  1
  Ti  Ti8  1  0.76050939  0.52457487  0.43874740  1
  Ti  Ti9  1  0.24385609  0.19474935  0.86314784  1
  As  As10  1  0.02742503  0.73833548  0.90174526  1
  As  As11  1  0.34788433  0.34871321  0.62321478  1
  As  As12  1  0.25585068  0.23152706  0.38616702  1
  As  As13  1  0.09483311  0.33563080  0.27796427  1
  As  As14  1  0.18025079  0.32453337  0.27120835  1
  As  As15  1  0.53495727  0.14940569  0.00948345  1
