# generated using pymatgen
data_Li2Cu2P8S3Cl2
_symmetry_space_group_name_H-M   'P 1'
_cell_length_a   5.91338176
_cell_length_b   5.72496065
_cell_length_c   7.55928359
_cell_angle_alpha   99.04099092
_cell_angle_beta   102.97664592
_cell_angle_gamma   98.58841035
_symmetry_Int_Tables_number   1
_chemical_formula_structural   Li2Cu2P8S3Cl2
_chemical_formula_sum   'Li2 Cu2 P8 S3 Cl2'
_cell_volume   241.70283435
_cell_formula_units_Z   1
loop_
 _symmetry_equiv_pos_site_id
 _symmetry_equiv_pos_as_xyz
  1  'x, y, z'
loop_
 _atom_site_type_symbol
 _atom_site_label
 _atom_site_symmetry_multiplicity
 _atom_site_fract_x
 _atom_site_fract_y
 _atom_site_fract_z
 _atom_site_occupancy
  Cl  Cl0  1  0.12500000  0.00000000  0.25000000  1
  Cl  Cl1  1  0.00000000  0.00000000  0.00000000  1
  S  S2  1  0.37500000  0.00000000  0.25000000  1
  S  S3  1  0.25000000  0.25000000  0.25000000  1
  S  S4  1  0.00000000  0.25000000  0.12500000  1
  P  P5  1  0.99066802  0.27954819  0.30171296  1
  P  P6  1  0.48064276  0.42476283  0.75466204  1
  P  P7  1  0.78202424  0.31617323  0.93886116  1
  P  P8  1  0.91941444  0.02135513  0.01565939  1
  P  P9  1  0.79919128  0.37663537  0.98807895  1
  P  P10  1  0.53975856  0.87054095  0.29885208  1
  P  P11  1  0.86933484  0.67320444  0.03494557  1
  P  P12  1  0.04554960  0.45592966  0.65179866  1
  Li  Li13  1  0.48514378  0.47923774  0.53450720  1
  Li  Li14  1  0.80765744  0.27321020  0.06204028  1
  Cu  Cu15  1  0.74479267  0.08625293  0.10955856  1
  Cu  Cu16  1  0.90694987  0.65564692  0.18711747  1
