# generated using pymatgen
data_Li2Mn2Sb4P3
_symmetry_space_group_name_H-M   'P 1'
_cell_length_a   4.86270363
_cell_length_b   5.13990686
_cell_length_c   6.27521733
_cell_angle_alpha   102.00161376
_cell_angle_beta   91.71110097
_cell_angle_gamma   101.91769859
_symmetry_Int_Tables_number   1
_chemical_formula_structural   Li2Mn2Sb4P3
_chemical_formula_sum   'Li2 Mn2 Sb4 P3'
_cell_volume   149.67181744
_cell_formula_units_Z   1
loop_
 _symmetry_equiv_pos_site_id
 _symmetry_equiv_pos_as_xyz
  1  'x, y, z'
loop_
 _atom_site_type_symbol
 _atom_site_label
 _atom_site_symmetry_multiplicity
 _atom_site_fract_x
 _atom_site_fract_y
 _atom_site_fract_z
 _atom_site_occupancy
  Mn  Mn0  1  0.12500000  0.12500000  0.12500000  1
  Mn  Mn1  1  0.50000000  0.50000000  0.50000000  1
  Sb  Sb2  1  0.25000000  0.25000000  0.25000000  1
  Sb  Sb3  1  0.75000000  0.75000000  0.75000000  1
  Sb  Sb4  1  0.77702611  0.14197494  0.49545079  1
  Sb  Sb5  1  0.69743569  0.04561826  0.66036346  1
  P  P6  1  0.67780452  0.08692994  0.21291995  1
  P  P7  1  0.85361187  0.99650306  0.39051072  1
  P  P8  1  0.86073800  0.78763209  0.04310405  1
  Li  Li9  1  0.75949608  0.71359246  0.36463717  1
  Li  Li10  1  0.67505835  0.93400290  0.48589956  1
