# generated using pymatgen
data_Li3As6P8(IO)4
_symmetry_space_group_name_H-M   'P 1'
_cell_length_a   6.98117756
_cell_length_b   6.91338114
_cell_length_c   8.12182741
_cell_angle_alpha   95.63327888
_cell_angle_beta   97.89449094
_cell_angle_gamma   95.31478217
_symmetry_Int_Tables_number   1
_chemical_formula_structural   Li3As6P8(IO)4
_chemical_formula_sum   'Li3 As6 P8 I4 O4'
_cell_volume   384.15280503
_cell_formula_units_Z   1
loop_
 _symmetry_equiv_pos_site_id
 _symmetry_equiv_pos_as_xyz
  1  'x, y, z'
loop_
 _atom_site_type_symbol
 _atom_site_label
 _atom_site_symmetry_multiplicity
 _atom_site_fract_x
 _atom_site_fract_y
 _atom_site_fract_z
 _atom_site_occupancy
  I  I0  1  0.00000000  0.00000000  0.00000000  1
  I  I1  1  0.50000000  0.50000000  0.50000000  1
  I  I2  1  0.25000000  0.25000000  0.25000000  1
  I  I3  1  0.75000000  0.25000000  0.00000000  1
  P  P4  1  0.25000000  0.75000000  0.50000000  1
  P  P5  1  0.34804389  0.70275061  0.10260270  1
  P  P6  1  0.38971030  0.24451954  0.03332101  1
  P  P7  1  0.41932059  0.46138727  0.74267204  1
  P  P8  1  0.15624647  0.83551021  0.84577007  1
  P  P9  1  0.54154202  0.15375343  0.67909934  1
  P  P10  1  0.13362053  0.83482076  0.56080492  1
  P  P11  1  0.95244737  0.25600462  0.15288182  1
  Li  Li12  1  0.04424116  0.33994693  0.77339155  1
  Li  Li13  1  0.62841947  0.89547550  0.99939413  1
  Li  Li14  1  0.56516799  0.57355110  0.76491498  1
  As  As15  1  0.78450869  0.61921352  0.86019814  1
  As  As16  1  0.17921915  0.74617563  0.32298372  1
  As  As17  1  0.73673963  0.85043552  0.10159683  1
  As  As18  1  0.25835443  0.01096716  0.66494736  1
  As  As19  1  0.32893831  0.92491181  0.95075613  1
  As  As20  1  0.00443402  0.69995991  0.65111176  1
  O  O21  1  0.87786428  0.32696479  0.95666773  1
  O  O22  1  0.53063943  0.16479534  0.35326111  1
  O  O23  1  0.53660155  0.83700878  0.33890501  1
  O  O24  1  0.12605934  0.08380726  0.66830346  1
