# generated using pymatgen
data_Li2TiI4(OF)3
_symmetry_space_group_name_H-M   'P 1'
_cell_length_a   8.56971099
_cell_length_b   8.43492371
_cell_length_c   7.42473668
_cell_angle_alpha   90.10207153
_cell_angle_beta   90.48562533
_cell_angle_gamma   90.11669501
_symmetry_Int_Tables_number   1
_chemical_formula_structural   Li2TiI4(OF)3
_chemical_formula_sum   'Li2 Ti1 I4 O3 F3'
_cell_volume   536.67478075
_cell_formula_units_Z   1
loop_
 _symmetry_equiv_pos_site_id
 _symmetry_equiv_pos_as_xyz
  1  'x, y, z'
loop_
 _atom_site_type_symbol
 _atom_site_label
 _atom_site_symmetry_multiplicity
 _atom_site_fract_x
 _atom_site_fract_y
 _atom_site_fract_z
 _atom_site_occupancy
  I  I0  1  0.00000000  0.00000000  0.00000000  1
  I  I1  1  0.50000000  0.50000000  0.50000000  1
  I  I2  1  0.25000000  0.25000000  0.25000000  1
  I  I3  1  0.75000000  0.25000000  0.00000000  1
  Li  Li4  1  0.25000000  0.75000000  0.50000000  1
  Li  Li5  1  0.65488695  0.31602460  0.77940713  1
  F  F6  1  0.79636030  0.32583484  0.13246635  1
  F  F7  1  0.21812201  0.17722147  0.97734038  1
  F  F8  1  0.02548454  0.96840383  0.39971265  1
  Ti  Ti9  1  0.41317351  0.50321737  0.81130357  1
  O  O10  1  0.60163444  0.40681162  0.23068294  1
  O  O11  1  0.42044034  0.45156534  0.90203892  1
  O  O12  1  0.70060652  0.30490939  0.73616477  1
