# generated using pymatgen
data_Li2LuAs6P4F3
_symmetry_space_group_name_H-M   'P 1'
_cell_length_a   7.30078236
_cell_length_b   6.72937162
_cell_length_c   8.25762959
_cell_angle_alpha   92.44922332
_cell_angle_beta   94.40007674
_cell_angle_gamma   92.38944288
_symmetry_Int_Tables_number   1
_chemical_formula_structural   Li2LuAs6P4F3
_chemical_formula_sum   'Li2 Lu1 As6 P4 F3'
_cell_volume   403.71742038
_cell_formula_units_Z   1
loop_
 _symmetry_equiv_pos_site_id
 _symmetry_equiv_pos_as_xyz
  1  'x, y, z'
loop_
 _atom_site_type_symbol
 _atom_site_label
 _atom_site_symmetry_multiplicity
 _atom_site_fract_x
 _atom_site_fract_y
 _atom_site_fract_z
 _atom_site_occupancy
  F  F0  1  0.00000000  0.00000000  0.00000000  1
  F  F1  1  0.50000000  0.50000000  0.50000000  1
  F  F2  1  0.25000000  0.25000000  0.25000000  1
  P  P3  1  0.75000000  0.25000000  0.00000000  1
  P  P4  1  0.25000000  0.75000000  0.50000000  1
  P  P5  1  0.65763894  0.60235541  0.55834407  1
  P  P6  1  0.44289912  0.63074176  0.27939465  1
  Lu  Lu7  1  0.67873112  0.65562503  0.32514197  1
  As  As8  1  0.44509453  0.27775094  0.40758816  1
  As  As9  1  0.66870622  0.92436898  0.81487213  1
  As  As10  1  0.16140639  0.37550595  0.47295319  1
  As  As11  1  0.91747147  0.02903889  0.82239054  1
  As  As12  1  0.13238242  0.82989809  0.81938558  1
  As  As13  1  0.07910887  0.46639875  0.25666956  1
  Li  Li14  1  0.74265582  0.68075008  0.54955968  1
  Li  Li15  1  0.38441676  0.00049257  0.83896172  1
