# generated using pymatgen
data_Li2Sb4P3N5
_symmetry_space_group_name_H-M   'P 1'
_cell_length_a   7.16873214
_cell_length_b   7.64698802
_cell_length_c   7.73009579
_cell_angle_alpha   93.74969116
_cell_angle_beta   91.10201562
_cell_angle_gamma   93.89098263
_symmetry_Int_Tables_number   1
_chemical_formula_structural   Li2Sb4P3N5
_chemical_formula_sum   'Li2 Sb4 P3 N5'
_cell_volume   421.75664415
_cell_formula_units_Z   1
loop_
 _symmetry_equiv_pos_site_id
 _symmetry_equiv_pos_as_xyz
  1  'x, y, z'
loop_
 _atom_site_type_symbol
 _atom_site_label
 _atom_site_symmetry_multiplicity
 _atom_site_fract_x
 _atom_site_fract_y
 _atom_site_fract_z
 _atom_site_occupancy
  Sb  Sb0  1  0.00000000  0.00000000  0.00000000  1
  Sb  Sb1  1  0.50000000  0.50000000  0.50000000  1
  Sb  Sb2  1  0.50000000  0.50000000  0.00000000  1
  Sb  Sb3  1  0.50000000  0.00000000  0.50000000  1
  P  P4  1  0.00000000  0.50000000  0.50000000  1
  P  P5  1  0.76432422  0.37150909  0.33998688  1
  P  P6  1  0.58695026  0.27623752  0.24230364  1
  Li  Li7  1  0.31073297  0.34765402  0.87183653  1
  Li  Li8  1  0.76954952  0.37077725  0.21568769  1
  N  N9  1  0.69309022  0.69691404  0.88264952  1
  N  N10  1  0.46225933  0.71555925  0.14801596  1
  N  N11  1  0.91839952  0.43587872  0.35678042  1
  N  N12  1  0.53356053  0.16625762  0.05975005  1
  N  N13  1  0.87577569  0.42589036  0.42582309  1
