# generated using pymatgen
data_Li3TiP4N5Cl2
_symmetry_space_group_name_H-M   'P 1'
_cell_length_a   6.97847589
_cell_length_b   6.69472879
_cell_length_c   7.54841051
_cell_angle_alpha   96.34995346
_cell_angle_beta   97.43982455
_cell_angle_gamma   96.16724529
_symmetry_Int_Tables_number   1
_chemical_formula_structural   Li3TiP4N5Cl2
_chemical_formula_sum   'Li3 Ti1 P4 N5 Cl2'
_cell_volume   344.87754839
_cell_formula_units_Z   1
loop_
 _symmetry_equiv_pos_site_id
 _symmetry_equiv_pos_as_xyz
  1  'x, y, z'
loop_
 _atom_site_type_symbol
 _atom_site_label
 _atom_site_symmetry_multiplicity
 _atom_site_fract_x
 _atom_site_fract_y
 _atom_site_fract_z
 _atom_site_occupancy
  P  P0  1  0.12500000  0.00000000  0.25000000  1
  P  P1  1  0.00000000  0.00000000  0.00000000  1
  P  P2  1  0.37500000  0.00000000  0.25000000  1
  P  P3  1  0.25000000  0.25000000  0.25000000  1
  Li  Li4  1  0.00000000  0.25000000  0.12500000  1
  Li  Li5  1  0.80943944  0.69601503  0.53693791  1
  Li  Li6  1  0.27676878  0.73670949  0.66576852  1
  Cl  Cl7  1  0.97875273  0.21306040  0.86948971  1
  Cl  Cl8  1  0.16740727  0.30882585  0.49635694  1
  Ti  Ti9  1  0.47963667  0.18736913  0.37175374  1
  N  N10  1  0.59117793  0.97622345  0.62068223  1
  N  N11  1  0.61726842  0.21159190  0.77364156  1
  N  N12  1  0.91831734  0.00343111  0.59409987  1
  N  N13  1  0.83048181  0.94262786  0.65387525  1
  N  N14  1  0.35382244  0.56741792  0.53334829  1
