# generated using pymatgen
data_Li2TiCu2N5F2
_symmetry_space_group_name_H-M   'P 1'
_cell_length_a   7.40308158
_cell_length_b   7.23526033
_cell_length_c   7.41983424
_cell_angle_alpha   91.35070288
_cell_angle_beta   92.25433904
_cell_angle_gamma   91.08076178
_symmetry_Int_Tables_number   1
_chemical_formula_structural   Li2TiCu2N5F2
_chemical_formula_sum   'Li2 Ti1 Cu2 N5 F2'
_cell_volume   396.93439377
_cell_formula_units_Z   1
loop_
 _symmetry_equiv_pos_site_id
 _symmetry_equiv_pos_as_xyz
  1  'x, y, z'
loop_
 _atom_site_type_symbol
 _atom_site_label
 _atom_site_symmetry_multiplicity
 _atom_site_fract_x
 _atom_site_fract_y
 _atom_site_fract_z
 _atom_site_occupancy
  Li  Li0  1  0.00000000  0.00000000  0.00000000  1
  Li  Li1  1  0.50000000  0.50000000  0.50000000  1
  Cu  Cu2  1  0.50000000  0.50000000  0.00000000  1
  Cu  Cu3  1  0.50000000  0.00000000  0.50000000  1
  F  F4  1  0.00000000  0.50000000  0.50000000  1
  F  F5  1  0.03677092  0.29814900  0.80058394  1
  Ti  Ti6  1  0.22987299  0.56449747  0.76251958  1
  N  N7  1  0.65820178  0.81757512  0.89515336  1
  N  N8  1  0.74759647  0.67288455  0.78784349  1
  N  N9  1  0.95022371  0.19943684  0.57523778  1
  N  N10  1  0.48054912  0.08524528  0.48962574  1
  N  N11  1  0.53769348  0.16979794  0.22238151  1
