# generated using pymatgen
data_LiMn2Sb4P2N
_symmetry_space_group_name_H-M   'P 1'
_cell_length_a   5.15084720
_cell_length_b   5.42415430
_cell_length_c   6.35872304
_cell_angle_alpha   97.53519861
_cell_angle_beta   93.51914017
_cell_angle_gamma   96.82351873
_symmetry_Int_Tables_number   1
_chemical_formula_structural   LiMn2Sb4P2N
_chemical_formula_sum   'Li1 Mn2 Sb4 P2 N1'
_cell_volume   174.33930572
_cell_formula_units_Z   1
loop_
 _symmetry_equiv_pos_site_id
 _symmetry_equiv_pos_as_xyz
  1  'x, y, z'
loop_
 _atom_site_type_symbol
 _atom_site_label
 _atom_site_symmetry_multiplicity
 _atom_site_fract_x
 _atom_site_fract_y
 _atom_site_fract_z
 _atom_site_occupancy
  N  N0  1  0.00000000  0.00000000  0.00000000  1
  Mn  Mn1  1  0.50000000  0.50000000  0.50000000  1
  Mn  Mn2  1  0.25000000  0.25000000  0.25000000  1
  Sb  Sb3  1  0.75000000  0.25000000  0.00000000  1
  Sb  Sb4  1  0.25000000  0.75000000  0.50000000  1
  Sb  Sb5  1  0.46155053  0.84984707  0.07001640  1
  Sb  Sb6  1  0.23022375  0.06526679  0.41537623  1
  P  P7  1  0.13806662  0.18355927  0.94073581  1
  P  P8  1  0.57155587  0.46282122  0.89634776  1
  Li  Li9  1  0.89566465  0.13003286  0.20559408  1
