# generated using pymatgen
data_Li2LuCu2(As3P2)2
_symmetry_space_group_name_H-M   'P 1'
_cell_length_a   7.30571806
_cell_length_b   7.18371056
_cell_length_c   8.03809050
_cell_angle_alpha   93.46330991
_cell_angle_beta   93.84722433
_cell_angle_gamma   93.51540158
_symmetry_Int_Tables_number   1
_chemical_formula_structural   Li2LuCu2(As3P2)2
_chemical_formula_sum   'Li2 Lu1 Cu2 As6 P4'
_cell_volume   419.23101217
_cell_formula_units_Z   1
loop_
 _symmetry_equiv_pos_site_id
 _symmetry_equiv_pos_as_xyz
  1  'x, y, z'
loop_
 _atom_site_type_symbol
 _atom_site_label
 _atom_site_symmetry_multiplicity
 _atom_site_fract_x
 _atom_site_fract_y
 _atom_site_fract_z
 _atom_site_occupancy
  P  P0  1  0.12500000  0.00000000  0.25000000  1
  P  P1  1  0.00000000  0.00000000  0.00000000  1
  P  P2  1  0.37500000  0.00000000  0.25000000  1
  P  P3  1  0.25000000  0.25000000  0.25000000  1
  Lu  Lu4  1  0.00000000  0.25000000  0.12500000  1
  As  As5  1  0.08947133  0.79242586  0.64311529  1
  As  As6  1  0.64010137  0.63106281  0.74614092  1
  As  As7  1  0.20126227  0.55364994  0.24065838  1
  As  As8  1  0.19154865  0.95969304  0.46309118  1
  As  As9  1  0.93296202  0.41073327  0.24876785  1
  As  As10  1  0.10518244  0.43719595  0.62958016  1
  Li  Li11  1  0.42972015  0.39513630  0.46735551  1
  Li  Li12  1  0.51708503  0.46745335  0.71098472  1
  Cu  Cu13  1  0.10389191  0.84187640  0.33639202  1
  Cu  Cu14  1  0.41507925  0.21718630  0.21190834  1
