# generated using pymatgen
data_Li2Cu2P3Cl2F3
_symmetry_space_group_name_H-M   'P 1'
_cell_length_a   6.58681323
_cell_length_b   6.57870833
_cell_length_c   7.58425126
_cell_angle_alpha   94.13914300
_cell_angle_beta   96.34801882
_cell_angle_gamma   93.88570304
_symmetry_Int_Tables_number   1
_chemical_formula_structural   Li2Cu2P3Cl2F3
_chemical_formula_sum   'Li2 Cu2 P3 Cl2 F3'
_cell_volume   324.82674975
_cell_formula_units_Z   1
loop_
 _symmetry_equiv_pos_site_id
 _symmetry_equiv_pos_as_xyz
  1  'x, y, z'
loop_
 _atom_site_type_symbol
 _atom_site_label
 _atom_site_symmetry_multiplicity
 _atom_site_fract_x
 _atom_site_fract_y
 _atom_site_fract_z
 _atom_site_occupancy
  F  F0  1  0.00000000  0.00000000  0.00000000  1
  F  F1  1  0.50000000  0.50000000  0.50000000  1
  F  F2  1  0.50000000  0.50000000  0.00000000  1
  Cl  Cl3  1  0.50000000  0.00000000  0.50000000  1
  Cl  Cl4  1  0.00000000  0.50000000  0.50000000  1
  P  P5  1  0.49062641  0.24640037  0.54096910  1
  P  P6  1  0.33097378  0.73113633  0.09673904  1
  P  P7  1  0.72818224  0.46704111  0.66075896  1
  Li  Li8  1  0.17775578  0.38519370  0.05131443  1
  Li  Li9  1  0.14209141  0.54299994  0.63147197  1
  Cu  Cu10  1  0.65717792  0.09940405  0.66855399  1
  Cu  Cu11  1  0.13450332  0.22130927  0.46695846  1
