# generated using pymatgen
data_Li3Ti(IO)4
_symmetry_space_group_name_H-M   'P 1'
_cell_length_a   8.83324572
_cell_length_b   8.71214854
_cell_length_c   7.39614012
_cell_angle_alpha   90.00000000
_cell_angle_beta   90.00000000
_cell_angle_gamma   90.00000000
_symmetry_Int_Tables_number   1
_chemical_formula_structural   Li3Ti(IO)4
_chemical_formula_sum   'Li3 Ti1 I4 O4'
_cell_volume   569.18141767
_cell_formula_units_Z   1
loop_
 _symmetry_equiv_pos_site_id
 _symmetry_equiv_pos_as_xyz
  1  'x, y, z'
loop_
 _atom_site_type_symbol
 _atom_site_label
 _atom_site_symmetry_multiplicity
 _atom_site_fract_x
 _atom_site_fract_y
 _atom_site_fract_z
 _atom_site_occupancy
  I  I0  1  0.00000000  0.00000000  0.00000000  1
  I  I1  1  0.50000000  0.50000000  0.50000000  1
  I  I2  1  0.25000000  0.25000000  0.25000000  1
  I  I3  1  0.75000000  0.25000000  0.00000000  1
  Li  Li4  1  0.25000000  0.75000000  0.50000000  1
  Li  Li5  1  0.79360453  0.65571566  0.68482339  1
  Li  Li6  1  0.17423481  0.89609706  0.24668924  1
  Ti  Ti7  1  0.90381590  0.39196239  0.52004350  1
  O  O8  1  0.98454141  0.35649558  0.57590895  1
  O  O9  1  0.37703740  0.46543010  0.74162067  1
  O  O10  1  0.03592341  0.64529400  0.34775748  1
  O  O11  1  0.82239881  0.07572511  0.10388124  1
