# generated using pymatgen
data_Li3TiAs6Cl2O5
_symmetry_space_group_name_H-M   'P 1'
_cell_length_a   6.66767245
_cell_length_b   6.38383594
_cell_length_c   7.73683674
_cell_angle_alpha   98.40204975
_cell_angle_beta   100.45638729
_cell_angle_gamma   97.99593117
_symmetry_Int_Tables_number   1
_chemical_formula_structural   Li3TiAs6Cl2O5
_chemical_formula_sum   'Li3 Ti1 As6 Cl2 O5'
_cell_volume   315.69924119
_cell_formula_units_Z   1
loop_
 _symmetry_equiv_pos_site_id
 _symmetry_equiv_pos_as_xyz
  1  'x, y, z'
loop_
 _atom_site_type_symbol
 _atom_site_label
 _atom_site_symmetry_multiplicity
 _atom_site_fract_x
 _atom_site_fract_y
 _atom_site_fract_z
 _atom_site_occupancy
  Cl  Cl0  1  0.00000000  0.00000000  0.00000000  1
  Cl  Cl1  1  0.50000000  0.50000000  0.50000000  1
  Ti  Ti2  1  0.25000000  0.25000000  0.25000000  1
  O  O3  1  0.75000000  0.25000000  0.00000000  1
  O  O4  1  0.25000000  0.75000000  0.50000000  1
  O  O5  1  0.91899270  0.82812226  0.16474910  1
  O  O6  1  0.35752761  0.19810702  0.63923999  1
  O  O7  1  0.61944515  0.37679357  0.69462751  1
  As  As8  1  0.06172005  0.98949879  0.86009044  1
  As  As9  1  0.97988977  0.90572470  0.42867748  1
  As  As10  1  0.86265808  0.51006196  0.57881586  1
  As  As11  1  0.38756604  0.56753202  0.79743025  1
  As  As12  1  0.77250565  0.05445604  0.57197055  1
  As  As13  1  0.87609812  0.05857699  0.03802449  1
  Li  Li14  1  0.25854052  0.19020190  0.37641849  1
  Li  Li15  1  0.04646472  0.28621754  0.53117160  1
  Li  Li16  1  0.05481166  0.79016509  0.48078002  1
