# generated using pymatgen
data_Li3Ti2P8SeO5
_symmetry_space_group_name_H-M   'P 1'
_cell_length_a   6.12587915
_cell_length_b   5.76467413
_cell_length_c   7.80718924
_cell_angle_alpha   98.00268370
_cell_angle_beta   99.54455349
_cell_angle_gamma   97.37516666
_symmetry_Int_Tables_number   1
_chemical_formula_structural   Li3Ti2P8SeO5
_chemical_formula_sum   'Li3 Ti2 P8 Se1 O5'
_cell_volume   265.97892272
_cell_formula_units_Z   1
loop_
 _symmetry_equiv_pos_site_id
 _symmetry_equiv_pos_as_xyz
  1  'x, y, z'
loop_
 _atom_site_type_symbol
 _atom_site_label
 _atom_site_symmetry_multiplicity
 _atom_site_fract_x
 _atom_site_fract_y
 _atom_site_fract_z
 _atom_site_occupancy
  P  P0  1  0.00000000  0.00000000  0.00000000  1
  P  P1  1  0.50000000  0.50000000  0.50000000  1
  P  P2  1  0.50000000  0.50000000  0.00000000  1
  P  P3  1  0.50000000  0.00000000  0.50000000  1
  P  P4  1  0.00000000  0.50000000  0.50000000  1
  P  P5  1  0.82142672  0.99625272  0.53159510  1
  P  P6  1  0.75812176  0.89245377  0.09431920  1
  P  P7  1  0.52297787  0.41307218  0.32016720  1
  Li  Li8  1  0.94763225  0.97001480  0.21346110  1
  Li  Li9  1  0.47212616  0.69738974  0.65899495  1
  Li  Li10  1  0.72360941  0.70377305  0.38077012  1
  Se  Se11  1  0.48085633  0.85657500  0.83958927  1
  Ti  Ti12  1  0.62106418  0.15321040  0.98850801  1
  Ti  Ti13  1  0.38712843  0.54760671  0.41667166  1
  O  O14  1  0.29289801  0.38889082  0.54194561  1
  O  O15  1  0.65331641  0.14756639  0.18390662  1
  O  O16  1  0.10153462  0.79582874  0.42087146  1
  O  O17  1  0.19947079  0.07207474  0.01807055  1
  O  O18  1  0.37922383  0.18472848  0.44386074  1
