# generated using pymatgen
data_Li2Sb4P3
_symmetry_space_group_name_H-M   'P 1'
_cell_length_a   5.29781361
_cell_length_b   5.67601756
_cell_length_c   6.75918860
_cell_angle_alpha   98.38575735
_cell_angle_beta   93.79607650
_cell_angle_gamma   98.68927893
_symmetry_Int_Tables_number   1
_chemical_formula_structural   Li2Sb4P3
_chemical_formula_sum   'Li2 Sb4 P3'
_cell_volume   197.96032382
_cell_formula_units_Z   1
loop_
 _symmetry_equiv_pos_site_id
 _symmetry_equiv_pos_as_xyz
  1  'x, y, z'
loop_
 _atom_site_type_symbol
 _atom_site_label
 _atom_site_symmetry_multiplicity
 _atom_site_fract_x
 _atom_site_fract_y
 _atom_site_fract_z
 _atom_site_occupancy
  Sb  Sb0  1  0.12500000  0.12500000  0.12500000  1
  Sb  Sb1  1  0.50000000  0.50000000  0.50000000  1
  Sb  Sb2  1  0.25000000  0.25000000  0.25000000  1
  Sb  Sb3  1  0.75000000  0.75000000  0.75000000  1
  P  P4  1  0.39672185  0.48347155  0.75930268  1
  P  P5  1  0.70611817  0.05094547  0.40486747  1
  P  P6  1  0.47125410  0.88283024  0.44802046  1
  Li  Li7  1  0.09627622  0.66289970  0.64742593  1
  Li  Li8  1  0.37802174  0.53776175  0.53740704  1
