# generated using pymatgen
data_Li3Ti2As6P4Se
_symmetry_space_group_name_H-M   'P 1'
_cell_length_a   5.45568366
_cell_length_b   5.15981897
_cell_length_c   7.11343120
_cell_angle_alpha   101.96587095
_cell_angle_beta   105.44483941
_cell_angle_gamma   101.28741066
_symmetry_Int_Tables_number   1
_chemical_formula_structural   Li3Ti2As6P4Se
_chemical_formula_sum   'Li3 Ti2 As6 P4 Se1'
_cell_volume   182.01080535
_cell_formula_units_Z   1
loop_
 _symmetry_equiv_pos_site_id
 _symmetry_equiv_pos_as_xyz
  1  'x, y, z'
loop_
 _atom_site_type_symbol
 _atom_site_label
 _atom_site_symmetry_multiplicity
 _atom_site_fract_x
 _atom_site_fract_y
 _atom_site_fract_z
 _atom_site_occupancy
  P  P0  1  0.00000000  0.00000000  0.00000000  1
  P  P1  1  0.50000000  0.50000000  0.50000000  1
  P  P2  1  0.50000000  0.50000000  0.00000000  1
  P  P3  1  0.50000000  0.00000000  0.50000000  1
  Li  Li4  1  0.00000000  0.50000000  0.50000000  1
  Li  Li5  1  0.43484586  0.72525396  0.57501813  1
  Li  Li6  1  0.86909493  0.15990939  0.53420159  1
  Se  Se7  1  0.64468627  0.54915092  0.01015362  1
  Ti  Ti8  1  0.59011654  0.23762236  0.98208531  1
  Ti  Ti9  1  0.98496594  0.42885432  0.13034984  1
  As  As10  1  0.35776314  0.02910971  0.63988994  1
  As  As11  1  0.06011534  0.74783361  0.78144151  1
  As  As12  1  0.38421859  0.83827657  0.47160630  1
  As  As13  1  0.56471063  0.89413061  0.11905255  1
  As  As14  1  0.07040891  0.32120400  0.81106048  1
  As  As15  1  0.01079266  0.09660457  0.17731702  1
