# generated using pymatgen
data_Li3(As3O2)2
_symmetry_space_group_name_H-M   'P 1'
_cell_length_a   8.13372190
_cell_length_b   7.97292312
_cell_length_c   7.84213620
_cell_angle_alpha   91.46253592
_cell_angle_beta   91.23867375
_cell_angle_gamma   91.58446125
_symmetry_Int_Tables_number   1
_chemical_formula_structural   Li3(As3O2)2
_chemical_formula_sum   'Li3 As6 O4'
_cell_volume   508.07204523
_cell_formula_units_Z   1
loop_
 _symmetry_equiv_pos_site_id
 _symmetry_equiv_pos_as_xyz
  1  'x, y, z'
loop_
 _atom_site_type_symbol
 _atom_site_label
 _atom_site_symmetry_multiplicity
 _atom_site_fract_x
 _atom_site_fract_y
 _atom_site_fract_z
 _atom_site_occupancy
  Li  Li0  1  0.12500000  0.00000000  0.25000000  1
  Li  Li1  1  0.00000000  0.00000000  0.00000000  1
  Li  Li2  1  0.37500000  0.00000000  0.25000000  1
  As  As3  1  0.25000000  0.25000000  0.25000000  1
  As  As4  1  0.00000000  0.25000000  0.12500000  1
  As  As5  1  0.07032019  0.31056584  0.15422571  1
  As  As6  1  0.68700123  0.49065017  0.67725474  1
  As  As7  1  0.50368454  0.95172323  0.96500078  1
  As  As8  1  0.28217603  0.07109517  0.53432181  1
  O  O9  1  0.66051099  0.18308439  0.62685591  1
  O  O10  1  0.34365515  0.56628175  0.09044477  1
  O  O11  1  0.69795672  0.05450107  0.34822897  1
  O  O12  1  0.03569553  0.56767237  0.63915072  1
