# generated using pymatgen
data_Li3TiI4O3
_symmetry_space_group_name_H-M   'P 1'
_cell_length_a   6.93994539
_cell_length_b   6.73620708
_cell_length_c   7.09783643
_cell_angle_alpha   96.53529322
_cell_angle_beta   98.67244268
_cell_angle_gamma   96.14385643
_symmetry_Int_Tables_number   1
_chemical_formula_structural   Li3TiI4O3
_chemical_formula_sum   'Li3 Ti1 I4 O3'
_cell_volume   323.27507586
_cell_formula_units_Z   1
loop_
 _symmetry_equiv_pos_site_id
 _symmetry_equiv_pos_as_xyz
  1  'x, y, z'
loop_
 _atom_site_type_symbol
 _atom_site_label
 _atom_site_symmetry_multiplicity
 _atom_site_fract_x
 _atom_site_fract_y
 _atom_site_fract_z
 _atom_site_occupancy
  I  I0  1  0.00000000  0.00000000  0.00000000  1
  I  I1  1  0.33300000  0.66700000  0.25000000  1
  I  I2  1  0.66700000  0.33300000  0.50000000  1
  I  I3  1  0.00000000  0.00000000  0.75000000  1
  Li  Li4  1  0.98986674  0.19551848  0.33996497  1
  Li  Li5  1  0.75994795  0.00363915  0.46249838  1
  Li  Li6  1  0.90678201  0.47306526  0.23681074  1
  Ti  Ti7  1  0.75888591  0.67438783  0.14602437  1
  O  O8  1  0.78975289  0.30352789  0.09406165  1
  O  O9  1  0.63067551  0.14369251  0.04208312  1
  O  O10  1  0.46505180  0.52676749  0.10421742  1
