# generated using pymatgen
data_Li2Lu(CuAs3)2
_symmetry_space_group_name_H-M   'P 1'
_cell_length_a   6.85491704
_cell_length_b   6.67972220
_cell_length_c   7.57815143
_cell_angle_alpha   93.27894129
_cell_angle_beta   94.30334624
_cell_angle_gamma   93.67934611
_symmetry_Int_Tables_number   1
_chemical_formula_structural   Li2Lu(CuAs3)2
_chemical_formula_sum   'Li2 Lu1 Cu2 As6'
_cell_volume   344.63294836
_cell_formula_units_Z   1
loop_
 _symmetry_equiv_pos_site_id
 _symmetry_equiv_pos_as_xyz
  1  'x, y, z'
loop_
 _atom_site_type_symbol
 _atom_site_label
 _atom_site_symmetry_multiplicity
 _atom_site_fract_x
 _atom_site_fract_y
 _atom_site_fract_z
 _atom_site_occupancy
  Lu  Lu0  1  0.12500000  0.00000000  0.25000000  1
  Li  Li1  1  0.00000000  0.00000000  0.00000000  1
  Li  Li2  1  0.37500000  0.00000000  0.25000000  1
  Cu  Cu3  1  0.25000000  0.25000000  0.25000000  1
  Cu  Cu4  1  0.00000000  0.25000000  0.12500000  1
  As  As5  1  0.98950216  0.03175460  0.49844473  1
  As  As6  1  0.48436676  0.64889075  0.67610920  1
  As  As7  1  0.77396859  0.27048077  0.98543872  1
  As  As8  1  0.91631222  0.87483990  0.72857706  1
  As  As9  1  0.18549312  0.00867135  0.20650418  1
  As  As10  1  0.67321322  0.51814073  0.63739436  1
