# generated using pymatgen
data_LiCuNiP2
_symmetry_space_group_name_H-M   'P 1'
_cell_length_a   7.51186969
_cell_length_b   7.46531424
_cell_length_c   8.20573617
_cell_angle_alpha   91.20409426
_cell_angle_beta   91.83181366
_cell_angle_gamma   91.39129989
_symmetry_Int_Tables_number   1
_chemical_formula_structural   LiCuNiP2
_chemical_formula_sum   'Li2 Cu2 Ni2 P4'
_cell_volume   459.68501304
_cell_formula_units_Z   2
loop_
 _symmetry_equiv_pos_site_id
 _symmetry_equiv_pos_as_xyz
  1  'x, y, z'
loop_
 _atom_site_type_symbol
 _atom_site_label
 _atom_site_symmetry_multiplicity
 _atom_site_fract_x
 _atom_site_fract_y
 _atom_site_fract_z
 _atom_site_occupancy
  P  P0  1  0.12500000  0.00000000  0.25000000  1
  P  P1  1  0.00000000  0.00000000  0.00000000  1
  P  P2  1  0.37500000  0.00000000  0.25000000  1
  P  P3  1  0.25000000  0.25000000  0.25000000  1
  Li  Li4  1  0.00000000  0.25000000  0.12500000  1
  Li  Li5  1  0.37516653  0.36839395  0.80388445  1
  Cu  Cu6  1  0.71708909  0.60347444  0.95320408  1
  Cu  Cu7  1  0.57220227  0.28545528  0.23227904  1
  Ni  Ni8  1  0.70825000  0.21484170  0.42007578  1
  Ni  Ni9  1  0.87743370  0.28857260  0.15246984  1
