# generated using pymatgen
data_Li2LuTi(PI)4
_symmetry_space_group_name_H-M   'P 1'
_cell_length_a   7.83492620
_cell_length_b   7.80744194
_cell_length_c   7.49453521
_cell_angle_alpha   93.22433458
_cell_angle_beta   94.00972293
_cell_angle_gamma   93.08715128
_symmetry_Int_Tables_number   1
_chemical_formula_structural   Li2LuTi(PI)4
_chemical_formula_sum   'Li2 Lu1 Ti1 P4 I4'
_cell_volume   455.83083515
_cell_formula_units_Z   1
loop_
 _symmetry_equiv_pos_site_id
 _symmetry_equiv_pos_as_xyz
  1  'x, y, z'
loop_
 _atom_site_type_symbol
 _atom_site_label
 _atom_site_symmetry_multiplicity
 _atom_site_fract_x
 _atom_site_fract_y
 _atom_site_fract_z
 _atom_site_occupancy
  Li  Li0  1  0.00000000  0.00000000  0.00000000  1
  Li  Li1  1  0.50000000  0.50000000  0.50000000  1
  Ti  Ti2  1  0.50000000  0.50000000  0.00000000  1
  I  I3  1  0.50000000  0.00000000  0.50000000  1
  I  I4  1  0.00000000  0.50000000  0.50000000  1
  I  I5  1  0.76572205  0.96375661  0.50307284  1
  I  I6  1  0.83428980  0.52447145  0.28454198  1
  P  P7  1  0.60158502  0.18278266  0.40701914  1
  P  P8  1  0.84328084  0.05100343  0.13630396  1
  P  P9  1  0.65866510  0.17037496  0.10325599  1
  P  P10  1  0.91196803  0.57847084  0.56190499  1
  Lu  Lu11  1  0.56933905  0.54008370  0.51796132  1
