# generated using pymatgen
data_Li2Sb4P3N5
_symmetry_space_group_name_H-M   'P 1'
_cell_length_a   6.91501485
_cell_length_b   7.56653989
_cell_length_c   7.81601037
_cell_angle_alpha   92.14429917
_cell_angle_beta   92.54012049
_cell_angle_gamma   92.44047721
_symmetry_Int_Tables_number   1
_chemical_formula_structural   Li2Sb4P3N5
_chemical_formula_sum   'Li2 Sb4 P3 N5'
_cell_volume   407.86606976
_cell_formula_units_Z   1
loop_
 _symmetry_equiv_pos_site_id
 _symmetry_equiv_pos_as_xyz
  1  'x, y, z'
loop_
 _atom_site_type_symbol
 _atom_site_label
 _atom_site_symmetry_multiplicity
 _atom_site_fract_x
 _atom_site_fract_y
 _atom_site_fract_z
 _atom_site_occupancy
  N  N0  1  0.12500000  0.00000000  0.25000000  1
  N  N1  1  0.00000000  0.00000000  0.00000000  1
  N  N2  1  0.37500000  0.00000000  0.25000000  1
  N  N3  1  0.25000000  0.25000000  0.25000000  1
  N  N4  1  0.00000000  0.25000000  0.12500000  1
  Sb  Sb5  1  0.19582642  0.94362636  0.13170910  1
  Sb  Sb6  1  0.68820538  0.41487330  0.44371544  1
  Sb  Sb7  1  0.62596167  0.33178915  0.05701191  1
  Sb  Sb8  1  0.99665743  0.81469922  0.52928641  1
  P  P9  1  0.79181931  0.31897720  0.42296651  1
  P  P10  1  0.44433158  0.42327473  0.47542819  1
  P  P11  1  0.16192436  0.79066372  0.53583373  1
  Li  Li12  1  0.97284391  0.35944028  0.54814032  1
  Li  Li13  1  0.54461716  0.58244873  0.21669452  1
