# generated using pymatgen
data_Li3TiP3I4O3
_symmetry_space_group_name_H-M   'P 1'
_cell_length_a   8.54593226
_cell_length_b   8.76793242
_cell_length_c   7.31818302
_cell_angle_alpha   90.00000000
_cell_angle_beta   90.00000000
_cell_angle_gamma   90.00000000
_symmetry_Int_Tables_number   1
_chemical_formula_structural   Li3TiP3I4O3
_chemical_formula_sum   'Li3 Ti1 P3 I4 O3'
_cell_volume   548.35259958
_cell_formula_units_Z   1
loop_
 _symmetry_equiv_pos_site_id
 _symmetry_equiv_pos_as_xyz
  1  'x, y, z'
loop_
 _atom_site_type_symbol
 _atom_site_label
 _atom_site_symmetry_multiplicity
 _atom_site_fract_x
 _atom_site_fract_y
 _atom_site_fract_z
 _atom_site_occupancy
  P  P0  1  0.12500000  0.00000000  0.25000000  1
  P  P1  1  0.00000000  0.00000000  0.00000000  1
  P  P2  1  0.37500000  0.00000000  0.25000000  1
  I  I3  1  0.25000000  0.25000000  0.25000000  1
  I  I4  1  0.00000000  0.25000000  0.12500000  1
  I  I5  1  0.73378244  0.71188999  0.50462441  1
  I  I6  1  0.18951227  0.79801431  0.81027298  1
  Li  Li7  1  0.64869574  0.68413013  0.70552165  1
  Li  Li8  1  0.73013563  0.22226817  0.10809776  1
  Li  Li9  1  0.68607365  0.05092763  0.17514213  1
  Ti  Ti10  1  0.33253497  0.80669962  0.48379641  1
  O  O11  1  0.45598907  0.87685252  0.49447836  1
  O  O12  1  0.73508379  0.94541138  0.78432534  1
  O  O13  1  0.25479077  0.17727397  0.15922475  1
