# generated using pymatgen
data_Li3TiI4O4F3
_symmetry_space_group_name_H-M   'P 1'
_cell_length_a   6.85705813
_cell_length_b   6.74734842
_cell_length_c   7.00838344
_cell_angle_alpha   93.92467297
_cell_angle_beta   95.46273481
_cell_angle_gamma   93.60792803
_symmetry_Int_Tables_number   1
_chemical_formula_structural   Li3TiI4O4F3
_chemical_formula_sum   'Li3 Ti1 I4 O4 F3'
_cell_volume   321.23872226
_cell_formula_units_Z   1
loop_
 _symmetry_equiv_pos_site_id
 _symmetry_equiv_pos_as_xyz
  1  'x, y, z'
loop_
 _atom_site_type_symbol
 _atom_site_label
 _atom_site_symmetry_multiplicity
 _atom_site_fract_x
 _atom_site_fract_y
 _atom_site_fract_z
 _atom_site_occupancy
  I  I0  1  0.12500000  0.00000000  0.25000000  1
  I  I1  1  0.00000000  0.00000000  0.00000000  1
  I  I2  1  0.37500000  0.00000000  0.25000000  1
  I  I3  1  0.25000000  0.25000000  0.25000000  1
  Li  Li4  1  0.00000000  0.25000000  0.12500000  1
  Li  Li5  1  0.71369086  0.88567957  0.38536779  1
  Li  Li6  1  0.11166466  0.60500737  0.89728405  1
  F  F7  1  0.72862295  0.24599529  0.56923081  1
  F  F8  1  0.44616698  0.73088433  0.36463822  1
  F  F9  1  0.74404563  0.28621337  0.67464841  1
  Ti  Ti10  1  0.07154779  0.16760105  0.00543218  1
  O  O11  1  0.28815669  0.56284175  0.47864995  1
  O  O12  1  0.37858419  0.26794347  0.61450542  1
  O  O13  1  0.43604570  0.29513628  0.40745975  1
  O  O14  1  0.12585569  0.53729874  0.96130801  1
