# generated using pymatgen
data_Li2LuCu2(As3P2)2
_symmetry_space_group_name_H-M   'P 1'
_cell_length_a   7.44739395
_cell_length_b   7.50503666
_cell_length_c   8.27492329
_cell_angle_alpha   90.92518524
_cell_angle_beta   92.13190824
_cell_angle_gamma   91.01951455
_symmetry_Int_Tables_number   1
_chemical_formula_structural   Li2LuCu2(As3P2)2
_chemical_formula_sum   'Li2 Lu1 Cu2 As6 P4'
_cell_volume   462.05129432
_cell_formula_units_Z   1
loop_
 _symmetry_equiv_pos_site_id
 _symmetry_equiv_pos_as_xyz
  1  'x, y, z'
loop_
 _atom_site_type_symbol
 _atom_site_label
 _atom_site_symmetry_multiplicity
 _atom_site_fract_x
 _atom_site_fract_y
 _atom_site_fract_z
 _atom_site_occupancy
  P  P0  1  0.12500000  0.00000000  0.25000000  1
  P  P1  1  0.00000000  0.00000000  0.00000000  1
  P  P2  1  0.37500000  0.00000000  0.25000000  1
  P  P3  1  0.25000000  0.25000000  0.25000000  1
  Lu  Lu4  1  0.00000000  0.25000000  0.12500000  1
  As  As5  1  0.93099778  0.61904518  0.12003247  1
  As  As6  1  0.09200291  0.10189644  0.95309438  1
  As  As7  1  0.19250813  0.63256027  0.68892084  1
  As  As8  1  0.26811607  0.18438108  0.77798359  1
  As  As9  1  0.78244757  0.60698088  0.40507923  1
  As  As10  1  0.09294472  0.91219927  0.26165684  1
  Li  Li11  1  0.33660638  0.68853427  0.37757545  1
  Li  Li12  1  0.99813449  0.89454756  0.27258017  1
  Cu  Cu13  1  0.73997162  0.20273472  0.44992853  1
  Cu  Cu14  1  0.47264028  0.94762639  0.00399354  1
