# generated using pymatgen
data_Li3Cu2Ni2As6O7
_symmetry_space_group_name_H-M   'P 1'
_cell_length_a   7.63191851
_cell_length_b   7.42784055
_cell_length_c   8.47762725
_cell_angle_alpha   91.69459604
_cell_angle_beta   91.28524125
_cell_angle_gamma   91.96293827
_symmetry_Int_Tables_number   1
_chemical_formula_structural   Li3Cu2Ni2As6O7
_chemical_formula_sum   'Li3 Cu2 Ni2 As6 O7'
_cell_volume   479.96116616
_cell_formula_units_Z   1
loop_
 _symmetry_equiv_pos_site_id
 _symmetry_equiv_pos_as_xyz
  1  'x, y, z'
loop_
 _atom_site_type_symbol
 _atom_site_label
 _atom_site_symmetry_multiplicity
 _atom_site_fract_x
 _atom_site_fract_y
 _atom_site_fract_z
 _atom_site_occupancy
  Li  Li0  1  0.12500000  0.00000000  0.25000000  1
  Li  Li1  1  0.00000000  0.00000000  0.00000000  1
  Li  Li2  1  0.37500000  0.00000000  0.25000000  1
  Cu  Cu3  1  0.25000000  0.25000000  0.25000000  1
  Cu  Cu4  1  0.00000000  0.25000000  0.12500000  1
  Ni  Ni5  1  0.81456118  0.78383718  0.86596541  1
  Ni  Ni6  1  0.61348969  0.38913524  0.99653806  1
  As  As7  1  0.73084747  0.91787806  0.85135005  1
  As  As8  1  0.96271625  0.93867311  0.68679238  1
  As  As9  1  0.36447195  0.59309139  0.94217322  1
  As  As10  1  0.05679865  0.14103616  0.12685475  1
  As  As11  1  0.20093006  0.60009854  0.58123489  1
  As  As12  1  0.95707390  0.28362802  0.92169917  1
  O  O13  1  0.17654601  0.77513214  0.14618293  1
  O  O14  1  0.77793083  0.31583338  0.94850791  1
  O  O15  1  0.00955113  0.70626485  0.26932488  1
  O  O16  1  0.86210983  0.73289814  0.19181513  1
  O  O17  1  0.05705045  0.91852344  0.96814946  1
  O  O18  1  0.31054797  0.24542757  0.36311588  1
  O  O19  1  0.14915792  0.70561666  0.90319554  1
