# generated using pymatgen
data_LiCuAs3P2
_symmetry_space_group_name_H-M   'P 1'
_cell_length_a   7.45896472
_cell_length_b   7.45791146
_cell_length_c   8.58059097
_cell_angle_alpha   91.50866802
_cell_angle_beta   91.93812121
_cell_angle_gamma   91.74457374
_symmetry_Int_Tables_number   1
_chemical_formula_structural   LiCuAs3P2
_chemical_formula_sum   'Li2 Cu2 As6 P4'
_cell_volume   476.65064715
_cell_formula_units_Z   2
loop_
 _symmetry_equiv_pos_site_id
 _symmetry_equiv_pos_as_xyz
  1  'x, y, z'
loop_
 _atom_site_type_symbol
 _atom_site_label
 _atom_site_symmetry_multiplicity
 _atom_site_fract_x
 _atom_site_fract_y
 _atom_site_fract_z
 _atom_site_occupancy
  P  P0  1  0.00000000  0.00000000  0.00000000  1
  P  P1  1  0.50000000  0.50000000  0.50000000  1
  P  P2  1  0.50000000  0.50000000  0.00000000  1
  P  P3  1  0.50000000  0.00000000  0.50000000  1
  As  As4  1  0.00000000  0.50000000  0.50000000  1
  As  As5  1  0.65197308  0.74320756  0.56475916  1
  As  As6  1  0.41143697  0.39922663  0.00486345  1
  As  As7  1  0.98598543  0.40442407  0.09578390  1
  As  As8  1  0.70379925  0.36007571  0.98930414  1
  As  As9  1  0.11172598  0.89605411  0.23970824  1
  Li  Li10  1  0.31252318  0.90854143  0.56121778  1
  Li  Li11  1  0.90010996  0.02928426  0.91103551  1
  Cu  Cu12  1  0.00023754  0.11534779  0.54033692  1
  Cu  Cu13  1  0.62332893  0.61405454  0.08436949  1
