# generated using pymatgen
data_Li4Ti2S2F3
_symmetry_space_group_name_H-M   'P 1'
_cell_length_a   4.73316936
_cell_length_b   4.23051545
_cell_length_c   6.66856007
_cell_angle_alpha   97.84846198
_cell_angle_beta   100.92423924
_cell_angle_gamma   97.21504343
_symmetry_Int_Tables_number   1
_chemical_formula_structural   Li4Ti2S2F3
_chemical_formula_sum   'Li4 Ti2 S2 F3'
_cell_volume   128.29714303
_cell_formula_units_Z   1
loop_
 _symmetry_equiv_pos_site_id
 _symmetry_equiv_pos_as_xyz
  1  'x, y, z'
loop_
 _atom_site_type_symbol
 _atom_site_label
 _atom_site_symmetry_multiplicity
 _atom_site_fract_x
 _atom_site_fract_y
 _atom_site_fract_z
 _atom_site_occupancy
  Li  Li0  1  0.12500000  0.12500000  0.12500000  1
  Li  Li1  1  0.50000000  0.50000000  0.50000000  1
  Li  Li2  1  0.25000000  0.25000000  0.25000000  1
  Li  Li3  1  0.75000000  0.75000000  0.75000000  1
  F  F4  1  0.25621229  0.80805250  0.94794289  1
  F  F5  1  0.31868752  0.22547262  0.64235155  1
  F  F6  1  0.54440313  0.73227872  0.79883847  1
  S  S7  1  0.66962254  0.60088037  0.01019714  1
  S  S8  1  0.62562277  0.10953608  0.14443128  1
  Ti  Ti9  1  0.05240787  0.40829921  0.39920366  1
  Ti  Ti10  1  0.30702984  0.96018536  0.25913327  1
