# generated using pymatgen
data_Li2TiI4O4F3
_symmetry_space_group_name_H-M   'P 1'
_cell_length_a   8.46169115
_cell_length_b   8.30031874
_cell_length_c   7.47423392
_cell_angle_alpha   90.48233165
_cell_angle_beta   90.58269655
_cell_angle_gamma   90.55789166
_symmetry_Int_Tables_number   1
_chemical_formula_structural   Li2TiI4O4F3
_chemical_formula_sum   'Li2 Ti1 I4 O4 F3'
_cell_volume   524.87975488
_cell_formula_units_Z   1
loop_
 _symmetry_equiv_pos_site_id
 _symmetry_equiv_pos_as_xyz
  1  'x, y, z'
loop_
 _atom_site_type_symbol
 _atom_site_label
 _atom_site_symmetry_multiplicity
 _atom_site_fract_x
 _atom_site_fract_y
 _atom_site_fract_z
 _atom_site_occupancy
  I  I0  1  0.00000000  0.00000000  0.00000000  1
  I  I1  1  0.50000000  0.50000000  0.50000000  1
  I  I2  1  0.50000000  0.50000000  0.00000000  1
  I  I3  1  0.50000000  0.00000000  0.50000000  1
  Li  Li4  1  0.00000000  0.50000000  0.50000000  1
  Li  Li5  1  0.94931474  0.57014291  0.86925905  1
  F  F6  1  0.47357149  0.70565295  0.05447958  1
  F  F7  1  0.73833822  0.10390495  0.88560460  1
  F  F8  1  0.06454675  0.90092073  0.00179812  1
  Ti  Ti9  1  0.44058886  0.52686362  0.61619600  1
  O  O10  1  0.57412214  0.46151685  0.17727596  1
  O  O11  1  0.82351306  0.04385858  0.63159556  1
  O  O12  1  0.25845213  0.18639505  0.79065682  1
  O  O13  1  0.38154154  0.49482807  0.71706452  1
