# generated using pymatgen
data_LiTi2Nb2(OF)3
_symmetry_space_group_name_H-M   'P 1'
_cell_length_a   7.59704229
_cell_length_b   7.88074568
_cell_length_c   7.50682000
_cell_angle_alpha   90.32216831
_cell_angle_beta   91.53277897
_cell_angle_gamma   90.36832440
_symmetry_Int_Tables_number   1
_chemical_formula_structural   LiTi2Nb2(OF)3
_chemical_formula_sum   'Li1 Ti2 Nb2 O3 F3'
_cell_volume   449.25835553
_cell_formula_units_Z   1
loop_
 _symmetry_equiv_pos_site_id
 _symmetry_equiv_pos_as_xyz
  1  'x, y, z'
loop_
 _atom_site_type_symbol
 _atom_site_label
 _atom_site_symmetry_multiplicity
 _atom_site_fract_x
 _atom_site_fract_y
 _atom_site_fract_z
 _atom_site_occupancy
  Li  Li0  1  0.00000000  0.00000000  0.00000000  1
  Nb  Nb1  1  0.50000000  0.50000000  0.50000000  1
  Nb  Nb2  1  0.50000000  0.50000000  0.00000000  1
  F  F3  1  0.50000000  0.00000000  0.50000000  1
  F  F4  1  0.00000000  0.50000000  0.50000000  1
  F  F5  1  0.89259887  0.03228402  0.10359697  1
  Ti  Ti6  1  0.30566692  0.30232367  0.74205750  1
  Ti  Ti7  1  0.07408727  0.35531773  0.55345223  1
  O  O8  1  0.07202235  0.65963973  0.53252658  1
  O  O9  1  0.25431416  0.33965467  0.73684669  1
  O  O10  1  0.88862778  0.50804277  0.50688205  1
