# generated using pymatgen
data_Li2Cu2As6O7
_symmetry_space_group_name_H-M   'P 1'
_cell_length_a   7.66298448
_cell_length_b   7.56485584
_cell_length_c   8.83279578
_cell_angle_alpha   91.15552638
_cell_angle_beta   91.67369401
_cell_angle_gamma   91.32970486
_symmetry_Int_Tables_number   1
_chemical_formula_structural   Li2Cu2As6O7
_chemical_formula_sum   'Li2 Cu2 As6 O7'
_cell_volume   511.56403894
_cell_formula_units_Z   1
loop_
 _symmetry_equiv_pos_site_id
 _symmetry_equiv_pos_as_xyz
  1  'x, y, z'
loop_
 _atom_site_type_symbol
 _atom_site_label
 _atom_site_symmetry_multiplicity
 _atom_site_fract_x
 _atom_site_fract_y
 _atom_site_fract_z
 _atom_site_occupancy
  Li  Li0  1  0.12500000  0.00000000  0.25000000  1
  Li  Li1  1  0.00000000  0.00000000  0.00000000  1
  Cu  Cu2  1  0.37500000  0.00000000  0.25000000  1
  Cu  Cu3  1  0.25000000  0.25000000  0.25000000  1
  As  As4  1  0.00000000  0.25000000  0.12500000  1
  As  As5  1  0.33642572  0.04605853  0.08545998  1
  As  As6  1  0.03402013  0.25282255  0.47463271  1
  As  As7  1  0.11116867  0.92948369  0.39241879  1
  As  As8  1  0.97210016  0.66394194  0.44790477  1
  As  As9  1  0.26372558  0.75475059  0.77731558  1
  O  O10  1  0.01474695  0.23848351  0.54579253  1
  O  O11  1  0.37707401  0.51399862  0.49090228  1
  O  O12  1  0.82644466  0.96246600  0.77944013  1
  O  O13  1  0.76969791  0.73267215  0.64243740  1
  O  O14  1  0.20835991  0.96925949  0.69232143  1
  O  O15  1  0.94295617  0.59653170  0.25622871  1
  O  O16  1  0.20922326  0.00920216  0.26238233  1
