# generated using pymatgen
data_LiMn2Sb4P3N
_symmetry_space_group_name_H-M   'P 1'
_cell_length_a   5.01024220
_cell_length_b   5.12295062
_cell_length_c   5.97567418
_cell_angle_alpha   98.79689801
_cell_angle_beta   92.99112806
_cell_angle_gamma   98.35558142
_symmetry_Int_Tables_number   1
_chemical_formula_structural   LiMn2Sb4P3N
_chemical_formula_sum   'Li1 Mn2 Sb4 P3 N1'
_cell_volume   149.53094112
_cell_formula_units_Z   1
loop_
 _symmetry_equiv_pos_site_id
 _symmetry_equiv_pos_as_xyz
  1  'x, y, z'
loop_
 _atom_site_type_symbol
 _atom_site_label
 _atom_site_symmetry_multiplicity
 _atom_site_fract_x
 _atom_site_fract_y
 _atom_site_fract_z
 _atom_site_occupancy
  N  N0  1  0.00000000  0.00000000  0.00000000  1
  Mn  Mn1  1  0.50000000  0.50000000  0.50000000  1
  Mn  Mn2  1  0.50000000  0.50000000  0.00000000  1
  Sb  Sb3  1  0.50000000  0.00000000  0.50000000  1
  Sb  Sb4  1  0.00000000  0.50000000  0.50000000  1
  Sb  Sb5  1  0.90430177  0.29092587  0.77930366  1
  Sb  Sb6  1  0.09486014  0.08376126  0.40829037  1
  P  P7  1  0.26173546  0.08339255  0.72939138  1
  P  P8  1  0.75617868  0.36797710  0.12726956  1
  P  P9  1  0.67876644  0.08819723  0.86611705  1
  Li  Li10  1  0.59445216  0.10476752  0.91905518  1
