# generated using pymatgen
data_Li3LuTiNi2P3
_symmetry_space_group_name_H-M   'P 1'
_cell_length_a   7.09913852
_cell_length_b   6.80395703
_cell_length_c   7.43122967
_cell_angle_alpha   95.24835488
_cell_angle_beta   96.32573165
_cell_angle_gamma   95.12765958
_symmetry_Int_Tables_number   1
_chemical_formula_structural   Li3LuTiNi2P3
_chemical_formula_sum   'Li3 Lu1 Ti1 Ni2 P3'
_cell_volume   353.46577206
_cell_formula_units_Z   1
loop_
 _symmetry_equiv_pos_site_id
 _symmetry_equiv_pos_as_xyz
  1  'x, y, z'
loop_
 _atom_site_type_symbol
 _atom_site_label
 _atom_site_symmetry_multiplicity
 _atom_site_fract_x
 _atom_site_fract_y
 _atom_site_fract_z
 _atom_site_occupancy
  P  P0  1  0.12500000  0.00000000  0.25000000  1
  P  P1  1  0.00000000  0.00000000  0.00000000  1
  P  P2  1  0.37500000  0.00000000  0.25000000  1
  Lu  Lu3  1  0.25000000  0.25000000  0.25000000  1
  Li  Li4  1  0.00000000  0.25000000  0.12500000  1
  Li  Li5  1  0.09205290  0.49257473  0.02508307  1
  Li  Li6  1  0.87858783  0.31117139  0.48575463  1
  Ni  Ni7  1  0.15277562  0.62420574  0.11606063  1
  Ni  Ni8  1  0.17545300  0.49779795  0.55783839  1
  Ti  Ti9  1  0.04493843  0.13247826  0.81776469  1
