# generated using pymatgen
data_Li2Ti3Nb2(IO)4
_symmetry_space_group_name_H-M   'P 1'
_cell_length_a   7.80043081
_cell_length_b   7.87995685
_cell_length_c   8.02998858
_cell_angle_alpha   90.30790259
_cell_angle_beta   91.46490699
_cell_angle_gamma   90.35201487
_symmetry_Int_Tables_number   1
_chemical_formula_structural   Li2Ti3Nb2(IO)4
_chemical_formula_sum   'Li2 Ti3 Nb2 I4 O4'
_cell_volume   493.40159390
_cell_formula_units_Z   1
loop_
 _symmetry_equiv_pos_site_id
 _symmetry_equiv_pos_as_xyz
  1  'x, y, z'
loop_
 _atom_site_type_symbol
 _atom_site_label
 _atom_site_symmetry_multiplicity
 _atom_site_fract_x
 _atom_site_fract_y
 _atom_site_fract_z
 _atom_site_occupancy
  I  I0  1  0.12500000  0.00000000  0.25000000  1
  I  I1  1  0.00000000  0.00000000  0.00000000  1
  I  I2  1  0.37500000  0.00000000  0.25000000  1
  I  I3  1  0.25000000  0.25000000  0.25000000  1
  Li  Li4  1  0.00000000  0.25000000  0.12500000  1
  Li  Li5  1  0.86108766  0.33278731  0.58560366  1
  Nb  Nb6  1  0.61994853  0.88316172  0.85579136  1
  Nb  Nb7  1  0.83132627  0.67084931  0.98763632  1
  Ti  Ti8  1  0.94986857  0.41912519  0.84447478  1
  Ti  Ti9  1  0.32739942  0.57256670  0.34872800  1
  Ti  Ti10  1  0.98938584  0.99212953  0.87658373  1
  O  O11  1  0.01706974  0.90530106  0.43579081  1
  O  O12  1  0.59315718  0.32101839  0.08257775  1
  O  O13  1  0.70850025  0.22589235  0.48949194  1
  O  O14  1  0.82353886  0.01480705  0.97130158  1
