# generated using pymatgen
data_Li2TiNi2S3I4
_symmetry_space_group_name_H-M   'P 1'
_cell_length_a   7.66755374
_cell_length_b   7.58515145
_cell_length_c   7.74194640
_cell_angle_alpha   90.57794343
_cell_angle_beta   92.74967933
_cell_angle_gamma   90.66074367
_symmetry_Int_Tables_number   1
_chemical_formula_structural   Li2TiNi2S3I4
_chemical_formula_sum   'Li2 Ti1 Ni2 S3 I4'
_cell_volume   449.69432860
_cell_formula_units_Z   1
loop_
 _symmetry_equiv_pos_site_id
 _symmetry_equiv_pos_as_xyz
  1  'x, y, z'
loop_
 _atom_site_type_symbol
 _atom_site_label
 _atom_site_symmetry_multiplicity
 _atom_site_fract_x
 _atom_site_fract_y
 _atom_site_fract_z
 _atom_site_occupancy
  I  I0  1  0.00000000  0.00000000  0.00000000  1
  I  I1  1  0.50000000  0.50000000  0.50000000  1
  I  I2  1  0.25000000  0.25000000  0.25000000  1
  I  I3  1  0.75000000  0.25000000  0.00000000  1
  Li  Li4  1  0.25000000  0.75000000  0.50000000  1
  Li  Li5  1  0.44974873  0.13387420  0.36820834  1
  Ni  Ni6  1  0.06206649  0.11271466  0.40323511  1
  Ni  Ni7  1  0.94336583  0.49942958  0.53957433  1
  Ti  Ti8  1  0.60061859  0.97923063  0.44008220  1
  S  S9  1  0.79209100  0.80029914  0.78403237  1
  S  S10  1  0.28881918  0.84396126  0.02496875  1
  S  S11  1  0.87237723  0.25554194  0.51028714  1
