# generated using pymatgen
data_Li2Ti2Cu2P5N3
_symmetry_space_group_name_H-M   'P 1'
_cell_length_a   7.59707097
_cell_length_b   7.29697074
_cell_length_c   8.51212017
_cell_angle_alpha   92.86759227
_cell_angle_beta   91.82851279
_cell_angle_gamma   93.19505364
_symmetry_Int_Tables_number   1
_chemical_formula_structural   Li2Ti2Cu2P5N3
_chemical_formula_sum   'Li2 Ti2 Cu2 P5 N3'
_cell_volume   470.26616296
_cell_formula_units_Z   1
loop_
 _symmetry_equiv_pos_site_id
 _symmetry_equiv_pos_as_xyz
  1  'x, y, z'
loop_
 _atom_site_type_symbol
 _atom_site_label
 _atom_site_symmetry_multiplicity
 _atom_site_fract_x
 _atom_site_fract_y
 _atom_site_fract_z
 _atom_site_occupancy
  P  P0  1  0.00000000  0.00000000  0.00000000  1
  P  P1  1  0.50000000  0.50000000  0.50000000  1
  P  P2  1  0.25000000  0.25000000  0.25000000  1
  P  P3  1  0.75000000  0.25000000  0.00000000  1
  P  P4  1  0.25000000  0.75000000  0.50000000  1
  Li  Li5  1  0.18851093  0.21490217  0.50055263  1
  Li  Li6  1  0.23216330  0.39992102  0.66134647  1
  Cu  Cu7  1  0.33049813  0.79887571  0.91646060  1
  Cu  Cu8  1  0.55551466  0.02982482  0.85006629  1
  Ti  Ti9  1  0.36904159  0.11013257  0.23547128  1
  Ti  Ti10  1  0.14647188  0.92067940  0.03382330  1
  N  N11  1  0.18937977  0.25006841  0.16452346  1
  N  N12  1  0.57426860  0.63131704  0.67531710  1
  N  N13  1  0.55306416  0.08671483  0.11015043  1
