# generated using pymatgen
data_LiCuAs3
_symmetry_space_group_name_H-M   'P 1'
_cell_length_a   7.53834924
_cell_length_b   7.44240084
_cell_length_c   8.29594139
_cell_angle_alpha   91.04234387
_cell_angle_beta   92.10169754
_cell_angle_gamma   91.19463843
_symmetry_Int_Tables_number   1
_chemical_formula_structural   LiCuAs3
_chemical_formula_sum   'Li2 Cu2 As6'
_cell_volume   464.93276332
_cell_formula_units_Z   2
loop_
 _symmetry_equiv_pos_site_id
 _symmetry_equiv_pos_as_xyz
  1  'x, y, z'
loop_
 _atom_site_type_symbol
 _atom_site_label
 _atom_site_symmetry_multiplicity
 _atom_site_fract_x
 _atom_site_fract_y
 _atom_site_fract_z
 _atom_site_occupancy
  Li  Li0  1  0.00000000  0.00000000  0.00000000  1
  Li  Li1  1  0.33300000  0.66700000  0.25000000  1
  Cu  Cu2  1  0.66700000  0.33300000  0.50000000  1
  Cu  Cu3  1  0.00000000  0.00000000  0.75000000  1
  As  As4  1  0.43184347  0.34173680  0.33034947  1
  As  As5  1  0.78321595  0.23830726  0.34323961  1
  As  As6  1  0.93330660  0.97491577  0.51790813  1
  As  As7  1  0.38308245  0.89439729  0.02124194  1
  As  As8  1  0.38962847  0.41728107  0.76046800  1
  As  As9  1  0.26353291  0.88043309  0.58588098  1
