# generated using pymatgen
data_Li2LuCu2(P3Cl)2
_symmetry_space_group_name_H-M   'P 1'
_cell_length_a   6.27869612
_cell_length_b   5.96821901
_cell_length_c   7.59454981
_cell_angle_alpha   99.21872897
_cell_angle_beta   101.76838305
_cell_angle_gamma   98.74822110
_symmetry_Int_Tables_number   1
_chemical_formula_structural   Li2LuCu2(P3Cl)2
_chemical_formula_sum   'Li2 Lu1 Cu2 P6 Cl2'
_cell_volume   269.93348881
_cell_formula_units_Z   1
loop_
 _symmetry_equiv_pos_site_id
 _symmetry_equiv_pos_as_xyz
  1  'x, y, z'
loop_
 _atom_site_type_symbol
 _atom_site_label
 _atom_site_symmetry_multiplicity
 _atom_site_fract_x
 _atom_site_fract_y
 _atom_site_fract_z
 _atom_site_occupancy
  P  P0  1  0.00000000  0.00000000  0.00000000  1
  P  P1  1  0.50000000  0.50000000  0.50000000  1
  P  P2  1  0.25000000  0.25000000  0.25000000  1
  P  P3  1  0.75000000  0.25000000  0.00000000  1
  P  P4  1  0.25000000  0.75000000  0.50000000  1
  P  P5  1  0.11564419  0.39785683  0.78444401  1
  Lu  Lu6  1  0.97238448  0.85799477  0.57898857  1
  Li  Li7  1  0.93059693  0.00956017  0.40654744  1
  Li  Li8  1  0.20683054  0.93795434  0.58201064  1
  Cu  Cu9  1  0.74604876  0.76552314  0.66445566  1
  Cu  Cu10  1  0.68442729  0.65112483  0.83331930  1
  Cl  Cl11  1  0.61183376  0.31329747  0.98468788  1
  Cl  Cl12  1  0.11710682  0.95064883  0.34995149  1
