# generated using pymatgen
data_Li2Cu2I5N5O3
_symmetry_space_group_name_H-M   'P 1'
_cell_length_a   7.80052371
_cell_length_b   7.62762208
_cell_length_c   7.78001252
_cell_angle_alpha   91.39172113
_cell_angle_beta   92.03449669
_cell_angle_gamma   91.48901204
_symmetry_Int_Tables_number   1
_chemical_formula_structural   Li2Cu2I5N5O3
_chemical_formula_sum   'Li2 Cu2 I5 N5 O3'
_cell_volume   462.31116136
_cell_formula_units_Z   1
loop_
 _symmetry_equiv_pos_site_id
 _symmetry_equiv_pos_as_xyz
  1  'x, y, z'
loop_
 _atom_site_type_symbol
 _atom_site_label
 _atom_site_symmetry_multiplicity
 _atom_site_fract_x
 _atom_site_fract_y
 _atom_site_fract_z
 _atom_site_occupancy
  I  I0  1  0.12500000  0.00000000  0.25000000  1
  I  I1  1  0.00000000  0.00000000  0.00000000  1
  I  I2  1  0.37500000  0.00000000  0.25000000  1
  I  I3  1  0.25000000  0.25000000  0.25000000  1
  I  I4  1  0.00000000  0.25000000  0.12500000  1
  Li  Li5  1  0.12397520  0.62627105  0.17263872  1
  Li  Li6  1  0.64977479  0.62799990  0.81165037  1
  Cu  Cu7  1  0.60771114  0.45093299  0.65823842  1
  Cu  Cu8  1  0.32337963  0.07883306  0.49143841  1
  O  O9  1  0.55855594  0.94210307  0.17480879  1
  O  O10  1  0.39716798  0.83080926  0.94076994  1
  O  O11  1  0.92624699  0.25349511  0.48860429  1
  N  N12  1  0.85202938  0.99344033  0.05854913  1
  N  N13  1  0.77340178  0.82942920  0.68640359  1
  N  N14  1  0.41365373  0.69448665  0.09279071  1
  N  N15  1  0.53052988  0.05521653  0.19657257  1
  N  N16  1  0.32417006  0.11759170  0.12957340  1
