# generated using pymatgen
data_Li2Mn2Sb2P3
_symmetry_space_group_name_H-M   'P 1'
_cell_length_a   5.24248787
_cell_length_b   5.58565429
_cell_length_c   6.71974223
_cell_angle_alpha   98.05465911
_cell_angle_beta   93.31062529
_cell_angle_gamma   98.21364485
_symmetry_Int_Tables_number   1
_chemical_formula_structural   Li2Mn2Sb2P3
_chemical_formula_sum   'Li2 Mn2 Sb2 P3'
_cell_volume   192.22451517
_cell_formula_units_Z   1
loop_
 _symmetry_equiv_pos_site_id
 _symmetry_equiv_pos_as_xyz
  1  'x, y, z'
loop_
 _atom_site_type_symbol
 _atom_site_label
 _atom_site_symmetry_multiplicity
 _atom_site_fract_x
 _atom_site_fract_y
 _atom_site_fract_z
 _atom_site_occupancy
  Mn  Mn0  1  0.12500000  0.12500000  0.12500000  1
  Mn  Mn1  1  0.50000000  0.50000000  0.50000000  1
  Sb  Sb2  1  0.25000000  0.25000000  0.25000000  1
  Sb  Sb3  1  0.75000000  0.75000000  0.75000000  1
  P  P4  1  0.47635081  0.95876849  0.86431927  1
  P  P5  1  0.85824388  0.00668523  0.36602912  1
  P  P6  1  0.10129919  0.93677171  0.72065617  1
  Li  Li7  1  0.93063848  0.74052076  0.24643148  1
  Li  Li8  1  0.85797497  0.07858036  0.74876429  1
