# generated using pymatgen
data_Li3LuCu2As6N5
_symmetry_space_group_name_H-M   'P 1'
_cell_length_a   7.46827884
_cell_length_b   7.27028273
_cell_length_c   8.41091580
_cell_angle_alpha   92.77214295
_cell_angle_beta   92.34782657
_cell_angle_gamma   93.00324459
_symmetry_Int_Tables_number   1
_chemical_formula_structural   Li3LuCu2As6N5
_chemical_formula_sum   'Li3 Lu1 Cu2 As6 N5'
_cell_volume   455.08898339
_cell_formula_units_Z   1
loop_
 _symmetry_equiv_pos_site_id
 _symmetry_equiv_pos_as_xyz
  1  'x, y, z'
loop_
 _atom_site_type_symbol
 _atom_site_label
 _atom_site_symmetry_multiplicity
 _atom_site_fract_x
 _atom_site_fract_y
 _atom_site_fract_z
 _atom_site_occupancy
  Lu  Lu0  1  0.00000000  0.00000000  0.00000000  1
  Li  Li1  1  0.50000000  0.50000000  0.50000000  1
  Li  Li2  1  0.50000000  0.50000000  0.00000000  1
  Li  Li3  1  0.50000000  0.00000000  0.50000000  1
  Cu  Cu4  1  0.00000000  0.50000000  0.50000000  1
  Cu  Cu5  1  0.25908881  0.61586176  0.12957417  1
  As  As6  1  0.32524489  0.65819489  0.52769696  1
  As  As7  1  0.03914712  0.65845951  0.62120886  1
  As  As8  1  0.35276811  0.54638886  0.55752511  1
  As  As9  1  0.89923420  0.81515058  0.70563959  1
  As  As10  1  0.03161073  0.78038337  0.53610814  1
  As  As11  1  0.26078530  0.08829900  0.12765688  1
  N  N12  1  0.52418485  0.40512964  0.78998001  1
  N  N13  1  0.78250325  0.33337481  0.70660496  1
  N  N14  1  0.73870511  0.29215540  0.44826433  1
  N  N15  1  0.28592204  0.29314760  0.73999308  1
  N  N16  1  0.39265999  0.72497997  0.12748666  1
