# generated using pymatgen
data_Li2TiI4O3F2
_symmetry_space_group_name_H-M   'P 1'
_cell_length_a   7.65590727
_cell_length_b   7.41181249
_cell_length_c   7.41035239
_cell_angle_alpha   91.06556777
_cell_angle_beta   92.52362912
_cell_angle_gamma   91.04880679
_symmetry_Int_Tables_number   1
_chemical_formula_structural   Li2TiI4O3F2
_chemical_formula_sum   'Li2 Ti1 I4 O3 F2'
_cell_volume   419.93669826
_cell_formula_units_Z   1
loop_
 _symmetry_equiv_pos_site_id
 _symmetry_equiv_pos_as_xyz
  1  'x, y, z'
loop_
 _atom_site_type_symbol
 _atom_site_label
 _atom_site_symmetry_multiplicity
 _atom_site_fract_x
 _atom_site_fract_y
 _atom_site_fract_z
 _atom_site_occupancy
  I  I0  1  0.00000000  0.00000000  0.00000000  1
  I  I1  1  0.50000000  0.50000000  0.50000000  1
  I  I2  1  0.25000000  0.25000000  0.25000000  1
  I  I3  1  0.75000000  0.25000000  0.00000000  1
  Li  Li4  1  0.25000000  0.75000000  0.50000000  1
  Li  Li5  1  0.32445026  0.71252103  0.76280908  1
  F  F6  1  0.82631010  0.28429243  0.53681749  1
  F  F7  1  0.08930912  0.16553857  0.63251250  1
  Ti  Ti8  1  0.47700953  0.81861969  0.19155775  1
  O  O9  1  0.94427011  0.36868270  0.70410143  1
  O  O10  1  0.54731165  0.18952397  0.95362895  1
  O  O11  1  0.01868452  0.68016214  0.99513096  1
