# generated using pymatgen
data_Li3Ti(IO)4
_symmetry_space_group_name_H-M   'P 1'
_cell_length_a   8.25932747
_cell_length_b   8.08453088
_cell_length_c   7.28456827
_cell_angle_alpha   91.74450043
_cell_angle_beta   92.12999055
_cell_angle_gamma   91.70904215
_symmetry_Int_Tables_number   1
_chemical_formula_structural   Li3Ti(IO)4
_chemical_formula_sum   'Li3 Ti1 I4 O4'
_cell_volume   485.61619834
_cell_formula_units_Z   1
loop_
 _symmetry_equiv_pos_site_id
 _symmetry_equiv_pos_as_xyz
  1  'x, y, z'
loop_
 _atom_site_type_symbol
 _atom_site_label
 _atom_site_symmetry_multiplicity
 _atom_site_fract_x
 _atom_site_fract_y
 _atom_site_fract_z
 _atom_site_occupancy
  I  I0  1  0.00000000  0.00000000  0.00000000  1
  I  I1  1  0.50000000  0.50000000  0.50000000  1
  I  I2  1  0.25000000  0.25000000  0.25000000  1
  I  I3  1  0.75000000  0.25000000  0.00000000  1
  Li  Li4  1  0.25000000  0.75000000  0.50000000  1
  Li  Li5  1  0.64590707  0.66672059  0.97801055  1
  Li  Li6  1  0.69105596  0.87949562  0.74394153  1
  Ti  Ti7  1  0.02661189  0.23307220  0.38373693  1
  O  O8  1  0.85579098  0.65436480  0.73676354  1
  O  O9  1  0.57711168  0.07547947  0.95437494  1
  O  O10  1  0.49200303  0.88846312  0.26410609  1
  O  O11  1  0.08524044  0.97661733  0.74305787  1
