# generated using pymatgen
data_Li3TiNi2As6O5
_symmetry_space_group_name_H-M   'P 1'
_cell_length_a   8.21576798
_cell_length_b   8.06450469
_cell_length_c   8.33596811
_cell_angle_alpha   90.92793774
_cell_angle_beta   90.58830949
_cell_angle_gamma   91.07531383
_symmetry_Int_Tables_number   1
_chemical_formula_structural   Li3TiNi2As6O5
_chemical_formula_sum   'Li3 Ti1 Ni2 As6 O5'
_cell_volume   552.10817172
_cell_formula_units_Z   1
loop_
 _symmetry_equiv_pos_site_id
 _symmetry_equiv_pos_as_xyz
  1  'x, y, z'
loop_
 _atom_site_type_symbol
 _atom_site_label
 _atom_site_symmetry_multiplicity
 _atom_site_fract_x
 _atom_site_fract_y
 _atom_site_fract_z
 _atom_site_occupancy
  Li  Li0  1  0.00000000  0.00000000  0.00000000  1
  Li  Li1  1  0.50000000  0.50000000  0.50000000  1
  Li  Li2  1  0.50000000  0.50000000  0.00000000  1
  Ni  Ni3  1  0.50000000  0.00000000  0.50000000  1
  Ni  Ni4  1  0.00000000  0.50000000  0.50000000  1
  Ti  Ti5  1  0.60129498  0.76513533  0.22786428  1
  As  As6  1  0.88961020  0.85936414  0.26465087  1
  As  As7  1  0.98049144  0.90891881  0.54261090  1
  As  As8  1  0.03016237  0.19854037  0.98151608  1
  As  As9  1  0.64245948  0.20179690  0.41025771  1
  As  As10  1  0.56378495  0.28583457  0.75651690  1
  As  As11  1  0.83493944  0.46799750  0.83252262  1
  O  O12  1  0.92500023  0.47472893  0.66872822  1
  O  O13  1  0.71880542  0.74604640  0.43297009  1
  O  O14  1  0.88150561  0.75117425  0.11139138  1
  O  O15  1  0.61107076  0.59325595  0.98235112  1
  O  O16  1  0.42252562  0.86857000  0.75118556  1
