# generated using pymatgen
data_Li2TiP8NO3
_symmetry_space_group_name_H-M   'P 1'
_cell_length_a   6.92773212
_cell_length_b   6.93794989
_cell_length_c   6.64710820
_cell_angle_alpha   90.99970296
_cell_angle_beta   98.25521059
_cell_angle_gamma   91.02411873
_symmetry_Int_Tables_number   1
_chemical_formula_structural   Li2TiP8NO3
_chemical_formula_sum   'Li2 Ti1 P8 N1 O3'
_cell_volume   316.06271685
_cell_formula_units_Z   1
loop_
 _symmetry_equiv_pos_site_id
 _symmetry_equiv_pos_as_xyz
  1  'x, y, z'
loop_
 _atom_site_type_symbol
 _atom_site_label
 _atom_site_symmetry_multiplicity
 _atom_site_fract_x
 _atom_site_fract_y
 _atom_site_fract_z
 _atom_site_occupancy
  Ti  Ti0  1  0.00000000  0.00000000  0.00000000  1
  O  O1  1  0.50000000  0.50000000  0.50000000  1
  O  O2  1  0.25000000  0.25000000  0.25000000  1
  O  O3  1  0.75000000  0.25000000  0.00000000  1
  P  P4  1  0.25000000  0.75000000  0.50000000  1
  P  P5  1  0.67077348  0.63578741  0.67804784  1
  P  P6  1  0.29149953  0.71769623  0.76175325  1
  P  P7  1  0.92811486  0.24148620  0.34758796  1
  P  P8  1  0.22731546  0.49518921  0.86338186  1
  P  P9  1  0.07303963  0.59575937  0.86722847  1
  P  P10  1  0.42615399  0.77363347  0.67731609  1
  P  P11  1  0.07840584  0.31011160  0.27186361  1
  Li  Li12  1  0.12907948  0.40964582  0.94784690  1
  Li  Li13  1  0.52613440  0.97209928  0.97360393  1
  N  N14  1  0.43474225  0.77684692  0.64353191  1
