# generated using pymatgen
data_LiP4Cl
_symmetry_space_group_name_H-M   'P 1'
_cell_length_a   5.92680131
_cell_length_b   5.47961994
_cell_length_c   7.05380436
_cell_angle_alpha   98.12573691
_cell_angle_beta   100.74306901
_cell_angle_gamma   97.57546536
_symmetry_Int_Tables_number   1
_chemical_formula_structural   LiP4Cl
_chemical_formula_sum   'Li2 P8 Cl2'
_cell_volume   219.84254248
_cell_formula_units_Z   2
loop_
 _symmetry_equiv_pos_site_id
 _symmetry_equiv_pos_as_xyz
  1  'x, y, z'
loop_
 _atom_site_type_symbol
 _atom_site_label
 _atom_site_symmetry_multiplicity
 _atom_site_fract_x
 _atom_site_fract_y
 _atom_site_fract_z
 _atom_site_occupancy
  Cl  Cl0  1  0.00000000  0.00000000  0.00000000  1
  Cl  Cl1  1  0.50000000  0.50000000  0.50000000  1
  P  P2  1  0.25000000  0.25000000  0.25000000  1
  P  P3  1  0.75000000  0.25000000  0.00000000  1
  P  P4  1  0.25000000  0.75000000  0.50000000  1
  P  P5  1  0.51182961  0.74889334  0.22810818  1
  P  P6  1  0.70265458  0.93611989  0.10586279  1
  P  P7  1  0.56120678  0.14512864  0.81677591  1
  P  P8  1  0.70955739  0.12701927  0.55235146  1
  P  P9  1  0.86853589  0.39698571  0.40937158  1
  Li  Li10  1  0.30124443  0.76825238  0.66709846  1
  Li  Li11  1  0.77225206  0.83711982  0.86969329  1
