# generated using pymatgen
data_Li2P5
_symmetry_space_group_name_H-M   'P 1'
_cell_length_a   6.06436336
_cell_length_b   5.88468295
_cell_length_c   7.52436846
_cell_angle_alpha   100.67939461
_cell_angle_beta   103.53633218
_cell_angle_gamma   100.09610424
_symmetry_Int_Tables_number   1
_chemical_formula_structural   Li2P5
_chemical_formula_sum   'Li2 P5'
_cell_volume   249.72989635
_cell_formula_units_Z   1
loop_
 _symmetry_equiv_pos_site_id
 _symmetry_equiv_pos_as_xyz
  1  'x, y, z'
loop_
 _atom_site_type_symbol
 _atom_site_label
 _atom_site_symmetry_multiplicity
 _atom_site_fract_x
 _atom_site_fract_y
 _atom_site_fract_z
 _atom_site_occupancy
  P  P0  1  0.00000000  0.00000000  0.00000000  1
  P  P1  1  0.33300000  0.66700000  0.25000000  1
  P  P2  1  0.66700000  0.33300000  0.50000000  1
  P  P3  1  0.00000000  0.00000000  0.75000000  1
  P  P4  1  0.89306150  0.96527432  0.07964361  1
  Li  Li5  1  0.57984744  0.42213505  0.54370799  1
  Li  Li6  1  0.73249707  0.34800597  0.71517305  1
