# generated using pymatgen
data_Li2LuP3
_symmetry_space_group_name_H-M   'P 1'
_cell_length_a   6.77899784
_cell_length_b   6.68379054
_cell_length_c   7.42102881
_cell_angle_alpha   97.18639520
_cell_angle_beta   99.04330412
_cell_angle_gamma   96.82696310
_symmetry_Int_Tables_number   1
_chemical_formula_structural   Li2LuP3
_chemical_formula_sum   'Li2 Lu1 P3'
_cell_volume   326.14464286
_cell_formula_units_Z   1
loop_
 _symmetry_equiv_pos_site_id
 _symmetry_equiv_pos_as_xyz
  1  'x, y, z'
loop_
 _atom_site_type_symbol
 _atom_site_label
 _atom_site_symmetry_multiplicity
 _atom_site_fract_x
 _atom_site_fract_y
 _atom_site_fract_z
 _atom_site_occupancy
  P  P0  1  0.00000000  0.00000000  0.00000000  1
  P  P1  1  0.33300000  0.66700000  0.25000000  1
  P  P2  1  0.66700000  0.33300000  0.50000000  1
  Lu  Lu3  1  0.00000000  0.00000000  0.75000000  1
  Li  Li4  1  0.04913850  0.22317214  0.92550788  1
  Li  Li5  1  0.32485739  0.12710441  0.86021637  1
