# generated using pymatgen
data_Li2LuCu2(As3P2)2
_symmetry_space_group_name_H-M   'P 1'
_cell_length_a   7.54875332
_cell_length_b   7.55283441
_cell_length_c   8.22342534
_cell_angle_alpha   90.88938841
_cell_angle_beta   91.97528483
_cell_angle_gamma   90.97881967
_symmetry_Int_Tables_number   1
_chemical_formula_structural   Li2LuCu2(As3P2)2
_chemical_formula_sum   'Li2 Lu1 Cu2 As6 P4'
_cell_volume   468.44647936
_cell_formula_units_Z   1
loop_
 _symmetry_equiv_pos_site_id
 _symmetry_equiv_pos_as_xyz
  1  'x, y, z'
loop_
 _atom_site_type_symbol
 _atom_site_label
 _atom_site_symmetry_multiplicity
 _atom_site_fract_x
 _atom_site_fract_y
 _atom_site_fract_z
 _atom_site_occupancy
  P  P0  1  0.00000000  0.00000000  0.00000000  1
  P  P1  1  0.50000000  0.50000000  0.50000000  1
  P  P2  1  0.50000000  0.50000000  0.00000000  1
  P  P3  1  0.50000000  0.00000000  0.50000000  1
  Lu  Lu4  1  0.00000000  0.50000000  0.50000000  1
  Li  Li5  1  0.13219236  0.68112446  0.43699914  1
  Li  Li6  1  0.11859628  0.59603104  0.17449950  1
  Cu  Cu7  1  0.71792841  0.02085749  0.48179709  1
  Cu  Cu8  1  0.07096584  0.76037365  0.92506681  1
  As  As9  1  0.00580270  0.52514548  0.84701208  1
  As  As10  1  0.51497174  0.15812187  0.50464021  1
  As  As11  1  0.81713912  0.80314179  0.76047953  1
  As  As12  1  0.92159131  0.98165058  0.23814719  1
  As  As13  1  0.25328010  0.71817686  0.22827280  1
  As  As14  1  0.35654207  0.41289650  0.39762904  1
