# generated using pymatgen
data_Li2TiP4N5
_symmetry_space_group_name_H-M   'P 1'
_cell_length_a   6.91949369
_cell_length_b   6.81501771
_cell_length_c   7.40027708
_cell_angle_alpha   92.12030902
_cell_angle_beta   92.68611632
_cell_angle_gamma   91.61302995
_symmetry_Int_Tables_number   1
_chemical_formula_structural   Li2TiP4N5
_chemical_formula_sum   'Li2 Ti1 P4 N5'
_cell_volume   348.19274144
_cell_formula_units_Z   1
loop_
 _symmetry_equiv_pos_site_id
 _symmetry_equiv_pos_as_xyz
  1  'x, y, z'
loop_
 _atom_site_type_symbol
 _atom_site_label
 _atom_site_symmetry_multiplicity
 _atom_site_fract_x
 _atom_site_fract_y
 _atom_site_fract_z
 _atom_site_occupancy
  P  P0  1  0.00000000  0.00000000  0.00000000  1
  P  P1  1  0.50000000  0.50000000  0.50000000  1
  P  P2  1  0.50000000  0.50000000  0.00000000  1
  P  P3  1  0.50000000  0.00000000  0.50000000  1
  Li  Li4  1  0.00000000  0.50000000  0.50000000  1
  Li  Li5  1  0.67915708  0.91170662  0.39028811  1
  Ti  Ti6  1  0.08799913  0.03824001  0.23011040  1
  N  N7  1  0.08813616  0.55927318  0.50369461  1
  N  N8  1  0.42298594  0.28981084  0.46844201  1
  N  N9  1  0.60968069  0.74547423  0.57098639  1
  N  N10  1  0.98442653  0.62455525  0.65448889  1
  N  N11  1  0.00217812  0.09173116  0.17769022  1
