# generated using pymatgen
data_LiCuI2
_symmetry_space_group_name_H-M   'P 1'
_cell_length_a   6.82009856
_cell_length_b   6.91763447
_cell_length_c   7.92421466
_cell_angle_alpha   92.48241892
_cell_angle_beta   94.55241449
_cell_angle_gamma   92.35508092
_symmetry_Int_Tables_number   1
_chemical_formula_structural   LiCuI2
_chemical_formula_sum   'Li2 Cu2 I4'
_cell_volume   371.95454657
_cell_formula_units_Z   2
loop_
 _symmetry_equiv_pos_site_id
 _symmetry_equiv_pos_as_xyz
  1  'x, y, z'
loop_
 _atom_site_type_symbol
 _atom_site_label
 _atom_site_symmetry_multiplicity
 _atom_site_fract_x
 _atom_site_fract_y
 _atom_site_fract_z
 _atom_site_occupancy
  I  I0  1  0.12500000  0.00000000  0.25000000  1
  I  I1  1  0.00000000  0.00000000  0.00000000  1
  I  I2  1  0.37500000  0.00000000  0.25000000  1
  I  I3  1  0.25000000  0.25000000  0.25000000  1
  Li  Li4  1  0.00000000  0.25000000  0.12500000  1
  Li  Li5  1  0.82515701  0.65328312  0.41081180  1
  Cu  Cu6  1  0.70453654  0.01568066  0.79741781  1
  Cu  Cu7  1  0.11058607  0.01994964  0.95415225  1
