# generated using pymatgen
data_Li4LuNi2P4N5
_symmetry_space_group_name_H-M   'P 1'
_cell_length_a   7.43249497
_cell_length_b   7.05219556
_cell_length_c   8.86811598
_cell_angle_alpha   93.49759716
_cell_angle_beta   91.23654746
_cell_angle_gamma   94.05678930
_symmetry_Int_Tables_number   1
_chemical_formula_structural   Li4LuNi2P4N5
_chemical_formula_sum   'Li4 Lu1 Ni2 P4 N5'
_cell_volume   462.64105756
_cell_formula_units_Z   1
loop_
 _symmetry_equiv_pos_site_id
 _symmetry_equiv_pos_as_xyz
  1  'x, y, z'
loop_
 _atom_site_type_symbol
 _atom_site_label
 _atom_site_symmetry_multiplicity
 _atom_site_fract_x
 _atom_site_fract_y
 _atom_site_fract_z
 _atom_site_occupancy
  P  P0  1  0.12500000  0.00000000  0.25000000  1
  P  P1  1  0.00000000  0.00000000  0.00000000  1
  P  P2  1  0.37500000  0.00000000  0.25000000  1
  P  P3  1  0.25000000  0.25000000  0.25000000  1
  Lu  Lu4  1  0.00000000  0.25000000  0.12500000  1
  Li  Li5  1  0.85220857  0.22035919  0.98905962  1
  Li  Li6  1  0.77347411  0.98386630  0.82248077  1
  Li  Li7  1  0.34323234  0.51135189  0.43915644  1
  Li  Li8  1  0.65922143  0.50576159  0.93205220  1
  Ni  Ni9  1  0.78531949  0.19141298  0.60535070  1
  Ni  Ni10  1  0.65440993  0.88126618  0.60330409  1
  N  N11  1  0.97971496  0.71345106  0.35506473  1
  N  N12  1  0.18148354  0.40248454  0.62562154  1
  N  N13  1  0.84232892  0.31592452  0.79887916  1
  N  N14  1  0.90298503  0.89138555  0.03378167  1
  N  N15  1  0.67256893  0.01252698  0.60969373  1
