# generated using pymatgen
data_Li2LuP4I4F3
_symmetry_space_group_name_H-M   'P 1'
_cell_length_a   7.68382699
_cell_length_b   7.54227307
_cell_length_c   7.78684218
_cell_angle_alpha   92.37958525
_cell_angle_beta   92.83280986
_cell_angle_gamma   92.44534110
_symmetry_Int_Tables_number   1
_chemical_formula_structural   Li2LuP4I4F3
_chemical_formula_sum   'Li2 Lu1 P4 I4 F3'
_cell_volume   449.88242076
_cell_formula_units_Z   1
loop_
 _symmetry_equiv_pos_site_id
 _symmetry_equiv_pos_as_xyz
  1  'x, y, z'
loop_
 _atom_site_type_symbol
 _atom_site_label
 _atom_site_symmetry_multiplicity
 _atom_site_fract_x
 _atom_site_fract_y
 _atom_site_fract_z
 _atom_site_occupancy
  F  F0  1  0.12500000  0.00000000  0.25000000  1
  F  F1  1  0.00000000  0.00000000  0.00000000  1
  F  F2  1  0.37500000  0.00000000  0.25000000  1
  I  I3  1  0.25000000  0.25000000  0.25000000  1
  I  I4  1  0.00000000  0.25000000  0.12500000  1
  I  I5  1  0.76507015  0.20103890  0.77810182  1
  I  I6  1  0.44327988  0.43895188  0.84857115  1
  P  P7  1  0.94769869  0.66534231  0.11047712  1
  P  P8  1  0.44399163  0.15040327  0.48648073  1
  P  P9  1  0.00290416  0.61493794  0.46187542  1
  P  P10  1  0.44700219  0.32881966  0.94178469  1
  Lu  Lu11  1  0.54658218  0.11574265  0.06739742  1
  Li  Li12  1  0.63533137  0.52836688  0.96481329  1
  Li  Li13  1  0.28106708  0.74383289  0.86269406  1
