# generated using pymatgen
data_Li2As6P8S3F2
_symmetry_space_group_name_H-M   'P 1'
_cell_length_a   7.62057427
_cell_length_b   7.45187502
_cell_length_c   8.54293097
_cell_angle_alpha   90.39803848
_cell_angle_beta   91.89374620
_cell_angle_gamma   90.45506427
_symmetry_Int_Tables_number   1
_chemical_formula_structural   Li2As6P8S3F2
_chemical_formula_sum   'Li2 As6 P8 S3 F2'
_cell_volume   484.83939160
_cell_formula_units_Z   1
loop_
 _symmetry_equiv_pos_site_id
 _symmetry_equiv_pos_as_xyz
  1  'x, y, z'
loop_
 _atom_site_type_symbol
 _atom_site_label
 _atom_site_symmetry_multiplicity
 _atom_site_fract_x
 _atom_site_fract_y
 _atom_site_fract_z
 _atom_site_occupancy
  P  P0  1  0.00000000  0.00000000  0.00000000  1
  P  P1  1  0.50000000  0.50000000  0.50000000  1
  P  P2  1  0.50000000  0.50000000  0.00000000  1
  P  P3  1  0.50000000  0.00000000  0.50000000  1
  P  P4  1  0.00000000  0.50000000  0.50000000  1
  P  P5  1  0.83528913  0.88977795  0.84368929  1
  P  P6  1  0.08264648  0.50779516  0.85243104  1
  P  P7  1  0.09269828  0.67480503  0.67790547  1
  Li  Li8  1  0.58651523  0.96423142  0.90116903  1
  Li  Li9  1  0.13238072  0.43512402  0.23468407  1
  F  F10  1  0.87905861  0.68461913  0.97685995  1
  F  F11  1  0.40651208  0.36198017  0.08791517  1
  S  S12  1  0.04183249  0.69524335  0.11895793  1
  S  S13  1  0.83675103  0.05481451  0.82285583  1
  S  S14  1  0.38462381  0.92632033  0.40678271  1
  As  As15  1  0.68264379  0.08956416  0.30209936  1
  As  As16  1  0.48653896  0.19368703  0.96563089  1
  As  As17  1  0.90423556  0.07767643  0.28608081  1
  As  As18  1  0.67638285  0.85588284  0.45674991  1
  As  As19  1  0.38279689  0.56319069  0.88096486  1
  As  As20  1  0.72862463  0.78041395  0.79957187  1
