# generated using pymatgen
data_LiCuCl
_symmetry_space_group_name_H-M   'P 1'
_cell_length_a   5.87525920
_cell_length_b   5.60086074
_cell_length_c   7.51052896
_cell_angle_alpha   100.79817852
_cell_angle_beta   104.35576026
_cell_angle_gamma   100.32433274
_symmetry_Int_Tables_number   1
_chemical_formula_structural   LiCuCl
_chemical_formula_sum   'Li2 Cu2 Cl2'
_cell_volume   228.47972490
_cell_formula_units_Z   2
loop_
 _symmetry_equiv_pos_site_id
 _symmetry_equiv_pos_as_xyz
  1  'x, y, z'
loop_
 _atom_site_type_symbol
 _atom_site_label
 _atom_site_symmetry_multiplicity
 _atom_site_fract_x
 _atom_site_fract_y
 _atom_site_fract_z
 _atom_site_occupancy
  Cl  Cl0  1  0.00000000  0.00000000  0.00000000  1
  Cl  Cl1  1  0.33300000  0.66700000  0.25000000  1
  Li  Li2  1  0.66700000  0.33300000  0.50000000  1
  Li  Li3  1  0.00000000  0.00000000  0.75000000  1
  Cu  Cu4  1  0.80036898  0.27864510  0.53228436  1
  Cu  Cu5  1  0.72246049  0.15780350  0.08942923  1
