# generated using pymatgen
data_Li4Ti2P3I4O3
_symmetry_space_group_name_H-M   'P 1'
_cell_length_a   8.13960595
_cell_length_b   8.07127069
_cell_length_c   7.03757563
_cell_angle_alpha   90.00000000
_cell_angle_beta   90.00000000
_cell_angle_gamma   90.00000000
_symmetry_Int_Tables_number   1
_chemical_formula_structural   Li4Ti2P3I4O3
_chemical_formula_sum   'Li4 Ti2 P3 I4 O3'
_cell_volume   462.34734511
_cell_formula_units_Z   1
loop_
 _symmetry_equiv_pos_site_id
 _symmetry_equiv_pos_as_xyz
  1  'x, y, z'
loop_
 _atom_site_type_symbol
 _atom_site_label
 _atom_site_symmetry_multiplicity
 _atom_site_fract_x
 _atom_site_fract_y
 _atom_site_fract_z
 _atom_site_occupancy
  P  P0  1  0.00000000  0.00000000  0.00000000  1
  P  P1  1  0.50000000  0.50000000  0.50000000  1
  P  P2  1  0.50000000  0.50000000  0.00000000  1
  I  I3  1  0.50000000  0.00000000  0.50000000  1
  I  I4  1  0.00000000  0.50000000  0.50000000  1
  I  I5  1  0.81623313  0.20648809  0.92747782  1
  I  I6  1  0.21940997  0.51514958  0.65646707  1
  Li  Li7  1  0.41172882  0.36518191  0.62983059  1
  Li  Li8  1  0.88931200  0.44968581  0.09818965  1
  Li  Li9  1  0.06120058  0.74610151  0.27353537  1
  Li  Li10  1  0.94247017  0.95064825  0.94259598  1
  Ti  Ti11  1  0.31907287  0.95815047  0.94557014  1
  Ti  Ti12  1  0.50273545  0.95177963  0.39232824  1
  O  O13  1  0.85996822  0.95574338  0.56443231  1
  O  O14  1  0.72263869  0.89832088  0.79785418  1
  O  O15  1  0.92650927  0.41042966  0.82965349  1
