# generated using pymatgen
data_LiCuAs3P2F
_symmetry_space_group_name_H-M   'P 1'
_cell_length_a   7.16507202
_cell_length_b   7.12369232
_cell_length_c   7.90942335
_cell_angle_alpha   92.02067164
_cell_angle_beta   93.84857015
_cell_angle_gamma   91.82104868
_symmetry_Int_Tables_number   1
_chemical_formula_structural   LiCuAs3P2F
_chemical_formula_sum   'Li2 Cu2 As6 P4 F2'
_cell_volume   402.31400417
_cell_formula_units_Z   2
loop_
 _symmetry_equiv_pos_site_id
 _symmetry_equiv_pos_as_xyz
  1  'x, y, z'
loop_
 _atom_site_type_symbol
 _atom_site_label
 _atom_site_symmetry_multiplicity
 _atom_site_fract_x
 _atom_site_fract_y
 _atom_site_fract_z
 _atom_site_occupancy
  P  P0  1  0.12500000  0.00000000  0.25000000  1
  P  P1  1  0.00000000  0.00000000  0.00000000  1
  P  P2  1  0.37500000  0.00000000  0.25000000  1
  P  P3  1  0.25000000  0.25000000  0.25000000  1
  Li  Li4  1  0.00000000  0.25000000  0.12500000  1
  Li  Li5  1  0.93536549  0.88494688  0.47483387  1
  Cu  Cu6  1  0.72262846  0.28696408  0.60246687  1
  Cu  Cu7  1  0.76260945  0.86893607  0.10629123  1
  F  F8  1  0.84693610  0.94250037  0.60238535  1
  F  F9  1  0.55766059  0.25461725  0.14988909  1
  As  As10  1  0.29663894  0.69763751  0.56365799  1
  As  As11  1  0.88566345  0.17348744  0.20621564  1
  As  As12  1  0.08089874  0.68266732  0.83293200  1
  As  As13  1  0.08333253  0.98877971  0.80560362  1
  As  As14  1  0.61008035  0.39304061  0.47349149  1
  As  As15  1  0.94983248  0.46841147  0.54511589  1
