# generated using pymatgen
data_LiZnCuAs3P2
_symmetry_space_group_name_H-M   'P 1'
_cell_length_a   7.86145132
_cell_length_b   7.91130450
_cell_length_c   7.86865864
_cell_angle_alpha   90.83099252
_cell_angle_beta   91.30479342
_cell_angle_gamma   90.90544601
_symmetry_Int_Tables_number   1
_chemical_formula_structural   LiZnCuAs3P2
_chemical_formula_sum   'Li2 Zn2 Cu2 As6 P4'
_cell_volume   489.14392953
_cell_formula_units_Z   2
loop_
 _symmetry_equiv_pos_site_id
 _symmetry_equiv_pos_as_xyz
  1  'x, y, z'
loop_
 _atom_site_type_symbol
 _atom_site_label
 _atom_site_symmetry_multiplicity
 _atom_site_fract_x
 _atom_site_fract_y
 _atom_site_fract_z
 _atom_site_occupancy
  P  P0  1  0.00000000  0.00000000  0.00000000  1
  P  P1  1  0.50000000  0.50000000  0.50000000  1
  P  P2  1  0.25000000  0.25000000  0.25000000  1
  P  P3  1  0.75000000  0.25000000  0.00000000  1
  Li  Li4  1  0.25000000  0.75000000  0.50000000  1
  Li  Li5  1  0.11040565  0.91696149  0.37563918  1
  Cu  Cu6  1  0.33558388  0.29155789  0.67554869  1
  Cu  Cu7  1  0.02476274  0.44175157  0.16975727  1
  Zn  Zn8  1  0.67369729  0.90065165  0.60522976  1
  Zn  Zn9  1  0.12041361  0.69823956  0.70245047  1
  As  As10  1  0.14785213  0.45360867  0.58151620  1
  As  As11  1  0.82934993  0.89114701  0.13609066  1
  As  As12  1  0.35223302  0.06064147  0.00087224  1
  As  As13  1  0.54102480  0.23688282  0.10628913  1
  As  As14  1  0.55403612  0.21584532  0.03422849  1
  As  As15  1  0.55235080  0.11011533  0.44893811  1
