# generated using pymatgen
data_Li2I4(OF)3
_symmetry_space_group_name_H-M   'P 1'
_cell_length_a   6.78123796
_cell_length_b   6.40486126
_cell_length_c   7.10055289
_cell_angle_alpha   93.41085487
_cell_angle_beta   95.07728100
_cell_angle_gamma   93.15751947
_symmetry_Int_Tables_number   1
_chemical_formula_structural   Li2I4(OF)3
_chemical_formula_sum   'Li2 I4 O3 F3'
_cell_volume   306.07800185
_cell_formula_units_Z   1
loop_
 _symmetry_equiv_pos_site_id
 _symmetry_equiv_pos_as_xyz
  1  'x, y, z'
loop_
 _atom_site_type_symbol
 _atom_site_label
 _atom_site_symmetry_multiplicity
 _atom_site_fract_x
 _atom_site_fract_y
 _atom_site_fract_z
 _atom_site_occupancy
  I  I0  1  0.00000000  0.00000000  0.00000000  1
  I  I1  1  0.50000000  0.50000000  0.50000000  1
  I  I2  1  0.50000000  0.50000000  0.00000000  1
  I  I3  1  0.50000000  0.00000000  0.50000000  1
  Li  Li4  1  0.00000000  0.50000000  0.50000000  1
  Li  Li5  1  0.52121660  0.78700881  0.60835593  1
  F  F6  1  0.55487215  0.45465712  0.85150370  1
  F  F7  1  0.32132345  0.04144404  0.42876220  1
  F  F8  1  0.33007822  0.27844487  0.68285144  1
  O  O9  1  0.05384644  0.38979211  0.85079862  1
  O  O10  1  0.90030103  0.56216099  0.29409783  1
  O  O11  1  0.39283937  0.09614895  0.79927538  1
