# generated using pymatgen
data_Li3LuCu2Ni2O7
_symmetry_space_group_name_H-M   'P 1'
_cell_length_a   7.11375185
_cell_length_b   6.71173807
_cell_length_c   8.28902689
_cell_angle_alpha   94.23325853
_cell_angle_beta   91.85563370
_cell_angle_gamma   94.90871333
_symmetry_Int_Tables_number   1
_chemical_formula_structural   Li3LuCu2Ni2O7
_chemical_formula_sum   'Li3 Lu1 Cu2 Ni2 O7'
_cell_volume   392.93922234
_cell_formula_units_Z   1
loop_
 _symmetry_equiv_pos_site_id
 _symmetry_equiv_pos_as_xyz
  1  'x, y, z'
loop_
 _atom_site_type_symbol
 _atom_site_label
 _atom_site_symmetry_multiplicity
 _atom_site_fract_x
 _atom_site_fract_y
 _atom_site_fract_z
 _atom_site_occupancy
  Lu  Lu0  1  0.00000000  0.00000000  0.00000000  1
  Li  Li1  1  0.50000000  0.50000000  0.50000000  1
  Li  Li2  1  0.25000000  0.25000000  0.25000000  1
  Li  Li3  1  0.75000000  0.25000000  0.00000000  1
  Cu  Cu4  1  0.25000000  0.75000000  0.50000000  1
  Cu  Cu5  1  0.07155169  0.38432299  0.79332291  1
  Ni  Ni6  1  0.70260445  0.24589517  0.39835544  1
  Ni  Ni7  1  0.17516474  0.05048566  0.99473059  1
  O  O8  1  0.73267802  0.43639217  0.82349901  1
  O  O9  1  0.60078038  0.78647681  0.71204070  1
  O  O10  1  0.60605651  0.50563946  0.26931065  1
  O  O11  1  0.21101585  0.02067312  0.76671431  1
  O  O12  1  0.01497864  0.85518441  0.67383219  1
  O  O13  1  0.86728545  0.76207188  0.26485378  1
  O  O14  1  0.10515650  0.65617325  0.62762581  1
