# generated using pymatgen
data_Li3TiI4(OF)3
_symmetry_space_group_name_H-M   'P 1'
_cell_length_a   7.02404076
_cell_length_b   6.82397315
_cell_length_c   7.11108629
_cell_angle_alpha   96.24501285
_cell_angle_beta   98.28723581
_cell_angle_gamma   95.87096265
_symmetry_Int_Tables_number   1
_chemical_formula_structural   Li3TiI4(OF)3
_chemical_formula_sum   'Li3 Ti1 I4 O3 F3'
_cell_volume   332.86719968
_cell_formula_units_Z   1
loop_
 _symmetry_equiv_pos_site_id
 _symmetry_equiv_pos_as_xyz
  1  'x, y, z'
loop_
 _atom_site_type_symbol
 _atom_site_label
 _atom_site_symmetry_multiplicity
 _atom_site_fract_x
 _atom_site_fract_y
 _atom_site_fract_z
 _atom_site_occupancy
  I  I0  1  0.12500000  0.00000000  0.25000000  1
  I  I1  1  0.00000000  0.00000000  0.00000000  1
  I  I2  1  0.37500000  0.00000000  0.25000000  1
  I  I3  1  0.25000000  0.25000000  0.25000000  1
  Li  Li4  1  0.00000000  0.25000000  0.12500000  1
  Li  Li5  1  0.82653802  0.10605847  0.44278700  1
  Li  Li6  1  0.19886985  0.59547902  0.47884476  1
  F  F7  1  0.35774506  0.84857346  0.52634750  1
  F  F8  1  0.83686907  0.46282182  0.54960591  1
  F  F9  1  0.46805399  0.79335725  0.66171173  1
  Ti  Ti10  1  0.59535722  0.91954961  0.01063051  1
  O  O11  1  0.83911230  0.06021695  0.42989335  1
  O  O12  1  0.87680433  0.31125109  0.04007009  1
  O  O13  1  0.88086485  0.43969671  0.68822021  1
