# generated using pymatgen
data_Li2TiI4F3
_symmetry_space_group_name_H-M   'P 1'
_cell_length_a   6.68514077
_cell_length_b   6.53568277
_cell_length_c   7.27501344
_cell_angle_alpha   93.96020243
_cell_angle_beta   95.43060227
_cell_angle_gamma   93.74594378
_symmetry_Int_Tables_number   1
_chemical_formula_structural   Li2TiI4F3
_chemical_formula_sum   'Li2 Ti1 I4 F3'
_cell_volume   314.84968939
_cell_formula_units_Z   1
loop_
 _symmetry_equiv_pos_site_id
 _symmetry_equiv_pos_as_xyz
  1  'x, y, z'
loop_
 _atom_site_type_symbol
 _atom_site_label
 _atom_site_symmetry_multiplicity
 _atom_site_fract_x
 _atom_site_fract_y
 _atom_site_fract_z
 _atom_site_occupancy
  I  I0  1  0.00000000  0.00000000  0.00000000  1
  I  I1  1  0.50000000  0.50000000  0.50000000  1
  I  I2  1  0.25000000  0.25000000  0.25000000  1
  I  I3  1  0.75000000  0.25000000  0.00000000  1
  Li  Li4  1  0.25000000  0.75000000  0.50000000  1
  Li  Li5  1  0.86281294  0.70096526  0.89102610  1
  F  F6  1  0.41849729  0.56758178  0.46247205  1
  F  F7  1  0.38693356  0.55445249  0.89445512  1
  F  F8  1  0.40902726  0.81539447  0.56462367  1
  Ti  Ti9  1  0.95515025  0.55590380  0.48664370  1
