# generated using pymatgen
data_Li2MnSb4P3
_symmetry_space_group_name_H-M   'P 1'
_cell_length_a   5.63673951
_cell_length_b   6.05639713
_cell_length_c   6.84891511
_cell_angle_alpha   97.30508692
_cell_angle_beta   93.00217851
_cell_angle_gamma   97.52706032
_symmetry_Int_Tables_number   1
_chemical_formula_structural   Li2MnSb4P3
_chemical_formula_sum   'Li2 Mn1 Sb4 P3'
_cell_volume   229.34715984
_cell_formula_units_Z   1
loop_
 _symmetry_equiv_pos_site_id
 _symmetry_equiv_pos_as_xyz
  1  'x, y, z'
loop_
 _atom_site_type_symbol
 _atom_site_label
 _atom_site_symmetry_multiplicity
 _atom_site_fract_x
 _atom_site_fract_y
 _atom_site_fract_z
 _atom_site_occupancy
  Mn  Mn0  1  0.00000000  0.00000000  0.00000000  1
  Sb  Sb1  1  0.50000000  0.50000000  0.50000000  1
  Sb  Sb2  1  0.25000000  0.25000000  0.25000000  1
  Sb  Sb3  1  0.75000000  0.25000000  0.00000000  1
  Sb  Sb4  1  0.25000000  0.75000000  0.50000000  1
  P  P5  1  0.89053526  0.59216736  0.68282085  1
  P  P6  1  0.97021886  0.05215924  0.05797810  1
  P  P7  1  0.63650765  0.50061477  0.38037089  1
  Li  Li8  1  0.21514546  0.67244865  0.23597617  1
  Li  Li9  1  0.86095891  0.22442766  0.72991459  1
