# generated using pymatgen
data_Li3(P4Cl)2
_symmetry_space_group_name_H-M   'P 1'
_cell_length_a   5.35218124
_cell_length_b   4.95644265
_cell_length_c   7.30578794
_cell_angle_alpha   104.67099499
_cell_angle_beta   108.73149102
_cell_angle_gamma   103.80123802
_symmetry_Int_Tables_number   1
_chemical_formula_structural   Li3(P4Cl)2
_chemical_formula_sum   'Li3 P8 Cl2'
_cell_volume   166.38197859
_cell_formula_units_Z   1
loop_
 _symmetry_equiv_pos_site_id
 _symmetry_equiv_pos_as_xyz
  1  'x, y, z'
loop_
 _atom_site_type_symbol
 _atom_site_label
 _atom_site_symmetry_multiplicity
 _atom_site_fract_x
 _atom_site_fract_y
 _atom_site_fract_z
 _atom_site_occupancy
  P  P0  1  0.12500000  0.12500000  0.12500000  1
  P  P1  1  0.50000000  0.50000000  0.50000000  1
  P  P2  1  0.25000000  0.25000000  0.25000000  1
  P  P3  1  0.75000000  0.75000000  0.75000000  1
  P  P4  1  0.63381796  0.74815214  0.37836214  1
  P  P5  1  0.42152651  0.51871838  0.09769074  1
  P  P6  1  0.38307547  0.25561802  0.32372331  1
  P  P7  1  0.32975940  0.37573697  0.99430775  1
  Li  Li8  1  0.66223619  0.32443407  0.56759872  1
  Li  Li9  1  0.22305698  0.99061886  0.15027566  1
  Li  Li10  1  0.36787344  0.76884845  0.63043527  1
  Cl  Cl11  1  0.54328740  0.42084289  0.01289756  1
  Cl  Cl12  1  0.05395954  0.06025167  0.45836562  1
