# generated using pymatgen
data_Li2P3Cl2F3
_symmetry_space_group_name_H-M   'P 1'
_cell_length_a   6.20115938
_cell_length_b   6.10731625
_cell_length_c   7.18878602
_cell_angle_alpha   96.90743051
_cell_angle_beta   99.08079248
_cell_angle_gamma   96.47343795
_symmetry_Int_Tables_number   1
_chemical_formula_structural   Li2P3Cl2F3
_chemical_formula_sum   'Li2 P3 Cl2 F3'
_cell_volume   264.47285236
_cell_formula_units_Z   1
loop_
 _symmetry_equiv_pos_site_id
 _symmetry_equiv_pos_as_xyz
  1  'x, y, z'
loop_
 _atom_site_type_symbol
 _atom_site_label
 _atom_site_symmetry_multiplicity
 _atom_site_fract_x
 _atom_site_fract_y
 _atom_site_fract_z
 _atom_site_occupancy
  F  F0  1  0.00000000  0.00000000  0.00000000  1
  F  F1  1  0.50000000  0.50000000  0.50000000  1
  F  F2  1  0.50000000  0.50000000  0.00000000  1
  Cl  Cl3  1  0.50000000  0.00000000  0.50000000  1
  Cl  Cl4  1  0.00000000  0.50000000  0.50000000  1
  P  P5  1  0.77677415  0.04687675  0.19754701  1
  P  P6  1  0.06370461  0.79177243  0.16643964  1
  P  P7  1  0.76344971  0.14327701  0.65368188  1
  Li  Li8  1  0.28840367  0.66526763  0.12919428  1
  Li  Li9  1  0.88428660  0.06253605  0.58035012  1
