# generated using pymatgen
data_Li2LuTi(As3P2)2
_symmetry_space_group_name_H-M   'P 1'
_cell_length_a   7.71833941
_cell_length_b   7.54087931
_cell_length_c   8.21491430
_cell_angle_alpha   91.97683329
_cell_angle_beta   91.83835466
_cell_angle_gamma   92.13070635
_symmetry_Int_Tables_number   1
_chemical_formula_structural   Li2LuTi(As3P2)2
_chemical_formula_sum   'Li2 Lu1 Ti1 As6 P4'
_cell_volume   477.25175256
_cell_formula_units_Z   1
loop_
 _symmetry_equiv_pos_site_id
 _symmetry_equiv_pos_as_xyz
  1  'x, y, z'
loop_
 _atom_site_type_symbol
 _atom_site_label
 _atom_site_symmetry_multiplicity
 _atom_site_fract_x
 _atom_site_fract_y
 _atom_site_fract_z
 _atom_site_occupancy
  P  P0  1  0.00000000  0.00000000  0.00000000  1
  P  P1  1  0.50000000  0.50000000  0.50000000  1
  P  P2  1  0.25000000  0.25000000  0.25000000  1
  P  P3  1  0.75000000  0.25000000  0.00000000  1
  Lu  Lu4  1  0.25000000  0.75000000  0.50000000  1
  Li  Li5  1  0.08041304  0.62958414  0.51962052  1
  Li  Li6  1  0.15581895  0.99206046  0.69477606  1
  Ti  Ti7  1  0.94786622  0.87061852  0.71846741  1
  As  As8  1  0.89479915  0.27120778  0.22317914  1
  As  As9  1  0.55277617  0.27565539  0.87828747  1
  As  As10  1  0.54055483  0.88561756  0.57138332  1
  As  As11  1  0.50300216  0.60646028  0.74537403  1
  As  As12  1  0.06823288  0.34969750  0.85608380  1
  As  As13  1  0.87541207  0.10752767  0.83668259  1
