# generated using pymatgen
data_Li2TiI4(OF)3
_symmetry_space_group_name_H-M   'P 1'
_cell_length_a   8.44843532
_cell_length_b   8.30734802
_cell_length_c   7.43789649
_cell_angle_alpha   90.14904368
_cell_angle_beta   90.70910455
_cell_angle_gamma   90.17039672
_symmetry_Int_Tables_number   1
_chemical_formula_structural   Li2TiI4(OF)3
_chemical_formula_sum   'Li2 Ti1 I4 O3 F3'
_cell_volume   521.97791104
_cell_formula_units_Z   1
loop_
 _symmetry_equiv_pos_site_id
 _symmetry_equiv_pos_as_xyz
  1  'x, y, z'
loop_
 _atom_site_type_symbol
 _atom_site_label
 _atom_site_symmetry_multiplicity
 _atom_site_fract_x
 _atom_site_fract_y
 _atom_site_fract_z
 _atom_site_occupancy
  I  I0  1  0.12500000  0.00000000  0.25000000  1
  I  I1  1  0.00000000  0.00000000  0.00000000  1
  I  I2  1  0.37500000  0.00000000  0.25000000  1
  I  I3  1  0.25000000  0.25000000  0.25000000  1
  Li  Li4  1  0.00000000  0.25000000  0.12500000  1
  Li  Li5  1  0.20204949  0.59946026  0.91190227  1
  F  F6  1  0.60679013  0.73933274  0.34624497  1
  F  F7  1  0.10320797  0.09957283  0.59734198  1
  F  F8  1  0.95668115  0.39062735  0.83795799  1
  Ti  Ti9  1  0.31335986  0.19303328  0.61558275  1
  O  O10  1  0.77237369  0.12081571  0.34454869  1
  O  O11  1  0.20070509  0.15107983  0.70456734  1
  O  O12  1  0.21602468  0.18632282  0.53099497  1
