# generated using pymatgen
data_Li2LuTi(PI)4
_symmetry_space_group_name_H-M   'P 1'
_cell_length_a   7.60816061
_cell_length_b   7.59848026
_cell_length_c   7.62476720
_cell_angle_alpha   93.87452398
_cell_angle_beta   94.81828646
_cell_angle_gamma   93.70967756
_symmetry_Int_Tables_number   1
_chemical_formula_structural   Li2LuTi(PI)4
_chemical_formula_sum   'Li2 Lu1 Ti1 P4 I4'
_cell_volume   437.13032135
_cell_formula_units_Z   1
loop_
 _symmetry_equiv_pos_site_id
 _symmetry_equiv_pos_as_xyz
  1  'x, y, z'
loop_
 _atom_site_type_symbol
 _atom_site_label
 _atom_site_symmetry_multiplicity
 _atom_site_fract_x
 _atom_site_fract_y
 _atom_site_fract_z
 _atom_site_occupancy
  P  P0  1  0.00000000  0.00000000  0.00000000  1
  P  P1  1  0.50000000  0.50000000  0.50000000  1
  P  P2  1  0.50000000  0.50000000  0.00000000  1
  P  P3  1  0.50000000  0.00000000  0.50000000  1
  Ti  Ti4  1  0.00000000  0.50000000  0.50000000  1
  Lu  Lu5  1  0.79640327  0.80566148  0.05250746  1
  I  I6  1  0.95124743  0.99288846  0.64357670  1
  I  I7  1  0.74951710  0.41307801  0.41374844  1
  I  I8  1  0.09764813  0.85818359  0.10592192  1
  I  I9  1  0.04984839  0.44637049  0.02716372  1
  Li  Li10  1  0.02369122  0.92737649  0.27622077  1
  Li  Li11  1  0.96947714  0.63960622  0.08329789  1
