# generated using pymatgen
data_LiCu2F2
_symmetry_space_group_name_H-M   'P 1'
_cell_length_a   7.28143252
_cell_length_b   7.17326869
_cell_length_c   8.00110674
_cell_angle_alpha   91.93362075
_cell_angle_beta   93.09317516
_cell_angle_gamma   92.28305782
_symmetry_Int_Tables_number   1
_chemical_formula_structural   LiCu2F2
_chemical_formula_sum   'Li1 Cu2 F2'
_cell_volume   416.70121606
_cell_formula_units_Z   1
loop_
 _symmetry_equiv_pos_site_id
 _symmetry_equiv_pos_as_xyz
  1  'x, y, z'
loop_
 _atom_site_type_symbol
 _atom_site_label
 _atom_site_symmetry_multiplicity
 _atom_site_fract_x
 _atom_site_fract_y
 _atom_site_fract_z
 _atom_site_occupancy
  Li  Li0  1  0.00000000  0.00000000  0.00000000  1
  Cu  Cu1  1  0.50000000  0.50000000  0.50000000  1
  Cu  Cu2  1  0.25000000  0.25000000  0.25000000  1
  F  F3  1  0.75000000  0.25000000  0.00000000  1
  F  F4  1  0.25000000  0.75000000  0.50000000  1
