# generated using pymatgen
data_LiCu2Ni2O7
_symmetry_space_group_name_H-M   'P 1'
_cell_length_a   7.51602089
_cell_length_b   7.39923946
_cell_length_c   8.68856842
_cell_angle_alpha   91.78704407
_cell_angle_beta   92.19735646
_cell_angle_gamma   92.09793588
_symmetry_Int_Tables_number   1
_chemical_formula_structural   LiCu2Ni2O7
_chemical_formula_sum   'Li1 Cu2 Ni2 O7'
_cell_volume   482.26000251
_cell_formula_units_Z   1
loop_
 _symmetry_equiv_pos_site_id
 _symmetry_equiv_pos_as_xyz
  1  'x, y, z'
loop_
 _atom_site_type_symbol
 _atom_site_label
 _atom_site_symmetry_multiplicity
 _atom_site_fract_x
 _atom_site_fract_y
 _atom_site_fract_z
 _atom_site_occupancy
  Li  Li0  1  0.12500000  0.12500000  0.12500000  1
  Cu  Cu1  1  0.50000000  0.50000000  0.50000000  1
  Cu  Cu2  1  0.25000000  0.25000000  0.25000000  1
  Ni  Ni3  1  0.75000000  0.75000000  0.75000000  1
  Ni  Ni4  1  0.12086467  0.60977379  0.24090360  1
  O  O5  1  0.18023690  0.08996167  0.04637424  1
  O  O6  1  0.31844108  0.06848923  0.21932728  1
  O  O7  1  0.33747295  0.05617762  0.00573482  1
  O  O8  1  0.73548321  0.77821702  0.30089072  1
  O  O9  1  0.70418609  0.21664264  0.91321470  1
  O  O10  1  0.96322763  0.94032981  0.43698632  1
  O  O11  1  0.17466030  0.61657000  0.59659381  1
