# generated using pymatgen
data_Li2TiI4F3
_symmetry_space_group_name_H-M   'P 1'
_cell_length_a   7.00382221
_cell_length_b   6.81139761
_cell_length_c   7.31719327
_cell_angle_alpha   93.94317834
_cell_angle_beta   95.25214077
_cell_angle_gamma   93.77015474
_symmetry_Int_Tables_number   1
_chemical_formula_structural   Li2TiI4F3
_chemical_formula_sum   'Li2 Ti1 I4 F3'
_cell_volume   345.87102372
_cell_formula_units_Z   1
loop_
 _symmetry_equiv_pos_site_id
 _symmetry_equiv_pos_as_xyz
  1  'x, y, z'
loop_
 _atom_site_type_symbol
 _atom_site_label
 _atom_site_symmetry_multiplicity
 _atom_site_fract_x
 _atom_site_fract_y
 _atom_site_fract_z
 _atom_site_occupancy
  I  I0  1  0.12500000  0.12500000  0.12500000  1
  I  I1  1  0.50000000  0.50000000  0.50000000  1
  I  I2  1  0.25000000  0.25000000  0.25000000  1
  I  I3  1  0.75000000  0.75000000  0.75000000  1
  Li  Li4  1  0.06436672  0.69129151  0.24043628  1
  Li  Li5  1  0.88530683  0.15480241  0.39801596  1
  F  F6  1  0.65072122  0.95980380  0.33224483  1
  F  F7  1  0.23352588  0.56559451  0.97149882  1
  F  F8  1  0.05129931  0.95709832  0.69222786  1
  Ti  Ti9  1  0.89736596  0.64895317  0.45097362  1
