# generated using pymatgen
data_Li2TiNi2O4F3
_symmetry_space_group_name_H-M   'P 1'
_cell_length_a   8.15931616
_cell_length_b   8.00430568
_cell_length_c   7.97285101
_cell_angle_alpha   90.70321617
_cell_angle_beta   90.91495692
_cell_angle_gamma   90.81313227
_symmetry_Int_Tables_number   1
_chemical_formula_structural   Li2TiNi2O4F3
_chemical_formula_sum   'Li2 Ti1 Ni2 O4 F3'
_cell_volume   520.54468478
_cell_formula_units_Z   1
loop_
 _symmetry_equiv_pos_site_id
 _symmetry_equiv_pos_as_xyz
  1  'x, y, z'
loop_
 _atom_site_type_symbol
 _atom_site_label
 _atom_site_symmetry_multiplicity
 _atom_site_fract_x
 _atom_site_fract_y
 _atom_site_fract_z
 _atom_site_occupancy
  Li  Li0  1  0.00000000  0.00000000  0.00000000  1
  Li  Li1  1  0.50000000  0.50000000  0.50000000  1
  F  F2  1  0.50000000  0.50000000  0.00000000  1
  F  F3  1  0.50000000  0.00000000  0.50000000  1
  F  F4  1  0.00000000  0.50000000  0.50000000  1
  Ni  Ni5  1  0.43074495  0.07914779  0.76390935  1
  Ni  Ni6  1  0.25699650  0.36819649  0.35427523  1
  Ti  Ti7  1  0.11061947  0.88060485  0.79373755  1
  O  O8  1  0.59403989  0.35585729  0.84458399  1
  O  O9  1  0.70845887  0.35304891  0.32312371  1
  O  O10  1  0.11016026  0.90578536  0.25833386  1
  O  O11  1  0.35490570  0.31075315  0.33847117  1
