# generated using pymatgen
data_Li2LuP4
_symmetry_space_group_name_H-M   'P 1'
_cell_length_a   7.93430004
_cell_length_b   7.89495855
_cell_length_c   7.56390260
_cell_angle_alpha   92.84305682
_cell_angle_beta   93.53557295
_cell_angle_gamma   92.72209546
_symmetry_Int_Tables_number   1
_chemical_formula_structural   Li2LuP4
_chemical_formula_sum   'Li2 Lu1 P4'
_cell_volume   471.71864558
_cell_formula_units_Z   1
loop_
 _symmetry_equiv_pos_site_id
 _symmetry_equiv_pos_as_xyz
  1  'x, y, z'
loop_
 _atom_site_type_symbol
 _atom_site_label
 _atom_site_symmetry_multiplicity
 _atom_site_fract_x
 _atom_site_fract_y
 _atom_site_fract_z
 _atom_site_occupancy
  Li  Li0  1  0.12500000  0.12500000  0.12500000  1
  Li  Li1  1  0.50000000  0.50000000  0.50000000  1
  P  P2  1  0.25000000  0.25000000  0.25000000  1
  P  P3  1  0.75000000  0.75000000  0.75000000  1
  P  P4  1  0.24365767  0.99555741  0.88867104  1
  P  P5  1  0.81855924  0.79299354  0.59723502  1
  Lu  Lu6  1  0.62453189  0.00381868  0.96348387  1
