# generated using pymatgen
data_Li2LuNi2P4O7
_symmetry_space_group_name_H-M   'P 1'
_cell_length_a   7.47387332
_cell_length_b   7.35325926
_cell_length_c   8.53476220
_cell_angle_alpha   92.88997168
_cell_angle_beta   92.91720397
_cell_angle_gamma   93.01105321
_symmetry_Int_Tables_number   1
_chemical_formula_structural   Li2LuNi2P4O7
_chemical_formula_sum   'Li2 Lu1 Ni2 P4 O7'
_cell_volume   467.12988254
_cell_formula_units_Z   1
loop_
 _symmetry_equiv_pos_site_id
 _symmetry_equiv_pos_as_xyz
  1  'x, y, z'
loop_
 _atom_site_type_symbol
 _atom_site_label
 _atom_site_symmetry_multiplicity
 _atom_site_fract_x
 _atom_site_fract_y
 _atom_site_fract_z
 _atom_site_occupancy
  Ni  Ni0  1  0.12500000  0.00000000  0.25000000  1
  Ni  Ni1  1  0.00000000  0.00000000  0.00000000  1
  O  O2  1  0.37500000  0.00000000  0.25000000  1
  O  O3  1  0.25000000  0.25000000  0.25000000  1
  O  O4  1  0.00000000  0.25000000  0.12500000  1
  O  O5  1  0.63867397  0.26511896  0.71181437  1
  O  O6  1  0.07333262  0.12806205  0.26781305  1
  O  O7  1  0.74863123  0.81452673  0.39611511  1
  O  O8  1  0.17948207  0.96883352  0.68573974  1
  P  P9  1  0.14892437  0.95728791  0.77729731  1
  P  P10  1  0.02798945  0.83424370  0.54936664  1
  P  P11  1  0.48278563  0.91057832  0.12079401  1
  P  P12  1  0.98108509  0.97431035  0.95157556  1
  Lu  Lu13  1  0.10287001  0.42099730  0.98325859  1
  Li  Li14  1  0.62931845  0.42821781  0.11487174  1
  Li  Li15  1  0.36823100  0.81093554  0.31246271  1
