# generated using pymatgen
data_Li2LuCu2(As3P2)2
_symmetry_space_group_name_H-M   'P 1'
_cell_length_a   7.58234780
_cell_length_b   7.37497623
_cell_length_c   8.02514194
_cell_angle_alpha   91.52481475
_cell_angle_beta   91.56384447
_cell_angle_gamma   91.71911403
_symmetry_Int_Tables_number   1
_chemical_formula_structural   Li2LuCu2(As3P2)2
_chemical_formula_sum   'Li2 Lu1 Cu2 As6 P4'
_cell_volume   448.22496933
_cell_formula_units_Z   1
loop_
 _symmetry_equiv_pos_site_id
 _symmetry_equiv_pos_as_xyz
  1  'x, y, z'
loop_
 _atom_site_type_symbol
 _atom_site_label
 _atom_site_symmetry_multiplicity
 _atom_site_fract_x
 _atom_site_fract_y
 _atom_site_fract_z
 _atom_site_occupancy
  P  P0  1  0.00000000  0.00000000  0.00000000  1
  P  P1  1  0.50000000  0.50000000  0.50000000  1
  P  P2  1  0.50000000  0.50000000  0.00000000  1
  P  P3  1  0.50000000  0.00000000  0.50000000  1
  Lu  Lu4  1  0.00000000  0.50000000  0.50000000  1
  Li  Li5  1  0.99155193  0.47695675  0.59493982  1
  Li  Li6  1  0.77282195  0.81035813  0.46575113  1
  Cu  Cu7  1  0.89880242  0.07985207  0.60091028  1
  Cu  Cu8  1  0.03633016  0.15831368  0.41973385  1
  As  As9  1  0.37951932  0.05108250  0.83240187  1
  As  As10  1  0.67721443  0.63652938  0.23793265  1
  As  As11  1  0.58563681  0.19320376  0.26097556  1
  As  As12  1  0.23593388  0.39324843  0.80291587  1
  As  As13  1  0.19897451  0.46989879  0.73887858  1
  As  As14  1  0.85888205  0.40705749  0.82685344  1
