# generated using pymatgen
data_Li2TiNi2As6O5
_symmetry_space_group_name_H-M   'P 1'
_cell_length_a   7.92351239
_cell_length_b   7.75637554
_cell_length_c   8.05179620
_cell_angle_alpha   90.79185685
_cell_angle_beta   91.32574451
_cell_angle_gamma   90.91451349
_symmetry_Int_Tables_number   1
_chemical_formula_structural   Li2TiNi2As6O5
_chemical_formula_sum   'Li2 Ti1 Ni2 As6 O5'
_cell_volume   494.59986255
_cell_formula_units_Z   1
loop_
 _symmetry_equiv_pos_site_id
 _symmetry_equiv_pos_as_xyz
  1  'x, y, z'
loop_
 _atom_site_type_symbol
 _atom_site_label
 _atom_site_symmetry_multiplicity
 _atom_site_fract_x
 _atom_site_fract_y
 _atom_site_fract_z
 _atom_site_occupancy
  Li  Li0  1  0.12500000  0.00000000  0.25000000  1
  Li  Li1  1  0.00000000  0.00000000  0.00000000  1
  Ni  Ni2  1  0.37500000  0.00000000  0.25000000  1
  Ni  Ni3  1  0.25000000  0.25000000  0.25000000  1
  Ti  Ti4  1  0.00000000  0.25000000  0.12500000  1
  As  As5  1  0.02183735  0.10478555  0.70225723  1
  As  As6  1  0.66301828  0.83393450  0.24332482  1
  As  As7  1  0.87807774  0.97667051  0.93109078  1
  As  As8  1  0.36903408  0.42116473  0.17124502  1
  As  As9  1  0.79307398  0.08349661  0.85049538  1
  As  As10  1  0.13239525  0.56821683  0.76593227  1
  O  O11  1  0.53285330  0.74820686  0.44287889  1
  O  O12  1  0.15515058  0.02214297  0.49739543  1
  O  O13  1  0.61554118  0.52259354  0.24035518  1
  O  O14  1  0.47859135  0.62270906  0.92947889  1
  O  O15  1  0.02063365  0.49151527  0.41453010  1
