# generated using pymatgen
data_Li3TiI4O5
_symmetry_space_group_name_H-M   'P 1'
_cell_length_a   7.02824826
_cell_length_b   6.82504745
_cell_length_c   8.18216317
_cell_angle_alpha   94.98837906
_cell_angle_beta   95.95593583
_cell_angle_gamma   94.89906777
_symmetry_Int_Tables_number   1
_chemical_formula_structural   Li3TiI4O5
_chemical_formula_sum   'Li3 Ti1 I4 O5'
_cell_volume   387.11600466
_cell_formula_units_Z   1
loop_
 _symmetry_equiv_pos_site_id
 _symmetry_equiv_pos_as_xyz
  1  'x, y, z'
loop_
 _atom_site_type_symbol
 _atom_site_label
 _atom_site_symmetry_multiplicity
 _atom_site_fract_x
 _atom_site_fract_y
 _atom_site_fract_z
 _atom_site_occupancy
  I  I0  1  0.12500000  0.00000000  0.25000000  1
  I  I1  1  0.00000000  0.00000000  0.00000000  1
  I  I2  1  0.37500000  0.00000000  0.25000000  1
  I  I3  1  0.25000000  0.25000000  0.25000000  1
  Li  Li4  1  0.00000000  0.25000000  0.12500000  1
  Li  Li5  1  0.41045210  0.38046435  0.34443929  1
  Li  Li6  1  0.18913257  0.13932305  0.12703859  1
  Ti  Ti7  1  0.99029971  0.09565640  0.89084453  1
  O  O8  1  0.19546539  0.03225250  0.89920703  1
  O  O9  1  0.22335627  0.28159019  0.44566403  1
  O  O10  1  0.12236047  0.53158478  0.45812397  1
  O  O11  1  0.83514151  0.31920706  0.77792468  1
  O  O12  1  0.35902150  0.80668122  0.76523306  1
