# generated using pymatgen
data_Li2Lu(CuP2)2
_symmetry_space_group_name_H-M   'P 1'
_cell_length_a   7.31100106
_cell_length_b   7.39375134
_cell_length_c   8.17659351
_cell_angle_alpha   92.32141637
_cell_angle_beta   93.69248567
_cell_angle_gamma   92.33290443
_symmetry_Int_Tables_number   1
_chemical_formula_structural   Li2Lu(CuP2)2
_chemical_formula_sum   'Li2 Lu1 Cu2 P4'
_cell_volume   440.29614474
_cell_formula_units_Z   1
loop_
 _symmetry_equiv_pos_site_id
 _symmetry_equiv_pos_as_xyz
  1  'x, y, z'
loop_
 _atom_site_type_symbol
 _atom_site_label
 _atom_site_symmetry_multiplicity
 _atom_site_fract_x
 _atom_site_fract_y
 _atom_site_fract_z
 _atom_site_occupancy
  P  P0  1  0.00000000  0.00000000  0.00000000  1
  P  P1  1  0.33300000  0.66700000  0.25000000  1
  P  P2  1  0.66700000  0.33300000  0.50000000  1
  P  P3  1  0.00000000  0.00000000  0.75000000  1
  Lu  Lu4  1  0.51746687  0.90879914  0.21525331  1
  Li  Li5  1  0.48388278  0.67113512  0.30812174  1
  Li  Li6  1  0.22557272  0.02675112  0.32513678  1
  Cu  Cu7  1  0.72497515  0.09929008  0.98894014  1
  Cu  Cu8  1  0.69532728  0.95290354  0.10431673  1
