# generated using pymatgen
data_Li2LuCu2P4N5
_symmetry_space_group_name_H-M   'P 1'
_cell_length_a   7.47980808
_cell_length_b   7.29006137
_cell_length_c   8.20659256
_cell_angle_alpha   92.49795186
_cell_angle_beta   92.43207241
_cell_angle_gamma   92.65697793
_symmetry_Int_Tables_number   1
_chemical_formula_structural   Li2LuCu2P4N5
_chemical_formula_sum   'Li2 Lu1 Cu2 P4 N5'
_cell_volume   446.14208559
_cell_formula_units_Z   1
loop_
 _symmetry_equiv_pos_site_id
 _symmetry_equiv_pos_as_xyz
  1  'x, y, z'
loop_
 _atom_site_type_symbol
 _atom_site_label
 _atom_site_symmetry_multiplicity
 _atom_site_fract_x
 _atom_site_fract_y
 _atom_site_fract_z
 _atom_site_occupancy
  P  P0  1  0.00000000  0.00000000  0.00000000  1
  P  P1  1  0.50000000  0.50000000  0.50000000  1
  P  P2  1  0.25000000  0.25000000  0.25000000  1
  P  P3  1  0.75000000  0.25000000  0.00000000  1
  Lu  Lu4  1  0.25000000  0.75000000  0.50000000  1
  Li  Li5  1  0.50353608  0.48462013  0.25800666  1
  Li  Li6  1  0.83189785  0.79485139  0.92614372  1
  Cu  Cu7  1  0.88982154  0.29618286  0.55683249  1
  Cu  Cu8  1  0.53640788  0.96926486  0.46815942  1
  N  N9  1  0.94909320  0.95507666  0.09071867  1
  N  N10  1  0.90141640  0.78870487  0.42701955  1
  N  N11  1  0.20934087  0.78229266  0.24697323  1
  N  N12  1  0.28122031  0.38056160  0.28970286  1
  N  N13  1  0.08327844  0.53013122  0.52319051  1
