# generated using pymatgen
data_Li2Cu2As6F3
_symmetry_space_group_name_H-M   'P 1'
_cell_length_a   7.50655585
_cell_length_b   7.60446952
_cell_length_c   8.47667013
_cell_angle_alpha   90.46617514
_cell_angle_beta   92.47390702
_cell_angle_gamma   90.52427042
_symmetry_Int_Tables_number   1
_chemical_formula_structural   Li2Cu2As6F3
_chemical_formula_sum   'Li2 Cu2 As6 F3'
_cell_volume   483.38809557
_cell_formula_units_Z   1
loop_
 _symmetry_equiv_pos_site_id
 _symmetry_equiv_pos_as_xyz
  1  'x, y, z'
loop_
 _atom_site_type_symbol
 _atom_site_label
 _atom_site_symmetry_multiplicity
 _atom_site_fract_x
 _atom_site_fract_y
 _atom_site_fract_z
 _atom_site_occupancy
  F  F0  1  0.00000000  0.00000000  0.00000000  1
  F  F1  1  0.50000000  0.50000000  0.50000000  1
  F  F2  1  0.50000000  0.50000000  0.00000000  1
  As  As3  1  0.50000000  0.00000000  0.50000000  1
  As  As4  1  0.00000000  0.50000000  0.50000000  1
  As  As5  1  0.06222214  0.34158069  0.20056785  1
  As  As6  1  0.69036086  0.38400320  0.35574364  1
  As  As7  1  0.19521543  0.83213627  0.60544004  1
  As  As8  1  0.73865058  0.46922218  0.38336907  1
  Li  Li9  1  0.32411429  0.38156216  0.66511856  1
  Li  Li10  1  0.91957830  0.01754595  0.81897661  1
  Cu  Cu11  1  0.14633781  0.74456395  0.88587158  1
  Cu  Cu12  1  0.51890288  0.40717086  0.80605628  1
