# generated using pymatgen
data_Li2Ni2I4O5F3
_symmetry_space_group_name_H-M   'P 1'
_cell_length_a   7.84293986
_cell_length_b   7.67260198
_cell_length_c   8.51030886
_cell_angle_alpha   91.17799374
_cell_angle_beta   91.19103863
_cell_angle_gamma   91.36340856
_symmetry_Int_Tables_number   1
_chemical_formula_structural   Li2Ni2I4O5F3
_chemical_formula_sum   'Li2 Ni2 I4 O5 F3'
_cell_volume   511.74511036
_cell_formula_units_Z   1
loop_
 _symmetry_equiv_pos_site_id
 _symmetry_equiv_pos_as_xyz
  1  'x, y, z'
loop_
 _atom_site_type_symbol
 _atom_site_label
 _atom_site_symmetry_multiplicity
 _atom_site_fract_x
 _atom_site_fract_y
 _atom_site_fract_z
 _atom_site_occupancy
  I  I0  1  0.00000000  0.00000000  0.00000000  1
  I  I1  1  0.50000000  0.50000000  0.50000000  1
  I  I2  1  0.25000000  0.25000000  0.25000000  1
  I  I3  1  0.75000000  0.25000000  0.00000000  1
  Li  Li4  1  0.25000000  0.75000000  0.50000000  1
  Li  Li5  1  0.85503106  0.77574536  0.88838595  1
  F  F6  1  0.67587206  0.95027031  0.77178797  1
  F  F7  1  0.11431037  0.97519341  0.33600682  1
  F  F8  1  0.32011669  0.68088859  0.10404057  1
  Ni  Ni9  1  0.46772976  0.50628747  0.58589764  1
  Ni  Ni10  1  0.55324209  0.27529406  0.81524407  1
  O  O11  1  0.11438073  0.35766965  0.03119555  1
  O  O12  1  0.49527620  0.65349933  0.13574211  1
  O  O13  1  0.64796586  0.16205992  0.05696781  1
  O  O14  1  0.54664603  0.56092410  0.04256674  1
  O  O15  1  0.60625013  0.73605975  0.61985125  1
