# generated using pymatgen
data_Li3Cu2P5N5O3
_symmetry_space_group_name_H-M   'P 1'
_cell_length_a   7.08201376
_cell_length_b   6.77998549
_cell_length_c   8.32157260
_cell_angle_alpha   94.68917055
_cell_angle_beta   91.65781869
_cell_angle_gamma   95.43887018
_symmetry_Int_Tables_number   1
_chemical_formula_structural   Li3Cu2P5N5O3
_chemical_formula_sum   'Li3 Cu2 P5 N5 O3'
_cell_volume   396.16693457
_cell_formula_units_Z   1
loop_
 _symmetry_equiv_pos_site_id
 _symmetry_equiv_pos_as_xyz
  1  'x, y, z'
loop_
 _atom_site_type_symbol
 _atom_site_label
 _atom_site_symmetry_multiplicity
 _atom_site_fract_x
 _atom_site_fract_y
 _atom_site_fract_z
 _atom_site_occupancy
  P  P0  1  0.00000000  0.00000000  0.00000000  1
  P  P1  1  0.50000000  0.50000000  0.50000000  1
  P  P2  1  0.50000000  0.50000000  0.00000000  1
  P  P3  1  0.50000000  0.00000000  0.50000000  1
  P  P4  1  0.00000000  0.50000000  0.50000000  1
  Li  Li5  1  0.56760943  0.80304279  0.03135587  1
  Li  Li6  1  0.06338632  0.77710357  0.10961027  1
  Li  Li7  1  0.14104672  0.26068984  0.00131698  1
  Cu  Cu8  1  0.28197479  0.92335171  0.13849225  1
  Cu  Cu9  1  0.11703693  0.97832784  0.99124437  1
  O  O10  1  0.89480250  0.40195629  0.99525655  1
  O  O11  1  0.61084714  0.60221008  0.33010527  1
  O  O12  1  0.34100957  0.12630350  0.13441536  1
  N  N13  1  0.90856188  0.76055978  0.62523116  1
  N  N14  1  0.96116313  0.70486543  0.62827840  1
  N  N15  1  0.32587251  0.74051582  0.20160472  1
  N  N16  1  0.69730260  0.81187564  0.65084869  1
  N  N17  1  0.19785810  0.99660165  0.42807159  1
