# generated using pymatgen
data_LiMnSb4P2N
_symmetry_space_group_name_H-M   'P 1'
_cell_length_a   5.40610413
_cell_length_b   5.67033410
_cell_length_c   6.61424749
_cell_angle_alpha   96.67963043
_cell_angle_beta   95.33044341
_cell_angle_gamma   95.51271943
_symmetry_Int_Tables_number   1
_chemical_formula_structural   LiMnSb4P2N
_chemical_formula_sum   'Li1 Mn1 Sb4 P2 N1'
_cell_volume   199.33440378
_cell_formula_units_Z   1
loop_
 _symmetry_equiv_pos_site_id
 _symmetry_equiv_pos_as_xyz
  1  'x, y, z'
loop_
 _atom_site_type_symbol
 _atom_site_label
 _atom_site_symmetry_multiplicity
 _atom_site_fract_x
 _atom_site_fract_y
 _atom_site_fract_z
 _atom_site_occupancy
  N  N0  1  0.12500000  0.00000000  0.25000000  1
  Mn  Mn1  1  0.00000000  0.00000000  0.00000000  1
  Sb  Sb2  1  0.37500000  0.00000000  0.25000000  1
  Sb  Sb3  1  0.25000000  0.25000000  0.25000000  1
  Sb  Sb4  1  0.00000000  0.25000000  0.12500000  1
  Sb  Sb5  1  0.02562801  0.71411155  0.29390048  1
  P  P6  1  0.36160573  0.49326673  0.04702347  1
  P  P7  1  0.57417499  0.70834665  0.72663193  1
  Li  Li8  1  0.82365614  0.53324223  0.53748738  1
