# generated using pymatgen
data_Li3TiP3SeI4
_symmetry_space_group_name_H-M   'P 1'
_cell_length_a   7.12509178
_cell_length_b   6.83053530
_cell_length_c   7.04954920
_cell_angle_alpha   95.86552343
_cell_angle_beta   97.86524058
_cell_angle_gamma   95.53968836
_symmetry_Int_Tables_number   1
_chemical_formula_structural   Li3TiP3SeI4
_chemical_formula_sum   'Li3 Ti1 P3 Se1 I4'
_cell_volume   335.94879506
_cell_formula_units_Z   1
loop_
 _symmetry_equiv_pos_site_id
 _symmetry_equiv_pos_as_xyz
  1  'x, y, z'
loop_
 _atom_site_type_symbol
 _atom_site_label
 _atom_site_symmetry_multiplicity
 _atom_site_fract_x
 _atom_site_fract_y
 _atom_site_fract_z
 _atom_site_occupancy
  I  I0  1  0.00000000  0.00000000  0.00000000  1
  I  I1  1  0.50000000  0.50000000  0.50000000  1
  I  I2  1  0.50000000  0.50000000  0.00000000  1
  I  I3  1  0.50000000  0.00000000  0.50000000  1
  P  P4  1  0.00000000  0.50000000  0.50000000  1
  P  P5  1  0.07542206  0.28520170  0.97594402  1
  P  P6  1  0.61481657  0.44839349  0.25961120  1
  Li  Li7  1  0.31336020  0.66563103  0.55684497  1
  Li  Li8  1  0.05134024  0.23160987  0.30460705  1
  Li  Li9  1  0.14463790  0.03047512  0.63549695  1
  Se  Se10  1  0.51981751  0.77783529  0.77638429  1
  Ti  Ti11  1  0.17496036  0.52766336  0.35332819  1
