# generated using pymatgen
data_Li2TiI4(OF)3
_symmetry_space_group_name_H-M   'P 1'
_cell_length_a   8.24945570
_cell_length_b   8.34504310
_cell_length_c   7.38727645
_cell_angle_alpha   90.18942800
_cell_angle_beta   90.90124091
_cell_angle_gamma   90.21656679
_symmetry_Int_Tables_number   1
_chemical_formula_structural   Li2TiI4(OF)3
_chemical_formula_sum   'Li2 Ti1 I4 O3 F3'
_cell_volume   508.48592841
_cell_formula_units_Z   1
loop_
 _symmetry_equiv_pos_site_id
 _symmetry_equiv_pos_as_xyz
  1  'x, y, z'
loop_
 _atom_site_type_symbol
 _atom_site_label
 _atom_site_symmetry_multiplicity
 _atom_site_fract_x
 _atom_site_fract_y
 _atom_site_fract_z
 _atom_site_occupancy
  I  I0  1  0.00000000  0.00000000  0.00000000  1
  I  I1  1  0.50000000  0.50000000  0.50000000  1
  I  I2  1  0.50000000  0.50000000  0.00000000  1
  I  I3  1  0.50000000  0.00000000  0.50000000  1
  Li  Li4  1  0.00000000  0.50000000  0.50000000  1
  Li  Li5  1  0.60053485  0.41093415  0.35746819  1
  F  F6  1  0.32908488  0.28131241  0.59976772  1
  F  F7  1  0.27157113  0.22437687  0.07353196  1
  F  F8  1  0.65270080  0.98005569  0.50831475  1
  Ti  Ti9  1  0.20340235  0.87864679  0.12228988  1
  O  O10  1  0.06216353  0.23971445  0.95169537  1
  O  O11  1  0.96696656  0.96416801  0.17732811  1
  O  O12  1  0.56516611  0.07358663  0.02472938  1
