# generated using pymatgen
data_Li2Mn2Sb4P3
_symmetry_space_group_name_H-M   'P 1'
_cell_length_a   6.45679002
_cell_length_b   6.97226617
_cell_length_c   7.02207090
_cell_angle_alpha   94.95411257
_cell_angle_beta   90.70632058
_cell_angle_gamma   94.91947346
_symmetry_Int_Tables_number   1
_chemical_formula_structural   Li2Mn2Sb4P3
_chemical_formula_sum   'Li2 Mn2 Sb4 P3'
_cell_volume   313.71963741
_cell_formula_units_Z   1
loop_
 _symmetry_equiv_pos_site_id
 _symmetry_equiv_pos_as_xyz
  1  'x, y, z'
loop_
 _atom_site_type_symbol
 _atom_site_label
 _atom_site_symmetry_multiplicity
 _atom_site_fract_x
 _atom_site_fract_y
 _atom_site_fract_z
 _atom_site_occupancy
  Mn  Mn0  1  0.12500000  0.12500000  0.12500000  1
  Mn  Mn1  1  0.50000000  0.50000000  0.50000000  1
  Sb  Sb2  1  0.25000000  0.25000000  0.25000000  1
  Sb  Sb3  1  0.75000000  0.75000000  0.75000000  1
  Sb  Sb4  1  0.68453855  0.22222969  0.22939829  1
  Sb  Sb5  1  0.26652163  0.55780465  0.26741395  1
  P  P6  1  0.20110481  0.88001591  0.93080400  1
  P  P7  1  0.80722326  0.44994359  0.56582709  1
  P  P8  1  0.04243132  0.79169553  0.77400867  1
  Li  Li9  1  0.70434323  0.46620429  0.87975992  1
  Li  Li10  1  0.35663511  0.62933722  0.85122222  1
