# generated using pymatgen
data_LiZn(IO)2
_symmetry_space_group_name_H-M   'P 1'
_cell_length_a   8.03200928
_cell_length_b   8.34292532
_cell_length_c   7.50570411
_cell_angle_alpha   90.76512256
_cell_angle_beta   91.64905446
_cell_angle_gamma   90.91624473
_symmetry_Int_Tables_number   1
_chemical_formula_structural   LiZn(IO)2
_chemical_formula_sum   'Li2 Zn2 I4 O4'
_cell_volume   502.64003452
_cell_formula_units_Z   2
loop_
 _symmetry_equiv_pos_site_id
 _symmetry_equiv_pos_as_xyz
  1  'x, y, z'
loop_
 _atom_site_type_symbol
 _atom_site_label
 _atom_site_symmetry_multiplicity
 _atom_site_fract_x
 _atom_site_fract_y
 _atom_site_fract_z
 _atom_site_occupancy
  I  I0  1  0.00000000  0.00000000  0.00000000  1
  I  I1  1  0.33300000  0.66700000  0.25000000  1
  I  I2  1  0.66700000  0.33300000  0.50000000  1
  I  I3  1  0.00000000  0.00000000  0.75000000  1
  Li  Li4  1  0.73266361  0.64749248  0.41818108  1
  Li  Li5  1  0.84613864  0.42067553  0.15452715  1
  Zn  Zn6  1  0.32439068  0.34202534  0.85114660  1
  Zn  Zn7  1  0.31292894  0.60009090  0.61424361  1
  O  O8  1  0.25006859  0.61059048  0.72689489  1
  O  O9  1  0.45892243  0.90782659  0.59111005  1
  O  O10  1  0.24033328  0.92487654  0.58410408  1
  O  O11  1  0.56153297  0.26601302  0.83492783  1
