# generated using pymatgen
data_Li2Lu(As3P2)2
_symmetry_space_group_name_H-M   'P 1'
_cell_length_a   7.35996037
_cell_length_b   7.25757923
_cell_length_c   7.92910203
_cell_angle_alpha   92.99965309
_cell_angle_beta   93.75565776
_cell_angle_gamma   92.98034363
_symmetry_Int_Tables_number   1
_chemical_formula_structural   Li2Lu(As3P2)2
_chemical_formula_sum   'Li2 Lu1 As6 P4'
_cell_volume   421.39504422
_cell_formula_units_Z   1
loop_
 _symmetry_equiv_pos_site_id
 _symmetry_equiv_pos_as_xyz
  1  'x, y, z'
loop_
 _atom_site_type_symbol
 _atom_site_label
 _atom_site_symmetry_multiplicity
 _atom_site_fract_x
 _atom_site_fract_y
 _atom_site_fract_z
 _atom_site_occupancy
  P  P0  1  0.00000000  0.00000000  0.00000000  1
  P  P1  1  0.33300000  0.66700000  0.25000000  1
  P  P2  1  0.66700000  0.33300000  0.50000000  1
  P  P3  1  0.00000000  0.00000000  0.75000000  1
  Lu  Lu4  1  0.90806700  0.95544288  0.90624800  1
  As  As5  1  0.80474426  0.02221065  0.24833491  1
  As  As6  1  0.15000878  0.70921616  0.23302743  1
  As  As7  1  0.11250495  0.03469319  0.74299635  1
  As  As8  1  0.60727181  0.33214445  0.59814130  1
  As  As9  1  0.97886615  0.87280210  0.50870549  1
  As  As10  1  0.16804648  0.29979879  0.39038311  1
  Li  Li11  1  0.29298297  0.61055438  0.33075848  1
  Li  Li12  1  0.42428942  0.38124905  0.46264459  1
