# generated using pymatgen
data_Li2Cu2As6I4F3
_symmetry_space_group_name_H-M   'P 1'
_cell_length_a   6.81024742
_cell_length_b   6.65242848
_cell_length_c   7.63778444
_cell_angle_alpha   92.77003453
_cell_angle_beta   94.62412027
_cell_angle_gamma   92.59761625
_symmetry_Int_Tables_number   1
_chemical_formula_structural   Li2Cu2As6I4F3
_chemical_formula_sum   'Li2 Cu2 As6 I4 F3'
_cell_volume   344.07688001
_cell_formula_units_Z   1
loop_
 _symmetry_equiv_pos_site_id
 _symmetry_equiv_pos_as_xyz
  1  'x, y, z'
loop_
 _atom_site_type_symbol
 _atom_site_label
 _atom_site_symmetry_multiplicity
 _atom_site_fract_x
 _atom_site_fract_y
 _atom_site_fract_z
 _atom_site_occupancy
  F  F0  1  0.00000000  0.00000000  0.00000000  1
  F  F1  1  0.50000000  0.50000000  0.50000000  1
  F  F2  1  0.50000000  0.50000000  0.00000000  1
  I  I3  1  0.50000000  0.00000000  0.50000000  1
  I  I4  1  0.00000000  0.50000000  0.50000000  1
  I  I5  1  0.11915493  0.74464424  0.11411941  1
  I  I6  1  0.69196021  0.43127082  0.74527398  1
  As  As7  1  0.79545404  0.04912686  0.21108674  1
  As  As8  1  0.37061467  0.19988559  0.46172217  1
  As  As9  1  0.47526652  0.05071051  0.09514877  1
  As  As10  1  0.38953545  0.67706260  0.97802996  1
  As  As11  1  0.14729290  0.57389514  0.36145374  1
  As  As12  1  0.86413151  0.47784093  0.12664360  1
  Li  Li13  1  0.14209736  0.11634422  0.30477325  1
  Li  Li14  1  0.93458628  0.63123490  0.80247023  1
  Cu  Cu15  1  0.76589071  0.22131416  0.69488525  1
  Cu  Cu16  1  0.71159527  0.78480996  0.01140980  1
