# generated using pymatgen
data_Li3TiP3SeCl2
_symmetry_space_group_name_H-M   'P 1'
_cell_length_a   6.35733398
_cell_length_b   6.05870856
_cell_length_c   6.83378215
_cell_angle_alpha   98.24492962
_cell_angle_beta   100.71715049
_cell_angle_gamma   97.72073190
_symmetry_Int_Tables_number   1
_chemical_formula_structural   Li3TiP3SeCl2
_chemical_formula_sum   'Li3 Ti1 P3 Se1 Cl2'
_cell_volume   252.42077010
_cell_formula_units_Z   1
loop_
 _symmetry_equiv_pos_site_id
 _symmetry_equiv_pos_as_xyz
  1  'x, y, z'
loop_
 _atom_site_type_symbol
 _atom_site_label
 _atom_site_symmetry_multiplicity
 _atom_site_fract_x
 _atom_site_fract_y
 _atom_site_fract_z
 _atom_site_occupancy
  P  P0  1  0.00000000  0.00000000  0.00000000  1
  P  P1  1  0.50000000  0.50000000  0.50000000  1
  P  P2  1  0.50000000  0.50000000  0.00000000  1
  Li  Li3  1  0.50000000  0.00000000  0.50000000  1
  Li  Li4  1  0.00000000  0.50000000  0.50000000  1
  Li  Li5  1  0.20975023  0.97825630  0.99067849  1
  Se  Se6  1  0.80055058  0.25141538  0.38461309  1
  Cl  Cl7  1  0.01946229  0.66236314  0.59379652  1
  Cl  Cl8  1  0.68781392  0.24378112  0.98063748  1
  Ti  Ti9  1  0.23270053  0.11190504  0.11851111  1
