# generated using pymatgen
data_LiCuP2S
_symmetry_space_group_name_H-M   'P 1'
_cell_length_a   6.50422854
_cell_length_b   6.36660674
_cell_length_c   7.65268651
_cell_angle_alpha   94.60049378
_cell_angle_beta   95.92949998
_cell_angle_gamma   95.28888235
_symmetry_Int_Tables_number   1
_chemical_formula_structural   LiCuP2S
_chemical_formula_sum   'Li2 Cu2 P4 S2'
_cell_volume   312.56856828
_cell_formula_units_Z   2
loop_
 _symmetry_equiv_pos_site_id
 _symmetry_equiv_pos_as_xyz
  1  'x, y, z'
loop_
 _atom_site_type_symbol
 _atom_site_label
 _atom_site_symmetry_multiplicity
 _atom_site_fract_x
 _atom_site_fract_y
 _atom_site_fract_z
 _atom_site_occupancy
  P  P0  1  0.00000000  0.00000000  0.00000000  1
  P  P1  1  0.50000000  0.50000000  0.50000000  1
  P  P2  1  0.50000000  0.50000000  0.00000000  1
  P  P3  1  0.50000000  0.00000000  0.50000000  1
  Li  Li4  1  0.00000000  0.50000000  0.50000000  1
  Li  Li5  1  0.73639152  0.22029359  0.75585278  1
  Cu  Cu6  1  0.80710966  0.32166360  0.33686772  1
  Cu  Cu7  1  0.26519484  0.54401398  0.31882561  1
  S  S8  1  0.42141402  0.78451143  0.08829956  1
  S  S9  1  0.64764013  0.33107491  0.61396343  1
