# generated using pymatgen
data_Li2LuCu2(As3P)2
_symmetry_space_group_name_H-M   'P 1'
_cell_length_a   7.57814112
_cell_length_b   7.39053648
_cell_length_c   8.07627317
_cell_angle_alpha   91.68402872
_cell_angle_beta   91.90265338
_cell_angle_gamma   91.80961232
_symmetry_Int_Tables_number   1
_chemical_formula_structural   Li2LuCu2(As3P)2
_chemical_formula_sum   'Li2 Lu1 Cu2 As6 P2'
_cell_volume   451.63941213
_cell_formula_units_Z   1
loop_
 _symmetry_equiv_pos_site_id
 _symmetry_equiv_pos_as_xyz
  1  'x, y, z'
loop_
 _atom_site_type_symbol
 _atom_site_label
 _atom_site_symmetry_multiplicity
 _atom_site_fract_x
 _atom_site_fract_y
 _atom_site_fract_z
 _atom_site_occupancy
  P  P0  1  0.12500000  0.00000000  0.25000000  1
  P  P1  1  0.00000000  0.00000000  0.00000000  1
  Lu  Lu2  1  0.37500000  0.00000000  0.25000000  1
  Li  Li3  1  0.25000000  0.25000000  0.25000000  1
  Li  Li4  1  0.00000000  0.25000000  0.12500000  1
  Cu  Cu5  1  0.13669233  0.55601107  0.78875965  1
  Cu  Cu6  1  0.76936545  0.38454004  0.01140057  1
  As  As7  1  0.11666619  0.52859746  0.33204673  1
  As  As8  1  0.55904829  0.11160462  0.53135591  1
  As  As9  1  0.26313854  0.09658396  0.46024561  1
  As  As10  1  0.77235326  0.06517035  0.39465481  1
  As  As11  1  0.28094196  0.39921396  0.76325952  1
  As  As12  1  0.71827866  0.15765111  0.80235445  1
