# generated using pymatgen
data_LiTiCuF
_symmetry_space_group_name_H-M   'P 1'
_cell_length_a   7.34734418
_cell_length_b   7.23232269
_cell_length_c   8.12833143
_cell_angle_alpha   91.10284501
_cell_angle_beta   93.22627232
_cell_angle_gamma   91.09326342
_symmetry_Int_Tables_number   1
_chemical_formula_structural   LiTiCuF
_chemical_formula_sum   'Li2 Ti2 Cu2 F2'
_cell_volume   431.07380975
_cell_formula_units_Z   2
loop_
 _symmetry_equiv_pos_site_id
 _symmetry_equiv_pos_as_xyz
  1  'x, y, z'
loop_
 _atom_site_type_symbol
 _atom_site_label
 _atom_site_symmetry_multiplicity
 _atom_site_fract_x
 _atom_site_fract_y
 _atom_site_fract_z
 _atom_site_occupancy
  Li  Li0  1  0.12500000  0.00000000  0.25000000  1
  Li  Li1  1  0.00000000  0.00000000  0.00000000  1
  Cu  Cu2  1  0.37500000  0.00000000  0.25000000  1
  Cu  Cu3  1  0.25000000  0.25000000  0.25000000  1
  F  F4  1  0.00000000  0.25000000  0.12500000  1
  F  F5  1  0.40433267  0.17037791  0.57834807  1
  Ti  Ti6  1  0.33849717  0.37615754  0.91119741  1
  Ti  Ti7  1  0.48431374  0.31424529  0.40765475  1
