# generated using pymatgen
data_Li2LuCu2(NiP2)2
_symmetry_space_group_name_H-M   'P 1'
_cell_length_a   7.12836550
_cell_length_b   7.07252299
_cell_length_c   7.87422023
_cell_angle_alpha   94.45241619
_cell_angle_beta   95.26041788
_cell_angle_gamma   94.40341561
_symmetry_Int_Tables_number   1
_chemical_formula_structural   Li2LuCu2(NiP2)2
_chemical_formula_sum   'Li2 Lu1 Cu2 Ni2 P4'
_cell_volume   392.70824127
_cell_formula_units_Z   1
loop_
 _symmetry_equiv_pos_site_id
 _symmetry_equiv_pos_as_xyz
  1  'x, y, z'
loop_
 _atom_site_type_symbol
 _atom_site_label
 _atom_site_symmetry_multiplicity
 _atom_site_fract_x
 _atom_site_fract_y
 _atom_site_fract_z
 _atom_site_occupancy
  P  P0  1  0.12500000  0.00000000  0.25000000  1
  P  P1  1  0.00000000  0.00000000  0.00000000  1
  P  P2  1  0.37500000  0.00000000  0.25000000  1
  P  P3  1  0.25000000  0.25000000  0.25000000  1
  Lu  Lu4  1  0.00000000  0.25000000  0.12500000  1
  Li  Li5  1  0.83353907  0.93347276  0.51036802  1
  Li  Li6  1  0.82303199  0.26214259  0.88872056  1
  Cu  Cu7  1  0.45249503  0.29621629  0.11270384  1
  Cu  Cu8  1  0.03834361  0.37937513  0.18487583  1
  Ni  Ni9  1  0.78510523  0.03607951  0.05670797  1
  Ni  Ni10  1  0.70747766  0.75085884  0.17344702  1
