# generated using pymatgen
data_Li2Ti(CuAs3)2
_symmetry_space_group_name_H-M   'P 1'
_cell_length_a   7.89025713
_cell_length_b   7.69438647
_cell_length_c   7.84262248
_cell_angle_alpha   91.08392409
_cell_angle_beta   91.34273311
_cell_angle_gamma   91.21699301
_symmetry_Int_Tables_number   1
_chemical_formula_structural   Li2Ti(CuAs3)2
_chemical_formula_sum   'Li2 Ti1 Cu2 As6'
_cell_volume   475.80310402
_cell_formula_units_Z   1
loop_
 _symmetry_equiv_pos_site_id
 _symmetry_equiv_pos_as_xyz
  1  'x, y, z'
loop_
 _atom_site_type_symbol
 _atom_site_label
 _atom_site_symmetry_multiplicity
 _atom_site_fract_x
 _atom_site_fract_y
 _atom_site_fract_z
 _atom_site_occupancy
  Li  Li0  1  0.00000000  0.00000000  0.00000000  1
  Li  Li1  1  0.50000000  0.50000000  0.50000000  1
  Cu  Cu2  1  0.25000000  0.25000000  0.25000000  1
  Cu  Cu3  1  0.75000000  0.25000000  0.00000000  1
  Ti  Ti4  1  0.25000000  0.75000000  0.50000000  1
  As  As5  1  0.62853425  0.91236857  0.99069121  1
  As  As6  1  0.54300583  0.42334323  0.28331640  1
  As  As7  1  0.45951220  0.21144778  0.82233429  1
  As  As8  1  0.00479459  0.91501850  0.04793468  1
  As  As9  1  0.66959715  0.76573572  0.76055184  1
  As  As10  1  0.70418439  0.26582773  0.99328137  1
