# generated using pymatgen
data_Li2LuTiAs6N5
_symmetry_space_group_name_H-M   'P 1'
_cell_length_a   7.72327955
_cell_length_b   7.53270424
_cell_length_c   7.90323342
_cell_angle_alpha   91.54358906
_cell_angle_beta   91.48317469
_cell_angle_gamma   91.66842529
_symmetry_Int_Tables_number   1
_chemical_formula_structural   Li2LuTiAs6N5
_chemical_formula_sum   'Li2 Lu1 Ti1 As6 N5'
_cell_volume   459.26248713
_cell_formula_units_Z   1
loop_
 _symmetry_equiv_pos_site_id
 _symmetry_equiv_pos_as_xyz
  1  'x, y, z'
loop_
 _atom_site_type_symbol
 _atom_site_label
 _atom_site_symmetry_multiplicity
 _atom_site_fract_x
 _atom_site_fract_y
 _atom_site_fract_z
 _atom_site_occupancy
  Lu  Lu0  1  0.00000000  0.00000000  0.00000000  1
  Li  Li1  1  0.50000000  0.50000000  0.50000000  1
  Li  Li2  1  0.50000000  0.50000000  0.00000000  1
  Ti  Ti3  1  0.50000000  0.00000000  0.50000000  1
  As  As4  1  0.00000000  0.50000000  0.50000000  1
  As  As5  1  0.22862083  0.06141317  0.22931633  1
  As  As6  1  0.71573886  0.38106693  0.36824012  1
  As  As7  1  0.32818417  0.96155174  0.57614283  1
  As  As8  1  0.27477885  0.70083910  0.85475321  1
  As  As9  1  0.12448380  0.24689364  0.37557644  1
  N  N10  1  0.69306397  0.89783838  0.73866211  1
  N  N11  1  0.44000177  0.41696539  0.65261704  1
  N  N12  1  0.67844014  0.78534316  0.58052231  1
  N  N13  1  0.36520855  0.78062902  0.44429889  1
  N  N14  1  0.62301150  0.55970296  0.61765049  1
