# generated using pymatgen
data_Li2TiCu2(I2F)2
_symmetry_space_group_name_H-M   'P 1'
_cell_length_a   8.17064524
_cell_length_b   8.09382088
_cell_length_c   7.60944576
_cell_angle_alpha   90.78092664
_cell_angle_beta   91.68311669
_cell_angle_gamma   90.93517032
_symmetry_Int_Tables_number   1
_chemical_formula_structural   Li2TiCu2(I2F)2
_chemical_formula_sum   'Li2 Ti1 Cu2 I4 F2'
_cell_volume   502.89165312
_cell_formula_units_Z   1
loop_
 _symmetry_equiv_pos_site_id
 _symmetry_equiv_pos_as_xyz
  1  'x, y, z'
loop_
 _atom_site_type_symbol
 _atom_site_label
 _atom_site_symmetry_multiplicity
 _atom_site_fract_x
 _atom_site_fract_y
 _atom_site_fract_z
 _atom_site_occupancy
  I  I0  1  0.12500000  0.00000000  0.25000000  1
  I  I1  1  0.00000000  0.00000000  0.00000000  1
  I  I2  1  0.37500000  0.00000000  0.25000000  1
  I  I3  1  0.25000000  0.25000000  0.25000000  1
  Li  Li4  1  0.00000000  0.25000000  0.12500000  1
  Li  Li5  1  0.92555880  0.92712535  0.38017176  1
  Cu  Cu6  1  0.53518106  0.64531314  0.81752774  1
  Cu  Cu7  1  0.51326314  0.26984052  0.31266468  1
  F  F8  1  0.46151374  0.57934220  0.45156660  1
  F  F9  1  0.26960190  0.91485575  0.53239975  1
  Ti  Ti10  1  0.56747821  0.84722663  0.83053376  1
