# generated using pymatgen
data_Li2Ti2Zn2I4N
_symmetry_space_group_name_H-M   'P 1'
_cell_length_a   6.13687128
_cell_length_b   6.55786602
_cell_length_c   6.23143012
_cell_angle_alpha   91.46041048
_cell_angle_beta   102.05957820
_cell_angle_gamma   91.49607811
_symmetry_Int_Tables_number   1
_chemical_formula_structural   Li2Ti2Zn2I4N
_chemical_formula_sum   'Li2 Ti2 Zn2 I4 N1'
_cell_volume   245.04155554
_cell_formula_units_Z   1
loop_
 _symmetry_equiv_pos_site_id
 _symmetry_equiv_pos_as_xyz
  1  'x, y, z'
loop_
 _atom_site_type_symbol
 _atom_site_label
 _atom_site_symmetry_multiplicity
 _atom_site_fract_x
 _atom_site_fract_y
 _atom_site_fract_z
 _atom_site_occupancy
  I  I0  1  0.00000000  0.00000000  0.00000000  1
  I  I1  1  0.50000000  0.50000000  0.50000000  1
  I  I2  1  0.50000000  0.50000000  0.00000000  1
  I  I3  1  0.50000000  0.00000000  0.50000000  1
  Li  Li4  1  0.00000000  0.50000000  0.50000000  1
  Li  Li5  1  0.03714421  0.56165890  0.05153055  1
  Zn  Zn6  1  0.86337594  0.30838023  0.69811503  1
  Zn  Zn7  1  0.74609232  0.81339621  0.68304588  1
  Ti  Ti8  1  0.93616473  0.36216747  0.50973331  1
  Ti  Ti9  1  0.49327076  0.07932644  0.98763225  1
  N  N10  1  0.37614260  0.73099866  0.66882035  1
