# generated using pymatgen
data_Li2LuCu2(NiAs3)2
_symmetry_space_group_name_H-M   'P 1'
_cell_length_a   7.46198839
_cell_length_b   7.50425688
_cell_length_c   8.54774663
_cell_angle_alpha   91.28147018
_cell_angle_beta   92.01826285
_cell_angle_gamma   91.48044650
_symmetry_Int_Tables_number   1
_chemical_formula_structural   Li2LuCu2(NiAs3)2
_chemical_formula_sum   'Li2 Lu1 Cu2 Ni2 As6'
_cell_volume   478.05903821
_cell_formula_units_Z   1
loop_
 _symmetry_equiv_pos_site_id
 _symmetry_equiv_pos_as_xyz
  1  'x, y, z'
loop_
 _atom_site_type_symbol
 _atom_site_label
 _atom_site_symmetry_multiplicity
 _atom_site_fract_x
 _atom_site_fract_y
 _atom_site_fract_z
 _atom_site_occupancy
  Ni  Ni0  1  0.00000000  0.00000000  0.00000000  1
  Ni  Ni1  1  0.50000000  0.50000000  0.50000000  1
  Lu  Lu2  1  0.25000000  0.25000000  0.25000000  1
  As  As3  1  0.75000000  0.25000000  0.00000000  1
  As  As4  1  0.25000000  0.75000000  0.50000000  1
  As  As5  1  0.94129387  0.30879584  0.14092215  1
  As  As6  1  0.98183963  0.93345587  0.18692089  1
  As  As7  1  0.20220161  0.69802492  0.60152198  1
  As  As8  1  0.44336318  0.92790715  0.04711022  1
  Li  Li9  1  0.84093018  0.80481694  0.97276625  1
  Li  Li10  1  0.11784335  0.85400033  0.47630516  1
  Cu  Cu11  1  0.28445340  0.24280667  0.95284226  1
  Cu  Cu12  1  0.94609586  0.68207169  0.47461900  1
