# generated using pymatgen
data_Li3Cu2Ni2(PN)5
_symmetry_space_group_name_H-M   'P 1'
_cell_length_a   7.51156191
_cell_length_b   7.32647933
_cell_length_c   8.64926300
_cell_angle_alpha   92.78488339
_cell_angle_beta   92.28082144
_cell_angle_gamma   93.01059213
_symmetry_Int_Tables_number   1
_chemical_formula_structural   Li3Cu2Ni2(PN)5
_chemical_formula_sum   'Li3 Cu2 Ni2 P5 N5'
_cell_volume   474.35105193
_cell_formula_units_Z   1
loop_
 _symmetry_equiv_pos_site_id
 _symmetry_equiv_pos_as_xyz
  1  'x, y, z'
loop_
 _atom_site_type_symbol
 _atom_site_label
 _atom_site_symmetry_multiplicity
 _atom_site_fract_x
 _atom_site_fract_y
 _atom_site_fract_z
 _atom_site_occupancy
  P  P0  1  0.12500000  0.00000000  0.25000000  1
  P  P1  1  0.00000000  0.00000000  0.00000000  1
  P  P2  1  0.37500000  0.00000000  0.25000000  1
  P  P3  1  0.25000000  0.25000000  0.25000000  1
  P  P4  1  0.00000000  0.25000000  0.12500000  1
  Li  Li5  1  0.82303883  0.57270478  0.52007229  1
  Li  Li6  1  0.88946790  0.60135609  0.10409253  1
  Li  Li7  1  0.26963314  0.97519802  0.10760801  1
  Cu  Cu8  1  0.37448100  0.11405590  0.25501967  1
  Cu  Cu9  1  0.45483370  0.44141940  0.42037918  1
  Ni  Ni10  1  0.95761810  0.79054778  0.58105493  1
  Ni  Ni11  1  0.25232760  0.93999225  0.06717927  1
  N  N12  1  0.84664039  0.89228150  0.60753634  1
  N  N13  1  0.84436168  0.02880687  0.22451123  1
  N  N14  1  0.52650468  0.81453374  0.17506316  1
  N  N15  1  0.38769300  0.02866030  0.62934796  1
  N  N16  1  0.23711389  0.60551542  0.76383459  1
