# generated using pymatgen
data_Li4Ni2As6SeO4
_symmetry_space_group_name_H-M   'P 1'
_cell_length_a   6.37296820
_cell_length_b   6.12703243
_cell_length_c   8.07649664
_cell_angle_alpha   98.01295469
_cell_angle_beta   99.71227725
_cell_angle_gamma   97.72961619
_symmetry_Int_Tables_number   1
_chemical_formula_structural   Li4Ni2As6SeO4
_chemical_formula_sum   'Li4 Ni2 As6 Se1 O4'
_cell_volume   303.75055003
_cell_formula_units_Z   1
loop_
 _symmetry_equiv_pos_site_id
 _symmetry_equiv_pos_as_xyz
  1  'x, y, z'
loop_
 _atom_site_type_symbol
 _atom_site_label
 _atom_site_symmetry_multiplicity
 _atom_site_fract_x
 _atom_site_fract_y
 _atom_site_fract_z
 _atom_site_occupancy
  Li  Li0  1  0.12500000  0.00000000  0.25000000  1
  Li  Li1  1  0.00000000  0.00000000  0.00000000  1
  Li  Li2  1  0.37500000  0.00000000  0.25000000  1
  Li  Li3  1  0.25000000  0.25000000  0.25000000  1
  Se  Se4  1  0.00000000  0.25000000  0.12500000  1
  Ni  Ni5  1  0.75956731  0.18442737  0.63725543  1
  Ni  Ni6  1  0.98582139  0.72106891  0.40418004  1
  As  As7  1  0.73730270  0.88255773  0.05186505  1
  As  As8  1  0.70149210  0.67850217  0.99941852  1
  As  As9  1  0.34762365  0.87062012  0.42083546  1
  As  As10  1  0.42743172  0.21598444  0.30656201  1
  As  As11  1  0.21919441  0.99044760  0.67583752  1
  As  As12  1  0.88960456  0.61987447  0.61219150  1
  O  O13  1  0.97177966  0.32128210  0.95575946  1
  O  O14  1  0.44342868  0.30822908  0.08264873  1
  O  O15  1  0.41649576  0.62409859  0.63294830  1
  O  O16  1  0.48536656  0.78976004  0.69317818  1
