# generated using pymatgen
data_Li2TiCu2(P2S)2
_symmetry_space_group_name_H-M   'P 1'
_cell_length_a   6.10535993
_cell_length_b   5.98163009
_cell_length_c   6.91822460
_cell_angle_alpha   94.75600915
_cell_angle_beta   97.37072980
_cell_angle_gamma   95.22378259
_symmetry_Int_Tables_number   1
_chemical_formula_structural   Li2TiCu2(P2S)2
_chemical_formula_sum   'Li2 Ti1 Cu2 P4 S2'
_cell_volume   248.37803965
_cell_formula_units_Z   1
loop_
 _symmetry_equiv_pos_site_id
 _symmetry_equiv_pos_as_xyz
  1  'x, y, z'
loop_
 _atom_site_type_symbol
 _atom_site_label
 _atom_site_symmetry_multiplicity
 _atom_site_fract_x
 _atom_site_fract_y
 _atom_site_fract_z
 _atom_site_occupancy
  P  P0  1  0.00000000  0.00000000  0.00000000  1
  P  P1  1  0.50000000  0.50000000  0.50000000  1
  P  P2  1  0.50000000  0.50000000  0.00000000  1
  P  P3  1  0.50000000  0.00000000  0.50000000  1
  Li  Li4  1  0.00000000  0.50000000  0.50000000  1
  Li  Li5  1  0.06181767  0.45214231  0.09493005  1
  Cu  Cu6  1  0.08180765  0.31316772  0.91388153  1
  Cu  Cu7  1  0.35141695  0.21356583  0.91869345  1
  S  S8  1  0.32433791  0.11261762  0.81789045  1
  S  S9  1  0.97105017  0.51594778  0.47043593  1
  Ti  Ti10  1  0.34848801  0.23742299  0.46858315  1
