# generated using pymatgen
data_Li3Ni2P3N5F3
_symmetry_space_group_name_H-M   'P 1'
_cell_length_a   6.70447592
_cell_length_b   6.41413190
_cell_length_c   7.95608273
_cell_angle_alpha   95.21062625
_cell_angle_beta   95.12890377
_cell_angle_gamma   95.27584113
_symmetry_Int_Tables_number   1
_chemical_formula_structural   Li3Ni2P3N5F3
_chemical_formula_sum   'Li3 Ni2 P3 N5 F3'
_cell_volume   337.62894634
_cell_formula_units_Z   1
loop_
 _symmetry_equiv_pos_site_id
 _symmetry_equiv_pos_as_xyz
  1  'x, y, z'
loop_
 _atom_site_type_symbol
 _atom_site_label
 _atom_site_symmetry_multiplicity
 _atom_site_fract_x
 _atom_site_fract_y
 _atom_site_fract_z
 _atom_site_occupancy
  P  P0  1  0.00000000  0.00000000  0.00000000  1
  P  P1  1  0.50000000  0.50000000  0.50000000  1
  P  P2  1  0.50000000  0.50000000  0.00000000  1
  Li  Li3  1  0.50000000  0.00000000  0.50000000  1
  Li  Li4  1  0.00000000  0.50000000  0.50000000  1
  Li  Li5  1  0.65222973  0.61536296  0.65324993  1
  F  F6  1  0.25007916  0.56329536  0.48273496  1
  F  F7  1  0.25718624  0.68574121  0.70744120  1
  F  F8  1  0.13222814  0.99118516  0.85631547  1
  Ni  Ni9  1  0.48960871  0.29307174  0.96935694  1
  Ni  Ni10  1  0.98732175  0.55311112  0.52740362  1
  N  N11  1  0.51428835  0.83343062  0.17421046  1
  N  N12  1  0.21625322  0.86747927  0.06971237  1
  N  N13  1  0.88052633  0.62578921  0.99790796  1
  N  N14  1  0.70658548  0.04164760  0.60077083  1
  N  N15  1  0.53855121  0.72400214  0.67512069  1
