# generated using pymatgen
data_Li3LuNi2P5Cl2
_symmetry_space_group_name_H-M   'P 1'
_cell_length_a   6.38830211
_cell_length_b   6.07225767
_cell_length_c   7.65126023
_cell_angle_alpha   98.55301858
_cell_angle_beta   100.56670936
_cell_angle_gamma   98.22540437
_symmetry_Int_Tables_number   1
_chemical_formula_structural   Li3LuNi2P5Cl2
_chemical_formula_sum   'Li3 Lu1 Ni2 P5 Cl2'
_cell_volume   284.06107611
_cell_formula_units_Z   1
loop_
 _symmetry_equiv_pos_site_id
 _symmetry_equiv_pos_as_xyz
  1  'x, y, z'
loop_
 _atom_site_type_symbol
 _atom_site_label
 _atom_site_symmetry_multiplicity
 _atom_site_fract_x
 _atom_site_fract_y
 _atom_site_fract_z
 _atom_site_occupancy
  P  P0  1  0.00000000  0.00000000  0.00000000  1
  P  P1  1  0.50000000  0.50000000  0.50000000  1
  P  P2  1  0.50000000  0.50000000  0.00000000  1
  P  P3  1  0.50000000  0.00000000  0.50000000  1
  P  P4  1  0.00000000  0.50000000  0.50000000  1
  Lu  Lu5  1  0.13065347  0.87984617  0.43734316  1
  Li  Li6  1  0.69293538  0.11798836  0.51979939  1
  Li  Li7  1  0.43929426  0.11008461  0.79035901  1
  Li  Li8  1  0.66117589  0.29971519  0.16907696  1
  Cl  Cl9  1  0.15863724  0.15580397  0.81354252  1
  Cl  Cl10  1  0.95319219  0.23158816  0.49999285  1
  Ni  Ni11  1  0.45406615  0.03245371  0.78536756  1
  Ni  Ni12  1  0.02478371  0.54433527  0.25748626  1
