# generated using pymatgen
data_Li2TiP4(OF)3
_symmetry_space_group_name_H-M   'P 1'
_cell_length_a   7.62475133
_cell_length_b   7.51082732
_cell_length_c   7.65372831
_cell_angle_alpha   92.16628853
_cell_angle_beta   93.19477582
_cell_angle_gamma   92.16604850
_symmetry_Int_Tables_number   1
_chemical_formula_structural   Li2TiP4(OF)3
_chemical_formula_sum   'Li2 Ti1 P4 O3 F3'
_cell_volume   436.97132607
_cell_formula_units_Z   1
loop_
 _symmetry_equiv_pos_site_id
 _symmetry_equiv_pos_as_xyz
  1  'x, y, z'
loop_
 _atom_site_type_symbol
 _atom_site_label
 _atom_site_symmetry_multiplicity
 _atom_site_fract_x
 _atom_site_fract_y
 _atom_site_fract_z
 _atom_site_occupancy
  P  P0  1  0.00000000  0.00000000  0.00000000  1
  P  P1  1  0.50000000  0.50000000  0.50000000  1
  P  P2  1  0.25000000  0.25000000  0.25000000  1
  P  P3  1  0.75000000  0.25000000  0.00000000  1
  Li  Li4  1  0.25000000  0.75000000  0.50000000  1
  Li  Li5  1  0.41362498  0.04441112  0.25582438  1
  F  F6  1  0.41332501  0.09344317  0.19733961  1
  F  F7  1  0.23023790  0.95259032  0.73641463  1
  F  F8  1  0.31809821  0.64768810  0.94194273  1
  Ti  Ti9  1  0.98759920  0.88061972  0.31336047  1
  O  O10  1  0.17378536  0.29803934  0.78196448  1
  O  O11  1  0.88368939  0.20855398  0.01423327  1
  O  O12  1  0.41154029  0.11553769  0.34380246  1
