# generated using pymatgen
data_Li2TiCu2(SO)2
_symmetry_space_group_name_H-M   'P 1'
_cell_length_a   5.74183882
_cell_length_b   5.64398579
_cell_length_c   6.78755759
_cell_angle_alpha   96.31503574
_cell_angle_beta   99.43870357
_cell_angle_gamma   97.24157685
_symmetry_Int_Tables_number   1
_chemical_formula_structural   Li2TiCu2(SO)2
_chemical_formula_sum   'Li2 Ti1 Cu2 S2 O2'
_cell_volume   213.32715230
_cell_formula_units_Z   1
loop_
 _symmetry_equiv_pos_site_id
 _symmetry_equiv_pos_as_xyz
  1  'x, y, z'
loop_
 _atom_site_type_symbol
 _atom_site_label
 _atom_site_symmetry_multiplicity
 _atom_site_fract_x
 _atom_site_fract_y
 _atom_site_fract_z
 _atom_site_occupancy
  Li  Li0  1  0.12500000  0.00000000  0.25000000  1
  Li  Li1  1  0.00000000  0.00000000  0.00000000  1
  Cu  Cu2  1  0.37500000  0.00000000  0.25000000  1
  Cu  Cu3  1  0.25000000  0.25000000  0.25000000  1
  S  S4  1  0.00000000  0.25000000  0.12500000  1
  S  S5  1  0.40980029  0.14223756  0.49961248  1
  Ti  Ti6  1  0.65111640  0.54854261  0.94387087  1
  O  O7  1  0.10547596  0.92774276  0.61819926  1
  O  O8  1  0.30801614  0.55310078  0.13725658  1
