# generated using pymatgen
data_Li2TiCu2P5
_symmetry_space_group_name_H-M   'P 1'
_cell_length_a   6.50781263
_cell_length_b   6.21131247
_cell_length_c   7.09574566
_cell_angle_alpha   93.88555739
_cell_angle_beta   96.29066126
_cell_angle_gamma   94.12250450
_symmetry_Int_Tables_number   1
_chemical_formula_structural   Li2TiCu2P5
_chemical_formula_sum   'Li2 Ti1 Cu2 P5'
_cell_volume   283.53110607
_cell_formula_units_Z   1
loop_
 _symmetry_equiv_pos_site_id
 _symmetry_equiv_pos_as_xyz
  1  'x, y, z'
loop_
 _atom_site_type_symbol
 _atom_site_label
 _atom_site_symmetry_multiplicity
 _atom_site_fract_x
 _atom_site_fract_y
 _atom_site_fract_z
 _atom_site_occupancy
  P  P0  1  0.00000000  0.00000000  0.00000000  1
  P  P1  1  0.50000000  0.50000000  0.50000000  1
  P  P2  1  0.25000000  0.25000000  0.25000000  1
  P  P3  1  0.75000000  0.25000000  0.00000000  1
  P  P4  1  0.25000000  0.75000000  0.50000000  1
  Li  Li5  1  0.99998943  0.73225886  0.66299990  1
  Li  Li6  1  0.88188117  0.86521354  0.14696458  1
  Cu  Cu7  1  0.00178624  0.69398650  0.77482706  1
  Cu  Cu8  1  0.07523728  0.69982091  0.39788562  1
  Ti  Ti9  1  0.49796906  0.20374710  0.34483564  1
