# generated using pymatgen
data_LiTiCuP3O
_symmetry_space_group_name_H-M   'P 1'
_cell_length_a   6.61865179
_cell_length_b   6.42612738
_cell_length_c   7.30498450
_cell_angle_alpha   94.68487989
_cell_angle_beta   97.02360120
_cell_angle_gamma   95.09719116
_symmetry_Int_Tables_number   1
_chemical_formula_structural   LiTiCuP3O
_chemical_formula_sum   'Li2 Ti2 Cu2 P6 O2'
_cell_volume   305.79813574
_cell_formula_units_Z   2
loop_
 _symmetry_equiv_pos_site_id
 _symmetry_equiv_pos_as_xyz
  1  'x, y, z'
loop_
 _atom_site_type_symbol
 _atom_site_label
 _atom_site_symmetry_multiplicity
 _atom_site_fract_x
 _atom_site_fract_y
 _atom_site_fract_z
 _atom_site_occupancy
  P  P0  1  0.00000000  0.00000000  0.00000000  1
  P  P1  1  0.50000000  0.50000000  0.50000000  1
  P  P2  1  0.25000000  0.25000000  0.25000000  1
  P  P3  1  0.75000000  0.25000000  0.00000000  1
  P  P4  1  0.25000000  0.75000000  0.50000000  1
  P  P5  1  0.01837975  0.74928505  0.16600607  1
  Li  Li6  1  0.86303537  0.23948599  0.64335411  1
  Li  Li7  1  0.76931180  0.57679290  0.12032267  1
  Cu  Cu8  1  0.98571380  0.09696274  0.33059068  1
  Cu  Cu9  1  0.05220994  0.98919851  0.93410424  1
  Ti  Ti10  1  0.51491402  0.43354509  0.54200151  1
  Ti  Ti11  1  0.80213511  0.49934078  0.76227654  1
  O  O12  1  0.24142606  0.91213525  0.99925130  1
  O  O13  1  0.76115456  0.85488837  0.59136429  1
