# generated using pymatgen
data_Li2LuCu2(As3S)2
_symmetry_space_group_name_H-M   'P 1'
_cell_length_a   6.55962301
_cell_length_b   6.42323809
_cell_length_c   7.32021475
_cell_angle_alpha   94.13549545
_cell_angle_beta   96.05652131
_cell_angle_gamma   94.70729173
_symmetry_Int_Tables_number   1
_chemical_formula_structural   Li2LuCu2(As3S)2
_chemical_formula_sum   'Li2 Lu1 Cu2 As6 S2'
_cell_volume   304.65703846
_cell_formula_units_Z   1
loop_
 _symmetry_equiv_pos_site_id
 _symmetry_equiv_pos_as_xyz
  1  'x, y, z'
loop_
 _atom_site_type_symbol
 _atom_site_label
 _atom_site_symmetry_multiplicity
 _atom_site_fract_x
 _atom_site_fract_y
 _atom_site_fract_z
 _atom_site_occupancy
  Lu  Lu0  1  0.00000000  0.00000000  0.00000000  1
  Li  Li1  1  0.50000000  0.50000000  0.50000000  1
  Li  Li2  1  0.25000000  0.25000000  0.25000000  1
  Cu  Cu3  1  0.75000000  0.25000000  0.00000000  1
  Cu  Cu4  1  0.25000000  0.75000000  0.50000000  1
  S  S5  1  0.49306120  0.75495688  0.31020275  1
  S  S6  1  0.47825120  0.63877765  0.49669353  1
  As  As7  1  0.10073924  0.07572852  0.17158727  1
  As  As8  1  0.37368529  0.03230219  0.62000442  1
  As  As9  1  0.91891294  0.50568991  0.59184778  1
  As  As10  1  0.92391471  0.32951430  0.19378985  1
  As  As11  1  0.77826221  0.17007778  0.33084880  1
  As  As12  1  0.82116774  0.15403563  0.74157571  1
