# generated using pymatgen
data_Li2Lu(CuP2)2
_symmetry_space_group_name_H-M   'P 1'
_cell_length_a   7.27215321
_cell_length_b   7.19766644
_cell_length_c   7.90092748
_cell_angle_alpha   93.56402475
_cell_angle_beta   94.45312272
_cell_angle_gamma   93.50199665
_symmetry_Int_Tables_number   1
_chemical_formula_structural   Li2Lu(CuP2)2
_chemical_formula_sum   'Li2 Lu1 Cu2 P4'
_cell_volume   410.60497524
_cell_formula_units_Z   1
loop_
 _symmetry_equiv_pos_site_id
 _symmetry_equiv_pos_as_xyz
  1  'x, y, z'
loop_
 _atom_site_type_symbol
 _atom_site_label
 _atom_site_symmetry_multiplicity
 _atom_site_fract_x
 _atom_site_fract_y
 _atom_site_fract_z
 _atom_site_occupancy
  P  P0  1  0.00000000  0.00000000  0.00000000  1
  P  P1  1  0.50000000  0.50000000  0.50000000  1
  P  P2  1  0.50000000  0.50000000  0.00000000  1
  P  P3  1  0.50000000  0.00000000  0.50000000  1
  Lu  Lu4  1  0.00000000  0.50000000  0.50000000  1
  Li  Li5  1  0.20021878  0.63040082  0.63764787  1
  Li  Li6  1  0.02366638  0.82062290  0.06435523  1
  Cu  Cu7  1  0.01190639  0.15577239  0.69995596  1
  Cu  Cu8  1  0.73223773  0.47282060  0.63070274  1
