# generated using pymatgen
data_Li3TiI4(OF)3
_symmetry_space_group_name_H-M   'P 1'
_cell_length_a   5.80348818
_cell_length_b   5.61148511
_cell_length_c   6.92096101
_cell_angle_alpha   98.60038376
_cell_angle_beta   101.57276440
_cell_angle_gamma   98.03396399
_symmetry_Int_Tables_number   1
_chemical_formula_structural   Li3TiI4(OF)3
_chemical_formula_sum   'Li3 Ti1 I4 O3 F3'
_cell_volume   214.94548817
_cell_formula_units_Z   1
loop_
 _symmetry_equiv_pos_site_id
 _symmetry_equiv_pos_as_xyz
  1  'x, y, z'
loop_
 _atom_site_type_symbol
 _atom_site_label
 _atom_site_symmetry_multiplicity
 _atom_site_fract_x
 _atom_site_fract_y
 _atom_site_fract_z
 _atom_site_occupancy
  I  I0  1  0.12500000  0.00000000  0.25000000  1
  I  I1  1  0.00000000  0.00000000  0.00000000  1
  I  I2  1  0.37500000  0.00000000  0.25000000  1
  I  I3  1  0.25000000  0.25000000  0.25000000  1
  Li  Li4  1  0.00000000  0.25000000  0.12500000  1
  Li  Li5  1  0.54832103  0.06443005  0.65164536  1
  Li  Li6  1  0.42084026  0.89504114  0.20266941  1
  F  F7  1  0.32710423  0.22360800  0.28350601  1
  F  F8  1  0.08272898  0.39398205  0.73148611  1
  F  F9  1  0.25943057  0.35628275  0.95378893  1
  Ti  Ti10  1  0.24903138  0.77037475  0.39875060  1
  O  O11  1  0.96424044  0.98199104  0.34268473  1
  O  O12  1  0.92890706  0.26886423  0.95436914  1
  O  O13  1  0.42843682  0.42730190  0.80992597  1
