# generated using pymatgen
data_Li2Ti(CuP2)2
_symmetry_space_group_name_H-M   'P 1'
_cell_length_a   6.31063559
_cell_length_b   6.23207584
_cell_length_c   7.23515523
_cell_angle_alpha   95.57502110
_cell_angle_beta   97.75300851
_cell_angle_gamma   96.09447986
_symmetry_Int_Tables_number   1
_chemical_formula_structural   Li2Ti(CuP2)2
_chemical_formula_sum   'Li2 Ti1 Cu2 P4'
_cell_volume   278.55208326
_cell_formula_units_Z   1
loop_
 _symmetry_equiv_pos_site_id
 _symmetry_equiv_pos_as_xyz
  1  'x, y, z'
loop_
 _atom_site_type_symbol
 _atom_site_label
 _atom_site_symmetry_multiplicity
 _atom_site_fract_x
 _atom_site_fract_y
 _atom_site_fract_z
 _atom_site_occupancy
  Ti  Ti0  1  0.00000000  0.00000000  0.00000000  1
  P  P1  1  0.33300000  0.66700000  0.25000000  1
  P  P2  1  0.66700000  0.33300000  0.50000000  1
  P  P3  1  0.00000000  0.00000000  0.75000000  1
  P  P4  1  0.51039975  0.58732788  0.21707995  1
  Li  Li5  1  0.45084367  0.59045809  0.90796720  1
  Li  Li6  1  0.06483325  0.27691239  0.74241378  1
  Cu  Cu7  1  0.48154125  0.54096264  0.90010860  1
  Cu  Cu8  1  0.79347190  0.46240919  0.49380929  1
