# generated using pymatgen
data_Li2LuCu2(NiP2)2
_symmetry_space_group_name_H-M   'P 1'
_cell_length_a   7.58411124
_cell_length_b   7.37759881
_cell_length_c   8.02468767
_cell_angle_alpha   91.51535947
_cell_angle_beta   91.56741675
_cell_angle_gamma   91.70615996
_symmetry_Int_Tables_number   1
_chemical_formula_structural   Li2LuCu2(NiP2)2
_chemical_formula_sum   'Li2 Lu1 Cu2 Ni2 P4'
_cell_volume   448.46760443
_cell_formula_units_Z   1
loop_
 _symmetry_equiv_pos_site_id
 _symmetry_equiv_pos_as_xyz
  1  'x, y, z'
loop_
 _atom_site_type_symbol
 _atom_site_label
 _atom_site_symmetry_multiplicity
 _atom_site_fract_x
 _atom_site_fract_y
 _atom_site_fract_z
 _atom_site_occupancy
  P  P0  1  0.12500000  0.00000000  0.25000000  1
  P  P1  1  0.00000000  0.00000000  0.00000000  1
  P  P2  1  0.37500000  0.00000000  0.25000000  1
  P  P3  1  0.25000000  0.25000000  0.25000000  1
  Lu  Lu4  1  0.00000000  0.25000000  0.12500000  1
  Li  Li5  1  0.71246603  0.39175088  0.51252120  1
  Li  Li6  1  0.67967985  0.65329695  0.60068846  1
  Cu  Cu7  1  0.67718188  0.99290601  0.30727367  1
  Cu  Cu8  1  0.68841016  0.98116125  0.55987332  1
  Ni  Ni9  1  0.81090079  0.81516492  0.85003134  1
  Ni  Ni10  1  0.18534998  0.95182108  0.26575320  1
