# generated using pymatgen
data_Li2LuAs6P4O7
_symmetry_space_group_name_H-M   'P 1'
_cell_length_a   7.46130338
_cell_length_b   7.34313551
_cell_length_c   8.51132981
_cell_angle_alpha   92.94761617
_cell_angle_beta   93.00338607
_cell_angle_gamma   93.06239417
_symmetry_Int_Tables_number   1
_chemical_formula_structural   Li2LuAs6P4O7
_chemical_formula_sum   'Li2 Lu1 As6 P4 O7'
_cell_volume   464.33682116
_cell_formula_units_Z   1
loop_
 _symmetry_equiv_pos_site_id
 _symmetry_equiv_pos_as_xyz
  1  'x, y, z'
loop_
 _atom_site_type_symbol
 _atom_site_label
 _atom_site_symmetry_multiplicity
 _atom_site_fract_x
 _atom_site_fract_y
 _atom_site_fract_z
 _atom_site_occupancy
  O  O0  1  0.00000000  0.00000000  0.00000000  1
  O  O1  1  0.50000000  0.50000000  0.50000000  1
  O  O2  1  0.50000000  0.50000000  0.00000000  1
  O  O3  1  0.50000000  0.00000000  0.50000000  1
  O  O4  1  0.00000000  0.50000000  0.50000000  1
  O  O5  1  0.66351563  0.80936243  0.63112847  1
  O  O6  1  0.26618726  0.46383700  0.73543006  1
  P  P7  1  0.00434878  0.20717260  0.52668266  1
  P  P8  1  0.13984833  0.25401555  0.48781245  1
  P  P9  1  0.28105530  0.79770669  0.22843676  1
  P  P10  1  0.73623858  0.42663088  0.92027016  1
  Lu  Lu11  1  0.14714908  0.03386052  0.99844053  1
  As  As12  1  0.45140092  0.82717714  0.99685073  1
  As  As13  1  0.27179335  0.10051146  0.08059497  1
  As  As14  1  0.97483630  0.37913713  0.85335320  1
  As  As15  1  0.61811296  0.92067435  0.71934984  1
  As  As16  1  0.62716375  0.37333542  0.85609873  1
  As  As17  1  0.73076650  0.13372337  0.01530447  1
  Li  Li18  1  0.89177780  0.46239051  0.91209356  1
  Li  Li19  1  0.64923698  0.64957062  0.25784595  1
