# generated using pymatgen
data_LiCuAs3
_symmetry_space_group_name_H-M   'P 1'
_cell_length_a   7.30611464
_cell_length_b   7.38548765
_cell_length_c   8.16885975
_cell_angle_alpha   92.37699137
_cell_angle_beta   93.73459564
_cell_angle_gamma   92.38673286
_symmetry_Int_Tables_number   1
_chemical_formula_structural   LiCuAs3
_chemical_formula_sum   'Li2 Cu2 As6'
_cell_volume   439.03589094
_cell_formula_units_Z   2
loop_
 _symmetry_equiv_pos_site_id
 _symmetry_equiv_pos_as_xyz
  1  'x, y, z'
loop_
 _atom_site_type_symbol
 _atom_site_label
 _atom_site_symmetry_multiplicity
 _atom_site_fract_x
 _atom_site_fract_y
 _atom_site_fract_z
 _atom_site_occupancy
  As  As0  1  0.12500000  0.12500000  0.12500000  1
  As  As1  1  0.50000000  0.50000000  0.50000000  1
  As  As2  1  0.25000000  0.25000000  0.25000000  1
  As  As3  1  0.75000000  0.75000000  0.75000000  1
  As  As4  1  0.57272929  0.33573895  0.42963519  1
  As  As5  1  0.57361721  0.64431215  0.16610001  1
  Li  Li6  1  0.11252200  0.24942443  0.63843611  1
  Li  Li7  1  0.40561942  0.21717821  0.61040875  1
  Cu  Cu8  1  0.39614511  0.82382617  0.68830792  1
  Cu  Cu9  1  0.74119239  0.08364991  0.86394112  1
