# generated using pymatgen
data_Li3LuTiAs6N5
_symmetry_space_group_name_H-M   'P 1'
_cell_length_a   8.29308633
_cell_length_b   8.14155788
_cell_length_c   7.79771807
_cell_angle_alpha   91.09702224
_cell_angle_beta   90.92910720
_cell_angle_gamma   91.18847627
_symmetry_Int_Tables_number   1
_chemical_formula_structural   Li3LuTiAs6N5
_chemical_formula_sum   'Li3 Lu1 Ti1 As6 N5'
_cell_volume   526.20891420
_cell_formula_units_Z   1
loop_
 _symmetry_equiv_pos_site_id
 _symmetry_equiv_pos_as_xyz
  1  'x, y, z'
loop_
 _atom_site_type_symbol
 _atom_site_label
 _atom_site_symmetry_multiplicity
 _atom_site_fract_x
 _atom_site_fract_y
 _atom_site_fract_z
 _atom_site_occupancy
  Lu  Lu0  1  0.12500000  0.00000000  0.25000000  1
  Li  Li1  1  0.00000000  0.00000000  0.00000000  1
  Li  Li2  1  0.37500000  0.00000000  0.25000000  1
  Li  Li3  1  0.25000000  0.25000000  0.25000000  1
  Ti  Ti4  1  0.00000000  0.25000000  0.12500000  1
  As  As5  1  0.25282696  0.25197941  0.37059583  1
  As  As6  1  0.05788440  0.18339127  0.36996182  1
  As  As7  1  0.25832269  0.06357878  0.25228328  1
  As  As8  1  0.66267186  0.88126246  0.47333582  1
  As  As9  1  0.83103239  0.11480022  0.02323087  1
  As  As10  1  0.19066024  0.13986342  0.38069192  1
  N  N11  1  0.13429502  0.00280706  0.77165583  1
  N  N12  1  0.50935515  0.97137055  0.25968478  1
  N  N13  1  0.11263991  0.51552048  0.30214866  1
  N  N14  1  0.16933453  0.60581736  0.12777891  1
  N  N15  1  0.91186304  0.14869281  0.15079163  1
