# generated using pymatgen
data_Li2LuCu2(PN)5
_symmetry_space_group_name_H-M   'P 1'
_cell_length_a   7.39270183
_cell_length_b   7.33465215
_cell_length_c   8.39719518
_cell_angle_alpha   92.49800382
_cell_angle_beta   92.84159362
_cell_angle_gamma   92.65459933
_symmetry_Int_Tables_number   1
_chemical_formula_structural   Li2LuCu2(PN)5
_chemical_formula_sum   'Li2 Lu1 Cu2 P5 N5'
_cell_volume   453.79178716
_cell_formula_units_Z   1
loop_
 _symmetry_equiv_pos_site_id
 _symmetry_equiv_pos_as_xyz
  1  'x, y, z'
loop_
 _atom_site_type_symbol
 _atom_site_label
 _atom_site_symmetry_multiplicity
 _atom_site_fract_x
 _atom_site_fract_y
 _atom_site_fract_z
 _atom_site_occupancy
  P  P0  1  0.12500000  0.00000000  0.25000000  1
  P  P1  1  0.00000000  0.00000000  0.00000000  1
  P  P2  1  0.37500000  0.00000000  0.25000000  1
  P  P3  1  0.25000000  0.25000000  0.25000000  1
  P  P4  1  0.00000000  0.25000000  0.12500000  1
  Lu  Lu5  1  0.70430098  0.66016413  0.42675487  1
  Li  Li6  1  0.41083409  0.66857431  0.13452644  1
  Li  Li7  1  0.79718531  0.18952422  0.08275087  1
  N  N8  1  0.22639373  0.90526836  0.31800096  1
  N  N9  1  0.18260313  0.02295274  0.54886184  1
  N  N10  1  0.85761225  0.58129124  0.97193572  1
  N  N11  1  0.90390865  0.00122691  0.22410851  1
  N  N12  1  0.53657761  0.00631244  0.42311745  1
  Cu  Cu13  1  0.29375263  0.23954729  0.93256473  1
  Cu  Cu14  1  0.81119686  0.74852486  0.53281694  1
