# generated using pymatgen
data_Li2LuTi(CuP2)2
_symmetry_space_group_name_H-M   'P 1'
_cell_length_a   7.33796891
_cell_length_b   7.21900357
_cell_length_c   7.70211497
_cell_angle_alpha   91.07033431
_cell_angle_beta   91.71826205
_cell_angle_gamma   90.86898453
_symmetry_Int_Tables_number   1
_chemical_formula_structural   Li2LuTi(CuP2)2
_chemical_formula_sum   'Li2 Lu1 Ti1 Cu2 P4'
_cell_volume   407.69767775
_cell_formula_units_Z   1
loop_
 _symmetry_equiv_pos_site_id
 _symmetry_equiv_pos_as_xyz
  1  'x, y, z'
loop_
 _atom_site_type_symbol
 _atom_site_label
 _atom_site_symmetry_multiplicity
 _atom_site_fract_x
 _atom_site_fract_y
 _atom_site_fract_z
 _atom_site_occupancy
  P  P0  1  0.00000000  0.00000000  0.00000000  1
  P  P1  1  0.50000000  0.50000000  0.50000000  1
  P  P2  1  0.25000000  0.25000000  0.25000000  1
  P  P3  1  0.75000000  0.25000000  0.00000000  1
  Lu  Lu4  1  0.25000000  0.75000000  0.50000000  1
  Li  Li5  1  0.56966988  0.96741551  0.74941601  1
  Li  Li6  1  0.09038600  0.98659843  0.20826581  1
  Cu  Cu7  1  0.45518743  0.14482015  0.90007494  1
  Cu  Cu8  1  0.05992672  0.95451821  0.24213058  1
  Ti  Ti9  1  0.22951691  0.95356902  0.97064945  1
