# generated using pymatgen
data_LiTiS3O4
_symmetry_space_group_name_H-M   'P 1'
_cell_length_a   7.55916129
_cell_length_b   7.48827193
_cell_length_c   7.34975311
_cell_angle_alpha   90.68375708
_cell_angle_beta   93.25310855
_cell_angle_gamma   90.78171693
_symmetry_Int_Tables_number   1
_chemical_formula_structural   LiTiS3O4
_chemical_formula_sum   'Li1 Ti1 S3 O4'
_cell_volume   415.29047359
_cell_formula_units_Z   1
loop_
 _symmetry_equiv_pos_site_id
 _symmetry_equiv_pos_as_xyz
  1  'x, y, z'
loop_
 _atom_site_type_symbol
 _atom_site_label
 _atom_site_symmetry_multiplicity
 _atom_site_fract_x
 _atom_site_fract_y
 _atom_site_fract_z
 _atom_site_occupancy
  Li  Li0  1  0.00000000  0.00000000  0.00000000  1
  S  S1  1  0.33300000  0.66700000  0.25000000  1
  S  S2  1  0.66700000  0.33300000  0.50000000  1
  S  S3  1  0.00000000  0.00000000  0.75000000  1
  Ti  Ti4  1  0.80700566  0.62145725  0.53139273  1
  O  O5  1  0.72988592  0.77189059  0.53501929  1
  O  O6  1  0.14012626  0.45584877  0.40547069  1
  O  O7  1  0.03481639  0.36404726  0.67975644  1
  O  O8  1  0.78224830  0.03997268  0.51372909  1
