# generated using pymatgen
data_LiMn2Sb4P3
_symmetry_space_group_name_H-M   'P 1'
_cell_length_a   5.93758101
_cell_length_b   6.37548500
_cell_length_c   7.13698049
_cell_angle_alpha   93.60320635
_cell_angle_beta   93.88509910
_cell_angle_gamma   93.93131504
_symmetry_Int_Tables_number   1
_chemical_formula_structural   LiMn2Sb4P3
_chemical_formula_sum   'Li1 Mn2 Sb4 P3'
_cell_volume   268.29605640
_cell_formula_units_Z   1
loop_
 _symmetry_equiv_pos_site_id
 _symmetry_equiv_pos_as_xyz
  1  'x, y, z'
loop_
 _atom_site_type_symbol
 _atom_site_label
 _atom_site_symmetry_multiplicity
 _atom_site_fract_x
 _atom_site_fract_y
 _atom_site_fract_z
 _atom_site_occupancy
  Mn  Mn0  1  0.00000000  0.00000000  0.00000000  1
  Mn  Mn1  1  0.50000000  0.50000000  0.50000000  1
  Sb  Sb2  1  0.50000000  0.50000000  0.00000000  1
  Sb  Sb3  1  0.50000000  0.00000000  0.50000000  1
  Sb  Sb4  1  0.00000000  0.50000000  0.50000000  1
  Sb  Sb5  1  0.37541118  0.84052954  0.47022856  1
  P  P6  1  0.40356478  0.19276125  0.48265977  1
  P  P7  1  0.86469710  0.06641406  0.11516555  1
  P  P8  1  0.50933194  0.00011970  0.86243501  1
  Li  Li9  1  0.93046900  0.69817781  0.56727725  1
