# generated using pymatgen
data_Li2LuTiP3F3
_symmetry_space_group_name_H-M   'P 1'
_cell_length_a   6.47694098
_cell_length_b   6.44796305
_cell_length_c   7.43352693
_cell_angle_alpha   96.63605606
_cell_angle_beta   98.53518680
_cell_angle_gamma   96.27301884
_symmetry_Int_Tables_number   1
_chemical_formula_structural   Li2LuTiP3F3
_chemical_formula_sum   'Li2 Lu1 Ti1 P3 F3'
_cell_volume   302.41590019
_cell_formula_units_Z   1
loop_
 _symmetry_equiv_pos_site_id
 _symmetry_equiv_pos_as_xyz
  1  'x, y, z'
loop_
 _atom_site_type_symbol
 _atom_site_label
 _atom_site_symmetry_multiplicity
 _atom_site_fract_x
 _atom_site_fract_y
 _atom_site_fract_z
 _atom_site_occupancy
  F  F0  1  0.00000000  0.00000000  0.00000000  1
  F  F1  1  0.50000000  0.50000000  0.50000000  1
  F  F2  1  0.50000000  0.50000000  0.00000000  1
  Ti  Ti3  1  0.50000000  0.00000000  0.50000000  1
  P  P4  1  0.00000000  0.50000000  0.50000000  1
  P  P5  1  0.13700960  0.42129036  0.90386099  1
  P  P6  1  0.65873899  0.91315919  0.77202016  1
  Lu  Lu7  1  0.18782400  0.69248187  0.22024491  1
  Li  Li8  1  0.48211506  0.36465955  0.28466939  1
  Li  Li9  1  0.70251140  0.02931831  0.56201557  1
