# generated using pymatgen
data_Li2Cu2As6F3
_symmetry_space_group_name_H-M   'P 1'
_cell_length_a   6.69107515
_cell_length_b   6.74833031
_cell_length_c   7.98670102
_cell_angle_alpha   94.72050657
_cell_angle_beta   97.34991664
_cell_angle_gamma   94.50206399
_symmetry_Int_Tables_number   1
_chemical_formula_structural   Li2Cu2As6F3
_chemical_formula_sum   'Li2 Cu2 As6 F3'
_cell_volume   355.00314410
_cell_formula_units_Z   1
loop_
 _symmetry_equiv_pos_site_id
 _symmetry_equiv_pos_as_xyz
  1  'x, y, z'
loop_
 _atom_site_type_symbol
 _atom_site_label
 _atom_site_symmetry_multiplicity
 _atom_site_fract_x
 _atom_site_fract_y
 _atom_site_fract_z
 _atom_site_occupancy
  Li  Li0  1  0.12500000  0.12500000  0.12500000  1
  Li  Li1  1  0.50000000  0.50000000  0.50000000  1
  Cu  Cu2  1  0.25000000  0.25000000  0.25000000  1
  Cu  Cu3  1  0.75000000  0.75000000  0.75000000  1
  F  F4  1  0.64025319  0.77045816  0.41160862  1
  F  F5  1  0.38471272  0.55521730  0.47982987  1
  F  F6  1  0.99031724  0.97948926  0.09621878  1
  As  As7  1  0.25651949  0.12373906  0.39891307  1
  As  As8  1  0.76041567  0.73017922  0.79058069  1
  As  As9  1  0.30982230  0.64719804  0.47135077  1
  As  As10  1  0.01347038  0.50424276  0.68327480  1
  As  As11  1  0.06579239  0.48404854  0.66289018  1
  As  As12  1  0.62227149  0.40660726  0.26226814  1
