# generated using pymatgen
data_LiLuTi3(NbP2)2
_symmetry_space_group_name_H-M   'P 1'
_cell_length_a   6.64232370
_cell_length_b   6.56671826
_cell_length_c   7.72096128
_cell_angle_alpha   93.94267230
_cell_angle_beta   96.36764991
_cell_angle_gamma   93.85236983
_symmetry_Int_Tables_number   1
_chemical_formula_structural   LiLuTi3(NbP2)2
_chemical_formula_sum   'Li1 Lu1 Ti3 Nb2 P4'
_cell_volume   332.95329474
_cell_formula_units_Z   1
loop_
 _symmetry_equiv_pos_site_id
 _symmetry_equiv_pos_as_xyz
  1  'x, y, z'
loop_
 _atom_site_type_symbol
 _atom_site_label
 _atom_site_symmetry_multiplicity
 _atom_site_fract_x
 _atom_site_fract_y
 _atom_site_fract_z
 _atom_site_occupancy
  P  P0  1  0.12500000  0.00000000  0.25000000  1
  P  P1  1  0.00000000  0.00000000  0.00000000  1
  P  P2  1  0.37500000  0.00000000  0.25000000  1
  P  P3  1  0.25000000  0.25000000  0.25000000  1
  Lu  Lu4  1  0.00000000  0.25000000  0.12500000  1
  Li  Li5  1  0.74335201  0.15851945  0.71521562  1
  Nb  Nb6  1  0.95944244  0.15431075  0.21082511  1
  Nb  Nb7  1  0.48962521  0.07736102  0.47202007  1
  Ti  Ti8  1  0.89193568  0.26806677  0.99792814  1
  Ti  Ti9  1  0.68006029  0.03863173  0.16461028  1
  Ti  Ti10  1  0.86420940  0.85576100  0.19701451  1
