# generated using pymatgen
data_Li3LuNi2As6O7
_symmetry_space_group_name_H-M   'P 1'
_cell_length_a   7.63000090
_cell_length_b   7.42543016
_cell_length_c   8.46827333
_cell_angle_alpha   91.69565834
_cell_angle_beta   91.28937928
_cell_angle_gamma   91.96415622
_symmetry_Int_Tables_number   1
_chemical_formula_structural   Li3LuNi2As6O7
_chemical_formula_sum   'Li3 Lu1 Ni2 As6 O7'
_cell_volume   479.15414972
_cell_formula_units_Z   1
loop_
 _symmetry_equiv_pos_site_id
 _symmetry_equiv_pos_as_xyz
  1  'x, y, z'
loop_
 _atom_site_type_symbol
 _atom_site_label
 _atom_site_symmetry_multiplicity
 _atom_site_fract_x
 _atom_site_fract_y
 _atom_site_fract_z
 _atom_site_occupancy
  Lu  Lu0  1  0.00000000  0.00000000  0.00000000  1
  Li  Li1  1  0.50000000  0.50000000  0.50000000  1
  Li  Li2  1  0.50000000  0.50000000  0.00000000  1
  Li  Li3  1  0.50000000  0.00000000  0.50000000  1
  Ni  Ni4  1  0.00000000  0.50000000  0.50000000  1
  Ni  Ni5  1  0.58176463  0.00174003  0.95922680  1
  As  As6  1  0.14253498  0.40605507  0.51795223  1
  As  As7  1  0.59067720  0.31420074  0.04181281  1
  As  As8  1  0.98642035  0.65228724  0.69144992  1
  As  As9  1  0.51890033  0.99111922  0.16098306  1
  As  As10  1  0.55576861  0.10256661  0.53732350  1
  As  As11  1  0.14771954  0.31185580  0.58143030  1
  O  O12  1  0.39701284  0.37738165  0.90774855  1
  O  O13  1  0.52082368  0.37742440  0.64039627  1
  O  O14  1  0.31191186  0.11497240  0.84983968  1
  O  O15  1  0.60281423  0.92250043  0.27148095  1
  O  O16  1  0.07336613  0.11702872  0.71966321  1
  O  O17  1  0.48495938  0.66826266  0.70855645  1
  O  O18  1  0.06409199  0.59941926  0.66183205  1
