# generated using pymatgen
data_Li2Mn3Sb3Mo2P3
_symmetry_space_group_name_H-M   'P 1'
_cell_length_a   6.80257920
_cell_length_b   7.35619473
_cell_length_c   7.12220637
_cell_angle_alpha   93.04876504
_cell_angle_beta   90.32086157
_cell_angle_gamma   92.96627532
_symmetry_Int_Tables_number   1
_chemical_formula_structural   Li2Mn3Sb3Mo2P3
_chemical_formula_sum   'Li2 Mn3 Sb3 Mo2 P3'
_cell_volume   355.40926857
_cell_formula_units_Z   1
loop_
 _symmetry_equiv_pos_site_id
 _symmetry_equiv_pos_as_xyz
  1  'x, y, z'
loop_
 _atom_site_type_symbol
 _atom_site_label
 _atom_site_symmetry_multiplicity
 _atom_site_fract_x
 _atom_site_fract_y
 _atom_site_fract_z
 _atom_site_occupancy
  Mn  Mn0  1  0.00000000  0.00000000  0.00000000  1
  Mn  Mn1  1  0.50000000  0.50000000  0.50000000  1
  Mn  Mn2  1  0.50000000  0.50000000  0.00000000  1
  Sb  Sb3  1  0.50000000  0.00000000  0.50000000  1
  Sb  Sb4  1  0.00000000  0.50000000  0.50000000  1
  Sb  Sb5  1  0.35742485  0.05170895  0.70804741  1
  P  P6  1  0.06839599  0.08482100  0.71244577  1
  P  P7  1  0.06953164  0.83964197  0.40384668  1
  P  P8  1  0.89603405  0.08730842  0.03016822  1
  Mo  Mo9  1  0.33934435  0.48193326  0.31725460  1
  Mo  Mo10  1  0.82674132  0.71768819  0.87447269  1
  Li  Li11  1  0.53497318  0.72046929  0.36777679  1
  Li  Li12  1  0.65024565  0.89807607  0.20316308  1
