# generated using pymatgen
data_LiSe2I4Br3O
_symmetry_space_group_name_H-M   'P 1'
_cell_length_a   7.94297234
_cell_length_b   8.31826331
_cell_length_c   7.81099233
_cell_angle_alpha   90.00000000
_cell_angle_beta   90.00000000
_cell_angle_gamma   90.00000000
_symmetry_Int_Tables_number   1
_chemical_formula_structural   LiSe2I4Br3O
_chemical_formula_sum   'Li1 Se2 I4 Br3 O1'
_cell_volume   516.08581881
_cell_formula_units_Z   1
loop_
 _symmetry_equiv_pos_site_id
 _symmetry_equiv_pos_as_xyz
  1  'x, y, z'
loop_
 _atom_site_type_symbol
 _atom_site_label
 _atom_site_symmetry_multiplicity
 _atom_site_fract_x
 _atom_site_fract_y
 _atom_site_fract_z
 _atom_site_occupancy
  I  I0  1  0.12500000  0.00000000  0.25000000  1
  I  I1  1  0.00000000  0.00000000  0.00000000  1
  I  I2  1  0.37500000  0.00000000  0.25000000  1
  I  I3  1  0.25000000  0.25000000  0.25000000  1
  Li  Li4  1  0.00000000  0.25000000  0.12500000  1
  Br  Br5  1  0.48153272  0.48337180  0.44922403  1
  Br  Br6  1  0.74230617  0.76330179  0.72367558  1
  Br  Br7  1  0.78018572  0.36267606  0.30302179  1
  Se  Se8  1  0.21309771  0.48080152  0.30622379  1
  Se  Se9  1  0.89080604  0.79108006  0.40518772  1
  O  O10  1  0.82551083  0.10397195  0.47546744  1
