# generated using pymatgen
data_LiNi2Se3(BrO)3
_symmetry_space_group_name_H-M   'P 1'
_cell_length_a   7.91027925
_cell_length_b   8.14804513
_cell_length_c   8.30818015
_cell_angle_alpha   90.00000000
_cell_angle_beta   90.00000000
_cell_angle_gamma   90.00000000
_symmetry_Int_Tables_number   1
_chemical_formula_structural   LiNi2Se3(BrO)3
_chemical_formula_sum   'Li1 Ni2 Se3 Br3 O3'
_cell_volume   535.48972988
_cell_formula_units_Z   1
loop_
 _symmetry_equiv_pos_site_id
 _symmetry_equiv_pos_as_xyz
  1  'x, y, z'
loop_
 _atom_site_type_symbol
 _atom_site_label
 _atom_site_symmetry_multiplicity
 _atom_site_fract_x
 _atom_site_fract_y
 _atom_site_fract_z
 _atom_site_occupancy
  Li  Li0  1  0.00000000  0.00000000  0.00000000  1
  Br  Br1  1  0.50000000  0.50000000  0.50000000  1
  Br  Br2  1  0.25000000  0.25000000  0.25000000  1
  Br  Br3  1  0.75000000  0.25000000  0.00000000  1
  Se  Se4  1  0.25000000  0.75000000  0.50000000  1
  Se  Se5  1  0.44305397  0.59123492  0.02805769  1
  Se  Se6  1  0.98531058  0.67151256  0.72760805  1
  Ni  Ni7  1  0.23578618  0.82864533  0.26498494  1
  Ni  Ni8  1  0.51982180  0.68092197  0.45999435  1
  O  O9  1  0.96572391  0.95559401  0.19934840  1
  O  O10  1  0.83831449  0.49781426  0.10250765  1
  O  O11  1  0.01929136  0.75857403  0.79098898  1
