# generated using pymatgen
data_Li2TiI4(OF)3
_symmetry_space_group_name_H-M   'P 1'
_cell_length_a   8.47453269
_cell_length_b   8.33457543
_cell_length_c   7.33754535
_cell_angle_alpha   90.14786839
_cell_angle_beta   90.70351289
_cell_angle_gamma   90.16905305
_symmetry_Int_Tables_number   1
_chemical_formula_structural   Li2TiI4(OF)3
_chemical_formula_sum   'Li2 Ti1 I4 O3 F3'
_cell_volume   518.21970509
_cell_formula_units_Z   1
loop_
 _symmetry_equiv_pos_site_id
 _symmetry_equiv_pos_as_xyz
  1  'x, y, z'
loop_
 _atom_site_type_symbol
 _atom_site_label
 _atom_site_symmetry_multiplicity
 _atom_site_fract_x
 _atom_site_fract_y
 _atom_site_fract_z
 _atom_site_occupancy
  I  I0  1  0.12500000  0.00000000  0.25000000  1
  I  I1  1  0.00000000  0.00000000  0.00000000  1
  I  I2  1  0.37500000  0.00000000  0.25000000  1
  I  I3  1  0.25000000  0.25000000  0.25000000  1
  Li  Li4  1  0.00000000  0.25000000  0.12500000  1
  Li  Li5  1  0.19931326  0.15034526  0.71341006  1
  F  F6  1  0.41338117  0.35345518  0.76775755  1
  F  F7  1  0.05438616  0.29722857  0.76822143  1
  F  F8  1  0.27449858  0.04328319  0.95591427  1
  Ti  Ti9  1  0.02101403  0.26059858  0.99454313  1
  O  O10  1  0.04280929  0.88234500  0.49998343  1
  O  O11  1  0.10606009  0.75995993  0.69111640  1
  O  O12  1  0.62740516  0.69718345  0.89864099  1
