# generated using pymatgen
data_Li2Lu(CuAs3)2
_symmetry_space_group_name_H-M   'P 1'
_cell_length_a   7.08194238
_cell_length_b   7.19127162
_cell_length_c   8.01318466
_cell_angle_alpha   94.12172049
_cell_angle_beta   95.75584781
_cell_angle_gamma   93.97967689
_symmetry_Int_Tables_number   1
_chemical_formula_structural   Li2Lu(CuAs3)2
_chemical_formula_sum   'Li2 Lu1 Cu2 As6'
_cell_volume   403.78055317
_cell_formula_units_Z   1
loop_
 _symmetry_equiv_pos_site_id
 _symmetry_equiv_pos_as_xyz
  1  'x, y, z'
loop_
 _atom_site_type_symbol
 _atom_site_label
 _atom_site_symmetry_multiplicity
 _atom_site_fract_x
 _atom_site_fract_y
 _atom_site_fract_z
 _atom_site_occupancy
  Lu  Lu0  1  0.00000000  0.00000000  0.00000000  1
  As  As1  1  0.50000000  0.50000000  0.50000000  1
  As  As2  1  0.50000000  0.50000000  0.00000000  1
  As  As3  1  0.50000000  0.00000000  0.50000000  1
  As  As4  1  0.00000000  0.50000000  0.50000000  1
  As  As5  1  0.86481402  0.64993552  0.32412797  1
  As  As6  1  0.75819569  0.91880969  0.80838920  1
  Li  Li7  1  0.29039791  0.04702625  0.75614386  1
  Li  Li8  1  0.55329223  0.40793520  0.18332570  1
  Cu  Cu9  1  0.02682159  0.92841679  0.72742172  1
  Cu  Cu10  1  0.07601904  0.47923623  0.64219815  1
