# generated using pymatgen
data_LiTiCu2P4F2
_symmetry_space_group_name_H-M   'P 1'
_cell_length_a   6.95230450
_cell_length_b   6.85837313
_cell_length_c   7.56225502
_cell_angle_alpha   91.78921948
_cell_angle_beta   93.75951468
_cell_angle_gamma   91.73111133
_symmetry_Int_Tables_number   1
_chemical_formula_structural   LiTiCu2P4F2
_chemical_formula_sum   'Li1 Ti1 Cu2 P4 F2'
_cell_volume   359.44014833
_cell_formula_units_Z   1
loop_
 _symmetry_equiv_pos_site_id
 _symmetry_equiv_pos_as_xyz
  1  'x, y, z'
loop_
 _atom_site_type_symbol
 _atom_site_label
 _atom_site_symmetry_multiplicity
 _atom_site_fract_x
 _atom_site_fract_y
 _atom_site_fract_z
 _atom_site_occupancy
  P  P0  1  0.12500000  0.00000000  0.25000000  1
  P  P1  1  0.00000000  0.00000000  0.00000000  1
  P  P2  1  0.37500000  0.00000000  0.25000000  1
  P  P3  1  0.25000000  0.25000000  0.25000000  1
  Li  Li4  1  0.00000000  0.25000000  0.12500000  1
  Cu  Cu5  1  0.83937665  0.71286775  0.76417347  1
  Cu  Cu6  1  0.94992549  0.40191487  0.62634142  1
  F  F7  1  0.15149550  0.88247301  0.84064310  1
  F  F8  1  0.42598408  0.29802478  0.73812129  1
  Ti  Ti9  1  0.22103153  0.73505266  0.62418107  1
