# generated using pymatgen
data_Li4Ti2P2O3
_symmetry_space_group_name_H-M   'P 1'
_cell_length_a   6.95091879
_cell_length_b   6.89799997
_cell_length_c   6.79086877
_cell_angle_alpha   92.79323432
_cell_angle_beta   95.03945257
_cell_angle_gamma   93.54161857
_symmetry_Int_Tables_number   1
_chemical_formula_structural   Li4Ti2P2O3
_chemical_formula_sum   'Li4 Ti2 P2 O3'
_cell_volume   323.24603242
_cell_formula_units_Z   1
loop_
 _symmetry_equiv_pos_site_id
 _symmetry_equiv_pos_as_xyz
  1  'x, y, z'
loop_
 _atom_site_type_symbol
 _atom_site_label
 _atom_site_symmetry_multiplicity
 _atom_site_fract_x
 _atom_site_fract_y
 _atom_site_fract_z
 _atom_site_occupancy
  P  P0  1  0.12500000  0.00000000  0.25000000  1
  P  P1  1  0.00000000  0.00000000  0.00000000  1
  Li  Li2  1  0.37500000  0.00000000  0.25000000  1
  Li  Li3  1  0.25000000  0.25000000  0.25000000  1
  Li  Li4  1  0.00000000  0.25000000  0.12500000  1
  Li  Li5  1  0.65275032  0.51634277  0.19439032  1
  Ti  Ti6  1  0.59744934  0.15796678  0.90460901  1
  Ti  Ti7  1  0.25735126  0.95729918  0.30192608  1
  O  O8  1  0.02433333  0.54663981  0.38913022  1
  O  O9  1  0.96345411  0.09511202  0.80541405  1
  O  O10  1  0.36222457  0.10991780  0.17199513  1
