# generated using pymatgen
data_Li2LuCu2(As3P2)2
_symmetry_space_group_name_H-M   'P 1'
_cell_length_a   7.35244500
_cell_length_b   7.23852674
_cell_length_c   7.93669840
_cell_angle_alpha   93.02952300
_cell_angle_beta   93.64288902
_cell_angle_gamma   93.04929900
_symmetry_Int_Tables_number   1
_chemical_formula_structural   Li2LuCu2(As3P2)2
_chemical_formula_sum   'Li2 Lu1 Cu2 As6 P4'
_cell_volume   420.27704734
_cell_formula_units_Z   1
loop_
 _symmetry_equiv_pos_site_id
 _symmetry_equiv_pos_as_xyz
  1  'x, y, z'
loop_
 _atom_site_type_symbol
 _atom_site_label
 _atom_site_symmetry_multiplicity
 _atom_site_fract_x
 _atom_site_fract_y
 _atom_site_fract_z
 _atom_site_occupancy
  P  P0  1  0.00000000  0.00000000  0.00000000  1
  P  P1  1  0.50000000  0.50000000  0.50000000  1
  P  P2  1  0.25000000  0.25000000  0.25000000  1
  P  P3  1  0.75000000  0.25000000  0.00000000  1
  Lu  Lu4  1  0.25000000  0.75000000  0.50000000  1
  Li  Li5  1  0.36146190  0.20766758  0.31215879  1
  Li  Li6  1  0.64372770  0.92343386  0.85129138  1
  Cu  Cu7  1  0.51821468  0.32153521  0.64605425  1
  Cu  Cu8  1  0.01852257  0.01056037  0.29752028  1
  As  As9  1  0.11602230  0.13835641  0.89789878  1
  As  As10  1  0.62029871  0.67616335  0.06558082  1
  As  As11  1  0.41339699  0.96084247  0.93437389  1
  As  As12  1  0.72186575  0.98865556  0.43813132  1
  As  As13  1  0.87701917  0.50749645  0.30600722  1
  As  As14  1  0.18850629  0.93595152  0.12013216  1
