# generated using pymatgen
data_Li2LuCu2P4N5
_symmetry_space_group_name_H-M   'P 1'
_cell_length_a   7.25814961
_cell_length_b   7.12140064
_cell_length_c   8.17762195
_cell_angle_alpha   93.94817165
_cell_angle_beta   94.01177285
_cell_angle_gamma   94.04827329
_symmetry_Int_Tables_number   1
_chemical_formula_structural   Li2LuCu2P4N5
_chemical_formula_sum   'Li2 Lu1 Cu2 P4 N5'
_cell_volume   419.44056556
_cell_formula_units_Z   1
loop_
 _symmetry_equiv_pos_site_id
 _symmetry_equiv_pos_as_xyz
  1  'x, y, z'
loop_
 _atom_site_type_symbol
 _atom_site_label
 _atom_site_symmetry_multiplicity
 _atom_site_fract_x
 _atom_site_fract_y
 _atom_site_fract_z
 _atom_site_occupancy
  P  P0  1  0.12500000  0.00000000  0.25000000  1
  P  P1  1  0.00000000  0.00000000  0.00000000  1
  P  P2  1  0.37500000  0.00000000  0.25000000  1
  P  P3  1  0.25000000  0.25000000  0.25000000  1
  Lu  Lu4  1  0.00000000  0.25000000  0.12500000  1
  Li  Li5  1  0.06072257  0.12685019  0.35363522  1
  Li  Li6  1  0.42076412  0.83195027  0.40469040  1
  N  N7  1  0.42819128  0.92707047  0.87129022  1
  N  N8  1  0.15567482  0.36435777  0.53532194  1
  N  N9  1  0.47347987  0.72592475  0.71195447  1
  N  N10  1  0.15583246  0.67815796  0.13502292  1
  N  N11  1  0.58044143  0.56965106  0.02621768  1
  Cu  Cu12  1  0.85439908  0.28859674  0.37230868  1
  Cu  Cu13  1  0.72927518  0.97748789  0.92909255  1
