# generated using pymatgen
data_Li2LuTi(As2O)3
_symmetry_space_group_name_H-M   'P 1'
_cell_length_a   7.38561296
_cell_length_b   7.09346775
_cell_length_c   7.41682178
_cell_angle_alpha   92.72333355
_cell_angle_beta   93.45411377
_cell_angle_gamma   92.60484907
_symmetry_Int_Tables_number   1
_chemical_formula_structural   Li2LuTi(As2O)3
_chemical_formula_sum   'Li2 Lu1 Ti1 As6 O3'
_cell_volume   386.96542262
_cell_formula_units_Z   1
loop_
 _symmetry_equiv_pos_site_id
 _symmetry_equiv_pos_as_xyz
  1  'x, y, z'
loop_
 _atom_site_type_symbol
 _atom_site_label
 _atom_site_symmetry_multiplicity
 _atom_site_fract_x
 _atom_site_fract_y
 _atom_site_fract_z
 _atom_site_occupancy
  Lu  Lu0  1  0.12500000  0.00000000  0.25000000  1
  Li  Li1  1  0.00000000  0.00000000  0.00000000  1
  Li  Li2  1  0.37500000  0.00000000  0.25000000  1
  Ti  Ti3  1  0.25000000  0.25000000  0.25000000  1
  As  As4  1  0.00000000  0.25000000  0.12500000  1
  As  As5  1  0.25047444  0.46859544  0.20919526  1
  As  As6  1  0.37742397  0.06188717  0.87532490  1
  As  As7  1  0.89054723  0.43663127  0.54941399  1
  As  As8  1  0.63262535  0.17231985  0.48046339  1
  As  As9  1  0.01216243  0.11659891  0.99836497  1
  O  O10  1  0.58266175  0.06615516  0.10217390  1
  O  O11  1  0.37964997  0.50041618  0.90830626  1
  O  O12  1  0.99169072  0.07251632  0.13711016  1
