# generated using pymatgen
data_Li2TiAs6O5
_symmetry_space_group_name_H-M   'P 1'
_cell_length_a   7.75849075
_cell_length_b   7.65048417
_cell_length_c   8.08816644
_cell_angle_alpha   92.46298787
_cell_angle_beta   92.62663180
_cell_angle_gamma   92.52244244
_symmetry_Int_Tables_number   1
_chemical_formula_structural   Li2TiAs6O5
_chemical_formula_sum   'Li2 Ti1 As6 O5'
_cell_volume   478.62672396
_cell_formula_units_Z   1
loop_
 _symmetry_equiv_pos_site_id
 _symmetry_equiv_pos_as_xyz
  1  'x, y, z'
loop_
 _atom_site_type_symbol
 _atom_site_label
 _atom_site_symmetry_multiplicity
 _atom_site_fract_x
 _atom_site_fract_y
 _atom_site_fract_z
 _atom_site_occupancy
  Li  Li0  1  0.12500000  0.12500000  0.12500000  1
  Li  Li1  1  0.50000000  0.50000000  0.50000000  1
  Ti  Ti2  1  0.25000000  0.25000000  0.25000000  1
  As  As3  1  0.75000000  0.75000000  0.75000000  1
  As  As4  1  0.94317707  0.42183072  0.87041977  1
  As  As5  1  0.73038896  0.64269245  0.68311762  1
  As  As6  1  0.36114461  0.46498998  0.91566147  1
  As  As7  1  0.83596298  0.13323661  0.25013680  1
  As  As8  1  0.20293404  0.61126161  0.46476114  1
  O  O9  1  0.13014468  0.27516164  0.63024321  1
  O  O10  1  0.69633063  0.24454871  0.93845446  1
  O  O11  1  0.48389007  0.21795808  0.27326322  1
  O  O12  1  0.94518522  0.87850797  0.14059713  1
  O  O13  1  0.20240211  0.44536835  0.17058837  1
