# generated using pymatgen
data_Li3LuCu2(PN)5
_symmetry_space_group_name_H-M   'P 1'
_cell_length_a   7.35012949
_cell_length_b   7.15755788
_cell_length_c   8.37845375
_cell_angle_alpha   93.57132867
_cell_angle_beta   93.13025394
_cell_angle_gamma   93.77445763
_symmetry_Int_Tables_number   1
_chemical_formula_structural   Li3LuCu2(PN)5
_chemical_formula_sum   'Li3 Lu1 Cu2 P5 N5'
_cell_volume   438.20829178
_cell_formula_units_Z   1
loop_
 _symmetry_equiv_pos_site_id
 _symmetry_equiv_pos_as_xyz
  1  'x, y, z'
loop_
 _atom_site_type_symbol
 _atom_site_label
 _atom_site_symmetry_multiplicity
 _atom_site_fract_x
 _atom_site_fract_y
 _atom_site_fract_z
 _atom_site_occupancy
  P  P0  1  0.00000000  0.00000000  0.00000000  1
  P  P1  1  0.50000000  0.50000000  0.50000000  1
  P  P2  1  0.25000000  0.25000000  0.25000000  1
  P  P3  1  0.75000000  0.25000000  0.00000000  1
  P  P4  1  0.25000000  0.75000000  0.50000000  1
  Lu  Lu5  1  0.17216092  0.56370398  0.79501679  1
  Li  Li6  1  0.54496211  0.17549658  0.06482106  1
  Li  Li7  1  0.31065983  0.53614709  0.95588550  1
  Li  Li8  1  0.59370361  0.98885107  0.42654173  1
  Cu  Cu9  1  0.59787397  0.97977995  0.97438453  1
  Cu  Cu10  1  0.65919199  0.60101729  0.63050982  1
  N  N11  1  0.87732418  0.96980451  0.67696779  1
  N  N12  1  0.71801821  0.53213196  0.61491329  1
  N  N13  1  0.42913288  0.45362917  0.46115805  1
  N  N14  1  0.05556327  0.63797130  0.46678720  1
  N  N15  1  0.42909962  0.61037900  0.38616801  1
