# generated using pymatgen
data_LiTi2(SF)2
_symmetry_space_group_name_H-M   'P 1'
_cell_length_a   5.12616702
_cell_length_b   4.99312279
_cell_length_c   7.15315319
_cell_angle_alpha   95.03763386
_cell_angle_beta   100.01441366
_cell_angle_gamma   94.83086747
_symmetry_Int_Tables_number   1
_chemical_formula_structural   LiTi2(SF)2
_chemical_formula_sum   'Li1 Ti2 S2 F2'
_cell_volume   178.67711694
_cell_formula_units_Z   1
loop_
 _symmetry_equiv_pos_site_id
 _symmetry_equiv_pos_as_xyz
  1  'x, y, z'
loop_
 _atom_site_type_symbol
 _atom_site_label
 _atom_site_symmetry_multiplicity
 _atom_site_fract_x
 _atom_site_fract_y
 _atom_site_fract_z
 _atom_site_occupancy
  Li  Li0  1  0.00000000  0.00000000  0.00000000  1
  F  F1  1  0.50000000  0.50000000  0.50000000  1
  F  F2  1  0.50000000  0.50000000  0.00000000  1
  S  S3  1  0.50000000  0.00000000  0.50000000  1
  S  S4  1  0.00000000  0.50000000  0.50000000  1
  Ti  Ti5  1  0.54194871  0.37797036  0.26230607  1
  Ti  Ti6  1  0.70849306  0.47820301  0.99324557  1
