# generated using pymatgen
data_Li2TiO4F3
_symmetry_space_group_name_H-M   'P 1'
_cell_length_a   8.09022479
_cell_length_b   7.93106850
_cell_length_c   7.72457758
_cell_angle_alpha   90.50538601
_cell_angle_beta   91.20831697
_cell_angle_gamma   90.58230291
_symmetry_Int_Tables_number   1
_chemical_formula_structural   Li2TiO4F3
_chemical_formula_sum   'Li2 Ti1 O4 F3'
_cell_volume   495.48473619
_cell_formula_units_Z   1
loop_
 _symmetry_equiv_pos_site_id
 _symmetry_equiv_pos_as_xyz
  1  'x, y, z'
loop_
 _atom_site_type_symbol
 _atom_site_label
 _atom_site_symmetry_multiplicity
 _atom_site_fract_x
 _atom_site_fract_y
 _atom_site_fract_z
 _atom_site_occupancy
  Li  Li0  1  0.12500000  0.12500000  0.12500000  1
  Li  Li1  1  0.50000000  0.50000000  0.50000000  1
  F  F2  1  0.25000000  0.25000000  0.25000000  1
  F  F3  1  0.75000000  0.75000000  0.75000000  1
  F  F4  1  0.71250300  0.06753554  0.26648038  1
  Ti  Ti5  1  0.69961793  0.73802677  0.50041607  1
  O  O6  1  0.65965101  0.71638022  0.18355297  1
  O  O7  1  0.73509024  0.54819638  0.52459842  1
  O  O8  1  0.52048977  0.03759939  0.49825433  1
  O  O9  1  0.15553116  0.54673526  0.80639802  1
