# generated using pymatgen
data_Li4Ni2As6O7
_symmetry_space_group_name_H-M   'P 1'
_cell_length_a   8.31382661
_cell_length_b   8.17082894
_cell_length_c   9.64881384
_cell_angle_alpha   90.00000000
_cell_angle_beta   90.00000000
_cell_angle_gamma   90.00000000
_symmetry_Int_Tables_number   1
_chemical_formula_structural   Li4Ni2As6O7
_chemical_formula_sum   'Li4 Ni2 As6 O7'
_cell_volume   655.45217486
_cell_formula_units_Z   1
loop_
 _symmetry_equiv_pos_site_id
 _symmetry_equiv_pos_as_xyz
  1  'x, y, z'
loop_
 _atom_site_type_symbol
 _atom_site_label
 _atom_site_symmetry_multiplicity
 _atom_site_fract_x
 _atom_site_fract_y
 _atom_site_fract_z
 _atom_site_occupancy
  Li  Li0  1  0.00000000  0.00000000  0.00000000  1
  Li  Li1  1  0.33300000  0.66700000  0.25000000  1
  Li  Li2  1  0.66700000  0.33300000  0.50000000  1
  Li  Li3  1  0.00000000  0.00000000  0.75000000  1
  Ni  Ni4  1  0.75290229  0.22054564  0.92813994  1
  Ni  Ni5  1  0.94152272  0.55548239  0.67795582  1
  As  As6  1  0.04889916  0.79647024  0.51751283  1
  As  As7  1  0.44237775  0.46615290  0.85810796  1
  As  As8  1  0.56141646  0.59425822  0.70101222  1
  As  As9  1  0.23012786  0.19436255  0.93211484  1
  As  As10  1  0.86917745  0.10142437  0.26766133  1
  As  As11  1  0.37099738  0.07828726  0.72086051  1
  O  O12  1  0.44618189  0.58540253  0.22359212  1
  O  O13  1  0.71252548  0.34799685  0.66618197  1
  O  O14  1  0.61069416  0.92427399  0.88893438  1
  O  O15  1  0.33070497  0.29219215  0.67385807  1
  O  O16  1  0.35048038  0.27333339  0.12114146  1
  O  O17  1  0.32015744  0.23053923  0.24462417  1
  O  O18  1  0.10758225  0.29088247  0.01128422  1
