# generated using pymatgen
data_Li2Ni2I4O5
_symmetry_space_group_name_H-M   'P 1'
_cell_length_a   7.87666884
_cell_length_b   7.70767097
_cell_length_c   8.31836796
_cell_angle_alpha   91.01635052
_cell_angle_beta   91.24742871
_cell_angle_gamma   91.17549374
_symmetry_Int_Tables_number   1
_chemical_formula_structural   Li2Ni2I4O5
_chemical_formula_sum   'Li2 Ni2 I4 O5'
_cell_volume   504.70505619
_cell_formula_units_Z   1
loop_
 _symmetry_equiv_pos_site_id
 _symmetry_equiv_pos_as_xyz
  1  'x, y, z'
loop_
 _atom_site_type_symbol
 _atom_site_label
 _atom_site_symmetry_multiplicity
 _atom_site_fract_x
 _atom_site_fract_y
 _atom_site_fract_z
 _atom_site_occupancy
  I  I0  1  0.12500000  0.12500000  0.12500000  1
  I  I1  1  0.50000000  0.50000000  0.50000000  1
  I  I2  1  0.25000000  0.25000000  0.25000000  1
  I  I3  1  0.75000000  0.75000000  0.75000000  1
  Li  Li4  1  0.20668656  0.61544808  0.58842587  1
  Li  Li5  1  0.44945367  0.46761313  0.10077171  1
  Ni  Ni6  1  0.74275114  0.95649780  0.83992327  1
  Ni  Ni7  1  0.93772706  0.70860807  0.78053120  1
  O  O8  1  0.75270071  0.17266592  0.06650270  1
  O  O9  1  0.19292018  0.56848228  0.48858414  1
  O  O10  1  0.57668098  0.50789334  0.37368760  1
  O  O11  1  0.02047404  0.78145568  0.85638475  1
  O  O12  1  0.92055996  0.20587785  0.17800599  1
