# generated using pymatgen
data_Li2LuCu2(NiP2)2
_symmetry_space_group_name_H-M   'P 1'
_cell_length_a   7.50845407
_cell_length_b   7.48286590
_cell_length_c   8.22545363
_cell_angle_alpha   91.14139197
_cell_angle_beta   91.87252692
_cell_angle_gamma   91.31833564
_symmetry_Int_Tables_number   1
_chemical_formula_structural   Li2LuCu2(NiP2)2
_chemical_formula_sum   'Li2 Lu1 Cu2 Ni2 P4'
_cell_volume   461.67721540
_cell_formula_units_Z   1
loop_
 _symmetry_equiv_pos_site_id
 _symmetry_equiv_pos_as_xyz
  1  'x, y, z'
loop_
 _atom_site_type_symbol
 _atom_site_label
 _atom_site_symmetry_multiplicity
 _atom_site_fract_x
 _atom_site_fract_y
 _atom_site_fract_z
 _atom_site_occupancy
  Ni  Ni0  1  0.00000000  0.00000000  0.00000000  1
  Ni  Ni1  1  0.50000000  0.50000000  0.50000000  1
  P  P2  1  0.25000000  0.25000000  0.25000000  1
  P  P3  1  0.75000000  0.25000000  0.00000000  1
  P  P4  1  0.25000000  0.75000000  0.50000000  1
  P  P5  1  0.01192226  0.95789755  0.41031484  1
  Lu  Lu6  1  0.66929281  0.92365595  0.34841786  1
  Li  Li7  1  0.10312828  0.27907641  0.23095683  1
  Li  Li8  1  0.39725529  0.62650944  0.32554716  1
  Cu  Cu9  1  0.93765016  0.25999005  0.05347474  1
  Cu  Cu10  1  0.23017476  0.15443812  0.77014156  1
