# generated using pymatgen
data_LiP2F
_symmetry_space_group_name_H-M   'P 1'
_cell_length_a   6.88006639
_cell_length_b   6.76103282
_cell_length_c   7.57321559
_cell_angle_alpha   94.84388358
_cell_angle_beta   96.55723767
_cell_angle_gamma   94.62609165
_symmetry_Int_Tables_number   1
_chemical_formula_structural   LiP2F
_chemical_formula_sum   'Li2 P4 F2'
_cell_volume   347.27014903
_cell_formula_units_Z   2
loop_
 _symmetry_equiv_pos_site_id
 _symmetry_equiv_pos_as_xyz
  1  'x, y, z'
loop_
 _atom_site_type_symbol
 _atom_site_label
 _atom_site_symmetry_multiplicity
 _atom_site_fract_x
 _atom_site_fract_y
 _atom_site_fract_z
 _atom_site_occupancy
  F  F0  1  0.12500000  0.00000000  0.25000000  1
  F  F1  1  0.00000000  0.00000000  0.00000000  1
  P  P2  1  0.37500000  0.00000000  0.25000000  1
  P  P3  1  0.25000000  0.25000000  0.25000000  1
  P  P4  1  0.00000000  0.25000000  0.12500000  1
  P  P5  1  0.32227557  0.82131307  0.23589818  1
  Li  Li6  1  0.30721330  0.11739486  0.96257892  1
  Li  Li7  1  0.92642991  0.44460559  0.69968540  1
