# generated using pymatgen
data_Li2Cu2As6F3
_symmetry_space_group_name_H-M   'P 1'
_cell_length_a   7.84369073
_cell_length_b   7.79714929
_cell_length_c   7.79331595
_cell_angle_alpha   90.36904685
_cell_angle_beta   91.75581281
_cell_angle_gamma   90.42191909
_symmetry_Int_Tables_number   1
_chemical_formula_structural   Li2Cu2As6F3
_chemical_formula_sum   'Li2 Cu2 As6 F3'
_cell_volume   476.37965332
_cell_formula_units_Z   1
loop_
 _symmetry_equiv_pos_site_id
 _symmetry_equiv_pos_as_xyz
  1  'x, y, z'
loop_
 _atom_site_type_symbol
 _atom_site_label
 _atom_site_symmetry_multiplicity
 _atom_site_fract_x
 _atom_site_fract_y
 _atom_site_fract_z
 _atom_site_occupancy
  Li  Li0  1  0.12500000  0.00000000  0.25000000  1
  Li  Li1  1  0.00000000  0.00000000  0.00000000  1
  Cu  Cu2  1  0.37500000  0.00000000  0.25000000  1
  Cu  Cu3  1  0.25000000  0.25000000  0.25000000  1
  F  F4  1  0.00000000  0.25000000  0.12500000  1
  F  F5  1  0.97772339  0.29279389  0.67783265  1
  F  F6  1  0.55028065  0.47956252  0.51895185  1
  As  As7  1  0.87139364  0.80751897  0.85722598  1
  As  As8  1  0.68215954  0.30531722  0.67693665  1
  As  As9  1  0.70082965  0.61204382  0.74076127  1
  As  As10  1  0.70715943  0.96297531  0.22246439  1
  As  As11  1  0.53979912  0.62506424  0.05368186  1
  As  As12  1  0.51653402  0.74603119  0.68872203  1
