# generated using pymatgen
data_LiAs3(IO)2
_symmetry_space_group_name_H-M   'P 1'
_cell_length_a   7.36491766
_cell_length_b   7.31578745
_cell_length_c   8.03085481
_cell_angle_alpha   91.61887186
_cell_angle_beta   92.91774444
_cell_angle_gamma   91.59894105
_symmetry_Int_Tables_number   1
_chemical_formula_structural   LiAs3(IO)2
_chemical_formula_sum   'Li2 As6 I4 O4'
_cell_volume   431.78380175
_cell_formula_units_Z   2
loop_
 _symmetry_equiv_pos_site_id
 _symmetry_equiv_pos_as_xyz
  1  'x, y, z'
loop_
 _atom_site_type_symbol
 _atom_site_label
 _atom_site_symmetry_multiplicity
 _atom_site_fract_x
 _atom_site_fract_y
 _atom_site_fract_z
 _atom_site_occupancy
  O  O0  1  0.00000000  0.00000000  0.00000000  1
  O  O1  1  0.33300000  0.66700000  0.25000000  1
  O  O2  1  0.66700000  0.33300000  0.50000000  1
  O  O3  1  0.00000000  0.00000000  0.75000000  1
  I  I4  1  0.94976924  0.08750475  0.61965465  1
  I  I5  1  0.13045209  0.08245247  0.06643722  1
  I  I6  1  0.35602735  0.66522835  0.28622928  1
  I  I7  1  0.63360645  0.11404587  0.13104081  1
  As  As8  1  0.31399185  0.79722065  0.66027792  1
  As  As9  1  0.25358847  0.73888256  0.45560007  1
  As  As10  1  0.95134536  0.76096708  0.91769469  1
  As  As11  1  0.10835483  0.80589883  0.17155263  1
  As  As12  1  0.37224938  0.82847754  0.38017858  1
  As  As13  1  0.72426946  0.16362431  0.91858243  1
  Li  Li14  1  0.27606897  0.43746752  0.37574961  1
  Li  Li15  1  0.67356770  0.14327612  0.34322330  1
