# generated using pymatgen
data_Li3Ti(P4Cl)2
_symmetry_space_group_name_H-M   'P 1'
_cell_length_a   5.58775837
_cell_length_b   5.24679166
_cell_length_c   7.17679324
_cell_angle_alpha   102.89511222
_cell_angle_beta   106.64215865
_cell_angle_gamma   102.12846912
_symmetry_Int_Tables_number   1
_chemical_formula_structural   Li3Ti(P4Cl)2
_chemical_formula_sum   'Li3 Ti1 P8 Cl2'
_cell_volume   187.86183105
_cell_formula_units_Z   1
loop_
 _symmetry_equiv_pos_site_id
 _symmetry_equiv_pos_as_xyz
  1  'x, y, z'
loop_
 _atom_site_type_symbol
 _atom_site_label
 _atom_site_symmetry_multiplicity
 _atom_site_fract_x
 _atom_site_fract_y
 _atom_site_fract_z
 _atom_site_occupancy
  Cl  Cl0  1  0.12500000  0.00000000  0.25000000  1
  Cl  Cl1  1  0.00000000  0.00000000  0.00000000  1
  Ti  Ti2  1  0.37500000  0.00000000  0.25000000  1
  P  P3  1  0.25000000  0.25000000  0.25000000  1
  P  P4  1  0.00000000  0.25000000  0.12500000  1
  P  P5  1  0.21525865  0.96997647  0.26788227  1
  P  P6  1  0.55665876  0.18200500  0.45615197  1
  P  P7  1  0.16511441  0.83338196  0.74977494  1
  P  P8  1  0.92829802  0.61124911  0.42531320  1
  P  P9  1  0.29180625  0.58051650  0.74645092  1
  P  P10  1  0.72894683  0.30860437  0.25139693  1
  Li  Li11  1  0.92218455  0.20841574  0.30065348  1
  Li  Li12  1  0.29557266  0.35627185  0.92588722  1
  Li  Li13  1  0.64797988  0.25764035  0.86954084  1
