# generated using pymatgen
data_LiTiI2O2F
_symmetry_space_group_name_H-M   'P 1'
_cell_length_a   6.26899701
_cell_length_b   6.21707431
_cell_length_c   7.42780009
_cell_angle_alpha   94.33437432
_cell_angle_beta   96.84508061
_cell_angle_gamma   94.28053211
_symmetry_Int_Tables_number   1
_chemical_formula_structural   LiTiI2O2F
_chemical_formula_sum   'Li2 Ti2 I4 O4 F2'
_cell_volume   285.58675828
_cell_formula_units_Z   2
loop_
 _symmetry_equiv_pos_site_id
 _symmetry_equiv_pos_as_xyz
  1  'x, y, z'
loop_
 _atom_site_type_symbol
 _atom_site_label
 _atom_site_symmetry_multiplicity
 _atom_site_fract_x
 _atom_site_fract_y
 _atom_site_fract_z
 _atom_site_occupancy
  I  I0  1  0.00000000  0.00000000  0.00000000  1
  I  I1  1  0.50000000  0.50000000  0.50000000  1
  I  I2  1  0.25000000  0.25000000  0.25000000  1
  I  I3  1  0.75000000  0.25000000  0.00000000  1
  Li  Li4  1  0.25000000  0.75000000  0.50000000  1
  Li  Li5  1  0.42618285  0.59221048  0.32022159  1
  F  F6  1  0.88917745  0.00394640  0.31309819  1
  F  F7  1  0.04521571  0.17888182  0.50795437  1
  Ti  Ti8  1  0.09429644  0.00513227  0.24417233  1
  Ti  Ti9  1  0.34006333  0.51410107  0.47837646  1
  O  O10  1  0.34374269  0.52077236  0.58318840  1
  O  O11  1  0.17163615  0.49428004  0.31478088  1
  O  O12  1  0.79519873  0.30344026  0.22795108  1
  O  O13  1  0.36510859  0.38606625  0.59698775  1
