# generated using pymatgen
data_Li2LuTi(PI)4
_symmetry_space_group_name_H-M   'P 1'
_cell_length_a   7.69480055
_cell_length_b   7.62007259
_cell_length_c   7.71040397
_cell_angle_alpha   93.00237408
_cell_angle_beta   93.55765268
_cell_angle_gamma   92.96403839
_symmetry_Int_Tables_number   1
_chemical_formula_structural   Li2LuTi(PI)4
_chemical_formula_sum   'Li2 Lu1 Ti1 P4 I4'
_cell_volume   449.92286826
_cell_formula_units_Z   1
loop_
 _symmetry_equiv_pos_site_id
 _symmetry_equiv_pos_as_xyz
  1  'x, y, z'
loop_
 _atom_site_type_symbol
 _atom_site_label
 _atom_site_symmetry_multiplicity
 _atom_site_fract_x
 _atom_site_fract_y
 _atom_site_fract_z
 _atom_site_occupancy
  P  P0  1  0.00000000  0.00000000  0.00000000  1
  P  P1  1  0.50000000  0.50000000  0.50000000  1
  P  P2  1  0.50000000  0.50000000  0.00000000  1
  P  P3  1  0.50000000  0.00000000  0.50000000  1
  Ti  Ti4  1  0.00000000  0.50000000  0.50000000  1
  Lu  Lu5  1  0.74408367  0.05765922  0.00267778  1
  I  I6  1  0.46269138  0.53816698  0.68128112  1
  I  I7  1  0.21444181  0.31891389  0.81548551  1
  I  I8  1  0.08501516  0.86731887  0.39944751  1
  I  I9  1  0.91206973  0.01532735  0.03970907  1
  Li  Li10  1  0.17578289  0.65349455  0.51959678  1
  Li  Li11  1  0.86218991  0.92945554  0.88264997  1
