# generated using pymatgen
data_LiCuNiAs3P2
_symmetry_space_group_name_H-M   'P 1'
_cell_length_a   7.30186809
_cell_length_b   7.15960968
_cell_length_c   7.90401118
_cell_angle_alpha   91.58970165
_cell_angle_beta   92.84906935
_cell_angle_gamma   91.64801794
_symmetry_Int_Tables_number   1
_chemical_formula_structural   LiCuNiAs3P2
_chemical_formula_sum   'Li2 Cu2 Ni2 As6 P4'
_cell_volume   412.35244420
_cell_formula_units_Z   2
loop_
 _symmetry_equiv_pos_site_id
 _symmetry_equiv_pos_as_xyz
  1  'x, y, z'
loop_
 _atom_site_type_symbol
 _atom_site_label
 _atom_site_symmetry_multiplicity
 _atom_site_fract_x
 _atom_site_fract_y
 _atom_site_fract_z
 _atom_site_occupancy
  P  P0  1  0.12500000  0.00000000  0.25000000  1
  P  P1  1  0.00000000  0.00000000  0.00000000  1
  P  P2  1  0.37500000  0.00000000  0.25000000  1
  P  P3  1  0.25000000  0.25000000  0.25000000  1
  Li  Li4  1  0.00000000  0.25000000  0.12500000  1
  Li  Li5  1  0.99933271  0.04187576  0.23867558  1
  Cu  Cu6  1  0.49737237  0.87210310  0.66876350  1
  Cu  Cu7  1  0.14944645  0.78262304  0.29575546  1
  Ni  Ni8  1  0.28714785  0.84594235  0.49831582  1
  Ni  Ni9  1  0.47859163  0.85306385  0.00945320  1
  As  As10  1  0.64170783  0.24679323  0.63692687  1
  As  As11  1  0.38131734  0.34831586  0.74880378  1
  As  As12  1  0.15807981  0.37734972  0.56782181  1
  As  As13  1  0.01097703  0.72231630  0.22707188  1
  As  As14  1  0.17008951  0.96476805  0.27090097  1
  As  As15  1  0.77303879  0.94101917  0.66051776  1
