# generated using pymatgen
data_Li2TiCu2(P2S)2
_symmetry_space_group_name_H-M   'P 1'
_cell_length_a   6.47680738
_cell_length_b   6.48292620
_cell_length_c   7.43556727
_cell_angle_alpha   96.28351126
_cell_angle_beta   98.34944824
_cell_angle_gamma   96.41978746
_symmetry_Int_Tables_number   1
_chemical_formula_structural   Li2TiCu2(P2S)2
_chemical_formula_sum   'Li2 Ti1 Cu2 P4 S2'
_cell_volume   304.44497677
_cell_formula_units_Z   1
loop_
 _symmetry_equiv_pos_site_id
 _symmetry_equiv_pos_as_xyz
  1  'x, y, z'
loop_
 _atom_site_type_symbol
 _atom_site_label
 _atom_site_symmetry_multiplicity
 _atom_site_fract_x
 _atom_site_fract_y
 _atom_site_fract_z
 _atom_site_occupancy
  S  S0  1  0.00000000  0.00000000  0.00000000  1
  S  S1  1  0.50000000  0.50000000  0.50000000  1
  Ti  Ti2  1  0.50000000  0.50000000  0.00000000  1
  P  P3  1  0.50000000  0.00000000  0.50000000  1
  P  P4  1  0.00000000  0.50000000  0.50000000  1
  P  P5  1  0.86711833  0.83774551  0.29974326  1
  P  P6  1  0.45830227  0.48195906  0.04766937  1
  Li  Li7  1  0.26224202  0.01127460  0.32741544  1
  Li  Li8  1  0.24175592  0.91124910  0.34802351  1
  Cu  Cu9  1  0.02647102  0.41240786  0.62914913  1
  Cu  Cu10  1  0.29046006  0.06887001  0.63136447  1
