# generated using pymatgen
data_Li2TiI4Cl2O3
_symmetry_space_group_name_H-M   'P 1'
_cell_length_a   5.88605234
_cell_length_b   5.74158675
_cell_length_c   7.11759036
_cell_angle_alpha   97.43696504
_cell_angle_beta   100.12828742
_cell_angle_gamma   96.92313738
_symmetry_Int_Tables_number   1
_chemical_formula_structural   Li2TiI4Cl2O3
_chemical_formula_sum   'Li2 Ti1 I4 Cl2 O3'
_cell_volume   232.25667735
_cell_formula_units_Z   1
loop_
 _symmetry_equiv_pos_site_id
 _symmetry_equiv_pos_as_xyz
  1  'x, y, z'
loop_
 _atom_site_type_symbol
 _atom_site_label
 _atom_site_symmetry_multiplicity
 _atom_site_fract_x
 _atom_site_fract_y
 _atom_site_fract_z
 _atom_site_occupancy
  I  I0  1  0.00000000  0.00000000  0.00000000  1
  I  I1  1  0.50000000  0.50000000  0.50000000  1
  I  I2  1  0.25000000  0.25000000  0.25000000  1
  I  I3  1  0.75000000  0.25000000  0.00000000  1
  Li  Li4  1  0.25000000  0.75000000  0.50000000  1
  Li  Li5  1  0.34750230  0.67989688  0.67180823  1
  Cl  Cl6  1  0.96498495  0.81867314  0.77159059  1
  Cl  Cl7  1  0.01848004  0.93371089  0.23737858  1
  Ti  Ti8  1  0.62304119  0.28615902  0.74333399  1
  O  O9  1  0.11231544  0.41170667  0.93184345  1
  O  O10  1  0.22878598  0.61090248  0.66501551  1
  O  O11  1  0.97282171  0.04361239  0.51640257  1
