# generated using pymatgen
data_Li2I4(OF)3
_symmetry_space_group_name_H-M   'P 1'
_cell_length_a   6.21726703
_cell_length_b   5.74408177
_cell_length_c   6.92642873
_cell_angle_alpha   94.81716267
_cell_angle_beta   96.70498725
_cell_angle_gamma   94.42838839
_symmetry_Int_Tables_number   1
_chemical_formula_structural   Li2I4(OF)3
_chemical_formula_sum   'Li2 I4 O3 F3'
_cell_volume   243.85228888
_cell_formula_units_Z   1
loop_
 _symmetry_equiv_pos_site_id
 _symmetry_equiv_pos_as_xyz
  1  'x, y, z'
loop_
 _atom_site_type_symbol
 _atom_site_label
 _atom_site_symmetry_multiplicity
 _atom_site_fract_x
 _atom_site_fract_y
 _atom_site_fract_z
 _atom_site_occupancy
  I  I0  1  0.00000000  0.00000000  0.00000000  1
  I  I1  1  0.33300000  0.66700000  0.25000000  1
  I  I2  1  0.66700000  0.33300000  0.50000000  1
  I  I3  1  0.00000000  0.00000000  0.75000000  1
  Li  Li4  1  0.10264656  0.82682965  0.55896064  1
  Li  Li5  1  0.63695115  0.25670104  0.90811666  1
  F  F6  1  0.35124249  0.64830385  0.11901962  1
  F  F7  1  0.84400947  0.78937726  0.09129535  1
  F  F8  1  0.38502313  0.89601772  0.23884334  1
  O  O9  1  0.81830471  0.70047399  0.12737455  1
  O  O10  1  0.07437690  0.44863975  0.18135417  1
  O  O11  1  0.29916099  0.22833577  0.91901657  1
