# generated using pymatgen
data_LiCu2P4(I2F)2
_symmetry_space_group_name_H-M   'P 1'
_cell_length_a   6.93151163
_cell_length_b   6.96601335
_cell_length_c   7.84836760
_cell_angle_alpha   94.58736238
_cell_angle_beta   96.47766628
_cell_angle_gamma   94.59570173
_symmetry_Int_Tables_number   1
_chemical_formula_structural   LiCu2P4(I2F)2
_chemical_formula_sum   'Li1 Cu2 P4 I4 F2'
_cell_volume   373.80944986
_cell_formula_units_Z   1
loop_
 _symmetry_equiv_pos_site_id
 _symmetry_equiv_pos_as_xyz
  1  'x, y, z'
loop_
 _atom_site_type_symbol
 _atom_site_label
 _atom_site_symmetry_multiplicity
 _atom_site_fract_x
 _atom_site_fract_y
 _atom_site_fract_z
 _atom_site_occupancy
  F  F0  1  0.12500000  0.00000000  0.25000000  1
  F  F1  1  0.00000000  0.00000000  0.00000000  1
  P  P2  1  0.37500000  0.00000000  0.25000000  1
  P  P3  1  0.25000000  0.25000000  0.25000000  1
  P  P4  1  0.00000000  0.25000000  0.12500000  1
  P  P5  1  0.34595404  0.57620889  0.55491925  1
  I  I6  1  0.16829891  0.45750532  0.64169710  1
  I  I7  1  0.17962457  0.97812250  0.69337834  1
  I  I8  1  0.57821581  0.91394003  0.31475306  1
  I  I9  1  0.03653579  0.57157865  0.19213043  1
  Li  Li10  1  0.99224172  0.66279063  0.86755058  1
  Cu  Cu11  1  0.55036531  0.65750458  0.80559121  1
  Cu  Cu12  1  0.92897719  0.17763097  0.14087473  1
