# generated using pymatgen
data_Li3Zn2Te6(IO)4
_symmetry_space_group_name_H-M   'P 1'
_cell_length_a   8.59417627
_cell_length_b   9.08415372
_cell_length_c   7.23980888
_cell_angle_alpha   90.00000000
_cell_angle_beta   90.00000000
_cell_angle_gamma   90.00000000
_symmetry_Int_Tables_number   1
_chemical_formula_structural   Li3Zn2Te6(IO)4
_chemical_formula_sum   'Li3 Zn2 Te6 I4 O4'
_cell_volume   565.21780327
_cell_formula_units_Z   1
loop_
 _symmetry_equiv_pos_site_id
 _symmetry_equiv_pos_as_xyz
  1  'x, y, z'
loop_
 _atom_site_type_symbol
 _atom_site_label
 _atom_site_symmetry_multiplicity
 _atom_site_fract_x
 _atom_site_fract_y
 _atom_site_fract_z
 _atom_site_occupancy
  I  I0  1  0.00000000  0.00000000  0.00000000  1
  I  I1  1  0.50000000  0.50000000  0.50000000  1
  I  I2  1  0.50000000  0.50000000  0.00000000  1
  I  I3  1  0.50000000  0.00000000  0.50000000  1
  Li  Li4  1  0.00000000  0.50000000  0.50000000  1
  Li  Li5  1  0.88366452  0.36058491  0.75752005  1
  Li  Li6  1  0.21934156  0.30460488  0.33967746  1
  Zn  Zn7  1  0.65423134  0.10393891  0.01061393  1
  Zn  Zn8  1  0.32085991  0.30143336  0.23463820  1
  Te  Te9  1  0.55339435  0.30562539  0.58846058  1
  Te  Te10  1  0.34231687  0.31609127  0.46994791  1
  Te  Te11  1  0.97678606  0.69993863  0.01238339  1
  Te  Te12  1  0.29505719  0.82604356  0.80887122  1
  Te  Te13  1  0.85572440  0.86900769  0.23057230  1
  Te  Te14  1  0.39237932  0.27561155  0.10714270  1
  O  O15  1  0.19701698  0.14953644  0.00822209  1
  O  O16  1  0.23805075  0.89523086  0.89130709  1
  O  O17  1  0.32261004  0.22091266  0.99639730  1
  O  O18  1  0.63430607  0.25933333  0.80872664  1
