# generated using pymatgen
data_Li2TiCu2(As3O)2
_symmetry_space_group_name_H-M   'P 1'
_cell_length_a   6.08413886
_cell_length_b   5.93658701
_cell_length_c   7.10889679
_cell_angle_alpha   97.39424763
_cell_angle_beta   100.36933775
_cell_angle_gamma   97.63043621
_symmetry_Int_Tables_number   1
_chemical_formula_structural   Li2TiCu2(As3O)2
_chemical_formula_sum   'Li2 Ti1 Cu2 As6 O2'
_cell_volume   247.25109199
_cell_formula_units_Z   1
loop_
 _symmetry_equiv_pos_site_id
 _symmetry_equiv_pos_as_xyz
  1  'x, y, z'
loop_
 _atom_site_type_symbol
 _atom_site_label
 _atom_site_symmetry_multiplicity
 _atom_site_fract_x
 _atom_site_fract_y
 _atom_site_fract_z
 _atom_site_occupancy
  Li  Li0  1  0.00000000  0.00000000  0.00000000  1
  Li  Li1  1  0.50000000  0.50000000  0.50000000  1
  Cu  Cu2  1  0.25000000  0.25000000  0.25000000  1
  Cu  Cu3  1  0.75000000  0.25000000  0.00000000  1
  Ti  Ti4  1  0.25000000  0.75000000  0.50000000  1
  As  As5  1  0.08939182  0.22463614  0.29245069  1
  As  As6  1  0.21340405  0.81213614  0.63334521  1
  As  As7  1  0.23221317  0.27871455  0.96090054  1
  As  As8  1  0.06154930  0.04660005  0.58434055  1
  As  As9  1  0.51175457  0.67576228  0.27649594  1
  As  As10  1  0.10383450  0.90531949  0.62790003  1
  O  O11  1  0.12756067  0.86480646  0.94560662  1
  O  O12  1  0.13416518  0.50263600  0.74683298  1
