# generated using pymatgen
data_Li2TiAs6(OF)3
_symmetry_space_group_name_H-M   'P 1'
_cell_length_a   6.38930112
_cell_length_b   6.43393949
_cell_length_c   7.24736920
_cell_angle_alpha   94.31697852
_cell_angle_beta   99.00124186
_cell_angle_gamma   95.35809534
_symmetry_Int_Tables_number   1
_chemical_formula_structural   Li2TiAs6(OF)3
_chemical_formula_sum   'Li2 Ti1 As6 O3 F3'
_cell_volume   291.74641446
_cell_formula_units_Z   1
loop_
 _symmetry_equiv_pos_site_id
 _symmetry_equiv_pos_as_xyz
  1  'x, y, z'
loop_
 _atom_site_type_symbol
 _atom_site_label
 _atom_site_symmetry_multiplicity
 _atom_site_fract_x
 _atom_site_fract_y
 _atom_site_fract_z
 _atom_site_occupancy
  Li  Li0  1  0.00000000  0.00000000  0.00000000  1
  Li  Li1  1  0.50000000  0.50000000  0.50000000  1
  F  F2  1  0.50000000  0.50000000  0.00000000  1
  F  F3  1  0.50000000  0.00000000  0.50000000  1
  F  F4  1  0.00000000  0.50000000  0.50000000  1
  Ti  Ti5  1  0.27687742  0.78676734  0.18973018  1
  As  As6  1  0.32812342  0.87856553  0.21273269  1
  As  As7  1  0.91516932  0.39961827  0.56125715  1
  As  As8  1  0.05702033  0.24105286  0.98162521  1
  As  As9  1  0.29322411  0.19303618  0.20852927  1
  As  As10  1  0.67260102  0.24495088  0.29538652  1
  As  As11  1  0.09098969  0.58319610  0.15273613  1
  O  O12  1  0.68682811  0.85879493  0.16526925  1
  O  O13  1  0.92719110  0.91029191  0.84887579  1
  O  O14  1  0.69010636  0.76687356  0.51592590  1
