# generated using pymatgen
data_Li3Ti(IO)4
_symmetry_space_group_name_H-M   'P 1'
_cell_length_a   8.83324572
_cell_length_b   8.71214854
_cell_length_c   7.39614012
_cell_angle_alpha   90.00000000
_cell_angle_beta   90.00000000
_cell_angle_gamma   90.00000000
_symmetry_Int_Tables_number   1
_chemical_formula_structural   Li3Ti(IO)4
_chemical_formula_sum   'Li3 Ti1 I4 O4'
_cell_volume   569.18141767
_cell_formula_units_Z   1
loop_
 _symmetry_equiv_pos_site_id
 _symmetry_equiv_pos_as_xyz
  1  'x, y, z'
loop_
 _atom_site_type_symbol
 _atom_site_label
 _atom_site_symmetry_multiplicity
 _atom_site_fract_x
 _atom_site_fract_y
 _atom_site_fract_z
 _atom_site_occupancy
  I  I0  1  0.00000000  0.00000000  0.00000000  1
  I  I1  1  0.33300000  0.66700000  0.25000000  1
  I  I2  1  0.66700000  0.33300000  0.50000000  1
  I  I3  1  0.00000000  0.00000000  0.75000000  1
  Li  Li4  1  0.58133906  0.05303285  0.03978904  1
  Li  Li5  1  0.15316548  0.12590665  0.27183851  1
  Li  Li6  1  0.42932872  0.33610867  0.96500687  1
  Ti  Ti7  1  0.28294906  0.44486546  0.12276330  1
  O  O8  1  0.76354838  0.90318343  0.60205997  1
  O  O9  1  0.73057523  0.04939622  0.53999528  1
  O  O10  1  0.16298161  0.78562830  0.67766470  1
  O  O11  1  0.53502368  0.62008426  0.21455737  1
