# generated using pymatgen
data_LiTi(IO)4
_symmetry_space_group_name_H-M   'P 1'
_cell_length_a   7.68182167
_cell_length_b   7.63765891
_cell_length_c   7.76680879
_cell_angle_alpha   91.35704356
_cell_angle_beta   92.92481081
_cell_angle_gamma   91.62507821
_symmetry_Int_Tables_number   1
_chemical_formula_structural   LiTi(IO)4
_chemical_formula_sum   'Li1 Ti1 I4 O4'
_cell_volume   454.76668667
_cell_formula_units_Z   1
loop_
 _symmetry_equiv_pos_site_id
 _symmetry_equiv_pos_as_xyz
  1  'x, y, z'
loop_
 _atom_site_type_symbol
 _atom_site_label
 _atom_site_symmetry_multiplicity
 _atom_site_fract_x
 _atom_site_fract_y
 _atom_site_fract_z
 _atom_site_occupancy
  I  I0  1  0.12500000  0.00000000  0.25000000  1
  I  I1  1  0.00000000  0.00000000  0.00000000  1
  I  I2  1  0.37500000  0.00000000  0.25000000  1
  I  I3  1  0.25000000  0.25000000  0.25000000  1
  Li  Li4  1  0.00000000  0.25000000  0.12500000  1
  Ti  Ti5  1  0.26019895  0.99936580  0.55200103  1
  O  O6  1  0.63411107  0.63872258  0.51648050  1
  O  O7  1  0.43321148  0.85354374  0.26791781  1
  O  O8  1  0.52826851  0.38896578  0.30211644  1
  O  O9  1  0.77927955  0.30355980  0.85662996  1
