# generated using pymatgen
data_Li3TiAs6(IO)4
_symmetry_space_group_name_H-M   'P 1'
_cell_length_a   8.61678663
_cell_length_b   8.48506879
_cell_length_c   7.70632356
_cell_angle_alpha   90.33558334
_cell_angle_beta   90.21275874
_cell_angle_gamma   90.38888106
_symmetry_Int_Tables_number   1
_chemical_formula_structural   Li3TiAs6(IO)4
_chemical_formula_sum   'Li3 Ti1 As6 I4 O4'
_cell_volume   563.41374075
_cell_formula_units_Z   1
loop_
 _symmetry_equiv_pos_site_id
 _symmetry_equiv_pos_as_xyz
  1  'x, y, z'
loop_
 _atom_site_type_symbol
 _atom_site_label
 _atom_site_symmetry_multiplicity
 _atom_site_fract_x
 _atom_site_fract_y
 _atom_site_fract_z
 _atom_site_occupancy
  I  I0  1  0.12500000  0.00000000  0.25000000  1
  I  I1  1  0.00000000  0.00000000  0.00000000  1
  I  I2  1  0.37500000  0.00000000  0.25000000  1
  I  I3  1  0.25000000  0.25000000  0.25000000  1
  Li  Li4  1  0.00000000  0.25000000  0.12500000  1
  Li  Li5  1  0.64144146  0.64416153  0.43074736  1
  Li  Li6  1  0.72475664  0.73859947  0.72919269  1
  Ti  Ti7  1  0.48917552  0.50809363  0.26976105  1
  As  As8  1  0.04389185  0.08227763  0.76012253  1
  As  As9  1  0.86297159  0.34020516  0.49548203  1
  As  As10  1  0.76816993  0.02494079  0.83842633  1
  As  As11  1  0.55609273  0.46540353  0.27459695  1
  As  As12  1  0.91996054  0.74265756  0.81388932  1
  As  As13  1  0.53907740  0.86912576  0.73809053  1
  O  O14  1  0.15266653  0.97327514  0.47436078  1
  O  O15  1  0.34253842  0.47151786  0.63281233  1
  O  O16  1  0.43432760  0.80474224  0.10452275  1
  O  O17  1  0.10827756  0.00454263  0.13555814  1
