# generated using pymatgen
data_Li4LuP4SeF3
_symmetry_space_group_name_H-M   'P 1'
_cell_length_a   5.20098021
_cell_length_b   4.94109309
_cell_length_c   7.02785726
_cell_angle_alpha   103.44056316
_cell_angle_beta   107.21099201
_cell_angle_gamma   102.67474443
_symmetry_Int_Tables_number   1
_chemical_formula_structural   Li4LuP4SeF3
_chemical_formula_sum   'Li4 Lu1 P4 Se1 F3'
_cell_volume   159.51645080
_cell_formula_units_Z   1
loop_
 _symmetry_equiv_pos_site_id
 _symmetry_equiv_pos_as_xyz
  1  'x, y, z'
loop_
 _atom_site_type_symbol
 _atom_site_label
 _atom_site_symmetry_multiplicity
 _atom_site_fract_x
 _atom_site_fract_y
 _atom_site_fract_z
 _atom_site_occupancy
  P  P0  1  0.12500000  0.00000000  0.25000000  1
  P  P1  1  0.00000000  0.00000000  0.00000000  1
  P  P2  1  0.37500000  0.00000000  0.25000000  1
  P  P3  1  0.25000000  0.25000000  0.25000000  1
  Lu  Lu4  1  0.00000000  0.25000000  0.12500000  1
  Li  Li5  1  0.66209846  0.15270531  0.89116143  1
  Li  Li6  1  0.44643644  0.55644796  0.14817295  1
  Li  Li7  1  0.60213216  0.69591383  0.39439513  1
  Li  Li8  1  0.37765252  0.92877268  0.66713562  1
  Se  Se9  1  0.97314526  0.04622292  0.18367602  1
  F  F10  1  0.23758129  0.06082782  0.65512482  1
  F  F11  1  0.93107787  0.14627793  0.05943927  1
  F  F12  1  0.60395717  0.20988113  0.50696036  1
