# generated using pymatgen
data_Li2Ni2As6P4O5
_symmetry_space_group_name_H-M   'P 1'
_cell_length_a   7.42278312
_cell_length_b   7.39551813
_cell_length_c   7.96597928
_cell_angle_alpha   94.06416398
_cell_angle_beta   94.82162705
_cell_angle_gamma   93.96804947
_symmetry_Int_Tables_number   1
_chemical_formula_structural   Li2Ni2As6P4O5
_chemical_formula_sum   'Li2 Ni2 As6 P4 O5'
_cell_volume   433.40741689
_cell_formula_units_Z   1
loop_
 _symmetry_equiv_pos_site_id
 _symmetry_equiv_pos_as_xyz
  1  'x, y, z'
loop_
 _atom_site_type_symbol
 _atom_site_label
 _atom_site_symmetry_multiplicity
 _atom_site_fract_x
 _atom_site_fract_y
 _atom_site_fract_z
 _atom_site_occupancy
  P  P0  1  0.12500000  0.00000000  0.25000000  1
  P  P1  1  0.00000000  0.00000000  0.00000000  1
  P  P2  1  0.37500000  0.00000000  0.25000000  1
  P  P3  1  0.25000000  0.25000000  0.25000000  1
  Li  Li4  1  0.00000000  0.25000000  0.12500000  1
  Li  Li5  1  0.63488383  0.06000196  0.79254996  1
  Ni  Ni6  1  0.59084049  0.23706010  0.91659103  1
  Ni  Ni7  1  0.61989675  0.55759594  0.99362170  1
  As  As8  1  0.42442701  0.77128361  0.85127714  1
  As  As9  1  0.71256180  0.91256008  0.86068305  1
  As  As10  1  0.16293743  0.92796203  0.92761731  1
  As  As11  1  0.78001791  0.88712338  0.88277964  1
  As  As12  1  0.96076417  0.34230988  0.72595611  1
  As  As13  1  0.32079144  0.70930832  0.46505638  1
  O  O14  1  0.54939351  0.08487048  0.00393708  1
  O  O15  1  0.46743101  0.87155529  0.15400681  1
  O  O16  1  0.78997072  0.87888593  0.02108219  1
  O  O17  1  0.07818395  0.03029326  0.92331586  1
  O  O18  1  0.81329270  0.47272861  0.40141053  1
