# generated using pymatgen
data_Li3Ni2As6O5
_symmetry_space_group_name_H-M   'P 1'
_cell_length_a   6.71295827
_cell_length_b   6.49701419
_cell_length_c   7.80366832
_cell_angle_alpha   96.45825855
_cell_angle_beta   98.11037915
_cell_angle_gamma   96.21656035
_symmetry_Int_Tables_number   1
_chemical_formula_structural   Li3Ni2As6O5
_chemical_formula_sum   'Li3 Ni2 As6 O5'
_cell_volume   332.13094256
_cell_formula_units_Z   1
loop_
 _symmetry_equiv_pos_site_id
 _symmetry_equiv_pos_as_xyz
  1  'x, y, z'
loop_
 _atom_site_type_symbol
 _atom_site_label
 _atom_site_symmetry_multiplicity
 _atom_site_fract_x
 _atom_site_fract_y
 _atom_site_fract_z
 _atom_site_occupancy
  Li  Li0  1  0.00000000  0.00000000  0.00000000  1
  Li  Li1  1  0.50000000  0.50000000  0.50000000  1
  Li  Li2  1  0.25000000  0.25000000  0.25000000  1
  Ni  Ni3  1  0.75000000  0.25000000  0.00000000  1
  Ni  Ni4  1  0.25000000  0.75000000  0.50000000  1
  As  As5  1  0.92307831  0.41833522  0.74254030  1
  As  As6  1  0.66578495  0.26523257  0.96319725  1
  As  As7  1  0.55996190  0.14506316  0.83292905  1
  As  As8  1  0.55652823  0.33689817  0.94196040  1
  As  As9  1  0.55713882  0.56377221  0.44024227  1
  As  As10  1  0.28165695  0.29777863  0.57808808  1
  O  O11  1  0.52628953  0.87490472  0.72929304  1
  O  O12  1  0.94043274  0.75841889  0.97770873  1
  O  O13  1  0.13753737  0.58458106  0.87928336  1
  O  O14  1  0.78695514  0.28955371  0.73842694  1
  O  O15  1  0.11820620  0.17049291  0.72542076  1
