# generated using pymatgen
data_Li3As6Se(OF)3
_symmetry_space_group_name_H-M   'P 1'
_cell_length_a   6.67072308
_cell_length_b   6.54778449
_cell_length_c   7.33986250
_cell_angle_alpha   96.75268260
_cell_angle_beta   99.27943821
_cell_angle_gamma   96.36708744
_symmetry_Int_Tables_number   1
_chemical_formula_structural   Li3As6Se(OF)3
_chemical_formula_sum   'Li3 As6 Se1 O3 F3'
_cell_volume   311.43328384
_cell_formula_units_Z   1
loop_
 _symmetry_equiv_pos_site_id
 _symmetry_equiv_pos_as_xyz
  1  'x, y, z'
loop_
 _atom_site_type_symbol
 _atom_site_label
 _atom_site_symmetry_multiplicity
 _atom_site_fract_x
 _atom_site_fract_y
 _atom_site_fract_z
 _atom_site_occupancy
  Li  Li0  1  0.00000000  0.00000000  0.00000000  1
  Li  Li1  1  0.50000000  0.50000000  0.50000000  1
  Li  Li2  1  0.50000000  0.50000000  0.00000000  1
  Se  Se3  1  0.50000000  0.00000000  0.50000000  1
  F  F4  1  0.00000000  0.50000000  0.50000000  1
  F  F5  1  0.63016487  0.50891513  0.23540520  1
  F  F6  1  0.74125986  0.37498420  0.13287750  1
  As  As7  1  0.55554325  0.73872753  0.04984647  1
  As  As8  1  0.98016039  0.75511509  0.79616760  1
  As  As9  1  0.48049779  0.87086908  0.66301526  1
  As  As10  1  0.32475371  0.25258913  0.22923332  1
  As  As11  1  0.78801781  0.13069124  0.80271656  1
  As  As12  1  0.81801838  0.15144586  0.91783862  1
  O  O13  1  0.88203400  0.88065314  0.82307216  1
  O  O14  1  0.00602765  0.74213801  0.87183806  1
  O  O15  1  0.25782007  0.36139433  0.09500878  1
