# generated using pymatgen
data_Li2Cu2As6P4O3
_symmetry_space_group_name_H-M   'P 1'
_cell_length_a   7.23371967
_cell_length_b   7.04284022
_cell_length_c   7.82590508
_cell_angle_alpha   93.68748639
_cell_angle_beta   94.85744561
_cell_angle_gamma   93.59993368
_symmetry_Int_Tables_number   1
_chemical_formula_structural   Li2Cu2As6P4O3
_chemical_formula_sum   'Li2 Cu2 As6 P4 O3'
_cell_volume   395.50906309
_cell_formula_units_Z   1
loop_
 _symmetry_equiv_pos_site_id
 _symmetry_equiv_pos_as_xyz
  1  'x, y, z'
loop_
 _atom_site_type_symbol
 _atom_site_label
 _atom_site_symmetry_multiplicity
 _atom_site_fract_x
 _atom_site_fract_y
 _atom_site_fract_z
 _atom_site_occupancy
  P  P0  1  0.12500000  0.00000000  0.25000000  1
  P  P1  1  0.00000000  0.00000000  0.00000000  1
  P  P2  1  0.37500000  0.00000000  0.25000000  1
  P  P3  1  0.25000000  0.25000000  0.25000000  1
  Li  Li4  1  0.00000000  0.25000000  0.12500000  1
  Li  Li5  1  0.42603131  0.60651486  0.34639867  1
  Cu  Cu6  1  0.50833814  0.18683046  0.64155713  1
  Cu  Cu7  1  0.06692604  0.11511824  0.29980097  1
  As  As8  1  0.17339815  0.30417182  0.26810238  1
  As  As9  1  0.49513962  0.89410276  0.95488132  1
  As  As10  1  0.07049315  0.89712122  0.31266428  1
  As  As11  1  0.46953006  0.33516512  0.66107538  1
  As  As12  1  0.73853722  0.19324158  0.71107388  1
  As  As13  1  0.70245420  0.55269821  0.99139706  1
  O  O14  1  0.08980019  0.19603914  0.35770461  1
  O  O15  1  0.44621372  0.50863037  0.98653562  1
  O  O16  1  0.19853453  0.13340334  0.94699084  1
