# generated using pymatgen
data_LiCuNiAs3P2
_symmetry_space_group_name_H-M   'P 1'
_cell_length_a   7.50740822
_cell_length_b   7.48824014
_cell_length_c   8.23149101
_cell_angle_alpha   91.12219285
_cell_angle_beta   91.88499312
_cell_angle_gamma   91.29599436
_symmetry_Int_Tables_number   1
_chemical_formula_structural   LiCuNiAs3P2
_chemical_formula_sum   'Li2 Cu2 Ni2 As6 P4'
_cell_volume   462.28757291
_cell_formula_units_Z   2
loop_
 _symmetry_equiv_pos_site_id
 _symmetry_equiv_pos_as_xyz
  1  'x, y, z'
loop_
 _atom_site_type_symbol
 _atom_site_label
 _atom_site_symmetry_multiplicity
 _atom_site_fract_x
 _atom_site_fract_y
 _atom_site_fract_z
 _atom_site_occupancy
  P  P0  1  0.00000000  0.00000000  0.00000000  1
  P  P1  1  0.50000000  0.50000000  0.50000000  1
  P  P2  1  0.50000000  0.50000000  0.00000000  1
  P  P3  1  0.50000000  0.00000000  0.50000000  1
  Li  Li4  1  0.00000000  0.50000000  0.50000000  1
  Li  Li5  1  0.69424686  0.90636393  0.85038129  1
  Cu  Cu6  1  0.88090132  0.16487672  0.71435802  1
  Cu  Cu7  1  0.87943165  0.04878904  0.10595279  1
  Ni  Ni8  1  0.16732062  0.32034420  0.60729173  1
  Ni  Ni9  1  0.54789787  0.73062514  0.08869318  1
  As  As10  1  0.80483328  0.57962144  0.80870515  1
  As  As11  1  0.31431915  0.67561339  0.97155823  1
  As  As12  1  0.89759452  0.66918628  0.02403167  1
  As  As13  1  0.30554448  0.18454030  0.21190795  1
  As  As14  1  0.56930833  0.24294000  0.85413672  1
  As  As15  1  0.84150460  0.34164217  0.10669059  1
