# generated using pymatgen
data_Li3TiI4(OF)3
_symmetry_space_group_name_H-M   'P 1'
_cell_length_a   7.77820113
_cell_length_b   7.61105205
_cell_length_c   7.22990992
_cell_angle_alpha   93.64180244
_cell_angle_beta   94.83273234
_cell_angle_gamma   93.42367367
_symmetry_Int_Tables_number   1
_chemical_formula_structural   Li3TiI4(OF)3
_chemical_formula_sum   'Li3 Ti1 I4 O3 F3'
_cell_volume   424.71774596
_cell_formula_units_Z   1
loop_
 _symmetry_equiv_pos_site_id
 _symmetry_equiv_pos_as_xyz
  1  'x, y, z'
loop_
 _atom_site_type_symbol
 _atom_site_label
 _atom_site_symmetry_multiplicity
 _atom_site_fract_x
 _atom_site_fract_y
 _atom_site_fract_z
 _atom_site_occupancy
  I  I0  1  0.00000000  0.00000000  0.00000000  1
  I  I1  1  0.50000000  0.50000000  0.50000000  1
  I  I2  1  0.50000000  0.50000000  0.00000000  1
  I  I3  1  0.50000000  0.00000000  0.50000000  1
  Li  Li4  1  0.00000000  0.50000000  0.50000000  1
  Li  Li5  1  0.54227342  0.69598900  0.47216241  1
  Li  Li6  1  0.36479839  0.17345727  0.45465783  1
  F  F7  1  0.87170819  0.60016602  0.83639467  1
  F  F8  1  0.83827075  0.20888591  0.36409792  1
  F  F9  1  0.03138052  0.48609512  0.35038874  1
  Ti  Ti10  1  0.61528731  0.66045925  0.04705023  1
  O  O11  1  0.19884029  0.84453520  0.51239747  1
  O  O12  1  0.84233494  0.20104437  0.54175193  1
  O  O13  1  0.61463965  0.17425973  0.62076859  1
