# generated using pymatgen
data_Li2LuCu2(As3P2)2
_symmetry_space_group_name_H-M   'P 1'
_cell_length_a   7.15608970
_cell_length_b   7.28157399
_cell_length_c   8.09274509
_cell_angle_alpha   93.43117632
_cell_angle_beta   95.09989823
_cell_angle_gamma   93.32923600
_symmetry_Int_Tables_number   1
_chemical_formula_structural   Li2LuCu2(As3P2)2
_chemical_formula_sum   'Li2 Lu1 Cu2 As6 P4'
_cell_volume   418.41807147
_cell_formula_units_Z   1
loop_
 _symmetry_equiv_pos_site_id
 _symmetry_equiv_pos_as_xyz
  1  'x, y, z'
loop_
 _atom_site_type_symbol
 _atom_site_label
 _atom_site_symmetry_multiplicity
 _atom_site_fract_x
 _atom_site_fract_y
 _atom_site_fract_z
 _atom_site_occupancy
  P  P0  1  0.12500000  0.00000000  0.25000000  1
  P  P1  1  0.00000000  0.00000000  0.00000000  1
  P  P2  1  0.37500000  0.00000000  0.25000000  1
  P  P3  1  0.25000000  0.25000000  0.25000000  1
  Lu  Lu4  1  0.00000000  0.25000000  0.12500000  1
  As  As5  1  0.80987107  0.50616705  0.86981140  1
  As  As6  1  0.78818857  0.62400661  0.21396817  1
  As  As7  1  0.30247255  0.90931888  0.90882590  1
  As  As8  1  0.78051676  0.51000504  0.70230469  1
  As  As9  1  0.52939913  0.51512580  0.80263323  1
  As  As10  1  0.00736056  0.86550137  0.03633447  1
  Li  Li11  1  0.83497307  0.06294307  0.57198871  1
  Li  Li12  1  0.92955586  0.59212369  0.62208331  1
  Cu  Cu13  1  0.67219532  0.86460920  0.62238969  1
  Cu  Cu14  1  0.13010006  0.26352867  0.89592455  1
