# generated using pymatgen
data_LiCuTe3O2
_symmetry_space_group_name_H-M   'P 1'
_cell_length_a   8.01210125
_cell_length_b   8.09573789
_cell_length_c   7.70487628
_cell_angle_alpha   90.77839404
_cell_angle_beta   90.99115409
_cell_angle_gamma   90.84424453
_symmetry_Int_Tables_number   1
_chemical_formula_structural   LiCuTe3O2
_chemical_formula_sum   'Li2 Cu2 Te6 O4'
_cell_volume   499.59120613
_cell_formula_units_Z   2
loop_
 _symmetry_equiv_pos_site_id
 _symmetry_equiv_pos_as_xyz
  1  'x, y, z'
loop_
 _atom_site_type_symbol
 _atom_site_label
 _atom_site_symmetry_multiplicity
 _atom_site_fract_x
 _atom_site_fract_y
 _atom_site_fract_z
 _atom_site_occupancy
  Li  Li0  1  0.12500000  0.00000000  0.25000000  1
  Li  Li1  1  0.00000000  0.00000000  0.00000000  1
  Cu  Cu2  1  0.37500000  0.00000000  0.25000000  1
  Cu  Cu3  1  0.25000000  0.25000000  0.25000000  1
  Te  Te4  1  0.00000000  0.25000000  0.12500000  1
  Te  Te5  1  0.00564262  0.04996762  0.05963325  1
  Te  Te6  1  0.27335717  0.81637757  0.95959805  1
  Te  Te7  1  0.34387993  0.51442890  0.84792948  1
  Te  Te8  1  0.62289030  0.23736319  0.46948555  1
  Te  Te9  1  0.31728508  0.75122092  0.39464769  1
  O  O10  1  0.27170944  0.82083062  0.17693987  1
  O  O11  1  0.65684840  0.47872482  0.77903989  1
  O  O12  1  0.98514068  0.03072789  0.57528716  1
  O  O13  1  0.62694352  0.66021738  0.13924074  1
