# generated using pymatgen
data_Li2Mn2Sb4P3
_symmetry_space_group_name_H-M   'P 1'
_cell_length_a   5.04262462
_cell_length_b   5.35607641
_cell_length_c   6.45336532
_cell_angle_alpha   100.64313580
_cell_angle_beta   92.39946960
_cell_angle_gamma   100.69155662
_symmetry_Int_Tables_number   1
_chemical_formula_structural   Li2Mn2Sb4P3
_chemical_formula_sum   'Li2 Mn2 Sb4 P3'
_cell_volume   167.80084114
_cell_formula_units_Z   1
loop_
 _symmetry_equiv_pos_site_id
 _symmetry_equiv_pos_as_xyz
  1  'x, y, z'
loop_
 _atom_site_type_symbol
 _atom_site_label
 _atom_site_symmetry_multiplicity
 _atom_site_fract_x
 _atom_site_fract_y
 _atom_site_fract_z
 _atom_site_occupancy
  Mn  Mn0  1  0.00000000  0.00000000  0.00000000  1
  Mn  Mn1  1  0.50000000  0.50000000  0.50000000  1
  Sb  Sb2  1  0.25000000  0.25000000  0.25000000  1
  Sb  Sb3  1  0.75000000  0.25000000  0.00000000  1
  Sb  Sb4  1  0.25000000  0.75000000  0.50000000  1
  Sb  Sb5  1  0.94391664  0.23150193  0.89661700  1
  P  P6  1  0.69856777  0.95269798  0.85372888  1
  P  P7  1  0.46577700  0.56084367  0.01269090  1
  P  P8  1  0.45501708  0.47947759  0.52387893  1
  Li  Li9  1  0.45182289  0.92113332  0.81783852  1
  Li  Li10  1  0.97679549  0.90324783  0.72682680  1
