# generated using pymatgen
data_Li4As6SeO4
_symmetry_space_group_name_H-M   'P 1'
_cell_length_a   6.43882699
_cell_length_b   6.45180210
_cell_length_c   7.84285601
_cell_angle_alpha   96.08808144
_cell_angle_beta   98.97989892
_cell_angle_gamma   95.77678236
_symmetry_Int_Tables_number   1
_chemical_formula_structural   Li4As6SeO4
_chemical_formula_sum   'Li4 As6 Se1 O4'
_cell_volume   317.71311461
_cell_formula_units_Z   1
loop_
 _symmetry_equiv_pos_site_id
 _symmetry_equiv_pos_as_xyz
  1  'x, y, z'
loop_
 _atom_site_type_symbol
 _atom_site_label
 _atom_site_symmetry_multiplicity
 _atom_site_fract_x
 _atom_site_fract_y
 _atom_site_fract_z
 _atom_site_occupancy
  Se  Se0  1  0.12500000  0.00000000  0.25000000  1
  O  O1  1  0.00000000  0.00000000  0.00000000  1
  O  O2  1  0.37500000  0.00000000  0.25000000  1
  O  O3  1  0.25000000  0.25000000  0.25000000  1
  O  O4  1  0.00000000  0.25000000  0.12500000  1
  As  As5  1  0.80074052  0.81306642  0.01387353  1
  As  As6  1  0.36647940  0.93579937  0.02112935  1
  As  As7  1  0.10074697  0.88836292  0.29153455  1
  As  As8  1  0.30569314  0.38825906  0.43702522  1
  As  As9  1  0.88662101  0.93682315  0.57344540  1
  As  As10  1  0.21281045  0.51724889  0.14669475  1
  Li  Li11  1  0.19735067  0.02381646  0.79196732  1
  Li  Li12  1  0.10037996  0.81727586  0.14966580  1
  Li  Li13  1  0.29604713  0.94007168  0.70464803  1
  Li  Li14  1  0.83420877  0.60416151  0.18790033  1
