# generated using pymatgen
data_Li2Ti2Se(OF)3
_symmetry_space_group_name_H-M   'P 1'
_cell_length_a   5.63500826
_cell_length_b   5.34865293
_cell_length_c   7.29449093
_cell_angle_alpha   96.97571337
_cell_angle_beta   101.09576035
_cell_angle_gamma   96.66679423
_symmetry_Int_Tables_number   1
_chemical_formula_structural   Li2Ti2Se(OF)3
_chemical_formula_sum   'Li2 Ti2 Se1 O3 F3'
_cell_volume   211.94048096
_cell_formula_units_Z   1
loop_
 _symmetry_equiv_pos_site_id
 _symmetry_equiv_pos_as_xyz
  1  'x, y, z'
loop_
 _atom_site_type_symbol
 _atom_site_label
 _atom_site_symmetry_multiplicity
 _atom_site_fract_x
 _atom_site_fract_y
 _atom_site_fract_z
 _atom_site_occupancy
  Li  Li0  1  0.00000000  0.00000000  0.00000000  1
  Li  Li1  1  0.50000000  0.50000000  0.50000000  1
  Se  Se2  1  0.25000000  0.25000000  0.25000000  1
  F  F3  1  0.75000000  0.25000000  0.00000000  1
  F  F4  1  0.25000000  0.75000000  0.50000000  1
  F  F5  1  0.28451661  0.77398350  0.03469978  1
  Ti  Ti6  1  0.67586468  0.36299835  0.97238768  1
  Ti  Ti7  1  0.64389556  0.80760419  0.14773004  1
  O  O8  1  0.61756321  0.07652389  0.28116060  1
  O  O9  1  0.29632445  0.29159423  0.72016973  1
  O  O10  1  0.73777779  0.88038829  0.92679686  1
