# generated using pymatgen
data_LiP2
_symmetry_space_group_name_H-M   'P 1'
_cell_length_a   7.47367297
_cell_length_b   7.37841865
_cell_length_c   7.71805859
_cell_angle_alpha   92.86857602
_cell_angle_beta   93.84006828
_cell_angle_gamma   92.85120708
_symmetry_Int_Tables_number   1
_chemical_formula_structural   LiP2
_chemical_formula_sum   'Li2 P4'
_cell_volume   423.51370715
_cell_formula_units_Z   2
loop_
 _symmetry_equiv_pos_site_id
 _symmetry_equiv_pos_as_xyz
  1  'x, y, z'
loop_
 _atom_site_type_symbol
 _atom_site_label
 _atom_site_symmetry_multiplicity
 _atom_site_fract_x
 _atom_site_fract_y
 _atom_site_fract_z
 _atom_site_occupancy
  P  P0  1  0.00000000  0.00000000  0.00000000  1
  P  P1  1  0.50000000  0.50000000  0.50000000  1
  P  P2  1  0.50000000  0.50000000  0.00000000  1
  P  P3  1  0.50000000  0.00000000  0.50000000  1
  Li  Li4  1  0.00000000  0.50000000  0.50000000  1
  Li  Li5  1  0.37667855  0.61725358  0.54997772  1
