# generated using pymatgen
data_Li2TiP4(IO)4
_symmetry_space_group_name_H-M   'P 1'
_cell_length_a   8.09237852
_cell_length_b   8.00145709
_cell_length_c   7.60065394
_cell_angle_alpha   91.95385823
_cell_angle_beta   92.31521749
_cell_angle_gamma   91.92891047
_symmetry_Int_Tables_number   1
_chemical_formula_structural   Li2TiP4(IO)4
_chemical_formula_sum   'Li2 Ti1 P4 I4 O4'
_cell_volume   491.15834262
_cell_formula_units_Z   1
loop_
 _symmetry_equiv_pos_site_id
 _symmetry_equiv_pos_as_xyz
  1  'x, y, z'
loop_
 _atom_site_type_symbol
 _atom_site_label
 _atom_site_symmetry_multiplicity
 _atom_site_fract_x
 _atom_site_fract_y
 _atom_site_fract_z
 _atom_site_occupancy
  O  O0  1  0.00000000  0.00000000  0.00000000  1
  O  O1  1  0.50000000  0.50000000  0.50000000  1
  O  O2  1  0.50000000  0.50000000  0.00000000  1
  O  O3  1  0.50000000  0.00000000  0.50000000  1
  P  P4  1  0.00000000  0.50000000  0.50000000  1
  P  P5  1  0.19386373  0.19462967  0.05238284  1
  P  P6  1  0.63075877  0.89625965  0.11812107  1
  P  P7  1  0.12001938  0.89948877  0.15551292  1
  Ti  Ti8  1  0.10670358  0.61502831  0.35322806  1
  I  I9  1  0.25284658  0.70443587  0.30886548  1
  I  I10  1  0.14666339  0.22960878  0.50511906  1
  I  I11  1  0.92197919  0.30695875  0.09678804  1
  I  I12  1  0.13492051  0.25517226  0.11812220  1
  Li  Li13  1  0.00486323  0.39794937  0.16516820  1
  Li  Li14  1  0.38915993  0.61989031  0.27460337  1
