# generated using pymatgen
data_Li3TiP3Cl2F3
_symmetry_space_group_name_H-M   'P 1'
_cell_length_a   7.82428112
_cell_length_b   7.68340676
_cell_length_c   7.08602015
_cell_angle_alpha   92.51090387
_cell_angle_beta   93.38940572
_cell_angle_gamma   92.32789152
_symmetry_Int_Tables_number   1
_chemical_formula_structural   Li3TiP3Cl2F3
_chemical_formula_sum   'Li3 Ti1 P3 Cl2 F3'
_cell_volume   424.43887431
_cell_formula_units_Z   1
loop_
 _symmetry_equiv_pos_site_id
 _symmetry_equiv_pos_as_xyz
  1  'x, y, z'
loop_
 _atom_site_type_symbol
 _atom_site_label
 _atom_site_symmetry_multiplicity
 _atom_site_fract_x
 _atom_site_fract_y
 _atom_site_fract_z
 _atom_site_occupancy
  P  P0  1  0.00000000  0.00000000  0.00000000  1
  P  P1  1  0.50000000  0.50000000  0.50000000  1
  P  P2  1  0.50000000  0.50000000  0.00000000  1
  Li  Li3  1  0.50000000  0.00000000  0.50000000  1
  Li  Li4  1  0.00000000  0.50000000  0.50000000  1
  Li  Li5  1  0.83058906  0.64840658  0.24296833  1
  F  F6  1  0.57488102  0.81794844  0.69312308  1
  F  F7  1  0.15531306  0.57140544  0.42753490  1
  F  F8  1  0.01332632  0.21010487  0.95275683  1
  Cl  Cl9  1  0.35978220  0.03404847  0.03529090  1
  Cl  Cl10  1  0.45764998  0.24151476  0.09394069  1
  Ti  Ti11  1  0.42546459  0.72144471  0.00574636  1
