# generated using pymatgen
data_Li3TiSe(IO)4
_symmetry_space_group_name_H-M   'P 1'
_cell_length_a   7.08664715
_cell_length_b   6.87575701
_cell_length_c   7.10881646
_cell_angle_alpha   96.77345533
_cell_angle_beta   98.74720386
_cell_angle_gamma   96.35346493
_symmetry_Int_Tables_number   1
_chemical_formula_structural   Li3TiSe(IO)4
_chemical_formula_sum   'Li3 Ti1 Se1 I4 O4'
_cell_volume   337.03539497
_cell_formula_units_Z   1
loop_
 _symmetry_equiv_pos_site_id
 _symmetry_equiv_pos_as_xyz
  1  'x, y, z'
loop_
 _atom_site_type_symbol
 _atom_site_label
 _atom_site_symmetry_multiplicity
 _atom_site_fract_x
 _atom_site_fract_y
 _atom_site_fract_z
 _atom_site_occupancy
  I  I0  1  0.00000000  0.00000000  0.00000000  1
  I  I1  1  0.50000000  0.50000000  0.50000000  1
  I  I2  1  0.50000000  0.50000000  0.00000000  1
  I  I3  1  0.50000000  0.00000000  0.50000000  1
  Li  Li4  1  0.00000000  0.50000000  0.50000000  1
  Li  Li5  1  0.80060783  0.07879963  0.92216219  1
  Li  Li6  1  0.94343147  0.45465381  0.54867470  1
  Se  Se7  1  0.54780570  0.02109628  0.51202904  1
  Ti  Ti8  1  0.22428050  0.24635455  0.75571726  1
  O  O9  1  0.88622249  0.77547253  0.46684341  1
  O  O10  1  0.12386033  0.86087249  0.27791100  1
  O  O11  1  0.04811387  0.51064203  0.58192895  1
  O  O12  1  0.25632583  0.66639913  0.19243099  1
