# generated using pymatgen
data_LiCuP2
_symmetry_space_group_name_H-M   'P 1'
_cell_length_a   7.09065772
_cell_length_b   7.20188584
_cell_length_c   8.02253626
_cell_angle_alpha   94.04055335
_cell_angle_beta   95.67874696
_cell_angle_gamma   93.90322353
_symmetry_Int_Tables_number   1
_chemical_formula_structural   LiCuP2
_chemical_formula_sum   'Li2 Cu2 P4'
_cell_volume   405.49202810
_cell_formula_units_Z   2
loop_
 _symmetry_equiv_pos_site_id
 _symmetry_equiv_pos_as_xyz
  1  'x, y, z'
loop_
 _atom_site_type_symbol
 _atom_site_label
 _atom_site_symmetry_multiplicity
 _atom_site_fract_x
 _atom_site_fract_y
 _atom_site_fract_z
 _atom_site_occupancy
  P  P0  1  0.00000000  0.00000000  0.00000000  1
  P  P1  1  0.50000000  0.50000000  0.50000000  1
  P  P2  1  0.50000000  0.50000000  0.00000000  1
  P  P3  1  0.50000000  0.00000000  0.50000000  1
  Li  Li4  1  0.00000000  0.50000000  0.50000000  1
  Li  Li5  1  0.19066609  0.43389758  0.11115616  1
  Cu  Cu6  1  0.55949400  0.38696106  0.43948909  1
  Cu  Cu7  1  0.06648523  0.56258734  0.73537914  1
