# generated using pymatgen
data_Li3Lu(NiI2)2
_symmetry_space_group_name_H-M   'P 1'
_cell_length_a   8.28807926
_cell_length_b   8.12214173
_cell_length_c   7.66602640
_cell_angle_alpha   90.73626487
_cell_angle_beta   90.62484311
_cell_angle_gamma   90.85260311
_symmetry_Int_Tables_number   1
_chemical_formula_structural   Li3Lu(NiI2)2
_chemical_formula_sum   'Li3 Lu1 Ni2 I4'
_cell_volume   515.92203321
_cell_formula_units_Z   1
loop_
 _symmetry_equiv_pos_site_id
 _symmetry_equiv_pos_as_xyz
  1  'x, y, z'
loop_
 _atom_site_type_symbol
 _atom_site_label
 _atom_site_symmetry_multiplicity
 _atom_site_fract_x
 _atom_site_fract_y
 _atom_site_fract_z
 _atom_site_occupancy
  I  I0  1  0.00000000  0.00000000  0.00000000  1
  I  I1  1  0.50000000  0.50000000  0.50000000  1
  I  I2  1  0.25000000  0.25000000  0.25000000  1
  I  I3  1  0.75000000  0.25000000  0.00000000  1
  Lu  Lu4  1  0.25000000  0.75000000  0.50000000  1
  Li  Li5  1  0.49862440  0.69485803  0.97693000  1
  Li  Li6  1  0.90291733  0.81329708  0.56613706  1
  Li  Li7  1  0.60551312  0.09707188  0.08182390  1
  Ni  Ni8  1  0.29020678  0.83262575  0.56843837  1
  Ni  Ni9  1  0.79239132  0.22882721  0.55077592  1
