# generated using pymatgen
data_Li2LuAs6P4O3
_symmetry_space_group_name_H-M   'P 1'
_cell_length_a   6.85585258
_cell_length_b   6.63061781
_cell_length_c   7.57019257
_cell_angle_alpha   94.89389232
_cell_angle_beta   96.13496386
_cell_angle_gamma   94.75475919
_symmetry_Int_Tables_number   1
_chemical_formula_structural   Li2LuAs6P4O3
_chemical_formula_sum   'Li2 Lu1 As6 P4 O3'
_cell_volume   339.43809750
_cell_formula_units_Z   1
loop_
 _symmetry_equiv_pos_site_id
 _symmetry_equiv_pos_as_xyz
  1  'x, y, z'
loop_
 _atom_site_type_symbol
 _atom_site_label
 _atom_site_symmetry_multiplicity
 _atom_site_fract_x
 _atom_site_fract_y
 _atom_site_fract_z
 _atom_site_occupancy
  P  P0  1  0.12500000  0.00000000  0.25000000  1
  P  P1  1  0.00000000  0.00000000  0.00000000  1
  P  P2  1  0.37500000  0.00000000  0.25000000  1
  P  P3  1  0.25000000  0.25000000  0.25000000  1
  Lu  Lu4  1  0.00000000  0.25000000  0.12500000  1
  Li  Li5  1  0.43905227  0.71058388  0.54844163  1
  Li  Li6  1  0.03453175  0.27514689  0.66767107  1
  As  As7  1  0.51497088  0.39922845  0.86353097  1
  As  As8  1  0.25953356  0.64886490  0.09439368  1
  As  As9  1  0.16420760  0.28948026  0.21783692  1
  As  As10  1  0.00661573  0.56262726  0.81789045  1
  As  As11  1  0.62066546  0.75808584  0.99711518  1
  As  As12  1  0.11290137  0.54820144  0.42911545  1
  O  O13  1  0.10356516  0.23200127  0.09598184  1
  O  O14  1  0.37384073  0.62388902  0.67340559  1
  O  O15  1  0.13132333  0.41606309  0.14994984  1
