# generated using pymatgen
data_Li2Ti(PO)4
_symmetry_space_group_name_H-M   'P 1'
_cell_length_a   8.29494461
_cell_length_b   8.19577260
_cell_length_c   7.54473628
_cell_angle_alpha   91.41963911
_cell_angle_beta   91.68219641
_cell_angle_gamma   91.40151251
_symmetry_Int_Tables_number   1
_chemical_formula_structural   Li2Ti(PO)4
_chemical_formula_sum   'Li2 Ti1 P4 O4'
_cell_volume   512.37618041
_cell_formula_units_Z   1
loop_
 _symmetry_equiv_pos_site_id
 _symmetry_equiv_pos_as_xyz
  1  'x, y, z'
loop_
 _atom_site_type_symbol
 _atom_site_label
 _atom_site_symmetry_multiplicity
 _atom_site_fract_x
 _atom_site_fract_y
 _atom_site_fract_z
 _atom_site_occupancy
  Li  Li0  1  0.00000000  0.00000000  0.00000000  1
  Li  Li1  1  0.33300000  0.66700000  0.25000000  1
  Ti  Ti2  1  0.66700000  0.33300000  0.50000000  1
  P  P3  1  0.00000000  0.00000000  0.75000000  1
  P  P4  1  0.37645915  0.03031619  0.81705655  1
  P  P5  1  0.84535218  0.36815051  0.19048514  1
  P  P6  1  0.23873284  0.22695354  0.32557402  1
  O  O7  1  0.57679691  0.84745665  0.70247093  1
  O  O8  1  0.76195665  0.65070143  0.78906656  1
  O  O9  1  0.93181280  0.98255630  0.71022323  1
  O  O10  1  0.80905604  0.83363798  0.97625726  1
