# generated using pymatgen
data_Li2Lu(PO)4
_symmetry_space_group_name_H-M   'P 1'
_cell_length_a   7.99980460
_cell_length_b   7.91265374
_cell_length_c   7.62620865
_cell_angle_alpha   92.19799957
_cell_angle_beta   92.60451191
_cell_angle_gamma   92.16993450
_symmetry_Int_Tables_number   1
_chemical_formula_structural   Li2Lu(PO)4
_chemical_formula_sum   'Li2 Lu1 P4 O4'
_cell_volume   481.50367943
_cell_formula_units_Z   1
loop_
 _symmetry_equiv_pos_site_id
 _symmetry_equiv_pos_as_xyz
  1  'x, y, z'
loop_
 _atom_site_type_symbol
 _atom_site_label
 _atom_site_symmetry_multiplicity
 _atom_site_fract_x
 _atom_site_fract_y
 _atom_site_fract_z
 _atom_site_occupancy
  O  O0  1  0.12500000  0.12500000  0.12500000  1
  O  O1  1  0.50000000  0.50000000  0.50000000  1
  O  O2  1  0.25000000  0.25000000  0.25000000  1
  O  O3  1  0.75000000  0.75000000  0.75000000  1
  P  P4  1  0.21826389  0.95533087  0.57930102  1
  P  P5  1  0.05303169  0.03940454  0.22286972  1
  P  P6  1  0.13503761  0.44039803  0.63361193  1
  P  P7  1  0.23047911  0.10953768  0.68596410  1
  Lu  Lu8  1  0.89740799  0.11449135  0.38561569  1
  Li  Li9  1  0.81756331  0.50454244  0.11800753  1
  Li  Li10  1  0.23294990  0.92861760  0.47401121  1
