# generated using pymatgen
data_LiLuP4F2
_symmetry_space_group_name_H-M   'P 1'
_cell_length_a   6.98241212
_cell_length_b   7.00123672
_cell_length_c   7.90081725
_cell_angle_alpha   93.51795066
_cell_angle_beta   95.63974109
_cell_angle_gamma   93.70133162
_symmetry_Int_Tables_number   1
_chemical_formula_structural   LiLuP4F2
_chemical_formula_sum   'Li1 Lu1 P4 F2'
_cell_volume   382.67177794
_cell_formula_units_Z   1
loop_
 _symmetry_equiv_pos_site_id
 _symmetry_equiv_pos_as_xyz
  1  'x, y, z'
loop_
 _atom_site_type_symbol
 _atom_site_label
 _atom_site_symmetry_multiplicity
 _atom_site_fract_x
 _atom_site_fract_y
 _atom_site_fract_z
 _atom_site_occupancy
  F  F0  1  0.12500000  0.00000000  0.25000000  1
  F  F1  1  0.00000000  0.00000000  0.00000000  1
  P  P2  1  0.37500000  0.00000000  0.25000000  1
  P  P3  1  0.25000000  0.25000000  0.25000000  1
  P  P4  1  0.00000000  0.25000000  0.12500000  1
  P  P5  1  0.00729377  0.70322118  0.35768620  1
  Lu  Lu6  1  0.04610389  0.89145971  0.94509132  1
  Li  Li7  1  0.64352708  0.83818757  0.68196962  1
