# generated using pymatgen
data_LiCuAs3
_symmetry_space_group_name_H-M   'P 1'
_cell_length_a   7.95951227
_cell_length_b   7.87439871
_cell_length_c   8.35535229
_cell_angle_alpha   90.73755182
_cell_angle_beta   91.39231679
_cell_angle_gamma   90.84550978
_symmetry_Int_Tables_number   1
_chemical_formula_structural   LiCuAs3
_chemical_formula_sum   'Li2 Cu2 As6'
_cell_volume   523.42570372
_cell_formula_units_Z   2
loop_
 _symmetry_equiv_pos_site_id
 _symmetry_equiv_pos_as_xyz
  1  'x, y, z'
loop_
 _atom_site_type_symbol
 _atom_site_label
 _atom_site_symmetry_multiplicity
 _atom_site_fract_x
 _atom_site_fract_y
 _atom_site_fract_z
 _atom_site_occupancy
  Li  Li0  1  0.00000000  0.00000000  0.00000000  1
  Li  Li1  1  0.50000000  0.50000000  0.50000000  1
  Cu  Cu2  1  0.50000000  0.50000000  0.00000000  1
  Cu  Cu3  1  0.50000000  0.00000000  0.50000000  1
  As  As4  1  0.00000000  0.50000000  0.50000000  1
  As  As5  1  0.10099723  0.42309279  0.90576865  1
  As  As6  1  0.13541823  0.59178063  0.98614010  1
  As  As7  1  0.73945167  0.19246731  0.10690252  1
  As  As8  1  0.60099644  0.58188633  0.28569149  1
  As  As9  1  0.55000144  0.55915319  0.53237949  1
