# generated using pymatgen
data_Li3TiP3Cl2
_symmetry_space_group_name_H-M   'P 1'
_cell_length_a   7.39437176
_cell_length_b   7.11322051
_cell_length_c   7.01666677
_cell_angle_alpha   95.79705567
_cell_angle_beta   97.40150864
_cell_angle_gamma   95.45338235
_symmetry_Int_Tables_number   1
_chemical_formula_structural   Li3TiP3Cl2
_chemical_formula_sum   'Li3 Ti1 P3 Cl2'
_cell_volume   361.92430876
_cell_formula_units_Z   1
loop_
 _symmetry_equiv_pos_site_id
 _symmetry_equiv_pos_as_xyz
  1  'x, y, z'
loop_
 _atom_site_type_symbol
 _atom_site_label
 _atom_site_symmetry_multiplicity
 _atom_site_fract_x
 _atom_site_fract_y
 _atom_site_fract_z
 _atom_site_occupancy
  P  P0  1  0.12500000  0.12500000  0.12500000  1
  P  P1  1  0.50000000  0.50000000  0.50000000  1
  P  P2  1  0.25000000  0.25000000  0.25000000  1
  Li  Li3  1  0.75000000  0.75000000  0.75000000  1
  Li  Li4  1  0.30843213  0.88948488  0.75643079  1
  Li  Li5  1  0.02543372  0.41424994  0.52642487  1
  Cl  Cl6  1  0.74380482  0.29239292  0.76772496  1
  Cl  Cl7  1  0.39302269  0.02486279  0.18375993  1
  Ti  Ti8  1  0.44133638  0.28685365  0.09290140  1
