# generated using pymatgen
data_Li2Mn2Sb4P2N5
_symmetry_space_group_name_H-M   'P 1'
_cell_length_a   6.23112446
_cell_length_b   6.67056113
_cell_length_c   7.27188001
_cell_angle_alpha   95.76639573
_cell_angle_beta   95.73653011
_cell_angle_gamma   93.91094653
_symmetry_Int_Tables_number   1
_chemical_formula_structural   Li2Mn2Sb4P2N5
_chemical_formula_sum   'Li2 Mn2 Sb4 P2 N5'
_cell_volume   298.28470740
_cell_formula_units_Z   1
loop_
 _symmetry_equiv_pos_site_id
 _symmetry_equiv_pos_as_xyz
  1  'x, y, z'
loop_
 _atom_site_type_symbol
 _atom_site_label
 _atom_site_symmetry_multiplicity
 _atom_site_fract_x
 _atom_site_fract_y
 _atom_site_fract_z
 _atom_site_occupancy
  N  N0  1  0.12500000  0.00000000  0.25000000  1
  N  N1  1  0.00000000  0.00000000  0.00000000  1
  N  N2  1  0.37500000  0.00000000  0.25000000  1
  N  N3  1  0.25000000  0.25000000  0.25000000  1
  N  N4  1  0.00000000  0.25000000  0.12500000  1
  Mn  Mn5  1  0.52976519  0.39946799  0.32263538  1
  Mn  Mn6  1  0.68314310  0.34552241  0.36308047  1
  Sb  Sb7  1  0.02085796  0.23707750  0.01021070  1
  Sb  Sb8  1  0.91509762  0.42697864  0.54389244  1
  Sb  Sb9  1  0.61919733  0.04139907  0.97352010  1
  Sb  Sb10  1  0.04065036  0.67709660  0.88038085  1
  P  P11  1  0.11463401  0.34493916  0.15789353  1
  P  P12  1  0.57619120  0.44789346  0.96791793  1
  Li  Li13  1  0.00314854  0.36553836  0.39156291  1
  Li  Li14  1  0.93843233  0.30381191  0.82345515  1
