# generated using pymatgen
data_Li2TiCu2P4F2
_symmetry_space_group_name_H-M   'P 1'
_cell_length_a   6.85905242
_cell_length_b   6.76973071
_cell_length_c   7.40539869
_cell_angle_alpha   93.28186770
_cell_angle_beta   94.82518966
_cell_angle_gamma   92.87581735
_symmetry_Int_Tables_number   1
_chemical_formula_structural   Li2TiCu2P4F2
_chemical_formula_sum   'Li2 Ti1 Cu2 P4 F2'
_cell_volume   341.55827844
_cell_formula_units_Z   1
loop_
 _symmetry_equiv_pos_site_id
 _symmetry_equiv_pos_as_xyz
  1  'x, y, z'
loop_
 _atom_site_type_symbol
 _atom_site_label
 _atom_site_symmetry_multiplicity
 _atom_site_fract_x
 _atom_site_fract_y
 _atom_site_fract_z
 _atom_site_occupancy
  P  P0  1  0.00000000  0.00000000  0.00000000  1
  P  P1  1  0.50000000  0.50000000  0.50000000  1
  P  P2  1  0.25000000  0.25000000  0.25000000  1
  P  P3  1  0.75000000  0.25000000  0.00000000  1
  Li  Li4  1  0.25000000  0.75000000  0.50000000  1
  Li  Li5  1  0.52552513  0.99891778  0.27250524  1
  Cu  Cu6  1  0.02546615  0.37283226  0.07175662  1
  Cu  Cu7  1  0.41436509  0.93823802  0.14979517  1
  F  F8  1  0.32090162  0.49830327  0.42050519  1
  F  F9  1  0.53144469  0.00245253  0.99795147  1
  Ti  Ti10  1  0.50048945  0.80614592  0.28641747  1
