# generated using pymatgen
data_LiLuCu2(As3I2)2
_symmetry_space_group_name_H-M   'P 1'
_cell_length_a   7.24863298
_cell_length_b   7.18287418
_cell_length_c   7.98543541
_cell_angle_alpha   91.82336037
_cell_angle_beta   93.53475960
_cell_angle_gamma   92.13291501
_symmetry_Int_Tables_number   1
_chemical_formula_structural   LiLuCu2(As3I2)2
_chemical_formula_sum   'Li1 Lu1 Cu2 As6 I4'
_cell_volume   414.44874013
_cell_formula_units_Z   1
loop_
 _symmetry_equiv_pos_site_id
 _symmetry_equiv_pos_as_xyz
  1  'x, y, z'
loop_
 _atom_site_type_symbol
 _atom_site_label
 _atom_site_symmetry_multiplicity
 _atom_site_fract_x
 _atom_site_fract_y
 _atom_site_fract_z
 _atom_site_occupancy
  I  I0  1  0.00000000  0.00000000  0.00000000  1
  I  I1  1  0.50000000  0.50000000  0.50000000  1
  I  I2  1  0.50000000  0.50000000  0.00000000  1
  I  I3  1  0.50000000  0.00000000  0.50000000  1
  Lu  Lu4  1  0.00000000  0.50000000  0.50000000  1
  Li  Li5  1  0.30171534  0.70788999  0.24668269  1
  Cu  Cu6  1  0.43069213  0.61274859  0.38561994  1
  Cu  Cu7  1  0.49789592  0.70708144  0.37293132  1
  As  As8  1  0.23879579  0.13817219  0.51595638  1
  As  As9  1  0.35948411  0.56875249  0.62421555  1
  As  As10  1  0.71060132  0.28262881  0.20675067  1
  As  As11  1  0.62247516  0.22785105  0.33049065  1
  As  As12  1  0.27429504  0.79367449  0.27057819  1
  As  As13  1  0.61803247  0.42419158  0.00640974  1
