# generated using pymatgen
data_Li2TiAs6P3O2
_symmetry_space_group_name_H-M   'P 1'
_cell_length_a   6.94514476
_cell_length_b   6.91184467
_cell_length_c   7.82592185
_cell_angle_alpha   92.73274777
_cell_angle_beta   94.15441505
_cell_angle_gamma   92.53553637
_symmetry_Int_Tables_number   1
_chemical_formula_structural   Li2TiAs6P3O2
_chemical_formula_sum   'Li2 Ti1 As6 P3 O2'
_cell_volume   373.83136453
_cell_formula_units_Z   1
loop_
 _symmetry_equiv_pos_site_id
 _symmetry_equiv_pos_as_xyz
  1  'x, y, z'
loop_
 _atom_site_type_symbol
 _atom_site_label
 _atom_site_symmetry_multiplicity
 _atom_site_fract_x
 _atom_site_fract_y
 _atom_site_fract_z
 _atom_site_occupancy
  P  P0  1  0.12500000  0.00000000  0.25000000  1
  P  P1  1  0.00000000  0.00000000  0.00000000  1
  P  P2  1  0.37500000  0.00000000  0.25000000  1
  Li  Li3  1  0.25000000  0.25000000  0.25000000  1
  Li  Li4  1  0.00000000  0.25000000  0.12500000  1
  Ti  Ti5  1  0.23148880  0.78675652  0.20592088  1
  As  As6  1  0.11974161  0.34316872  0.90492781  1
  As  As7  1  0.43523270  0.56369478  0.46943865  1
  As  As8  1  0.72428939  0.81127373  0.43465253  1
  As  As9  1  0.58464645  0.37752852  0.61735816  1
  As  As10  1  0.90656738  0.83820997  0.64368842  1
  As  As11  1  0.55524639  0.57276966  0.14826085  1
  O  O12  1  0.46546652  0.16662790  0.50650446  1
  O  O13  1  0.18994409  0.65503607  0.70462898  1
