# generated using pymatgen
data_Li2Lu(As3P2)2
_symmetry_space_group_name_H-M   'P 1'
_cell_length_a   7.32779949
_cell_length_b   7.22045152
_cell_length_c   7.92969533
_cell_angle_alpha   93.18626271
_cell_angle_beta   93.82305787
_cell_angle_gamma   93.19791318
_symmetry_Int_Tables_number   1
_chemical_formula_structural   Li2Lu(As3P2)2
_chemical_formula_sum   'Li2 Lu1 As6 P4'
_cell_volume   417.23363300
_cell_formula_units_Z   1
loop_
 _symmetry_equiv_pos_site_id
 _symmetry_equiv_pos_as_xyz
  1  'x, y, z'
loop_
 _atom_site_type_symbol
 _atom_site_label
 _atom_site_symmetry_multiplicity
 _atom_site_fract_x
 _atom_site_fract_y
 _atom_site_fract_z
 _atom_site_occupancy
  P  P0  1  0.00000000  0.00000000  0.00000000  1
  P  P1  1  0.50000000  0.50000000  0.50000000  1
  P  P2  1  0.25000000  0.25000000  0.25000000  1
  P  P3  1  0.75000000  0.25000000  0.00000000  1
  Lu  Lu4  1  0.25000000  0.75000000  0.50000000  1
  As  As5  1  0.99022264  0.57247881  0.69113052  1
  As  As6  1  0.19119213  0.98250832  0.60042919  1
  As  As7  1  0.99094904  0.91177233  0.99178727  1
  As  As8  1  0.85728542  0.83206834  0.09493446  1
  As  As9  1  0.00219374  0.88456135  0.90383495  1
  As  As10  1  0.04387490  0.30182378  0.90958690  1
  Li  Li11  1  0.28297042  0.09939711  0.88557188  1
  Li  Li12  1  0.66077291  0.03465166  0.01487368  1
