# generated using pymatgen
data_Li3TiP3Se
_symmetry_space_group_name_H-M   'P 1'
_cell_length_a   6.94364694
_cell_length_b   6.77568138
_cell_length_c   7.47791072
_cell_angle_alpha   96.11735228
_cell_angle_beta   97.55019389
_cell_angle_gamma   95.88653166
_symmetry_Int_Tables_number   1
_chemical_formula_structural   Li3TiP3Se
_chemical_formula_sum   'Li3 Ti1 P3 Se1'
_cell_volume   344.35082358
_cell_formula_units_Z   1
loop_
 _symmetry_equiv_pos_site_id
 _symmetry_equiv_pos_as_xyz
  1  'x, y, z'
loop_
 _atom_site_type_symbol
 _atom_site_label
 _atom_site_symmetry_multiplicity
 _atom_site_fract_x
 _atom_site_fract_y
 _atom_site_fract_z
 _atom_site_occupancy
  P  P0  1  0.12500000  0.12500000  0.12500000  1
  P  P1  1  0.50000000  0.50000000  0.50000000  1
  P  P2  1  0.25000000  0.25000000  0.25000000  1
  Li  Li3  1  0.75000000  0.75000000  0.75000000  1
  Li  Li4  1  0.32000154  0.11330544  0.21290344  1
  Li  Li5  1  0.33255041  0.19784741  0.00128713  1
  Se  Se6  1  0.45463529  0.99286684  0.26670188  1
  Ti  Ti7  1  0.29034860  0.25005313  0.75313241  1
