# generated using pymatgen
data_Li2LuAs6P4N5
_symmetry_space_group_name_H-M   'P 1'
_cell_length_a   7.36738017
_cell_length_b   7.16741075
_cell_length_c   8.22745063
_cell_angle_alpha   92.92624466
_cell_angle_beta   92.64607937
_cell_angle_gamma   93.10782456
_symmetry_Int_Tables_number   1
_chemical_formula_structural   Li2LuAs6P4N5
_chemical_formula_sum   'Li2 Lu1 As6 P4 N5'
_cell_volume   432.72432743
_cell_formula_units_Z   1
loop_
 _symmetry_equiv_pos_site_id
 _symmetry_equiv_pos_as_xyz
  1  'x, y, z'
loop_
 _atom_site_type_symbol
 _atom_site_label
 _atom_site_symmetry_multiplicity
 _atom_site_fract_x
 _atom_site_fract_y
 _atom_site_fract_z
 _atom_site_occupancy
  P  P0  1  0.00000000  0.00000000  0.00000000  1
  P  P1  1  0.50000000  0.50000000  0.50000000  1
  P  P2  1  0.50000000  0.50000000  0.00000000  1
  P  P3  1  0.50000000  0.00000000  0.50000000  1
  Lu  Lu4  1  0.00000000  0.50000000  0.50000000  1
  Li  Li5  1  0.01493343  0.39981058  0.38845079  1
  Li  Li6  1  0.04325069  0.74457672  0.64112722  1
  As  As7  1  0.21348171  0.02766707  0.68863214  1
  As  As8  1  0.87391660  0.05525384  0.15989148  1
  As  As9  1  0.76312659  0.34212821  0.36747256  1
  As  As10  1  0.00902393  0.80533811  0.96887553  1
  As  As11  1  0.36436625  0.98412209  0.42852798  1
  As  As12  1  0.25104549  0.60374387  0.99913607  1
  N  N13  1  0.71068470  0.66006270  0.65019856  1
  N  N14  1  0.88419546  0.71679739  0.33343105  1
  N  N15  1  0.72668369  0.47309558  0.96189560  1
  N  N16  1  0.60768021  0.14888689  0.83093378  1
  N  N17  1  0.76744630  0.45707830  0.41575362  1
