# generated using pymatgen
data_Li3TiP3I4O3
_symmetry_space_group_name_H-M   'P 1'
_cell_length_a   7.77765393
_cell_length_b   7.56349881
_cell_length_c   7.22706762
_cell_angle_alpha   92.36506114
_cell_angle_beta   92.71369151
_cell_angle_gamma   92.13570897
_symmetry_Int_Tables_number   1
_chemical_formula_structural   Li3TiP3I4O3
_chemical_formula_sum   'Li3 Ti1 P3 I4 O3'
_cell_volume   423.97522497
_cell_formula_units_Z   1
loop_
 _symmetry_equiv_pos_site_id
 _symmetry_equiv_pos_as_xyz
  1  'x, y, z'
loop_
 _atom_site_type_symbol
 _atom_site_label
 _atom_site_symmetry_multiplicity
 _atom_site_fract_x
 _atom_site_fract_y
 _atom_site_fract_z
 _atom_site_occupancy
  I  I0  1  0.00000000  0.00000000  0.00000000  1
  I  I1  1  0.50000000  0.50000000  0.50000000  1
  I  I2  1  0.50000000  0.50000000  0.00000000  1
  I  I3  1  0.50000000  0.00000000  0.50000000  1
  P  P4  1  0.00000000  0.50000000  0.50000000  1
  P  P5  1  0.93877602  0.95430546  0.51329802  1
  P  P6  1  0.86915125  0.99273170  0.70071823  1
  Li  Li7  1  0.74964056  0.20775206  0.63271181  1
  Li  Li8  1  0.51046121  0.62909266  0.63166093  1
  Li  Li9  1  0.11847043  0.49497196  0.05577003  1
  Ti  Ti10  1  0.31157616  0.65847177  0.46150481  1
  O  O11  1  0.49548361  0.24936545  0.05893238  1
  O  O12  1  0.03958028  0.91558767  0.07243299  1
  O  O13  1  0.64488543  0.82942146  0.06731315  1
