# generated using pymatgen
data_Li3LuCu2(PN)5
_symmetry_space_group_name_H-M   'P 1'
_cell_length_a   7.35012949
_cell_length_b   7.15755788
_cell_length_c   8.37845375
_cell_angle_alpha   93.57132867
_cell_angle_beta   93.13025394
_cell_angle_gamma   93.77445763
_symmetry_Int_Tables_number   1
_chemical_formula_structural   Li3LuCu2(PN)5
_chemical_formula_sum   'Li3 Lu1 Cu2 P5 N5'
_cell_volume   438.20829178
_cell_formula_units_Z   1
loop_
 _symmetry_equiv_pos_site_id
 _symmetry_equiv_pos_as_xyz
  1  'x, y, z'
loop_
 _atom_site_type_symbol
 _atom_site_label
 _atom_site_symmetry_multiplicity
 _atom_site_fract_x
 _atom_site_fract_y
 _atom_site_fract_z
 _atom_site_occupancy
  P  P0  1  0.12500000  0.00000000  0.25000000  1
  P  P1  1  0.00000000  0.00000000  0.00000000  1
  P  P2  1  0.37500000  0.00000000  0.25000000  1
  P  P3  1  0.25000000  0.25000000  0.25000000  1
  P  P4  1  0.00000000  0.25000000  0.12500000  1
  Lu  Lu5  1  0.83843762  0.40534516  0.72459744  1
  Li  Li6  1  0.22250387  0.85623013  0.35206170  1
  Li  Li7  1  0.55440463  0.42410828  0.05258603  1
  Li  Li8  1  0.69140711  0.23141149  0.38488316  1
  Cu  Cu9  1  0.61586935  0.02989675  0.43592414  1
  Cu  Cu10  1  0.23754973  0.86331167  0.84757920  1
  N  N11  1  0.69898510  0.04533500  0.28330104  1
  N  N12  1  0.27011816  0.50779145  0.96323109  1
  N  N13  1  0.15976937  0.22230756  0.70742681  1
  N  N14  1  0.25414403  0.40816433  0.92585267  1
  N  N15  1  0.68608740  0.82067604  0.50645939  1
