# generated using pymatgen
data_Li2TiAs6(IO)4
_symmetry_space_group_name_H-M   'P 1'
_cell_length_a   8.12629793
_cell_length_b   8.16914853
_cell_length_c   7.93453714
_cell_angle_alpha   90.25115108
_cell_angle_beta   91.19490056
_cell_angle_gamma   90.28713275
_symmetry_Int_Tables_number   1
_chemical_formula_structural   Li2TiAs6(IO)4
_chemical_formula_sum   'Li2 Ti1 As6 I4 O4'
_cell_volume   526.60727044
_cell_formula_units_Z   1
loop_
 _symmetry_equiv_pos_site_id
 _symmetry_equiv_pos_as_xyz
  1  'x, y, z'
loop_
 _atom_site_type_symbol
 _atom_site_label
 _atom_site_symmetry_multiplicity
 _atom_site_fract_x
 _atom_site_fract_y
 _atom_site_fract_z
 _atom_site_occupancy
  Li  Li0  1  0.00000000  0.00000000  0.00000000  1
  Li  Li1  1  0.50000000  0.50000000  0.50000000  1
  Ti  Ti2  1  0.25000000  0.25000000  0.25000000  1
  I  I3  1  0.75000000  0.25000000  0.00000000  1
  I  I4  1  0.25000000  0.75000000  0.50000000  1
  I  I5  1  0.43331552  0.45639094  0.04932938  1
  I  I6  1  0.80924706  0.99074423  0.26610481  1
  As  As7  1  0.11751523  0.80607692  0.53550794  1
  As  As8  1  0.79167412  0.27311569  0.31535168  1
  As  As9  1  0.62736742  0.41179429  0.77486037  1
  As  As10  1  0.73201855  0.83980611  0.00462993  1
  As  As11  1  0.57548038  0.89363817  0.98640240  1
  As  As12  1  0.30073412  0.75402125  0.29755288  1
  O  O13  1  0.74375887  0.57850114  0.56424601  1
  O  O14  1  0.11972963  0.17766358  0.36336370  1
  O  O15  1  0.90734505  0.88600687  0.18227038  1
  O  O16  1  0.64110485  0.90128855  0.97848291  1
