# generated using pymatgen
data_Li2Zn2I4O3
_symmetry_space_group_name_H-M   'P 1'
_cell_length_a   7.17936346
_cell_length_b   7.09603550
_cell_length_c   7.05327494
_cell_angle_alpha   92.86733012
_cell_angle_beta   93.99102401
_cell_angle_gamma   92.63591917
_symmetry_Int_Tables_number   1
_chemical_formula_structural   Li2Zn2I4O3
_chemical_formula_sum   'Li2 Zn2 I4 O3'
_cell_volume   357.56745971
_cell_formula_units_Z   1
loop_
 _symmetry_equiv_pos_site_id
 _symmetry_equiv_pos_as_xyz
  1  'x, y, z'
loop_
 _atom_site_type_symbol
 _atom_site_label
 _atom_site_symmetry_multiplicity
 _atom_site_fract_x
 _atom_site_fract_y
 _atom_site_fract_z
 _atom_site_occupancy
  I  I0  1  0.00000000  0.00000000  0.00000000  1
  I  I1  1  0.50000000  0.50000000  0.50000000  1
  I  I2  1  0.25000000  0.25000000  0.25000000  1
  I  I3  1  0.75000000  0.25000000  0.00000000  1
  Li  Li4  1  0.25000000  0.75000000  0.50000000  1
  Li  Li5  1  0.83026495  0.11660341  0.22320375  1
  Zn  Zn6  1  0.95204296  0.41682338  0.50130687  1
  Zn  Zn7  1  0.28908232  0.05935739  0.39319444  1
  O  O8  1  0.09319743  0.66237713  0.09294265  1
  O  O9  1  0.69262618  0.46097441  0.95534365  1
  O  O10  1  0.28484506  0.91951643  0.68015142  1
