# generated using pymatgen
data_Li2LuTiP3Cl2
_symmetry_space_group_name_H-M   'P 1'
_cell_length_a   6.71643997
_cell_length_b   6.48814687
_cell_length_c   7.12358806
_cell_angle_alpha   97.97881188
_cell_angle_beta   100.12051841
_cell_angle_gamma   97.53937887
_symmetry_Int_Tables_number   1
_chemical_formula_structural   Li2LuTiP3Cl2
_chemical_formula_sum   'Li2 Lu1 Ti1 P3 Cl2'
_cell_volume   298.75847030
_cell_formula_units_Z   1
loop_
 _symmetry_equiv_pos_site_id
 _symmetry_equiv_pos_as_xyz
  1  'x, y, z'
loop_
 _atom_site_type_symbol
 _atom_site_label
 _atom_site_symmetry_multiplicity
 _atom_site_fract_x
 _atom_site_fract_y
 _atom_site_fract_z
 _atom_site_occupancy
  Cl  Cl0  1  0.00000000  0.00000000  0.00000000  1
  Cl  Cl1  1  0.50000000  0.50000000  0.50000000  1
  Ti  Ti2  1  0.50000000  0.50000000  0.00000000  1
  P  P3  1  0.50000000  0.00000000  0.50000000  1
  P  P4  1  0.00000000  0.50000000  0.50000000  1
  P  P5  1  0.42162897  0.15550488  0.12512005  1
  Lu  Lu6  1  0.99682139  0.08670593  0.98096813  1
  Li  Li7  1  0.14485693  0.83870863  0.32022615  1
  Li  Li8  1  0.50311102  0.03702625  0.93440509  1
