# generated using pymatgen
data_Li4TiP3SeCl2
_symmetry_space_group_name_H-M   'P 1'
_cell_length_a   6.65282009
_cell_length_b   6.28918187
_cell_length_c   6.82109780
_cell_angle_alpha   98.78468099
_cell_angle_beta   101.21601999
_cell_angle_gamma   98.26388894
_symmetry_Int_Tables_number   1
_chemical_formula_structural   Li4TiP3SeCl2
_chemical_formula_sum   'Li4 Ti1 P3 Se1 Cl2'
_cell_volume   272.20115892
_cell_formula_units_Z   1
loop_
 _symmetry_equiv_pos_site_id
 _symmetry_equiv_pos_as_xyz
  1  'x, y, z'
loop_
 _atom_site_type_symbol
 _atom_site_label
 _atom_site_symmetry_multiplicity
 _atom_site_fract_x
 _atom_site_fract_y
 _atom_site_fract_z
 _atom_site_occupancy
  P  P0  1  0.00000000  0.00000000  0.00000000  1
  P  P1  1  0.50000000  0.50000000  0.50000000  1
  P  P2  1  0.50000000  0.50000000  0.00000000  1
  Li  Li3  1  0.50000000  0.00000000  0.50000000  1
  Li  Li4  1  0.00000000  0.50000000  0.50000000  1
  Li  Li5  1  0.44708074  0.62498753  0.95899785  1
  Li  Li6  1  0.42561111  0.66367066  0.35657457  1
  Se  Se7  1  0.39108013  0.99465462  0.18521556  1
  Cl  Cl8  1  0.35190584  0.99127140  0.55485337  1
  Cl  Cl9  1  0.86170433  0.77270645  0.58736843  1
  Ti  Ti10  1  0.82337180  0.09761758  0.90730275  1
