# generated using pymatgen
data_LiTi(I2F)2
_symmetry_space_group_name_H-M   'P 1'
_cell_length_a   7.36089471
_cell_length_b   7.30743509
_cell_length_c   7.81488469
_cell_angle_alpha   91.53047708
_cell_angle_beta   93.55950159
_cell_angle_gamma   91.82732898
_symmetry_Int_Tables_number   1
_chemical_formula_structural   LiTi(I2F)2
_chemical_formula_sum   'Li1 Ti1 I4 F2'
_cell_volume   419.15914525
_cell_formula_units_Z   1
loop_
 _symmetry_equiv_pos_site_id
 _symmetry_equiv_pos_as_xyz
  1  'x, y, z'
loop_
 _atom_site_type_symbol
 _atom_site_label
 _atom_site_symmetry_multiplicity
 _atom_site_fract_x
 _atom_site_fract_y
 _atom_site_fract_z
 _atom_site_occupancy
  I  I0  1  0.00000000  0.00000000  0.00000000  1
  I  I1  1  0.50000000  0.50000000  0.50000000  1
  I  I2  1  0.50000000  0.50000000  0.00000000  1
  I  I3  1  0.50000000  0.00000000  0.50000000  1
  Li  Li4  1  0.00000000  0.50000000  0.50000000  1
  F  F5  1  0.65541363  0.79909508  0.94385639  1
  F  F6  1  0.38966654  0.89997407  0.25823138  1
  Ti  Ti7  1  0.88690804  0.79273311  0.52929492  1
