# generated using pymatgen
data_Li2TiCu2I4F3
_symmetry_space_group_name_H-M   'P 1'
_cell_length_a   7.72409495
_cell_length_b   7.67004954
_cell_length_c   8.11677445
_cell_angle_alpha   90.39818115
_cell_angle_beta   92.18713001
_cell_angle_gamma   90.44528837
_symmetry_Int_Tables_number   1
_chemical_formula_structural   Li2TiCu2I4F3
_chemical_formula_sum   'Li2 Ti1 Cu2 I4 F3'
_cell_volume   480.49428065
_cell_formula_units_Z   1
loop_
 _symmetry_equiv_pos_site_id
 _symmetry_equiv_pos_as_xyz
  1  'x, y, z'
loop_
 _atom_site_type_symbol
 _atom_site_label
 _atom_site_symmetry_multiplicity
 _atom_site_fract_x
 _atom_site_fract_y
 _atom_site_fract_z
 _atom_site_occupancy
  I  I0  1  0.00000000  0.00000000  0.00000000  1
  I  I1  1  0.50000000  0.50000000  0.50000000  1
  I  I2  1  0.25000000  0.25000000  0.25000000  1
  I  I3  1  0.75000000  0.25000000  0.00000000  1
  Li  Li4  1  0.25000000  0.75000000  0.50000000  1
  Li  Li5  1  0.22675869  0.28119779  0.61752711  1
  Cu  Cu6  1  0.02613433  0.91442555  0.10191363  1
  Cu  Cu7  1  0.61677412  0.97345359  0.54829628  1
  F  F8  1  0.76867222  0.04346443  0.91806686  1
  F  F9  1  0.91637272  0.14637661  0.28603180  1
  F  F10  1  0.42159987  0.01845302  0.44472624  1
  Ti  Ti11  1  0.13406355  0.84539332  0.89392750  1
