# generated using pymatgen
data_Li2MnSb4Mo2P3
_symmetry_space_group_name_H-M   'P 1'
_cell_length_a   6.09925483
_cell_length_b   6.59887910
_cell_length_c   7.13756852
_cell_angle_alpha   94.82325556
_cell_angle_beta   93.31000396
_cell_angle_gamma   95.15472798
_symmetry_Int_Tables_number   1
_chemical_formula_structural   Li2MnSb4Mo2P3
_chemical_formula_sum   'Li2 Mn1 Sb4 Mo2 P3'
_cell_volume   284.48191773
_cell_formula_units_Z   1
loop_
 _symmetry_equiv_pos_site_id
 _symmetry_equiv_pos_as_xyz
  1  'x, y, z'
loop_
 _atom_site_type_symbol
 _atom_site_label
 _atom_site_symmetry_multiplicity
 _atom_site_fract_x
 _atom_site_fract_y
 _atom_site_fract_z
 _atom_site_occupancy
  Mn  Mn0  1  0.12500000  0.00000000  0.25000000  1
  Sb  Sb1  1  0.00000000  0.00000000  0.00000000  1
  Sb  Sb2  1  0.37500000  0.00000000  0.25000000  1
  Sb  Sb3  1  0.25000000  0.25000000  0.25000000  1
  Sb  Sb4  1  0.00000000  0.25000000  0.12500000  1
  P  P5  1  0.06181576  0.80292701  0.18455397  1
  P  P6  1  0.96488663  0.65845648  0.83041917  1
  P  P7  1  0.83094775  0.77818865  0.37195517  1
  Mo  Mo8  1  0.87589600  0.67752458  0.44523731  1
  Mo  Mo9  1  0.68194040  0.21472427  0.93580848  1
  Li  Li10  1  0.54214892  0.50879118  0.84996228  1
  Li  Li11  1  0.73022577  0.13814072  0.95224187  1
