# generated using pymatgen
data_Li2LuCu2(AsP)6
_symmetry_space_group_name_H-M   'P 1'
_cell_length_a   6.88251764
_cell_length_b   6.62760652
_cell_length_c   7.78273959
_cell_angle_alpha   95.66541797
_cell_angle_beta   97.23043717
_cell_angle_gamma   95.45510582
_symmetry_Int_Tables_number   1
_chemical_formula_structural   Li2LuCu2(AsP)6
_chemical_formula_sum   'Li2 Lu1 Cu2 As6 P6'
_cell_volume   348.37968367
_cell_formula_units_Z   1
loop_
 _symmetry_equiv_pos_site_id
 _symmetry_equiv_pos_as_xyz
  1  'x, y, z'
loop_
 _atom_site_type_symbol
 _atom_site_label
 _atom_site_symmetry_multiplicity
 _atom_site_fract_x
 _atom_site_fract_y
 _atom_site_fract_z
 _atom_site_occupancy
  P  P0  1  0.00000000  0.00000000  0.00000000  1
  P  P1  1  0.50000000  0.50000000  0.50000000  1
  P  P2  1  0.50000000  0.50000000  0.00000000  1
  P  P3  1  0.50000000  0.00000000  0.50000000  1
  P  P4  1  0.00000000  0.50000000  0.50000000  1
  P  P5  1  0.17144155  0.77241394  0.57333133  1
  Lu  Lu6  1  0.70436938  0.07573621  0.10565846  1
  Li  Li7  1  0.25457853  0.67203078  0.21509141  1
  Li  Li8  1  0.43266365  0.12878827  0.00743441  1
  Cu  Cu9  1  0.15086094  0.10262899  0.46672461  1
  Cu  Cu10  1  0.09525585  0.93029756  0.25959017  1
  As  As11  1  0.93870701  0.05103818  0.53246238  1
  As  As12  1  0.86931095  0.49376173  0.34997377  1
  As  As13  1  0.07076711  0.92822605  0.41137657  1
  As  As14  1  0.84034649  0.44000608  0.45720120  1
  As  As15  1  0.80346227  0.55324543  0.65754876  1
  As  As16  1  0.36007154  0.31772361  0.87644508  1
