# generated using pymatgen
data_Li3TiI4O3
_symmetry_space_group_name_H-M   'P 1'
_cell_length_a   8.00098276
_cell_length_b   7.84354578
_cell_length_c   7.22827661
_cell_angle_alpha   92.90101720
_cell_angle_beta   93.84969803
_cell_angle_gamma   92.72725838
_symmetry_Int_Tables_number   1
_chemical_formula_structural   Li3TiI4O3
_chemical_formula_sum   'Li3 Ti1 I4 O3'
_cell_volume   451.42276756
_cell_formula_units_Z   1
loop_
 _symmetry_equiv_pos_site_id
 _symmetry_equiv_pos_as_xyz
  1  'x, y, z'
loop_
 _atom_site_type_symbol
 _atom_site_label
 _atom_site_symmetry_multiplicity
 _atom_site_fract_x
 _atom_site_fract_y
 _atom_site_fract_z
 _atom_site_occupancy
  I  I0  1  0.00000000  0.00000000  0.00000000  1
  I  I1  1  0.50000000  0.50000000  0.50000000  1
  I  I2  1  0.25000000  0.25000000  0.25000000  1
  I  I3  1  0.75000000  0.25000000  0.00000000  1
  Li  Li4  1  0.25000000  0.75000000  0.50000000  1
  Li  Li5  1  0.79025417  0.25116698  0.31650309  1
  Li  Li6  1  0.11470361  0.81471096  0.83872157  1
  Ti  Ti7  1  0.69186841  0.87494806  0.29167011  1
  O  O8  1  0.36367669  0.61157579  0.64359834  1
  O  O9  1  0.23372242  0.25311424  0.93219183  1
  O  O10  1  0.12827052  0.41782051  0.15123435  1
