# generated using pymatgen
data_Li2MnSb4P3
_symmetry_space_group_name_H-M   'P 1'
_cell_length_a   5.80079439
_cell_length_b   6.28955267
_cell_length_c   7.35054748
_cell_angle_alpha   94.67132518
_cell_angle_beta   95.53361630
_cell_angle_gamma   95.31654482
_symmetry_Int_Tables_number   1
_chemical_formula_structural   Li2MnSb4P3
_chemical_formula_sum   'Li2 Mn1 Sb4 P3'
_cell_volume   264.67483023
_cell_formula_units_Z   1
loop_
 _symmetry_equiv_pos_site_id
 _symmetry_equiv_pos_as_xyz
  1  'x, y, z'
loop_
 _atom_site_type_symbol
 _atom_site_label
 _atom_site_symmetry_multiplicity
 _atom_site_fract_x
 _atom_site_fract_y
 _atom_site_fract_z
 _atom_site_occupancy
  Mn  Mn0  1  0.00000000  0.00000000  0.00000000  1
  Sb  Sb1  1  0.50000000  0.50000000  0.50000000  1
  Sb  Sb2  1  0.50000000  0.50000000  0.00000000  1
  Sb  Sb3  1  0.50000000  0.00000000  0.50000000  1
  Sb  Sb4  1  0.00000000  0.50000000  0.50000000  1
  P  P5  1  0.77424489  0.29079497  0.34827050  1
  P  P6  1  0.03338050  0.64553258  0.32600186  1
  P  P7  1  0.50766022  0.11742497  0.56244518  1
  Li  Li8  1  0.64464120  0.91064236  0.45442953  1
  Li  Li9  1  0.68243873  0.45847187  0.44515340  1
