# generated using pymatgen
data_LiTiTe6S3O
_symmetry_space_group_name_H-M   'P 1'
_cell_length_a   8.02265465
_cell_length_b   8.07877431
_cell_length_c   7.56161026
_cell_angle_alpha   90.29492661
_cell_angle_beta   91.40317123
_cell_angle_gamma   90.33717986
_symmetry_Int_Tables_number   1
_chemical_formula_structural   LiTiTe6S3O
_chemical_formula_sum   'Li1 Ti1 Te6 S3 O1'
_cell_volume   489.92997281
_cell_formula_units_Z   1
loop_
 _symmetry_equiv_pos_site_id
 _symmetry_equiv_pos_as_xyz
  1  'x, y, z'
loop_
 _atom_site_type_symbol
 _atom_site_label
 _atom_site_symmetry_multiplicity
 _atom_site_fract_x
 _atom_site_fract_y
 _atom_site_fract_z
 _atom_site_occupancy
  Li  Li0  1  0.00000000  0.00000000  0.00000000  1
  Te  Te1  1  0.50000000  0.50000000  0.50000000  1
  Te  Te2  1  0.50000000  0.50000000  0.00000000  1
  Te  Te3  1  0.50000000  0.00000000  0.50000000  1
  Te  Te4  1  0.00000000  0.50000000  0.50000000  1
  Te  Te5  1  0.96736839  0.00021361  0.12192993  1
  Te  Te6  1  0.61957568  0.78796980  0.50293712  1
  Ti  Ti7  1  0.51312936  0.20584244  0.14228451  1
  S  S8  1  0.80527628  0.11475927  0.97238881  1
  S  S9  1  0.75291541  0.05867015  0.99758357  1
  S  S10  1  0.76509359  0.50999926  0.85334395  1
  O  O11  1  0.75888671  0.41046679  0.80957470  1
