# generated using pymatgen
data_Li2Mn2Sb4P3
_symmetry_space_group_name_H-M   'P 1'
_cell_length_a   5.05122731
_cell_length_b   5.33971114
_cell_length_c   6.27079966
_cell_angle_alpha   101.73571408
_cell_angle_beta   90.83211886
_cell_angle_gamma   101.53652733
_symmetry_Int_Tables_number   1
_chemical_formula_structural   Li2Mn2Sb4P3
_chemical_formula_sum   'Li2 Mn2 Sb4 P3'
_cell_volume   161.98659662
_cell_formula_units_Z   1
loop_
 _symmetry_equiv_pos_site_id
 _symmetry_equiv_pos_as_xyz
  1  'x, y, z'
loop_
 _atom_site_type_symbol
 _atom_site_label
 _atom_site_symmetry_multiplicity
 _atom_site_fract_x
 _atom_site_fract_y
 _atom_site_fract_z
 _atom_site_occupancy
  Mn  Mn0  1  0.00000000  0.00000000  0.00000000  1
  Mn  Mn1  1  0.33300000  0.66700000  0.25000000  1
  Sb  Sb2  1  0.66700000  0.33300000  0.50000000  1
  Sb  Sb3  1  0.00000000  0.00000000  0.75000000  1
  Sb  Sb4  1  0.45993782  0.44888423  0.66775940  1
  Sb  Sb5  1  0.40564771  0.04618248  0.49257636  1
  P  P6  1  0.45870849  0.80410656  0.17752715  1
  P  P7  1  0.92420177  0.97617551  0.79559725  1
  P  P8  1  0.05412713  0.91046360  0.32934755  1
  Li  Li9  1  0.26800498  0.62716943  0.30212556  1
  Li  Li10  1  0.51457575  0.45831920  0.16706040  1
