# generated using pymatgen
data_Li2Cu2As6P4F3
_symmetry_space_group_name_H-M   'P 1'
_cell_length_a   7.53824039
_cell_length_b   7.44710207
_cell_length_c   8.30546676
_cell_angle_alpha   91.01663214
_cell_angle_beta   92.12442681
_cell_angle_gamma   91.16440979
_symmetry_Int_Tables_number   1
_chemical_formula_structural   Li2Cu2As6P4F3
_chemical_formula_sum   'Li2 Cu2 As6 P4 F3'
_cell_volume   465.75616054
_cell_formula_units_Z   1
loop_
 _symmetry_equiv_pos_site_id
 _symmetry_equiv_pos_as_xyz
  1  'x, y, z'
loop_
 _atom_site_type_symbol
 _atom_site_label
 _atom_site_symmetry_multiplicity
 _atom_site_fract_x
 _atom_site_fract_y
 _atom_site_fract_z
 _atom_site_occupancy
  P  P0  1  0.00000000  0.00000000  0.00000000  1
  P  P1  1  0.50000000  0.50000000  0.50000000  1
  P  P2  1  0.25000000  0.25000000  0.25000000  1
  P  P3  1  0.75000000  0.25000000  0.00000000  1
  Li  Li4  1  0.25000000  0.75000000  0.50000000  1
  Li  Li5  1  0.03960794  0.70061434  0.66931179  1
  Cu  Cu6  1  0.68313068  0.30243957  0.63448154  1
  Cu  Cu7  1  0.47781831  0.35819128  0.95299907  1
  F  F8  1  0.58441601  0.63396071  0.32550137  1
  F  F9  1  0.23671151  0.97044020  0.50929262  1
  F  F10  1  0.55161122  0.99974466  0.89351680  1
  As  As11  1  0.17118639  0.65526792  0.91013697  1
  As  As12  1  0.93909378  0.83035280  0.20040551  1
  As  As13  1  0.41201574  0.39979304  0.44714156  1
  As  As14  1  0.08620143  0.34503203  0.01959114  1
  As  As15  1  0.33396087  0.98678459  0.71573546  1
  As  As16  1  0.49530182  0.49114675  0.07134511  1
