# generated using pymatgen
data_Li2TiP5(O2F)2
_symmetry_space_group_name_H-M   'P 1'
_cell_length_a   7.61277870
_cell_length_b   7.30844600
_cell_length_c   7.24386594
_cell_angle_alpha   91.65845390
_cell_angle_beta   92.96266396
_cell_angle_gamma   91.56814415
_symmetry_Int_Tables_number   1
_chemical_formula_structural   Li2TiP5(O2F)2
_chemical_formula_sum   'Li2 Ti1 P5 O4 F2'
_cell_volume   402.15571196
_cell_formula_units_Z   1
loop_
 _symmetry_equiv_pos_site_id
 _symmetry_equiv_pos_as_xyz
  1  'x, y, z'
loop_
 _atom_site_type_symbol
 _atom_site_label
 _atom_site_symmetry_multiplicity
 _atom_site_fract_x
 _atom_site_fract_y
 _atom_site_fract_z
 _atom_site_occupancy
  P  P0  1  0.00000000  0.00000000  0.00000000  1
  P  P1  1  0.50000000  0.50000000  0.50000000  1
  P  P2  1  0.50000000  0.50000000  0.00000000  1
  P  P3  1  0.50000000  0.00000000  0.50000000  1
  P  P4  1  0.00000000  0.50000000  0.50000000  1
  Li  Li5  1  0.88616153  0.30540324  0.34975966  1
  Li  Li6  1  0.29479416  0.29092505  0.76721095  1
  F  F7  1  0.10466274  0.94358293  0.86038356  1
  F  F8  1  0.74316189  0.31904336  0.79844870  1
  Ti  Ti9  1  0.14992844  0.22430306  0.84525171  1
  O  O10  1  0.75529335  0.50083889  0.11072240  1
  O  O11  1  0.74280172  0.00544988  0.25629806  1
  O  O12  1  0.43149494  0.98668065  0.18414345  1
  O  O13  1  0.91284268  0.83098237  0.06941956  1
