# generated using pymatgen
data_Li3S2Br5O5F3
_symmetry_space_group_name_H-M   'P 1'
_cell_length_a   7.06194441
_cell_length_b   6.73339911
_cell_length_c   8.59063854
_cell_angle_alpha   92.64505214
_cell_angle_beta   93.68163628
_cell_angle_gamma   92.43158037
_symmetry_Int_Tables_number   1
_chemical_formula_structural   Li3S2Br5O5F3
_chemical_formula_sum   'Li3 S2 Br5 O5 F3'
_cell_volume   406.79283964
_cell_formula_units_Z   1
loop_
 _symmetry_equiv_pos_site_id
 _symmetry_equiv_pos_as_xyz
  1  'x, y, z'
loop_
 _atom_site_type_symbol
 _atom_site_label
 _atom_site_symmetry_multiplicity
 _atom_site_fract_x
 _atom_site_fract_y
 _atom_site_fract_z
 _atom_site_occupancy
  Li  Li0  1  0.00000000  0.00000000  0.00000000  1
  Li  Li1  1  0.50000000  0.50000000  0.50000000  1
  Li  Li2  1  0.25000000  0.25000000  0.25000000  1
  Br  Br3  1  0.75000000  0.25000000  0.00000000  1
  Br  Br4  1  0.25000000  0.75000000  0.50000000  1
  Br  Br5  1  0.75633289  0.05782619  0.51311295  1
  Br  Br6  1  0.11809126  0.60919190  0.87115440  1
  Br  Br7  1  0.18158181  0.28871575  0.07350416  1
  F  F8  1  0.53189527  0.02823558  0.77562614  1
  F  F9  1  0.72681206  0.74576683  0.57467504  1
  F  F10  1  0.29367370  0.50258647  0.18933322  1
  S  S11  1  0.50722441  0.99137936  0.95728064  1
  S  S12  1  0.45936772  0.87224350  0.73673436  1
  O  O13  1  0.30413610  0.24186003  0.98216845  1
  O  O14  1  0.29673435  0.72389402  0.00394535  1
  O  O15  1  0.50652972  0.27092393  0.23124734  1
  O  O16  1  0.27739434  0.70064794  0.82685086  1
  O  O17  1  0.96324810  0.63950303  0.88775296  1
