# generated using pymatgen
data_Li2LuTi2Cu2F3
_symmetry_space_group_name_H-M   'P 1'
_cell_length_a   6.22552365
_cell_length_b   6.27470247
_cell_length_c   7.31067537
_cell_angle_alpha   95.65401287
_cell_angle_beta   99.53060012
_cell_angle_gamma   96.27371700
_symmetry_Int_Tables_number   1
_chemical_formula_structural   Li2LuTi2Cu2F3
_chemical_formula_sum   'Li2 Lu1 Ti2 Cu2 F3'
_cell_volume   277.96284199
_cell_formula_units_Z   1
loop_
 _symmetry_equiv_pos_site_id
 _symmetry_equiv_pos_as_xyz
  1  'x, y, z'
loop_
 _atom_site_type_symbol
 _atom_site_label
 _atom_site_symmetry_multiplicity
 _atom_site_fract_x
 _atom_site_fract_y
 _atom_site_fract_z
 _atom_site_occupancy
  F  F0  1  0.12500000  0.00000000  0.25000000  1
  F  F1  1  0.00000000  0.00000000  0.00000000  1
  F  F2  1  0.37500000  0.00000000  0.25000000  1
  Ti  Ti3  1  0.25000000  0.25000000  0.25000000  1
  Ti  Ti4  1  0.00000000  0.25000000  0.12500000  1
  Lu  Lu5  1  0.70174221  0.72393772  0.98121058  1
  Li  Li6  1  0.72294246  0.65601730  0.35687032  1
  Li  Li7  1  0.02257603  0.87662148  0.97436907  1
  Cu  Cu8  1  0.79263988  0.93422535  0.29802254  1
  Cu  Cu9  1  0.93007970  0.20630472  0.46101053  1
