# generated using pymatgen
data_Li2Cu2As6I4F3
_symmetry_space_group_name_H-M   'P 1'
_cell_length_a   7.49487933
_cell_length_b   7.26610258
_cell_length_c   7.87167914
_cell_angle_alpha   91.82751945
_cell_angle_beta   92.31884908
_cell_angle_gamma   91.85920871
_symmetry_Int_Tables_number   1
_chemical_formula_structural   Li2Cu2As6I4F3
_chemical_formula_sum   'Li2 Cu2 As6 I4 F3'
_cell_volume   427.86712267
_cell_formula_units_Z   1
loop_
 _symmetry_equiv_pos_site_id
 _symmetry_equiv_pos_as_xyz
  1  'x, y, z'
loop_
 _atom_site_type_symbol
 _atom_site_label
 _atom_site_symmetry_multiplicity
 _atom_site_fract_x
 _atom_site_fract_y
 _atom_site_fract_z
 _atom_site_occupancy
  I  I0  1  0.12500000  0.00000000  0.25000000  1
  I  I1  1  0.00000000  0.00000000  0.00000000  1
  I  I2  1  0.37500000  0.00000000  0.25000000  1
  I  I3  1  0.25000000  0.25000000  0.25000000  1
  Li  Li4  1  0.00000000  0.25000000  0.12500000  1
  Li  Li5  1  0.89983406  0.02956792  0.98658762  1
  Cu  Cu6  1  0.51263325  0.07665001  0.55822461  1
  Cu  Cu7  1  0.11702968  0.74247639  0.13673684  1
  F  F8  1  0.17575496  0.12446297  0.17187778  1
  F  F9  1  0.63638601  0.76659497  0.05666150  1
  F  F10  1  0.54025874  0.40131545  0.66019356  1
  As  As11  1  0.49109516  0.86861811  0.52041532  1
  As  As12  1  0.23313625  0.57687475  0.21034552  1
  As  As13  1  0.04700522  0.97365316  0.74247797  1
  As  As14  1  0.73095180  0.74584792  0.71855058  1
  As  As15  1  0.54143121  0.80398106  0.95352799  1
  As  As16  1  0.17748329  0.88946396  0.40012248  1
