# generated using pymatgen
data_Li2TiAs6P4N5
_symmetry_space_group_name_H-M   'P 1'
_cell_length_a   7.83597469
_cell_length_b   7.73267406
_cell_length_c   7.59205176
_cell_angle_alpha   90.96138055
_cell_angle_beta   91.21129181
_cell_angle_gamma   90.78683161
_symmetry_Int_Tables_number   1
_chemical_formula_structural   Li2TiAs6P4N5
_chemical_formula_sum   'Li2 Ti1 As6 P4 N5'
_cell_volume   459.81227714
_cell_formula_units_Z   1
loop_
 _symmetry_equiv_pos_site_id
 _symmetry_equiv_pos_as_xyz
  1  'x, y, z'
loop_
 _atom_site_type_symbol
 _atom_site_label
 _atom_site_symmetry_multiplicity
 _atom_site_fract_x
 _atom_site_fract_y
 _atom_site_fract_z
 _atom_site_occupancy
  P  P0  1  0.00000000  0.00000000  0.00000000  1
  P  P1  1  0.50000000  0.50000000  0.50000000  1
  P  P2  1  0.50000000  0.50000000  0.00000000  1
  P  P3  1  0.50000000  0.00000000  0.50000000  1
  Li  Li4  1  0.00000000  0.50000000  0.50000000  1
  Li  Li5  1  0.52204653  0.72037491  0.06990571  1
  Ti  Ti6  1  0.32079916  0.11074966  0.77753818  1
  As  As7  1  0.87891860  0.62767439  0.03679223  1
  As  As8  1  0.27621308  0.78218271  0.58682527  1
  As  As9  1  0.72219394  0.86596035  0.18202146  1
  As  As10  1  0.39101971  0.92428559  0.78411329  1
  As  As11  1  0.32560419  0.50029812  0.98426810  1
  As  As12  1  0.78338353  0.33293578  0.68779318  1
  N  N13  1  0.26079050  0.86824187  0.34415200  1
  N  N14  1  0.38027975  0.36611471  0.09426216  1
  N  N15  1  0.79011574  0.29645487  0.97313295  1
  N  N16  1  0.53002076  0.84332998  0.13645047  1
  N  N17  1  0.21242226  0.10295143  0.03927066  1
