# generated using pymatgen
data_LiSe3
_symmetry_space_group_name_H-M   'P 1'
_cell_length_a   5.75070387
_cell_length_b   5.78201602
_cell_length_c   7.42260734
_cell_angle_alpha   94.83876341
_cell_angle_beta   97.52552483
_cell_angle_gamma   94.50084678
_symmetry_Int_Tables_number   1
_chemical_formula_structural   LiSe3
_chemical_formula_sum   'Li1 Se3'
_cell_volume   242.80554474
_cell_formula_units_Z   1
loop_
 _symmetry_equiv_pos_site_id
 _symmetry_equiv_pos_as_xyz
  1  'x, y, z'
loop_
 _atom_site_type_symbol
 _atom_site_label
 _atom_site_symmetry_multiplicity
 _atom_site_fract_x
 _atom_site_fract_y
 _atom_site_fract_z
 _atom_site_occupancy
  Li  Li0  1  0.00000000  0.00000000  0.00000000  1
  Se  Se1  1  0.50000000  0.50000000  0.50000000  1
  Se  Se2  1  0.25000000  0.25000000  0.25000000  1
  Se  Se3  1  0.75000000  0.25000000  0.00000000  1
