# generated using pymatgen
data_Li2LuTi(CuS)2
_symmetry_space_group_name_H-M   'P 1'
_cell_length_a   6.85216260
_cell_length_b   6.67440147
_cell_length_c   7.55769698
_cell_angle_alpha   93.49508321
_cell_angle_beta   94.52845330
_cell_angle_gamma   94.02003746
_symmetry_Int_Tables_number   1
_chemical_formula_structural   Li2LuTi(CuS)2
_chemical_formula_sum   'Li2 Lu1 Ti1 Cu2 S2'
_cell_volume   342.94820103
_cell_formula_units_Z   1
loop_
 _symmetry_equiv_pos_site_id
 _symmetry_equiv_pos_as_xyz
  1  'x, y, z'
loop_
 _atom_site_type_symbol
 _atom_site_label
 _atom_site_symmetry_multiplicity
 _atom_site_fract_x
 _atom_site_fract_y
 _atom_site_fract_z
 _atom_site_occupancy
  Lu  Lu0  1  0.12500000  0.00000000  0.25000000  1
  Li  Li1  1  0.00000000  0.00000000  0.00000000  1
  Li  Li2  1  0.37500000  0.00000000  0.25000000  1
  Cu  Cu3  1  0.25000000  0.25000000  0.25000000  1
  Cu  Cu4  1  0.00000000  0.25000000  0.12500000  1
  S  S5  1  0.29823462  0.05711762  0.27460490  1
  S  S6  1  0.18885707  0.22956254  0.65681586  1
  Ti  Ti7  1  0.56754410  0.46414874  0.99428887  1
