# generated using pymatgen
data_Li2Mn2Sb4P3
_symmetry_space_group_name_H-M   'P 1'
_cell_length_a   6.22362494
_cell_length_b   6.75860684
_cell_length_c   7.31360855
_cell_angle_alpha   93.55953470
_cell_angle_beta   94.21659775
_cell_angle_gamma   94.05118998
_symmetry_Int_Tables_number   1
_chemical_formula_structural   Li2Mn2Sb4P3
_chemical_formula_sum   'Li2 Mn2 Sb4 P3'
_cell_volume   305.33257129
_cell_formula_units_Z   1
loop_
 _symmetry_equiv_pos_site_id
 _symmetry_equiv_pos_as_xyz
  1  'x, y, z'
loop_
 _atom_site_type_symbol
 _atom_site_label
 _atom_site_symmetry_multiplicity
 _atom_site_fract_x
 _atom_site_fract_y
 _atom_site_fract_z
 _atom_site_occupancy
  Mn  Mn0  1  0.00000000  0.00000000  0.00000000  1
  Mn  Mn1  1  0.50000000  0.50000000  0.50000000  1
  Sb  Sb2  1  0.50000000  0.50000000  0.00000000  1
  Sb  Sb3  1  0.50000000  0.00000000  0.50000000  1
  Sb  Sb4  1  0.00000000  0.50000000  0.50000000  1
  Sb  Sb5  1  0.94258114  0.05573194  0.08920536  1
  P  P6  1  0.64163289  0.60130723  0.01403151  1
  P  P7  1  0.31959091  0.54389106  0.26224327  1
  P  P8  1  0.23087333  0.97649304  0.02408845  1
  Li  Li9  1  0.07732373  0.49861827  0.46574291  1
  Li  Li10  1  0.79957068  0.05880017  0.32138867  1
