# generated using pymatgen
data_LiMn3Sb4Mo2P3
_symmetry_space_group_name_H-M   'P 1'
_cell_length_a   5.94513867
_cell_length_b   6.21609892
_cell_length_c   6.31806493
_cell_angle_alpha   93.89478799
_cell_angle_beta   89.13604992
_cell_angle_gamma   93.32693064
_symmetry_Int_Tables_number   1
_chemical_formula_structural   LiMn3Sb4Mo2P3
_chemical_formula_sum   'Li1 Mn3 Sb4 Mo2 P3'
_cell_volume   232.54130588
_cell_formula_units_Z   1
loop_
 _symmetry_equiv_pos_site_id
 _symmetry_equiv_pos_as_xyz
  1  'x, y, z'
loop_
 _atom_site_type_symbol
 _atom_site_label
 _atom_site_symmetry_multiplicity
 _atom_site_fract_x
 _atom_site_fract_y
 _atom_site_fract_z
 _atom_site_occupancy
  Mn  Mn0  1  0.00000000  0.00000000  0.00000000  1
  Mn  Mn1  1  0.50000000  0.50000000  0.50000000  1
  Mn  Mn2  1  0.25000000  0.25000000  0.25000000  1
  Sb  Sb3  1  0.75000000  0.25000000  0.00000000  1
  Sb  Sb4  1  0.25000000  0.75000000  0.50000000  1
  Sb  Sb5  1  0.59879452  0.39151147  0.60172627  1
  Sb  Sb6  1  0.38119348  0.92260707  0.78853287  1
  P  P7  1  0.42211529  0.81414623  0.43700470  1
  P  P8  1  0.75888590  0.72841350  0.72640905  1
  P  P9  1  0.83990201  0.06746236  0.29832042  1
  Mo  Mo10  1  0.45260994  0.93413361  0.83177589  1
  Mo  Mo11  1  0.36646917  0.69035366  0.67115650  1
  Li  Li12  1  0.13734008  0.33471742  0.64936822  1
