# generated using pymatgen
data_Li2Ti2I4(OF)3
_symmetry_space_group_name_H-M   'P 1'
_cell_length_a   5.71580321
_cell_length_b   5.49056464
_cell_length_c   6.88990535
_cell_angle_alpha   96.02652607
_cell_angle_beta   98.38829477
_cell_angle_gamma   95.54014882
_symmetry_Int_Tables_number   1
_chemical_formula_structural   Li2Ti2I4(OF)3
_chemical_formula_sum   'Li2 Ti2 I4 O3 F3'
_cell_volume   211.35099135
_cell_formula_units_Z   1
loop_
 _symmetry_equiv_pos_site_id
 _symmetry_equiv_pos_as_xyz
  1  'x, y, z'
loop_
 _atom_site_type_symbol
 _atom_site_label
 _atom_site_symmetry_multiplicity
 _atom_site_fract_x
 _atom_site_fract_y
 _atom_site_fract_z
 _atom_site_occupancy
  I  I0  1  0.00000000  0.00000000  0.00000000  1
  I  I1  1  0.50000000  0.50000000  0.50000000  1
  I  I2  1  0.25000000  0.25000000  0.25000000  1
  I  I3  1  0.75000000  0.25000000  0.00000000  1
  Li  Li4  1  0.25000000  0.75000000  0.50000000  1
  Li  Li5  1  0.64977352  0.14601923  0.18719133  1
  F  F6  1  0.14186399  0.66441764  0.03692878  1
  F  F7  1  0.45053757  0.07142050  0.57181690  1
  F  F8  1  0.91002374  0.54263047  0.90947557  1
  Ti  Ti9  1  0.19287552  0.23114045  0.17112761  1
  Ti  Ti10  1  0.49652917  0.32853848  0.91871832  1
  O  O11  1  0.20064412  0.49412276  0.57925054  1
  O  O12  1  0.38619316  0.86803042  0.60834217  1
  O  O13  1  0.23768596  0.98614346  0.24420884  1
