# generated using pymatgen
data_Li2As6I4O3
_symmetry_space_group_name_H-M   'P 1'
_cell_length_a   6.49724826
_cell_length_b   6.40047234
_cell_length_c   7.44931770
_cell_angle_alpha   96.64428179
_cell_angle_beta   99.37563054
_cell_angle_gamma   96.27939454
_symmetry_Int_Tables_number   1
_chemical_formula_structural   Li2As6I4O3
_chemical_formula_sum   'Li2 As6 I4 O3'
_cell_volume   300.98237417
_cell_formula_units_Z   1
loop_
 _symmetry_equiv_pos_site_id
 _symmetry_equiv_pos_as_xyz
  1  'x, y, z'
loop_
 _atom_site_type_symbol
 _atom_site_label
 _atom_site_symmetry_multiplicity
 _atom_site_fract_x
 _atom_site_fract_y
 _atom_site_fract_z
 _atom_site_occupancy
  I  I0  1  0.12500000  0.00000000  0.25000000  1
  I  I1  1  0.00000000  0.00000000  0.00000000  1
  I  I2  1  0.37500000  0.00000000  0.25000000  1
  I  I3  1  0.25000000  0.25000000  0.25000000  1
  O  O4  1  0.00000000  0.25000000  0.12500000  1
  O  O5  1  0.32384616  0.53851111  0.06897006  1
  O  O6  1  0.25819939  0.14146603  0.33730804  1
  As  As7  1  0.59997082  0.04923115  0.12670144  1
  As  As8  1  0.17226692  0.75910967  0.62596433  1
  As  As9  1  0.51277834  0.19715446  0.96989459  1
  As  As10  1  0.28482600  0.97706111  0.22978677  1
  As  As11  1  0.49153875  0.09294575  0.54792274  1
  As  As12  1  0.80074512  0.05302892  0.85947424  1
  Li  Li13  1  0.78107620  0.18378052  0.22754024  1
  Li  Li14  1  0.22373538  0.99191654  0.82875456  1
