# generated using pymatgen
data_Li2LuCu2(As3P2)2
_symmetry_space_group_name_H-M   'P 1'
_cell_length_a   7.33030048
_cell_length_b   7.28333434
_cell_length_c   8.31277566
_cell_angle_alpha   92.72528563
_cell_angle_beta   93.87043924
_cell_angle_gamma   92.76120201
_symmetry_Int_Tables_number   1
_chemical_formula_structural   Li2LuCu2(As3P2)2
_chemical_formula_sum   'Li2 Lu1 Cu2 As6 P4'
_cell_volume   441.70971413
_cell_formula_units_Z   1
loop_
 _symmetry_equiv_pos_site_id
 _symmetry_equiv_pos_as_xyz
  1  'x, y, z'
loop_
 _atom_site_type_symbol
 _atom_site_label
 _atom_site_symmetry_multiplicity
 _atom_site_fract_x
 _atom_site_fract_y
 _atom_site_fract_z
 _atom_site_occupancy
  P  P0  1  0.00000000  0.00000000  0.00000000  1
  P  P1  1  0.50000000  0.50000000  0.50000000  1
  P  P2  1  0.25000000  0.25000000  0.25000000  1
  P  P3  1  0.75000000  0.25000000  0.00000000  1
  Lu  Lu4  1  0.25000000  0.75000000  0.50000000  1
  Li  Li5  1  0.26454240  0.96362940  0.55473417  1
  Li  Li6  1  0.38232674  0.66093288  0.51370176  1
  Cu  Cu7  1  0.55014739  0.12771033  0.09504038  1
  Cu  Cu8  1  0.36890228  0.35675153  0.49984400  1
  As  As9  1  0.36028072  0.02551548  0.71716775  1
  As  As10  1  0.61229218  0.93545471  0.91140944  1
  As  As11  1  0.39211441  0.50041942  0.07279981  1
  As  As12  1  0.48030723  0.95503055  0.58277967  1
  As  As13  1  0.94708131  0.83243351  0.79777297  1
  As  As14  1  0.88295504  0.57973095  0.96027149  1
