# generated using pymatgen
data_Li4TiNi2SeO4
_symmetry_space_group_name_H-M   'P 1'
_cell_length_a   7.29159864
_cell_length_b   7.09210041
_cell_length_c   7.55891240
_cell_angle_alpha   95.61991389
_cell_angle_beta   97.25752665
_cell_angle_gamma   95.27144923
_symmetry_Int_Tables_number   1
_chemical_formula_structural   Li4TiNi2SeO4
_chemical_formula_sum   'Li4 Ti1 Ni2 Se1 O4'
_cell_volume   383.73918928
_cell_formula_units_Z   1
loop_
 _symmetry_equiv_pos_site_id
 _symmetry_equiv_pos_as_xyz
  1  'x, y, z'
loop_
 _atom_site_type_symbol
 _atom_site_label
 _atom_site_symmetry_multiplicity
 _atom_site_fract_x
 _atom_site_fract_y
 _atom_site_fract_z
 _atom_site_occupancy
  Li  Li0  1  0.00000000  0.00000000  0.00000000  1
  Li  Li1  1  0.50000000  0.50000000  0.50000000  1
  Li  Li2  1  0.25000000  0.25000000  0.25000000  1
  Li  Li3  1  0.75000000  0.25000000  0.00000000  1
  Se  Se4  1  0.25000000  0.75000000  0.50000000  1
  Ni  Ni5  1  0.35231225  0.83528412  0.41192530  1
  Ni  Ni6  1  0.16638317  0.48480612  0.05462376  1
  Ti  Ti7  1  0.17194537  0.97544211  0.95836275  1
  O  O8  1  0.61088120  0.52205161  0.62730011  1
  O  O9  1  0.44490608  0.68504214  0.59671157  1
  O  O10  1  0.81722618  0.67599835  0.56655114  1
  O  O11  1  0.29490493  0.72776562  0.99739243  1
