# generated using pymatgen
data_Li2LuCu2As6F3
_symmetry_space_group_name_H-M   'P 1'
_cell_length_a   7.50007998
_cell_length_b   7.40215060
_cell_length_c   8.45985304
_cell_angle_alpha   91.67984818
_cell_angle_beta   92.47788202
_cell_angle_gamma   91.82499298
_symmetry_Int_Tables_number   1
_chemical_formula_structural   Li2LuCu2As6F3
_chemical_formula_sum   'Li2 Lu1 Cu2 As6 F3'
_cell_volume   468.76457965
_cell_formula_units_Z   1
loop_
 _symmetry_equiv_pos_site_id
 _symmetry_equiv_pos_as_xyz
  1  'x, y, z'
loop_
 _atom_site_type_symbol
 _atom_site_label
 _atom_site_symmetry_multiplicity
 _atom_site_fract_x
 _atom_site_fract_y
 _atom_site_fract_z
 _atom_site_occupancy
  Lu  Lu0  1  0.00000000  0.00000000  0.00000000  1
  Li  Li1  1  0.50000000  0.50000000  0.50000000  1
  Li  Li2  1  0.50000000  0.50000000  0.00000000  1
  Cu  Cu3  1  0.50000000  0.00000000  0.50000000  1
  Cu  Cu4  1  0.00000000  0.50000000  0.50000000  1
  F  F5  1  0.09478186  0.10111430  0.85363195  1
  F  F6  1  0.20311609  0.02015319  0.19755279  1
  F  F7  1  0.17103802  0.28529410  0.07589178  1
  As  As8  1  0.79431295  0.36568708  0.32671353  1
  As  As9  1  0.37948186  0.99611504  0.23389582  1
  As  As10  1  0.15286319  0.33636936  0.77678335  1
  As  As11  1  0.64096415  0.74129333  0.74558511  1
  As  As12  1  0.01951682  0.06719384  0.38075256  1
  As  As13  1  0.63538782  0.28776927  0.58702838  1
