# generated using pymatgen
data_LiCu2As6(I2F)2
_symmetry_space_group_name_H-M   'P 1'
_cell_length_a   7.21644215
_cell_length_b   7.22018261
_cell_length_c   8.15698537
_cell_angle_alpha   91.53603420
_cell_angle_beta   93.87675373
_cell_angle_gamma   91.82547682
_symmetry_Int_Tables_number   1
_chemical_formula_structural   LiCu2As6(I2F)2
_chemical_formula_sum   'Li1 Cu2 As6 I4 F2'
_cell_volume   423.64533942
_cell_formula_units_Z   1
loop_
 _symmetry_equiv_pos_site_id
 _symmetry_equiv_pos_as_xyz
  1  'x, y, z'
loop_
 _atom_site_type_symbol
 _atom_site_label
 _atom_site_symmetry_multiplicity
 _atom_site_fract_x
 _atom_site_fract_y
 _atom_site_fract_z
 _atom_site_occupancy
  I  I0  1  0.12500000  0.00000000  0.25000000  1
  I  I1  1  0.00000000  0.00000000  0.00000000  1
  I  I2  1  0.37500000  0.00000000  0.25000000  1
  I  I3  1  0.25000000  0.25000000  0.25000000  1
  Li  Li4  1  0.00000000  0.25000000  0.12500000  1
  Cu  Cu5  1  0.69339634  0.53035585  0.41459989  1
  Cu  Cu6  1  0.40760949  0.68485722  0.60740766  1
  F  F7  1  0.36892494  0.25756298  0.53434628  1
  F  F8  1  0.29997874  0.60301035  0.65344190  1
  As  As9  1  0.91981078  0.23845941  0.06859099  1
  As  As10  1  0.65590421  0.04778898  0.71340014  1
  As  As11  1  0.74461969  0.63199922  0.69761358  1
  As  As12  1  0.37496802  0.14392444  0.49479772  1
  As  As13  1  0.15952892  0.25466850  0.97784820  1
  As  As14  1  0.61616914  0.34273751  0.77371848  1
