# generated using pymatgen
data_Li2LuCu2(NiAs3)2
_symmetry_space_group_name_H-M   'P 1'
_cell_length_a   7.62590607
_cell_length_b   7.43167629
_cell_length_c   8.19415360
_cell_angle_alpha   91.45999588
_cell_angle_beta   91.50525566
_cell_angle_gamma   91.63465537
_symmetry_Int_Tables_number   1
_chemical_formula_structural   Li2LuCu2(NiAs3)2
_chemical_formula_sum   'Li2 Lu1 Cu2 Ni2 As6'
_cell_volume   463.88038818
_cell_formula_units_Z   1
loop_
 _symmetry_equiv_pos_site_id
 _symmetry_equiv_pos_as_xyz
  1  'x, y, z'
loop_
 _atom_site_type_symbol
 _atom_site_label
 _atom_site_symmetry_multiplicity
 _atom_site_fract_x
 _atom_site_fract_y
 _atom_site_fract_z
 _atom_site_occupancy
  Lu  Lu0  1  0.00000000  0.00000000  0.00000000  1
  Li  Li1  1  0.50000000  0.50000000  0.50000000  1
  Li  Li2  1  0.25000000  0.25000000  0.25000000  1
  Cu  Cu3  1  0.75000000  0.25000000  0.00000000  1
  Cu  Cu4  1  0.25000000  0.75000000  0.50000000  1
  Ni  Ni5  1  0.77481541  0.41960138  0.10870114  1
  Ni  Ni6  1  0.04186147  0.31995227  0.99588144  1
  As  As7  1  0.71617964  0.06928276  0.29382790  1
  As  As8  1  0.81114159  0.72166307  0.61864513  1
  As  As9  1  0.09067125  0.29679739  0.31436655  1
  As  As10  1  0.06351281  0.93073356  0.52007300  1
  As  As11  1  0.03284479  0.15737972  0.42972867  1
  As  As12  1  0.85456743  0.50706511  0.01967048  1
