# generated using pymatgen
data_Li4Ti2P8S2O3
_symmetry_space_group_name_H-M   'P 1'
_cell_length_a   6.35160904
_cell_length_b   5.93982392
_cell_length_c   7.44094940
_cell_angle_alpha   95.28846560
_cell_angle_beta   95.79632497
_cell_angle_gamma   94.75753548
_symmetry_Int_Tables_number   1
_chemical_formula_structural   Li4Ti2P8S2O3
_chemical_formula_sum   'Li4 Ti2 P8 S2 O3'
_cell_volume   276.89544079
_cell_formula_units_Z   1
loop_
 _symmetry_equiv_pos_site_id
 _symmetry_equiv_pos_as_xyz
  1  'x, y, z'
loop_
 _atom_site_type_symbol
 _atom_site_label
 _atom_site_symmetry_multiplicity
 _atom_site_fract_x
 _atom_site_fract_y
 _atom_site_fract_z
 _atom_site_occupancy
  S  S0  1  0.00000000  0.00000000  0.00000000  1
  S  S1  1  0.50000000  0.50000000  0.50000000  1
  O  O2  1  0.25000000  0.25000000  0.25000000  1
  O  O3  1  0.75000000  0.25000000  0.00000000  1
  O  O4  1  0.25000000  0.75000000  0.50000000  1
  P  P5  1  0.71673953  0.44493190  0.55870464  1
  P  P6  1  0.85153885  0.90240344  0.25708632  1
  P  P7  1  0.95078904  0.55386165  0.16825869  1
  P  P8  1  0.12956188  0.59917073  0.06383484  1
  P  P9  1  0.13889253  0.63134887  0.41620353  1
  P  P10  1  0.16541769  0.99114165  0.27198362  1
  P  P11  1  0.08817400  0.45734670  0.14739307  1
  P  P12  1  0.33788865  0.81481002  0.97522376  1
  Ti  Ti13  1  0.01993216  0.48817120  0.04622737  1
  Ti  Ti14  1  0.84931227  0.66327725  0.64383902  1
  Li  Li15  1  0.86360149  0.50776305  0.86934185  1
  Li  Li16  1  0.63281451  0.22259569  0.23848859  1
  Li  Li17  1  0.71599752  0.83026327  0.98219653  1
  Li  Li18  1  0.21850322  0.64903575  0.98645761  1
