# generated using pymatgen
data_Li2Cu2As6N5F3
_symmetry_space_group_name_H-M   'P 1'
_cell_length_a   7.51106762
_cell_length_b   7.44771237
_cell_length_c   8.47676139
_cell_angle_alpha   91.30244856
_cell_angle_beta   92.52281758
_cell_angle_gamma   91.41789434
_symmetry_Int_Tables_number   1
_chemical_formula_structural   Li2Cu2As6N5F3
_chemical_formula_sum   'Li2 Cu2 As6 N5 F3'
_cell_volume   473.45296913
_cell_formula_units_Z   1
loop_
 _symmetry_equiv_pos_site_id
 _symmetry_equiv_pos_as_xyz
  1  'x, y, z'
loop_
 _atom_site_type_symbol
 _atom_site_label
 _atom_site_symmetry_multiplicity
 _atom_site_fract_x
 _atom_site_fract_y
 _atom_site_fract_z
 _atom_site_occupancy
  Li  Li0  1  0.00000000  0.00000000  0.00000000  1
  Li  Li1  1  0.50000000  0.50000000  0.50000000  1
  Cu  Cu2  1  0.25000000  0.25000000  0.25000000  1
  Cu  Cu3  1  0.75000000  0.25000000  0.00000000  1
  F  F4  1  0.25000000  0.75000000  0.50000000  1
  F  F5  1  0.21318506  0.73610453  0.11241044  1
  F  F6  1  0.90534000  0.26388742  0.98716207  1
  As  As7  1  0.70487303  0.28661382  0.36083499  1
  As  As8  1  0.61019701  0.70674521  0.13436977  1
  As  As9  1  0.22867144  0.78128682  0.24482409  1
  As  As10  1  0.09920032  0.00992561  0.74181814  1
  As  As11  1  0.38718818  0.02500985  0.87351715  1
  As  As12  1  0.14286839  0.47803599  0.08955308  1
  N  N13  1  0.00392606  0.87433382  0.55761397  1
  N  N14  1  0.11939520  0.83694781  0.85707350  1
  N  N15  1  0.98943765  0.82363266  0.78147127  1
  N  N16  1  0.35820055  0.91686336  0.38192633  1
  N  N17  1  0.11158097  0.85988108  0.40942294  1
