# generated using pymatgen
data_LiTi2S3F2
_symmetry_space_group_name_H-M   'P 1'
_cell_length_a   5.77091571
_cell_length_b   5.77049571
_cell_length_c   7.28464647
_cell_angle_alpha   91.64344669
_cell_angle_beta   97.81902023
_cell_angle_gamma   91.87889840
_symmetry_Int_Tables_number   1
_chemical_formula_structural   LiTi2S3F2
_chemical_formula_sum   'Li1 Ti2 S3 F2'
_cell_volume   240.06716110
_cell_formula_units_Z   1
loop_
 _symmetry_equiv_pos_site_id
 _symmetry_equiv_pos_as_xyz
  1  'x, y, z'
loop_
 _atom_site_type_symbol
 _atom_site_label
 _atom_site_symmetry_multiplicity
 _atom_site_fract_x
 _atom_site_fract_y
 _atom_site_fract_z
 _atom_site_occupancy
  Li  Li0  1  0.12500000  0.12500000  0.12500000  1
  F  F1  1  0.50000000  0.50000000  0.50000000  1
  F  F2  1  0.25000000  0.25000000  0.25000000  1
  S  S3  1  0.75000000  0.75000000  0.75000000  1
  S  S4  1  0.01750774  0.93274026  0.90539839  1
  S  S5  1  0.68370131  0.35883247  0.78341764  1
  Ti  Ti6  1  0.82031284  0.40783990  0.11487067  1
  Ti  Ti7  1  0.95136011  0.49710764  0.36632542  1
