# generated using pymatgen
data_LiCuAs3SO
_symmetry_space_group_name_H-M   'P 1'
_cell_length_a   6.56759898
_cell_length_b   6.60920385
_cell_length_c   7.57230774
_cell_angle_alpha   93.53272189
_cell_angle_beta   96.03268485
_cell_angle_gamma   94.05024602
_symmetry_Int_Tables_number   1
_chemical_formula_structural   LiCuAs3SO
_chemical_formula_sum   'Li2 Cu2 As6 S2 O2'
_cell_volume   325.26086127
_cell_formula_units_Z   2
loop_
 _symmetry_equiv_pos_site_id
 _symmetry_equiv_pos_as_xyz
  1  'x, y, z'
loop_
 _atom_site_type_symbol
 _atom_site_label
 _atom_site_symmetry_multiplicity
 _atom_site_fract_x
 _atom_site_fract_y
 _atom_site_fract_z
 _atom_site_occupancy
  Li  Li0  1  0.12500000  0.00000000  0.25000000  1
  Li  Li1  1  0.00000000  0.00000000  0.00000000  1
  Cu  Cu2  1  0.37500000  0.00000000  0.25000000  1
  Cu  Cu3  1  0.25000000  0.25000000  0.25000000  1
  S  S4  1  0.00000000  0.25000000  0.12500000  1
  S  S5  1  0.39976789  0.97375178  0.84814984  1
  As  As6  1  0.63675707  0.11422965  0.32838824  1
  As  As7  1  0.52725255  0.28565480  0.66391938  1
  As  As8  1  0.41497163  0.96160243  0.21484896  1
  As  As9  1  0.24114235  0.39602895  0.52449688  1
  As  As10  1  0.52924643  0.77530825  0.19865128  1
  As  As11  1  0.65476860  0.41526562  0.34826055  1
  O  O12  1  0.87294640  0.60468009  0.20923671  1
  O  O13  1  0.20867847  0.50189128  0.34403264  1
