# generated using pymatgen
data_Li2TiCu2(P2S)2
_symmetry_space_group_name_H-M   'P 1'
_cell_length_a   6.18787517
_cell_length_b   6.15312038
_cell_length_c   7.18082050
_cell_angle_alpha   96.29590422
_cell_angle_beta   98.77765833
_cell_angle_gamma   96.74285084
_symmetry_Int_Tables_number   1
_chemical_formula_structural   Li2TiCu2(P2S)2
_chemical_formula_sum   'Li2 Ti1 Cu2 P4 S2'
_cell_volume   266.05991902
_cell_formula_units_Z   1
loop_
 _symmetry_equiv_pos_site_id
 _symmetry_equiv_pos_as_xyz
  1  'x, y, z'
loop_
 _atom_site_type_symbol
 _atom_site_label
 _atom_site_symmetry_multiplicity
 _atom_site_fract_x
 _atom_site_fract_y
 _atom_site_fract_z
 _atom_site_occupancy
  P  P0  1  0.00000000  0.00000000  0.00000000  1
  P  P1  1  0.50000000  0.50000000  0.50000000  1
  P  P2  1  0.50000000  0.50000000  0.00000000  1
  P  P3  1  0.50000000  0.00000000  0.50000000  1
  Li  Li4  1  0.00000000  0.50000000  0.50000000  1
  Li  Li5  1  0.53312006  0.19422815  0.82665573  1
  Cu  Cu6  1  0.01750621  0.90029569  0.95107744  1
  Cu  Cu7  1  0.78063568  0.94956898  0.52686390  1
  S  S8  1  0.49855957  0.83328362  0.66897234  1
  S  S9  1  0.38759133  0.59399525  0.22867451  1
  Ti  Ti10  1  0.42409323  0.76238866  0.89587799  1
