# generated using pymatgen
data_LiAs3S
_symmetry_space_group_name_H-M   'P 1'
_cell_length_a   6.90021207
_cell_length_b   6.82683033
_cell_length_c   7.82826735
_cell_angle_alpha   91.94652015
_cell_angle_beta   93.89806366
_cell_angle_gamma   91.92131936
_symmetry_Int_Tables_number   1
_chemical_formula_structural   LiAs3S
_chemical_formula_sum   'Li2 As6 S2'
_cell_volume   367.45992749
_cell_formula_units_Z   2
loop_
 _symmetry_equiv_pos_site_id
 _symmetry_equiv_pos_as_xyz
  1  'x, y, z'
loop_
 _atom_site_type_symbol
 _atom_site_label
 _atom_site_symmetry_multiplicity
 _atom_site_fract_x
 _atom_site_fract_y
 _atom_site_fract_z
 _atom_site_occupancy
  Li  Li0  1  0.12500000  0.00000000  0.25000000  1
  Li  Li1  1  0.00000000  0.00000000  0.00000000  1
  S  S2  1  0.37500000  0.00000000  0.25000000  1
  S  S3  1  0.25000000  0.25000000  0.25000000  1
  As  As4  1  0.00000000  0.25000000  0.12500000  1
  As  As5  1  0.65081734  0.54083518  0.09450459  1
  As  As6  1  0.21914531  0.02608954  0.58553247  1
  As  As7  1  0.53768251  0.57422957  0.38983460  1
  As  As8  1  0.36312308  0.49844374  0.71146698  1
  As  As9  1  0.59459302  0.20116969  0.09806889  1
