# generated using pymatgen
data_LiTi2I4(OF)3
_symmetry_space_group_name_H-M   'P 1'
_cell_length_a   7.01686171
_cell_length_b   6.80140704
_cell_length_c   7.59323874
_cell_angle_alpha   90.70351674
_cell_angle_beta   93.34711898
_cell_angle_gamma   90.80430749
_symmetry_Int_Tables_number   1
_chemical_formula_structural   LiTi2I4(OF)3
_chemical_formula_sum   'Li1 Ti2 I4 O3 F3'
_cell_volume   361.69880776
_cell_formula_units_Z   1
loop_
 _symmetry_equiv_pos_site_id
 _symmetry_equiv_pos_as_xyz
  1  'x, y, z'
loop_
 _atom_site_type_symbol
 _atom_site_label
 _atom_site_symmetry_multiplicity
 _atom_site_fract_x
 _atom_site_fract_y
 _atom_site_fract_z
 _atom_site_occupancy
  I  I0  1  0.00000000  0.00000000  0.00000000  1
  I  I1  1  0.50000000  0.50000000  0.50000000  1
  I  I2  1  0.50000000  0.50000000  0.00000000  1
  I  I3  1  0.50000000  0.00000000  0.50000000  1
  Li  Li4  1  0.00000000  0.50000000  0.50000000  1
  F  F5  1  0.84093507  0.96707902  0.92964928  1
  F  F6  1  0.67874414  0.11045219  0.20323106  1
  F  F7  1  0.68478435  0.24469818  0.02097798  1
  Ti  Ti8  1  0.74342702  0.00811794  0.13338730  1
  Ti  Ti9  1  0.52354962  0.63751074  0.05873807  1
  O  O10  1  0.55664790  0.51518708  0.19268399  1
  O  O11  1  0.40122505  0.69357668  0.56790007  1
  O  O12  1  0.99393119  0.34170323  0.70506196  1
