# generated using pymatgen
data_LiZnCuAs3O2
_symmetry_space_group_name_H-M   'P 1'
_cell_length_a   8.23566384
_cell_length_b   8.63117400
_cell_length_c   7.62101584
_cell_angle_alpha   90.15451436
_cell_angle_beta   90.73513238
_cell_angle_gamma   90.17665117
_symmetry_Int_Tables_number   1
_chemical_formula_structural   LiZnCuAs3O2
_chemical_formula_sum   'Li2 Zn2 Cu2 As6 O4'
_cell_volume   541.67888800
_cell_formula_units_Z   2
loop_
 _symmetry_equiv_pos_site_id
 _symmetry_equiv_pos_as_xyz
  1  'x, y, z'
loop_
 _atom_site_type_symbol
 _atom_site_label
 _atom_site_symmetry_multiplicity
 _atom_site_fract_x
 _atom_site_fract_y
 _atom_site_fract_z
 _atom_site_occupancy
  Li  Li0  1  0.00000000  0.00000000  0.00000000  1
  Li  Li1  1  0.50000000  0.50000000  0.50000000  1
  Cu  Cu2  1  0.50000000  0.50000000  0.00000000  1
  Cu  Cu3  1  0.50000000  0.00000000  0.50000000  1
  Zn  Zn4  1  0.00000000  0.50000000  0.50000000  1
  Zn  Zn5  1  0.11922932  0.24492050  0.18453862  1
  As  As6  1  0.55883914  0.68636496  0.61144705  1
  As  As7  1  0.39020642  0.02292424  0.81171083  1
  As  As8  1  0.29431960  0.31039870  0.46739130  1
  As  As9  1  0.97749174  0.79932452  0.93160802  1
  As  As10  1  0.24417482  0.29697387  0.33360101  1
  As  As11  1  0.18077049  0.36303378  0.13835666  1
  O  O12  1  0.08215297  0.50083373  0.39061923  1
  O  O13  1  0.44715037  0.19458962  0.31505241  1
  O  O14  1  0.49765263  0.69003404  0.08054900  1
  O  O15  1  0.65569535  0.10786304  0.89975761  1
