# generated using pymatgen
data_Li2Cu2As6P4F3
_symmetry_space_group_name_H-M   'P 1'
_cell_length_a   7.53835360
_cell_length_b   7.44221228
_cell_length_c   8.29555934
_cell_angle_alpha   91.04337513
_cell_angle_beta   92.10078591
_cell_angle_gamma   91.19585085
_symmetry_Int_Tables_number   1
_chemical_formula_structural   Li2Cu2As6P4F3
_chemical_formula_sum   'Li2 Cu2 As6 P4 F3'
_cell_volume   464.89974581
_cell_formula_units_Z   1
loop_
 _symmetry_equiv_pos_site_id
 _symmetry_equiv_pos_as_xyz
  1  'x, y, z'
loop_
 _atom_site_type_symbol
 _atom_site_label
 _atom_site_symmetry_multiplicity
 _atom_site_fract_x
 _atom_site_fract_y
 _atom_site_fract_z
 _atom_site_occupancy
  P  P0  1  0.00000000  0.00000000  0.00000000  1
  P  P1  1  0.50000000  0.50000000  0.50000000  1
  P  P2  1  0.50000000  0.50000000  0.00000000  1
  P  P3  1  0.50000000  0.00000000  0.50000000  1
  Li  Li4  1  0.00000000  0.50000000  0.50000000  1
  Li  Li5  1  0.76360317  0.89436317  0.32548698  1
  Cu  Cu6  1  0.52185532  0.44232619  0.93160912  1
  Cu  Cu7  1  0.97320300  0.79839194  0.40586591  1
  F  F8  1  0.35341435  0.50853710  0.57218770  1
  F  F9  1  0.84748376  0.16337940  0.92635070  1
  F  F10  1  0.06687569  0.20802374  0.39143860  1
  As  As11  1  0.84436953  0.22922634  0.09377837  1
  As  As12  1  0.58384412  0.36555693  0.68686477  1
  As  As13  1  0.84985943  0.68170038  0.69594794  1
  As  As14  1  0.29004379  0.56643014  0.09928409  1
  As  As15  1  0.23822099  0.67230348  0.83525230  1
  As  As16  1  0.19728131  0.19074347  0.92636596  1
