# generated using pymatgen
data_Li2LuCu2(NiP2)2
_symmetry_space_group_name_H-M   'P 1'
_cell_length_a   7.58414590
_cell_length_b   7.37765036
_cell_length_c   8.02467874
_cell_angle_alpha   91.51517362
_cell_angle_beta   91.56748697
_cell_angle_gamma   91.70590533
_symmetry_Int_Tables_number   1
_chemical_formula_structural   Li2LuCu2(NiP2)2
_chemical_formula_sum   'Li2 Lu1 Cu2 Ni2 P4'
_cell_volume   448.47237386
_cell_formula_units_Z   1
loop_
 _symmetry_equiv_pos_site_id
 _symmetry_equiv_pos_as_xyz
  1  'x, y, z'
loop_
 _atom_site_type_symbol
 _atom_site_label
 _atom_site_symmetry_multiplicity
 _atom_site_fract_x
 _atom_site_fract_y
 _atom_site_fract_z
 _atom_site_occupancy
  P  P0  1  0.00000000  0.00000000  0.00000000  1
  P  P1  1  0.50000000  0.50000000  0.50000000  1
  P  P2  1  0.50000000  0.50000000  0.00000000  1
  P  P3  1  0.50000000  0.00000000  0.50000000  1
  Lu  Lu4  1  0.00000000  0.50000000  0.50000000  1
  Li  Li5  1  0.22944768  0.86013129  0.53669392  1
  Li  Li6  1  0.21983126  0.74875258  0.97787484  1
  Cu  Cu7  1  0.83396040  0.15365273  0.75628686  1
  Cu  Cu8  1  0.99600397  0.58686963  0.33412843  1
  Ni  Ni9  1  0.76649350  0.25379893  0.41627844  1
  Ni  Ni10  1  0.43586752  0.48421827  0.64316754  1
