# generated using pymatgen
data_LiZnTe3P2
_symmetry_space_group_name_H-M   'P 1'
_cell_length_a   7.87761408
_cell_length_b   8.19042930
_cell_length_c   7.45616312
_cell_angle_alpha   92.57714325
_cell_angle_beta   93.20488774
_cell_angle_gamma   92.46749550
_symmetry_Int_Tables_number   1
_chemical_formula_structural   LiZnTe3P2
_chemical_formula_sum   'Li2 Zn2 Te6 P4'
_cell_volume   479.34020718
_cell_formula_units_Z   2
loop_
 _symmetry_equiv_pos_site_id
 _symmetry_equiv_pos_as_xyz
  1  'x, y, z'
loop_
 _atom_site_type_symbol
 _atom_site_label
 _atom_site_symmetry_multiplicity
 _atom_site_fract_x
 _atom_site_fract_y
 _atom_site_fract_z
 _atom_site_occupancy
  Te  Te0  1  0.00000000  0.00000000  0.00000000  1
  Te  Te1  1  0.50000000  0.50000000  0.50000000  1
  Te  Te2  1  0.50000000  0.50000000  0.00000000  1
  Te  Te3  1  0.50000000  0.00000000  0.50000000  1
  Te  Te4  1  0.00000000  0.50000000  0.50000000  1
  Te  Te5  1  0.95036759  0.47073889  0.60148751  1
  P  P6  1  0.43039588  0.87772498  0.33533143  1
  P  P7  1  0.00010136  0.54965540  0.74549846  1
  P  P8  1  0.38354918  0.17199890  0.93603688  1
  P  P9  1  0.65267512  0.34182577  0.99005293  1
  Li  Li10  1  0.95932726  0.70450944  0.79815234  1
  Li  Li11  1  0.90191154  0.45770809  0.74443158  1
  Zn  Zn12  1  0.76254728  0.60141826  0.04206365  1
  Zn  Zn13  1  0.33087874  0.01628232  0.56864595  1
