# generated using pymatgen
data_Li3Zn2Ni2Te6O5
_symmetry_space_group_name_H-M   'P 1'
_cell_length_a   8.30140377
_cell_length_b   8.56144658
_cell_length_c   7.86554497
_cell_angle_alpha   90.56437397
_cell_angle_beta   90.35781125
_cell_angle_gamma   90.65400846
_symmetry_Int_Tables_number   1
_chemical_formula_structural   Li3Zn2Ni2Te6O5
_chemical_formula_sum   'Li3 Zn2 Ni2 Te6 O5'
_cell_volume   558.94537467
_cell_formula_units_Z   1
loop_
 _symmetry_equiv_pos_site_id
 _symmetry_equiv_pos_as_xyz
  1  'x, y, z'
loop_
 _atom_site_type_symbol
 _atom_site_label
 _atom_site_symmetry_multiplicity
 _atom_site_fract_x
 _atom_site_fract_y
 _atom_site_fract_z
 _atom_site_occupancy
  Li  Li0  1  0.00000000  0.00000000  0.00000000  1
  Li  Li1  1  0.50000000  0.50000000  0.50000000  1
  Li  Li2  1  0.50000000  0.50000000  0.00000000  1
  Zn  Zn3  1  0.50000000  0.00000000  0.50000000  1
  Zn  Zn4  1  0.00000000  0.50000000  0.50000000  1
  Ni  Ni5  1  0.67291609  0.84010096  0.33047415  1
  Ni  Ni6  1  0.81668255  0.08575803  0.10592841  1
  Te  Te7  1  0.23417276  0.11931367  0.14775232  1
  Te  Te8  1  0.82572931  0.55223799  0.10729658  1
  Te  Te9  1  0.18189482  0.08043055  0.92246359  1
  Te  Te10  1  0.59729172  0.59226702  0.85754862  1
  Te  Te11  1  0.70792995  0.87819901  0.06692562  1
  Te  Te12  1  0.94844410  0.04010463  0.35896151  1
  O  O13  1  0.52159546  0.77519512  0.39574391  1
  O  O14  1  0.61168509  0.46790346  0.84276484  1
  O  O15  1  0.56621055  0.88075327  0.91416727  1
  O  O16  1  0.93932491  0.26807357  0.16885229  1
  O  O17  1  0.04051698  0.07623230  0.60235251  1
