# generated using pymatgen
data_Li3TiP3I4O3
_symmetry_space_group_name_H-M   'P 1'
_cell_length_a   8.39995639
_cell_length_b   8.08609792
_cell_length_c   6.96355369
_cell_angle_alpha   90.00000000
_cell_angle_beta   90.00000000
_cell_angle_gamma   90.00000000
_symmetry_Int_Tables_number   1
_chemical_formula_structural   Li3TiP3I4O3
_chemical_formula_sum   'Li3 Ti1 P3 I4 O3'
_cell_volume   472.98455131
_cell_formula_units_Z   1
loop_
 _symmetry_equiv_pos_site_id
 _symmetry_equiv_pos_as_xyz
  1  'x, y, z'
loop_
 _atom_site_type_symbol
 _atom_site_label
 _atom_site_symmetry_multiplicity
 _atom_site_fract_x
 _atom_site_fract_y
 _atom_site_fract_z
 _atom_site_occupancy
  P  P0  1  0.00000000  0.00000000  0.00000000  1
  P  P1  1  0.50000000  0.50000000  0.50000000  1
  P  P2  1  0.50000000  0.50000000  0.00000000  1
  I  I3  1  0.50000000  0.00000000  0.50000000  1
  I  I4  1  0.00000000  0.50000000  0.50000000  1
  I  I5  1  0.99128393  0.50973547  0.82725041  1
  I  I6  1  0.02820164  0.25554089  0.05749285  1
  Li  Li7  1  0.45619070  0.97000461  0.53488504  1
  Li  Li8  1  0.23676147  0.66144590  0.59175582  1
  Li  Li9  1  0.02300691  0.68469686  0.14578377  1
  Ti  Ti10  1  0.71270150  0.55438084  0.04421984  1
  O  O11  1  0.28488958  0.20512911  0.62622367  1
  O  O12  1  0.59843975  0.84563314  0.09248554  1
  O  O13  1  0.44686856  0.30569427  0.32963192  1
