# generated using pymatgen
data_Li2LuCu2(NiP2)2
_symmetry_space_group_name_H-M   'P 1'
_cell_length_a   7.25157852
_cell_length_b   7.14456116
_cell_length_c   7.92240360
_cell_angle_alpha   93.64454704
_cell_angle_beta   94.13268513
_cell_angle_gamma   93.69242519
_symmetry_Int_Tables_number   1
_chemical_formula_structural   Li2LuCu2(NiP2)2
_chemical_formula_sum   'Li2 Lu1 Cu2 Ni2 P4'
_cell_volume   407.57708865
_cell_formula_units_Z   1
loop_
 _symmetry_equiv_pos_site_id
 _symmetry_equiv_pos_as_xyz
  1  'x, y, z'
loop_
 _atom_site_type_symbol
 _atom_site_label
 _atom_site_symmetry_multiplicity
 _atom_site_fract_x
 _atom_site_fract_y
 _atom_site_fract_z
 _atom_site_occupancy
  Ni  Ni0  1  0.12500000  0.00000000  0.25000000  1
  Ni  Ni1  1  0.00000000  0.00000000  0.00000000  1
  P  P2  1  0.37500000  0.00000000  0.25000000  1
  P  P3  1  0.25000000  0.25000000  0.25000000  1
  P  P4  1  0.00000000  0.25000000  0.12500000  1
  P  P5  1  0.04655864  0.48395981  0.47831735  1
  Lu  Lu6  1  0.79400194  0.50621019  0.77779801  1
  Li  Li7  1  0.31966664  0.87749026  0.62492947  1
  Li  Li8  1  0.77079398  0.72866601  0.15489543  1
  Cu  Cu9  1  0.64346654  0.75548526  0.32047058  1
  Cu  Cu10  1  0.61817833  0.17571663  0.67339289  1
