# generated using pymatgen
data_Li4LuV(PO)3
_symmetry_space_group_name_H-M   'P 1'
_cell_length_a   7.18570890
_cell_length_b   7.15846831
_cell_length_c   7.40817780
_cell_angle_alpha   94.26620904
_cell_angle_beta   91.50828404
_cell_angle_gamma   94.94828603
_symmetry_Int_Tables_number   1
_chemical_formula_structural   Li4LuV(PO)3
_chemical_formula_sum   'Li4 Lu1 V1 P3 O3'
_cell_volume   378.38902381
_cell_formula_units_Z   1
loop_
 _symmetry_equiv_pos_site_id
 _symmetry_equiv_pos_as_xyz
  1  'x, y, z'
loop_
 _atom_site_type_symbol
 _atom_site_label
 _atom_site_symmetry_multiplicity
 _atom_site_fract_x
 _atom_site_fract_y
 _atom_site_fract_z
 _atom_site_occupancy
  P  P0  1  0.00000000  0.00000000  0.00000000  1
  P  P1  1  0.50000000  0.50000000  0.50000000  1
  P  P2  1  0.50000000  0.50000000  0.00000000  1
  Lu  Lu3  1  0.50000000  0.00000000  0.50000000  1
  Li  Li4  1  0.00000000  0.50000000  0.50000000  1
  Li  Li5  1  0.02029480  0.57436612  0.14791284  1
  Li  Li6  1  0.83773887  0.44718524  0.24080432  1
  Li  Li7  1  0.04637070  0.47383535  0.74779725  1
  V  V8  1  0.45537249  0.49583769  0.95776750  1
  O  O9  1  0.21255685  0.31921716  0.46067997  1
  O  O10  1  0.88477874  0.32585955  0.41356574  1
  O  O11  1  0.14342368  0.64636900  0.07304242  1
