# generated using pymatgen
data_Li2Lu(CuAs3)2
_symmetry_space_group_name_H-M   'P 1'
_cell_length_a   7.96213501
_cell_length_b   7.95016085
_cell_length_c   8.05371538
_cell_angle_alpha   90.84950102
_cell_angle_beta   91.48198845
_cell_angle_gamma   90.93199976
_symmetry_Int_Tables_number   1
_chemical_formula_structural   Li2Lu(CuAs3)2
_chemical_formula_sum   'Li2 Lu1 Cu2 As6'
_cell_volume   509.50499509
_cell_formula_units_Z   1
loop_
 _symmetry_equiv_pos_site_id
 _symmetry_equiv_pos_as_xyz
  1  'x, y, z'
loop_
 _atom_site_type_symbol
 _atom_site_label
 _atom_site_symmetry_multiplicity
 _atom_site_fract_x
 _atom_site_fract_y
 _atom_site_fract_z
 _atom_site_occupancy
  Lu  Lu0  1  0.00000000  0.00000000  0.00000000  1
  As  As1  1  0.50000000  0.50000000  0.50000000  1
  As  As2  1  0.50000000  0.50000000  0.00000000  1
  As  As3  1  0.50000000  0.00000000  0.50000000  1
  As  As4  1  0.00000000  0.50000000  0.50000000  1
  As  As5  1  0.00914840  0.12243692  0.40847474  1
  As  As6  1  0.50321119  0.97393733  0.24041341  1
  Li  Li7  1  0.61356166  0.14984228  0.10627944  1
  Li  Li8  1  0.63325088  0.26972890  0.54768251  1
  Cu  Cu9  1  0.71525280  0.74083569  0.33093632  1
  Cu  Cu10  1  0.69409075  0.16393941  0.13080159  1
