# generated using pymatgen
data_Li2As6I4O7F3
_symmetry_space_group_name_H-M   'P 1'
_cell_length_a   7.96417731
_cell_length_b   7.77098003
_cell_length_c   8.14275648
_cell_angle_alpha   91.16012746
_cell_angle_beta   91.10894719
_cell_angle_gamma   91.34297165
_symmetry_Int_Tables_number   1
_chemical_formula_structural   Li2As6I4O7F3
_chemical_formula_sum   'Li2 As6 I4 O7 F3'
_cell_volume   503.60999989
_cell_formula_units_Z   1
loop_
 _symmetry_equiv_pos_site_id
 _symmetry_equiv_pos_as_xyz
  1  'x, y, z'
loop_
 _atom_site_type_symbol
 _atom_site_label
 _atom_site_symmetry_multiplicity
 _atom_site_fract_x
 _atom_site_fract_y
 _atom_site_fract_z
 _atom_site_occupancy
  I  I0  1  0.12500000  0.00000000  0.25000000  1
  I  I1  1  0.00000000  0.00000000  0.00000000  1
  I  I2  1  0.37500000  0.00000000  0.25000000  1
  I  I3  1  0.25000000  0.25000000  0.25000000  1
  Li  Li4  1  0.00000000  0.25000000  0.12500000  1
  Li  Li5  1  0.34617870  0.63544102  0.34913633  1
  F  F6  1  0.38058316  0.28425130  0.81135946  1
  F  F7  1  0.64315541  0.16662869  0.67401128  1
  F  F8  1  0.19417679  0.68409687  0.61586733  1
  As  As9  1  0.31507869  0.96520597  0.90164656  1
  As  As10  1  0.51252726  0.16203474  0.05012137  1
  As  As11  1  0.60627451  0.01792086  0.70884372  1
  As  As12  1  0.90975023  0.03558739  0.30772073  1
  As  As13  1  0.01353633  0.37260302  0.02111179  1
  As  As14  1  0.18364468  0.93939280  0.70986313  1
  O  O15  1  0.21737183  0.72655429  0.00058989  1
  O  O16  1  0.47289062  0.64981061  0.72943349  1
  O  O17  1  0.13553239  0.98853783  0.93087743  1
  O  O18  1  0.70273235  0.14357531  0.64790817  1
  O  O19  1  0.03183801  0.78272598  0.99320418  1
  O  O20  1  0.28888943  0.88780877  0.46765090  1
  O  O21  1  0.64293591  0.80652035  0.60380331  1
