# generated using pymatgen
data_Li3LuCu2(NiP2)2
_symmetry_space_group_name_H-M   'P 1'
_cell_length_a   7.48181894
_cell_length_b   7.27981199
_cell_length_c   8.46374524
_cell_angle_alpha   92.20533113
_cell_angle_beta   91.55181900
_cell_angle_gamma   92.55500471
_symmetry_Int_Tables_number   1
_chemical_formula_structural   Li3LuCu2(NiP2)2
_chemical_formula_sum   'Li3 Lu1 Cu2 Ni2 P4'
_cell_volume   459.99746204
_cell_formula_units_Z   1
loop_
 _symmetry_equiv_pos_site_id
 _symmetry_equiv_pos_as_xyz
  1  'x, y, z'
loop_
 _atom_site_type_symbol
 _atom_site_label
 _atom_site_symmetry_multiplicity
 _atom_site_fract_x
 _atom_site_fract_y
 _atom_site_fract_z
 _atom_site_occupancy
  P  P0  1  0.00000000  0.00000000  0.00000000  1
  P  P1  1  0.50000000  0.50000000  0.50000000  1
  P  P2  1  0.50000000  0.50000000  0.00000000  1
  P  P3  1  0.50000000  0.00000000  0.50000000  1
  Lu  Lu4  1  0.00000000  0.50000000  0.50000000  1
  Li  Li5  1  0.86999789  0.12968302  0.88055825  1
  Li  Li6  1  0.33660282  0.36417193  0.00791149  1
  Li  Li7  1  0.47559330  0.90631356  0.94011092  1
  Cu  Cu8  1  0.78536605  0.33628769  0.28157983  1
  Cu  Cu9  1  0.29131185  0.03023994  0.10117076  1
  Ni  Ni10  1  0.39439466  0.21110443  0.62634021  1
  Ni  Ni11  1  0.97513055  0.08155159  0.60268026  1
