# generated using pymatgen
data_LiCuAs3I2
_symmetry_space_group_name_H-M   'P 1'
_cell_length_a   7.35596719
_cell_length_b   7.28659287
_cell_length_c   7.99748398
_cell_angle_alpha   91.71324442
_cell_angle_beta   92.96910448
_cell_angle_gamma   91.68590143
_symmetry_Int_Tables_number   1
_chemical_formula_structural   LiCuAs3I2
_chemical_formula_sum   'Li2 Cu2 As6 I4'
_cell_volume   427.69186661
_cell_formula_units_Z   2
loop_
 _symmetry_equiv_pos_site_id
 _symmetry_equiv_pos_as_xyz
  1  'x, y, z'
loop_
 _atom_site_type_symbol
 _atom_site_label
 _atom_site_symmetry_multiplicity
 _atom_site_fract_x
 _atom_site_fract_y
 _atom_site_fract_z
 _atom_site_occupancy
  I  I0  1  0.12500000  0.12500000  0.12500000  1
  I  I1  1  0.50000000  0.50000000  0.50000000  1
  I  I2  1  0.25000000  0.25000000  0.25000000  1
  I  I3  1  0.75000000  0.75000000  0.75000000  1
  Li  Li4  1  0.56338396  0.12356947  0.79315115  1
  Li  Li5  1  0.48903883  0.76212597  0.48161155  1
  Cu  Cu6  1  0.85944829  0.27705742  0.09774100  1
  Cu  Cu7  1  0.72186768  0.77359135  0.92133482  1
  As  As8  1  0.35250847  0.01327532  0.21204515  1
  As  As9  1  0.80293471  0.32285941  0.47077816  1
  As  As10  1  0.11377037  0.43523656  0.22132193  1
  As  As11  1  0.68061064  0.83510494  0.04722422  1
  As  As12  1  0.89566875  0.03229231  0.21598410  1
  As  As13  1  0.33648215  0.35392702  0.68969172  1
