# generated using pymatgen
data_Li3TiNi2I4O3
_symmetry_space_group_name_H-M   'P 1'
_cell_length_a   7.18094395
_cell_length_b   6.98781408
_cell_length_c   7.40511399
_cell_angle_alpha   95.49658423
_cell_angle_beta   97.29405859
_cell_angle_gamma   95.16736177
_symmetry_Int_Tables_number   1
_chemical_formula_structural   Li3TiNi2I4O3
_chemical_formula_sum   'Li3 Ti1 Ni2 I4 O3'
_cell_volume   364.90849615
_cell_formula_units_Z   1
loop_
 _symmetry_equiv_pos_site_id
 _symmetry_equiv_pos_as_xyz
  1  'x, y, z'
loop_
 _atom_site_type_symbol
 _atom_site_label
 _atom_site_symmetry_multiplicity
 _atom_site_fract_x
 _atom_site_fract_y
 _atom_site_fract_z
 _atom_site_occupancy
  I  I0  1  0.12500000  0.00000000  0.25000000  1
  I  I1  1  0.00000000  0.00000000  0.00000000  1
  I  I2  1  0.37500000  0.00000000  0.25000000  1
  I  I3  1  0.25000000  0.25000000  0.25000000  1
  Li  Li4  1  0.00000000  0.25000000  0.12500000  1
  Li  Li5  1  0.40169787  0.28906055  0.02098672  1
  Li  Li6  1  0.20174577  0.77307586  0.15670541  1
  Ni  Ni7  1  0.46173292  0.16717033  0.05896790  1
  Ni  Ni8  1  0.40880556  0.29395420  0.24155936  1
  Ti  Ti9  1  0.52897190  0.27403755  0.72155997  1
  O  O10  1  0.87759066  0.79624136  0.26104856  1
  O  O11  1  0.19515779  0.15723138  0.93450832  1
  O  O12  1  0.31945020  0.38140389  0.92489971  1
