# generated using pymatgen
data_Li2TiI4O3
_symmetry_space_group_name_H-M   'P 1'
_cell_length_a   7.15885446
_cell_length_b   7.17958471
_cell_length_c   6.93277705
_cell_angle_alpha   93.00991804
_cell_angle_beta   96.82021845
_cell_angle_gamma   93.76670208
_symmetry_Int_Tables_number   1
_chemical_formula_structural   Li2TiI4O3
_chemical_formula_sum   'Li2 Ti1 I4 O3'
_cell_volume   352.38765082
_cell_formula_units_Z   1
loop_
 _symmetry_equiv_pos_site_id
 _symmetry_equiv_pos_as_xyz
  1  'x, y, z'
loop_
 _atom_site_type_symbol
 _atom_site_label
 _atom_site_symmetry_multiplicity
 _atom_site_fract_x
 _atom_site_fract_y
 _atom_site_fract_z
 _atom_site_occupancy
  I  I0  1  0.12500000  0.12500000  0.12500000  1
  I  I1  1  0.50000000  0.50000000  0.50000000  1
  I  I2  1  0.25000000  0.25000000  0.25000000  1
  I  I3  1  0.75000000  0.75000000  0.75000000  1
  Li  Li4  1  0.88984233  0.21749264  0.06892326  1
  Li  Li5  1  0.94224723  0.16291364  0.28042021  1
  Ti  Ti6  1  0.99322652  0.45705471  0.14672071  1
  O  O7  1  0.04467627  0.33928205  0.36866549  1
  O  O8  1  0.64232423  0.41770846  0.98240281  1
  O  O9  1  0.74228541  0.15832027  0.16425490  1
