# generated using pymatgen
data_LiAs6I4N5F2
_symmetry_space_group_name_H-M   'P 1'
_cell_length_a   7.76636012
_cell_length_b   7.67820893
_cell_length_c   7.87082016
_cell_angle_alpha   91.52275647
_cell_angle_beta   92.45475691
_cell_angle_gamma   91.75135074
_symmetry_Int_Tables_number   1
_chemical_formula_structural   LiAs6I4N5F2
_chemical_formula_sum   'Li1 As6 I4 N5 F2'
_cell_volume   468.51818415
_cell_formula_units_Z   1
loop_
 _symmetry_equiv_pos_site_id
 _symmetry_equiv_pos_as_xyz
  1  'x, y, z'
loop_
 _atom_site_type_symbol
 _atom_site_label
 _atom_site_symmetry_multiplicity
 _atom_site_fract_x
 _atom_site_fract_y
 _atom_site_fract_z
 _atom_site_occupancy
  I  I0  1  0.12500000  0.00000000  0.25000000  1
  I  I1  1  0.00000000  0.00000000  0.00000000  1
  I  I2  1  0.37500000  0.00000000  0.25000000  1
  I  I3  1  0.25000000  0.25000000  0.25000000  1
  Li  Li4  1  0.00000000  0.25000000  0.12500000  1
  F  F5  1  0.14633736  0.53227510  0.03856586  1
  F  F6  1  0.27873412  0.45384748  0.41418215  1
  As  As7  1  0.27933074  0.99842003  0.27764604  1
  As  As8  1  0.06196231  0.56961690  0.94574324  1
  As  As9  1  0.92734925  0.20859338  0.53060764  1
  As  As10  1  0.94580927  0.80871327  0.84211696  1
  As  As11  1  0.17901880  0.88609776  0.19644587  1
  As  As12  1  0.67335158  0.72264820  0.78474462  1
  N  N13  1  0.48767156  0.79703369  0.41104611  1
  N  N14  1  0.83414560  0.83086826  0.97624440  1
  N  N15  1  0.87153297  0.71337350  0.83132513  1
  N  N16  1  0.30241941  0.50325420  0.66646892  1
  N  N17  1  0.27702001  0.45302345  0.90134685  1
