# generated using pymatgen
data_Li2LuCu2(NiAs3)2
_symmetry_space_group_name_H-M   'P 1'
_cell_length_a   7.62805829
_cell_length_b   7.43376454
_cell_length_c   8.21841614
_cell_angle_alpha   91.47168964
_cell_angle_beta   91.48939833
_cell_angle_gamma   91.65127461
_symmetry_Int_Tables_number   1
_chemical_formula_structural   Li2LuCu2(NiAs3)2
_chemical_formula_sum   'Li2 Lu1 Cu2 Ni2 As6'
_cell_volume   465.51298678
_cell_formula_units_Z   1
loop_
 _symmetry_equiv_pos_site_id
 _symmetry_equiv_pos_as_xyz
  1  'x, y, z'
loop_
 _atom_site_type_symbol
 _atom_site_label
 _atom_site_symmetry_multiplicity
 _atom_site_fract_x
 _atom_site_fract_y
 _atom_site_fract_z
 _atom_site_occupancy
  Lu  Lu0  1  0.00000000  0.00000000  0.00000000  1
  Li  Li1  1  0.50000000  0.50000000  0.50000000  1
  Li  Li2  1  0.25000000  0.25000000  0.25000000  1
  Cu  Cu3  1  0.75000000  0.25000000  0.00000000  1
  Cu  Cu4  1  0.25000000  0.75000000  0.50000000  1
  Ni  Ni5  1  0.57278995  0.59439840  0.95129004  1
  Ni  Ni6  1  0.83814515  0.60354104  0.21299301  1
  As  As7  1  0.54511487  0.00591769  0.77204418  1
  As  As8  1  0.92591969  0.50370040  0.03352095  1
  As  As9  1  0.75794943  0.62813542  0.71849569  1
  As  As10  1  0.01577611  0.84189729  0.80981860  1
  As  As11  1  0.17085579  0.88730800  0.67735737  1
  As  As12  1  0.49110476  0.28527585  0.19455032  1
