# generated using pymatgen
data_Li2TiP4F2
_symmetry_space_group_name_H-M   'P 1'
_cell_length_a   6.94328231
_cell_length_b   6.76379629
_cell_length_c   7.40085333
_cell_angle_alpha   91.64135636
_cell_angle_beta   92.85629079
_cell_angle_gamma   91.27379005
_symmetry_Int_Tables_number   1
_chemical_formula_structural   Li2TiP4F2
_chemical_formula_sum   'Li2 Ti1 P4 F2'
_cell_volume   346.89422506
_cell_formula_units_Z   1
loop_
 _symmetry_equiv_pos_site_id
 _symmetry_equiv_pos_as_xyz
  1  'x, y, z'
loop_
 _atom_site_type_symbol
 _atom_site_label
 _atom_site_symmetry_multiplicity
 _atom_site_fract_x
 _atom_site_fract_y
 _atom_site_fract_z
 _atom_site_occupancy
  P  P0  1  0.00000000  0.00000000  0.00000000  1
  P  P1  1  0.33300000  0.66700000  0.25000000  1
  P  P2  1  0.66700000  0.33300000  0.50000000  1
  P  P3  1  0.00000000  0.00000000  0.75000000  1
  Li  Li4  1  0.70220077  0.09255900  0.11941960  1
  Li  Li5  1  0.36440909  0.95280945  0.38181218  1
  F  F6  1  0.89214382  0.54057876  0.43181777  1
  F  F7  1  0.64472120  0.69975859  0.64112890  1
  Ti  Ti8  1  0.78787865  0.29864250  0.88631439  1
