# generated using pymatgen
data_Li2LuP4N5F2
_symmetry_space_group_name_H-M   'P 1'
_cell_length_a   7.31184880
_cell_length_b   7.05083401
_cell_length_c   8.58505754
_cell_angle_alpha   93.05759139
_cell_angle_beta   92.27492178
_cell_angle_gamma   93.57137477
_symmetry_Int_Tables_number   1
_chemical_formula_structural   Li2LuP4N5F2
_chemical_formula_sum   'Li2 Lu1 P4 N5 F2'
_cell_volume   440.70001277
_cell_formula_units_Z   1
loop_
 _symmetry_equiv_pos_site_id
 _symmetry_equiv_pos_as_xyz
  1  'x, y, z'
loop_
 _atom_site_type_symbol
 _atom_site_label
 _atom_site_symmetry_multiplicity
 _atom_site_fract_x
 _atom_site_fract_y
 _atom_site_fract_z
 _atom_site_occupancy
  P  P0  1  0.12500000  0.00000000  0.25000000  1
  P  P1  1  0.00000000  0.00000000  0.00000000  1
  P  P2  1  0.37500000  0.00000000  0.25000000  1
  P  P3  1  0.25000000  0.25000000  0.25000000  1
  Lu  Lu4  1  0.00000000  0.25000000  0.12500000  1
  Li  Li5  1  0.87619704  0.37130735  0.74361499  1
  Li  Li6  1  0.23533654  0.41098696  0.29425760  1
  F  F7  1  0.17299777  0.66754465  0.82928763  1
  F  F8  1  0.04511451  0.83903169  0.79247772  1
  N  N9  1  0.73534750  0.11094512  0.33851863  1
  N  N10  1  0.26632900  0.27223236  0.41124712  1
  N  N11  1  0.01868600  0.49272230  0.06895009  1
  N  N12  1  0.56891088  0.27697414  0.23742867  1
  N  N13  1  0.54846728  0.06861549  0.38314720  1
