# generated using pymatgen
data_LiCuP2
_symmetry_space_group_name_H-M   'P 1'
_cell_length_a   7.27196157
_cell_length_b   7.32772950
_cell_length_c   8.11480545
_cell_angle_alpha   92.76542683
_cell_angle_beta   94.02891867
_cell_angle_gamma   92.76296084
_symmetry_Int_Tables_number   1
_chemical_formula_structural   LiCuP2
_chemical_formula_sum   'Li2 Cu2 P4'
_cell_volume   430.26441198
_cell_formula_units_Z   2
loop_
 _symmetry_equiv_pos_site_id
 _symmetry_equiv_pos_as_xyz
  1  'x, y, z'
loop_
 _atom_site_type_symbol
 _atom_site_label
 _atom_site_symmetry_multiplicity
 _atom_site_fract_x
 _atom_site_fract_y
 _atom_site_fract_z
 _atom_site_occupancy
  P  P0  1  0.12500000  0.00000000  0.25000000  1
  P  P1  1  0.00000000  0.00000000  0.00000000  1
  P  P2  1  0.37500000  0.00000000  0.25000000  1
  P  P3  1  0.25000000  0.25000000  0.25000000  1
  Li  Li4  1  0.00000000  0.25000000  0.12500000  1
  Li  Li5  1  0.39095343  0.53061838  0.49322578  1
  Cu  Cu6  1  0.00928141  0.42544066  0.74311435  1
  Cu  Cu7  1  0.36660851  0.42377511  0.28796598  1
