# generated using pymatgen
data_LiAs3(IO)2
_symmetry_space_group_name_H-M   'P 1'
_cell_length_a   7.89785856
_cell_length_b   7.66629213
_cell_length_c   7.51903105
_cell_angle_alpha   91.66995247
_cell_angle_beta   92.11247319
_cell_angle_gamma   91.60215456
_symmetry_Int_Tables_number   1
_chemical_formula_structural   LiAs3(IO)2
_chemical_formula_sum   'Li2 As6 I4 O4'
_cell_volume   454.56220988
_cell_formula_units_Z   2
loop_
 _symmetry_equiv_pos_site_id
 _symmetry_equiv_pos_as_xyz
  1  'x, y, z'
loop_
 _atom_site_type_symbol
 _atom_site_label
 _atom_site_symmetry_multiplicity
 _atom_site_fract_x
 _atom_site_fract_y
 _atom_site_fract_z
 _atom_site_occupancy
  I  I0  1  0.00000000  0.00000000  0.00000000  1
  I  I1  1  0.33300000  0.66700000  0.25000000  1
  I  I2  1  0.66700000  0.33300000  0.50000000  1
  I  I3  1  0.00000000  0.00000000  0.75000000  1
  Li  Li4  1  0.98804487  0.31948968  0.18489258  1
  Li  Li5  1  0.30002754  0.21419119  0.92570378  1
  As  As6  1  0.23655701  0.04324366  0.91436307  1
  As  As7  1  0.42461060  0.84727690  0.32410168  1
  As  As8  1  0.34958066  0.39586759  0.31470499  1
  As  As9  1  0.41161521  0.76314627  0.05008068  1
  As  As10  1  0.83390680  0.97690016  0.33344994  1
  As  As11  1  0.57245667  0.38392693  0.56350601  1
  O  O12  1  0.92294982  0.45413228  0.57583172  1
  O  O13  1  0.00216755  0.29274432  0.71116878  1
  O  O14  1  0.59880040  0.08087818  0.88764756  1
  O  O15  1  0.55142109  0.98164389  0.52106506  1
