# generated using pymatgen
data_Li3Ti(IO)4
_symmetry_space_group_name_H-M   'P 1'
_cell_length_a   7.29648962
_cell_length_b   7.18359138
_cell_length_c   7.15669034
_cell_angle_alpha   93.02477064
_cell_angle_beta   94.21016477
_cell_angle_gamma   92.78065328
_symmetry_Int_Tables_number   1
_chemical_formula_structural   Li3Ti(IO)4
_chemical_formula_sum   'Li3 Ti1 I4 O4'
_cell_volume   373.06726149
_cell_formula_units_Z   1
loop_
 _symmetry_equiv_pos_site_id
 _symmetry_equiv_pos_as_xyz
  1  'x, y, z'
loop_
 _atom_site_type_symbol
 _atom_site_label
 _atom_site_symmetry_multiplicity
 _atom_site_fract_x
 _atom_site_fract_y
 _atom_site_fract_z
 _atom_site_occupancy
  I  I0  1  0.12500000  0.00000000  0.25000000  1
  I  I1  1  0.00000000  0.00000000  0.00000000  1
  I  I2  1  0.37500000  0.00000000  0.25000000  1
  I  I3  1  0.25000000  0.25000000  0.25000000  1
  Li  Li4  1  0.00000000  0.25000000  0.12500000  1
  Li  Li5  1  0.50000658  0.76141098  0.08558508  1
  Li  Li6  1  0.16643469  0.36085429  0.59296785  1
  Ti  Ti7  1  0.77362792  0.97496876  0.44040505  1
  O  O8  1  0.46386006  0.42714372  0.52244907  1
  O  O9  1  0.57255300  0.75861149  0.40912626  1
  O  O10  1  0.18079060  0.00255585  0.46385623  1
  O  O11  1  0.81838069  0.54411380  0.43559715  1
