# generated using pymatgen
data_Li3LuCu2Ni2P5
_symmetry_space_group_name_H-M   'P 1'
_cell_length_a   7.48140618
_cell_length_b   7.28280737
_cell_length_c   8.41452259
_cell_angle_alpha   92.68334700
_cell_angle_beta   92.26089261
_cell_angle_gamma   92.91755663
_symmetry_Int_Tables_number   1
_chemical_formula_structural   Li3LuCu2Ni2P5
_chemical_formula_sum   'Li3 Lu1 Cu2 Ni2 P5'
_cell_volume   456.97203854
_cell_formula_units_Z   1
loop_
 _symmetry_equiv_pos_site_id
 _symmetry_equiv_pos_as_xyz
  1  'x, y, z'
loop_
 _atom_site_type_symbol
 _atom_site_label
 _atom_site_symmetry_multiplicity
 _atom_site_fract_x
 _atom_site_fract_y
 _atom_site_fract_z
 _atom_site_occupancy
  P  P0  1  0.12500000  0.00000000  0.25000000  1
  P  P1  1  0.00000000  0.00000000  0.00000000  1
  P  P2  1  0.37500000  0.00000000  0.25000000  1
  P  P3  1  0.25000000  0.25000000  0.25000000  1
  P  P4  1  0.00000000  0.25000000  0.12500000  1
  Lu  Lu5  1  0.54141833  0.50569494  0.33487260  1
  Li  Li6  1  0.70676771  0.35979373  0.54291799  1
  Li  Li7  1  0.13679441  0.20541181  0.18471860  1
  Li  Li8  1  0.59811418  0.31290217  0.88739172  1
  Cu  Cu9  1  0.89686319  0.52989760  0.71340353  1
  Cu  Cu10  1  0.21892015  0.24022875  0.19836035  1
  Ni  Ni11  1  0.36909613  0.37453270  0.81527463  1
  Ni  Ni12  1  0.96958037  0.57728644  0.75620787  1
