# generated using pymatgen
data_Li2Lu(CuP2)2
_symmetry_space_group_name_H-M   'P 1'
_cell_length_a   7.02901532
_cell_length_b   6.99787938
_cell_length_c   7.68965667
_cell_angle_alpha   93.72486499
_cell_angle_beta   94.68702435
_cell_angle_gamma   93.48642109
_symmetry_Int_Tables_number   1
_chemical_formula_structural   Li2Lu(CuP2)2
_chemical_formula_sum   'Li2 Lu1 Cu2 P4'
_cell_volume   375.34689130
_cell_formula_units_Z   1
loop_
 _symmetry_equiv_pos_site_id
 _symmetry_equiv_pos_as_xyz
  1  'x, y, z'
loop_
 _atom_site_type_symbol
 _atom_site_label
 _atom_site_symmetry_multiplicity
 _atom_site_fract_x
 _atom_site_fract_y
 _atom_site_fract_z
 _atom_site_occupancy
  P  P0  1  0.00000000  0.00000000  0.00000000  1
  P  P1  1  0.33300000  0.66700000  0.25000000  1
  P  P2  1  0.66700000  0.33300000  0.50000000  1
  P  P3  1  0.00000000  0.00000000  0.75000000  1
  Lu  Lu4  1  0.96174755  0.55000824  0.92917985  1
  Li  Li5  1  0.60850941  0.47413349  0.49140477  1
  Li  Li6  1  0.66754952  0.76996274  0.72714926  1
  Cu  Cu7  1  0.46129311  0.42750942  0.17731876  1
  Cu  Cu8  1  0.56657068  0.71741961  0.36880046  1
