# generated using pymatgen
data_Li2I4O3F2
_symmetry_space_group_name_H-M   'P 1'
_cell_length_a   6.51342605
_cell_length_b   6.38724072
_cell_length_c   7.44806353
_cell_angle_alpha   96.02851649
_cell_angle_beta   98.84978656
_cell_angle_gamma   95.93154973
_symmetry_Int_Tables_number   1
_chemical_formula_structural   Li2I4O3F2
_chemical_formula_sum   'Li2 I4 O3 F2'
_cell_volume   302.21853151
_cell_formula_units_Z   1
loop_
 _symmetry_equiv_pos_site_id
 _symmetry_equiv_pos_as_xyz
  1  'x, y, z'
loop_
 _atom_site_type_symbol
 _atom_site_label
 _atom_site_symmetry_multiplicity
 _atom_site_fract_x
 _atom_site_fract_y
 _atom_site_fract_z
 _atom_site_occupancy
  I  I0  1  0.12500000  0.12500000  0.12500000  1
  I  I1  1  0.50000000  0.50000000  0.50000000  1
  I  I2  1  0.25000000  0.25000000  0.25000000  1
  I  I3  1  0.75000000  0.75000000  0.75000000  1
  Li  Li4  1  0.47374463  0.14683147  0.09352636  1
  Li  Li5  1  0.62944245  0.48269394  0.28044094  1
  F  F6  1  0.62481784  0.19504625  0.43471301  1
  F  F7  1  0.73938711  0.46143940  0.20838468  1
  O  O8  1  0.52784074  0.20365146  0.12375953  1
  O  O9  1  0.55301436  0.51213847  0.11153343  1
  O  O10  1  0.01926556  0.26860245  0.05697429  1
