# generated using pymatgen
data_Li2LuCu2(As3P2)2
_symmetry_space_group_name_H-M   'P 1'
_cell_length_a   7.53915169
_cell_length_b   7.35069772
_cell_length_c   8.12794530
_cell_angle_alpha   92.00675234
_cell_angle_beta   92.11257003
_cell_angle_gamma   92.14559601
_symmetry_Int_Tables_number   1
_chemical_formula_structural   Li2LuCu2(As3P2)2
_chemical_formula_sum   'Li2 Lu1 Cu2 As6 P4'
_cell_volume   449.51408001
_cell_formula_units_Z   1
loop_
 _symmetry_equiv_pos_site_id
 _symmetry_equiv_pos_as_xyz
  1  'x, y, z'
loop_
 _atom_site_type_symbol
 _atom_site_label
 _atom_site_symmetry_multiplicity
 _atom_site_fract_x
 _atom_site_fract_y
 _atom_site_fract_z
 _atom_site_occupancy
  P  P0  1  0.00000000  0.00000000  0.00000000  1
  P  P1  1  0.50000000  0.50000000  0.50000000  1
  P  P2  1  0.25000000  0.25000000  0.25000000  1
  P  P3  1  0.75000000  0.25000000  0.00000000  1
  Lu  Lu4  1  0.25000000  0.75000000  0.50000000  1
  Li  Li5  1  0.36500606  0.03751147  0.52177816  1
  Li  Li6  1  0.19673928  0.63924764  0.04701902  1
  Cu  Cu7  1  0.79462273  0.72199061  0.89501238  1
  Cu  Cu8  1  0.63896392  0.76156723  0.47609378  1
  As  As9  1  0.98119610  0.94220128  0.48541483  1
  As  As10  1  0.51975811  0.16250487  0.10012368  1
  As  As11  1  0.01331188  0.34882593  0.52671486  1
  As  As12  1  0.76039821  0.50363160  0.67374746  1
  As  As13  1  0.11859685  0.06834346  0.90608236  1
  As  As14  1  0.25960977  0.07427624  0.61045028  1
