# generated using pymatgen
data_Li3LuCu2P4N5
_symmetry_space_group_name_H-M   'P 1'
_cell_length_a   7.42998770
_cell_length_b   7.22288608
_cell_length_c   8.23529578
_cell_angle_alpha   92.80841245
_cell_angle_beta   92.44128008
_cell_angle_gamma   93.04185124
_symmetry_Int_Tables_number   1
_chemical_formula_structural   Li3LuCu2P4N5
_chemical_formula_sum   'Li3 Lu1 Cu2 P4 N5'
_cell_volume   440.34946431
_cell_formula_units_Z   1
loop_
 _symmetry_equiv_pos_site_id
 _symmetry_equiv_pos_as_xyz
  1  'x, y, z'
loop_
 _atom_site_type_symbol
 _atom_site_label
 _atom_site_symmetry_multiplicity
 _atom_site_fract_x
 _atom_site_fract_y
 _atom_site_fract_z
 _atom_site_occupancy
  P  P0  1  0.00000000  0.00000000  0.00000000  1
  P  P1  1  0.50000000  0.50000000  0.50000000  1
  P  P2  1  0.50000000  0.50000000  0.00000000  1
  P  P3  1  0.50000000  0.00000000  0.50000000  1
  Lu  Lu4  1  0.00000000  0.50000000  0.50000000  1
  Li  Li5  1  0.73928304  0.57670790  0.10162850  1
  Li  Li6  1  0.47246855  0.10880114  0.14060915  1
  Li  Li7  1  0.41879356  0.57275248  0.95410656  1
  Cu  Cu8  1  0.09001496  0.06934207  0.43730890  1
  Cu  Cu9  1  0.87065285  0.51151147  0.36491453  1
  N  N10  1  0.21935023  0.28990210  0.06900758  1
  N  N11  1  0.12498348  0.84383591  0.12465741  1
  N  N12  1  0.86249191  0.30177830  0.06846998  1
  N  N13  1  0.44342152  0.50013442  0.97934359  1
  N  N14  1  0.48561039  0.78870616  0.25420741  1
