# generated using pymatgen
data_Li2MnSb4P2N
_symmetry_space_group_name_H-M   'P 1'
_cell_length_a   5.15169600
_cell_length_b   5.51715988
_cell_length_c   6.54100588
_cell_angle_alpha   99.68710572
_cell_angle_beta   94.78034169
_cell_angle_gamma   98.77496357
_symmetry_Int_Tables_number   1
_chemical_formula_structural   Li2MnSb4P2N
_chemical_formula_sum   'Li2 Mn1 Sb4 P2 N1'
_cell_volume   179.97996210
_cell_formula_units_Z   1
loop_
 _symmetry_equiv_pos_site_id
 _symmetry_equiv_pos_as_xyz
  1  'x, y, z'
loop_
 _atom_site_type_symbol
 _atom_site_label
 _atom_site_symmetry_multiplicity
 _atom_site_fract_x
 _atom_site_fract_y
 _atom_site_fract_z
 _atom_site_occupancy
  N  N0  1  0.12500000  0.00000000  0.25000000  1
  Mn  Mn1  1  0.00000000  0.00000000  0.00000000  1
  Sb  Sb2  1  0.37500000  0.00000000  0.25000000  1
  Sb  Sb3  1  0.25000000  0.25000000  0.25000000  1
  Sb  Sb4  1  0.00000000  0.25000000  0.12500000  1
  Sb  Sb5  1  0.80454867  0.26742967  0.65958740  1
  P  P6  1  0.02873656  0.98611128  0.56384296  1
  P  P7  1  0.59108424  0.77814480  0.22854491  1
  Li  Li8  1  0.36128112  0.17521265  0.99018740  1
  Li  Li9  1  0.28974449  0.66067679  0.04036977  1
