# generated using pymatgen
data_LiMnSb4P3N
_symmetry_space_group_name_H-M   'P 1'
_cell_length_a   5.16382030
_cell_length_b   5.13842765
_cell_length_c   6.12536226
_cell_angle_alpha   97.86992789
_cell_angle_beta   92.84462850
_cell_angle_gamma   97.25437190
_symmetry_Int_Tables_number   1
_chemical_formula_structural   LiMnSb4P3N
_chemical_formula_sum   'Li1 Mn1 Sb4 P3 N1'
_cell_volume   159.33955526
_cell_formula_units_Z   1
loop_
 _symmetry_equiv_pos_site_id
 _symmetry_equiv_pos_as_xyz
  1  'x, y, z'
loop_
 _atom_site_type_symbol
 _atom_site_label
 _atom_site_symmetry_multiplicity
 _atom_site_fract_x
 _atom_site_fract_y
 _atom_site_fract_z
 _atom_site_occupancy
  N  N0  1  0.00000000  0.00000000  0.00000000  1
  Mn  Mn1  1  0.50000000  0.50000000  0.50000000  1
  Sb  Sb2  1  0.25000000  0.25000000  0.25000000  1
  Sb  Sb3  1  0.75000000  0.25000000  0.00000000  1
  Sb  Sb4  1  0.25000000  0.75000000  0.50000000  1
  Sb  Sb5  1  0.28153937  0.33064498  0.22169063  1
  P  P6  1  0.79764572  0.08783608  0.08451974  1
  P  P7  1  0.97822629  0.22032079  0.71032292  1
  P  P8  1  0.94237065  0.85232024  0.42702372  1
  Li  Li9  1  0.20885443  0.88895912  0.00982954  1
