# generated using pymatgen
data_Li3TiAs6(IO)4
_symmetry_space_group_name_H-M   'P 1'
_cell_length_a   8.66199586
_cell_length_b   8.53086012
_cell_length_c   7.42438823
_cell_angle_alpha   90.40378483
_cell_angle_beta   90.34197975
_cell_angle_gamma   90.43744664
_symmetry_Int_Tables_number   1
_chemical_formula_structural   Li3TiAs6(IO)4
_chemical_formula_sum   'Li3 Ti1 As6 I4 O4'
_cell_volume   548.58022215
_cell_formula_units_Z   1
loop_
 _symmetry_equiv_pos_site_id
 _symmetry_equiv_pos_as_xyz
  1  'x, y, z'
loop_
 _atom_site_type_symbol
 _atom_site_label
 _atom_site_symmetry_multiplicity
 _atom_site_fract_x
 _atom_site_fract_y
 _atom_site_fract_z
 _atom_site_occupancy
  I  I0  1  0.12500000  0.00000000  0.25000000  1
  I  I1  1  0.00000000  0.00000000  0.00000000  1
  I  I2  1  0.37500000  0.00000000  0.25000000  1
  I  I3  1  0.25000000  0.25000000  0.25000000  1
  Li  Li4  1  0.00000000  0.25000000  0.12500000  1
  Li  Li5  1  0.87130663  0.69096611  0.89342937  1
  Li  Li6  1  0.51860308  0.20213169  0.31349754  1
  Ti  Ti7  1  0.29858358  0.69996959  0.74527591  1
  As  As8  1  0.96403385  0.54019827  0.23455201  1
  As  As9  1  0.32257754  0.73330220  0.85499584  1
  As  As10  1  0.19987541  0.97469070  0.60887331  1
  As  As11  1  0.66780573  0.44907897  0.33152278  1
  As  As12  1  0.66175320  0.23938121  0.35052635  1
  As  As13  1  0.08646379  0.60806261  0.29901740  1
  O  O14  1  0.69201596  0.07425665  0.47713441  1
  O  O15  1  0.98243839  0.88836099  0.98715273  1
  O  O16  1  0.71233950  0.42168963  0.83674786  1
  O  O17  1  0.12503895  0.97155576  0.48728166  1
