# generated using pymatgen
data_Li3LuCu2P4N5
_symmetry_space_group_name_H-M   'P 1'
_cell_length_a   7.45758710
_cell_length_b   7.94853427
_cell_length_c   8.18581966
_cell_angle_alpha   92.54474469
_cell_angle_beta   92.20316720
_cell_angle_gamma   92.78865873
_symmetry_Int_Tables_number   1
_chemical_formula_structural   Li3LuCu2P4N5
_chemical_formula_sum   'Li3 Lu1 Cu2 P4 N5'
_cell_volume   483.77633211
_cell_formula_units_Z   1
loop_
 _symmetry_equiv_pos_site_id
 _symmetry_equiv_pos_as_xyz
  1  'x, y, z'
loop_
 _atom_site_type_symbol
 _atom_site_label
 _atom_site_symmetry_multiplicity
 _atom_site_fract_x
 _atom_site_fract_y
 _atom_site_fract_z
 _atom_site_occupancy
  P  P0  1  0.00000000  0.00000000  0.00000000  1
  P  P1  1  0.50000000  0.50000000  0.50000000  1
  P  P2  1  0.50000000  0.50000000  0.00000000  1
  P  P3  1  0.50000000  0.00000000  0.50000000  1
  Lu  Lu4  1  0.00000000  0.50000000  0.50000000  1
  Li  Li5  1  0.16092458  0.02434965  0.49762990  1
  Li  Li6  1  0.96402190  0.90008061  0.46460030  1
  Li  Li7  1  0.85863232  0.45098764  0.59973261  1
  Cu  Cu8  1  0.88471242  0.77561767  0.48963333  1
  Cu  Cu9  1  0.57958984  0.64548141  0.11779855  1
  N  N10  1  0.46028682  0.16165886  0.30961191  1
  N  N11  1  0.70116681  0.39863533  0.66176571  1
  N  N12  1  0.58241584  0.35972608  0.11194355  1
  N  N13  1  0.64478333  0.77549950  0.66081671  1
  N  N14  1  0.03395113  0.81683251  0.33261176  1
