# generated using pymatgen
data_Li2TiCu2(PO)4
_symmetry_space_group_name_H-M   'P 1'
_cell_length_a   8.15126651
_cell_length_b   8.01094683
_cell_length_c   7.20110160
_cell_angle_alpha   90.54221550
_cell_angle_beta   91.10200485
_cell_angle_gamma   90.36596886
_symmetry_Int_Tables_number   1
_chemical_formula_structural   Li2TiCu2(PO)4
_chemical_formula_sum   'Li2 Ti1 Cu2 P4 O4'
_cell_volume   470.10916973
_cell_formula_units_Z   1
loop_
 _symmetry_equiv_pos_site_id
 _symmetry_equiv_pos_as_xyz
  1  'x, y, z'
loop_
 _atom_site_type_symbol
 _atom_site_label
 _atom_site_symmetry_multiplicity
 _atom_site_fract_x
 _atom_site_fract_y
 _atom_site_fract_z
 _atom_site_occupancy
  P  P0  1  0.00000000  0.00000000  0.00000000  1
  P  P1  1  0.50000000  0.50000000  0.50000000  1
  P  P2  1  0.50000000  0.50000000  0.00000000  1
  P  P3  1  0.50000000  0.00000000  0.50000000  1
  Li  Li4  1  0.00000000  0.50000000  0.50000000  1
  Li  Li5  1  0.23645991  0.68975216  0.57271886  1
  Cu  Cu6  1  0.03372870  0.08982798  0.43036536  1
  Cu  Cu7  1  0.95384742  0.57668323  0.28257574  1
  Ti  Ti8  1  0.47903450  0.99716864  0.23147786  1
  O  O9  1  0.52603824  0.58127111  0.40965338  1
  O  O10  1  0.01110614  0.29540817  0.81621109  1
  O  O11  1  0.07706245  0.26364953  0.40480673  1
  O  O12  1  0.95597084  0.59378748  0.22204253  1
