# generated using pymatgen
data_Li2Ti2Cu2F3
_symmetry_space_group_name_H-M   'P 1'
_cell_length_a   5.70020005
_cell_length_b   5.85102141
_cell_length_c   7.01437789
_cell_angle_alpha   97.06159355
_cell_angle_beta   102.61482606
_cell_angle_gamma   97.86339048
_symmetry_Int_Tables_number   1
_chemical_formula_structural   Li2Ti2Cu2F3
_chemical_formula_sum   'Li2 Ti2 Cu2 F3'
_cell_volume   223.30589445
_cell_formula_units_Z   1
loop_
 _symmetry_equiv_pos_site_id
 _symmetry_equiv_pos_as_xyz
  1  'x, y, z'
loop_
 _atom_site_type_symbol
 _atom_site_label
 _atom_site_symmetry_multiplicity
 _atom_site_fract_x
 _atom_site_fract_y
 _atom_site_fract_z
 _atom_site_occupancy
  F  F0  1  0.12500000  0.00000000  0.25000000  1
  F  F1  1  0.00000000  0.00000000  0.00000000  1
  F  F2  1  0.37500000  0.00000000  0.25000000  1
  Ti  Ti3  1  0.25000000  0.25000000  0.25000000  1
  Ti  Ti4  1  0.00000000  0.25000000  0.12500000  1
  Li  Li5  1  0.61268461  0.93329411  0.07690798  1
  Li  Li6  1  0.62228131  0.95749924  0.61814501  1
  Cu  Cu7  1  0.03515410  0.26608539  0.23079257  1
  Cu  Cu8  1  0.64322345  0.22685462  0.46035676  1
