# generated using pymatgen
data_LiZnAs3(PI)2
_symmetry_space_group_name_H-M   'P 1'
_cell_length_a   7.62082516
_cell_length_b   7.67232338
_cell_length_c   7.61417833
_cell_angle_alpha   91.24493050
_cell_angle_beta   91.60265571
_cell_angle_gamma   91.16121347
_symmetry_Int_Tables_number   1
_chemical_formula_structural   LiZnAs3(PI)2
_chemical_formula_sum   'Li2 Zn2 As6 P4 I4'
_cell_volume   444.82045092
_cell_formula_units_Z   2
loop_
 _symmetry_equiv_pos_site_id
 _symmetry_equiv_pos_as_xyz
  1  'x, y, z'
loop_
 _atom_site_type_symbol
 _atom_site_label
 _atom_site_symmetry_multiplicity
 _atom_site_fract_x
 _atom_site_fract_y
 _atom_site_fract_z
 _atom_site_occupancy
  I  I0  1  0.12500000  0.00000000  0.25000000  1
  I  I1  1  0.00000000  0.00000000  0.00000000  1
  I  I2  1  0.37500000  0.00000000  0.25000000  1
  I  I3  1  0.25000000  0.25000000  0.25000000  1
  P  P4  1  0.00000000  0.25000000  0.12500000  1
  P  P5  1  0.91466937  0.31223825  0.74629323  1
  P  P6  1  0.70167939  0.15241209  0.87236846  1
  P  P7  1  0.41936041  0.26471458  0.34729411  1
  As  As8  1  0.21398012  0.62431958  0.92590070  1
  As  As9  1  0.76961489  0.43658227  0.24231107  1
  As  As10  1  0.22011016  0.03325523  0.47838214  1
  As  As11  1  0.55439950  0.80124758  0.67620616  1
  As  As12  1  0.99049258  0.03177996  0.12856802  1
  As  As13  1  0.91348385  0.25189108  0.38844395  1
  Li  Li14  1  0.51363217  0.60070365  0.72305668  1
  Li  Li15  1  0.73993860  0.82762737  0.14021995  1
  Zn  Zn16  1  0.22129472  0.10073339  0.41337211  1
  Zn  Zn17  1  0.60069230  0.46326616  0.81766928  1
