# generated using pymatgen
data_Li3SeF3
_symmetry_space_group_name_H-M   'P 1'
_cell_length_a   6.09364487
_cell_length_b   6.04602617
_cell_length_c   7.64601522
_cell_angle_alpha   97.95950196
_cell_angle_beta   101.21040369
_cell_angle_gamma   97.52113593
_symmetry_Int_Tables_number   1
_chemical_formula_structural   Li3SeF3
_chemical_formula_sum   'Li3 Se1 F3'
_cell_volume   270.02523705
_cell_formula_units_Z   1
loop_
 _symmetry_equiv_pos_site_id
 _symmetry_equiv_pos_as_xyz
  1  'x, y, z'
loop_
 _atom_site_type_symbol
 _atom_site_label
 _atom_site_symmetry_multiplicity
 _atom_site_fract_x
 _atom_site_fract_y
 _atom_site_fract_z
 _atom_site_occupancy
  Se  Se0  1  0.12500000  0.12500000  0.12500000  1
  F  F1  1  0.50000000  0.50000000  0.50000000  1
  F  F2  1  0.25000000  0.25000000  0.25000000  1
  F  F3  1  0.75000000  0.75000000  0.75000000  1
  Li  Li4  1  0.94571747  0.91948309  0.55204678  1
  Li  Li5  1  0.16885126  0.31589362  0.62247297  1
  Li  Li6  1  0.43821228  0.53831349  0.14578263  1
