# generated using pymatgen
data_Li2TiI4(OF)3
_symmetry_space_group_name_H-M   'P 1'
_cell_length_a   8.02328352
_cell_length_b   7.86011044
_cell_length_c   7.48403036
_cell_angle_alpha   90.31371228
_cell_angle_beta   91.49254774
_cell_angle_gamma   90.35865690
_symmetry_Int_Tables_number   1
_chemical_formula_structural   Li2TiI4(OF)3
_chemical_formula_sum   'Li2 Ti1 I4 O3 F3'
_cell_volume   471.79522268
_cell_formula_units_Z   1
loop_
 _symmetry_equiv_pos_site_id
 _symmetry_equiv_pos_as_xyz
  1  'x, y, z'
loop_
 _atom_site_type_symbol
 _atom_site_label
 _atom_site_symmetry_multiplicity
 _atom_site_fract_x
 _atom_site_fract_y
 _atom_site_fract_z
 _atom_site_occupancy
  I  I0  1  0.12500000  0.00000000  0.25000000  1
  I  I1  1  0.00000000  0.00000000  0.00000000  1
  I  I2  1  0.37500000  0.00000000  0.25000000  1
  I  I3  1  0.25000000  0.25000000  0.25000000  1
  Li  Li4  1  0.00000000  0.25000000  0.12500000  1
  Li  Li5  1  0.08904947  0.23435491  0.48547702  1
  F  F6  1  0.00735141  0.28806880  0.52806542  1
  F  F7  1  0.15829741  0.00040959  0.54330532  1
  F  F8  1  0.10115295  0.13952794  0.17876532  1
  Ti  Ti9  1  0.22344486  0.62417970  0.55976637  1
  O  O10  1  0.56717092  0.11184322  0.04183900  1
  O  O11  1  0.15725752  0.23958741  0.89589826  1
  O  O12  1  0.17658570  0.60571651  0.78286803  1
