# generated using pymatgen
data_Li3LuTi2SeF3
_symmetry_space_group_name_H-M   'P 1'
_cell_length_a   5.97008945
_cell_length_b   5.88381672
_cell_length_c   7.37409465
_cell_angle_alpha   100.18879993
_cell_angle_beta   102.96441303
_cell_angle_gamma   99.63572942
_symmetry_Int_Tables_number   1
_chemical_formula_structural   Li3LuTi2SeF3
_chemical_formula_sum   'Li3 Lu1 Ti2 Se1 F3'
_cell_volume   242.58680850
_cell_formula_units_Z   1
loop_
 _symmetry_equiv_pos_site_id
 _symmetry_equiv_pos_as_xyz
  1  'x, y, z'
loop_
 _atom_site_type_symbol
 _atom_site_label
 _atom_site_symmetry_multiplicity
 _atom_site_fract_x
 _atom_site_fract_y
 _atom_site_fract_z
 _atom_site_occupancy
  Se  Se0  1  0.00000000  0.00000000  0.00000000  1
  F  F1  1  0.50000000  0.50000000  0.50000000  1
  F  F2  1  0.50000000  0.50000000  0.00000000  1
  F  F3  1  0.50000000  0.00000000  0.50000000  1
  Ti  Ti4  1  0.00000000  0.50000000  0.50000000  1
  Ti  Ti5  1  0.11259579  0.94144723  0.08284653  1
  Lu  Lu6  1  0.18332152  0.49938124  0.74353418  1
  Li  Li7  1  0.92319785  0.66020560  0.34673139  1
  Li  Li8  1  0.06383761  0.18026590  0.10220303  1
  Li  Li9  1  0.99541860  0.32541434  0.52553062  1
