# generated using pymatgen
data_Li2As6P8Cl2F3
_symmetry_space_group_name_H-M   'P 1'
_cell_length_a   6.39391401
_cell_length_b   6.19393842
_cell_length_c   7.88260000
_cell_angle_alpha   97.88740582
_cell_angle_beta   101.04737728
_cell_angle_gamma   97.45569431
_symmetry_Int_Tables_number   1
_chemical_formula_structural   Li2As6P8Cl2F3
_chemical_formula_sum   'Li2 As6 P8 Cl2 F3'
_cell_volume   299.55952826
_cell_formula_units_Z   1
loop_
 _symmetry_equiv_pos_site_id
 _symmetry_equiv_pos_as_xyz
  1  'x, y, z'
loop_
 _atom_site_type_symbol
 _atom_site_label
 _atom_site_symmetry_multiplicity
 _atom_site_fract_x
 _atom_site_fract_y
 _atom_site_fract_z
 _atom_site_occupancy
  F  F0  1  0.00000000  0.00000000  0.00000000  1
  F  F1  1  0.50000000  0.50000000  0.50000000  1
  F  F2  1  0.50000000  0.50000000  0.00000000  1
  Cl  Cl3  1  0.50000000  0.00000000  0.50000000  1
  Cl  Cl4  1  0.00000000  0.50000000  0.50000000  1
  P  P5  1  0.92008195  0.77439592  0.04897463  1
  P  P6  1  0.58410934  0.67357681  0.35010413  1
  P  P7  1  0.11730917  0.55615816  0.91799110  1
  P  P8  1  0.96354897  0.05483404  0.02801220  1
  P  P9  1  0.00163867  0.76300962  0.63431297  1
  P  P10  1  0.83970002  0.36264254  0.37052208  1
  P  P11  1  0.18635554  0.75550594  0.81539203  1
  P  P12  1  0.11051847  0.05269520  0.36801829  1
  As  As13  1  0.00604729  0.35557368  0.62683177  1
  As  As14  1  0.07416852  0.08473473  0.58498191  1
  As  As15  1  0.79803542  0.17535179  0.83886989  1
  As  As16  1  0.80313563  0.88680594  0.22130282  1
  As  As17  1  0.37449936  0.58274569  0.30580658  1
  As  As18  1  0.56076952  0.17228715  0.40462799  1
  Li  Li19  1  0.99354267  0.84114375  0.01298790  1
  Li  Li20  1  0.38320451  0.46650004  0.87995560  1
