# generated using pymatgen
data_Li2Mn2Sb2P3
_symmetry_space_group_name_H-M   'P 1'
_cell_length_a   4.94177849
_cell_length_b   5.24362681
_cell_length_c   6.48598357
_cell_angle_alpha   99.03662534
_cell_angle_beta   93.85158588
_cell_angle_gamma   99.23601353
_symmetry_Int_Tables_number   1
_chemical_formula_structural   Li2Mn2Sb2P3
_chemical_formula_sum   'Li2 Mn2 Sb2 P3'
_cell_volume   163.09491764
_cell_formula_units_Z   1
loop_
 _symmetry_equiv_pos_site_id
 _symmetry_equiv_pos_as_xyz
  1  'x, y, z'
loop_
 _atom_site_type_symbol
 _atom_site_label
 _atom_site_symmetry_multiplicity
 _atom_site_fract_x
 _atom_site_fract_y
 _atom_site_fract_z
 _atom_site_occupancy
  Mn  Mn0  1  0.12500000  0.00000000  0.25000000  1
  Mn  Mn1  1  0.00000000  0.00000000  0.00000000  1
  Sb  Sb2  1  0.37500000  0.00000000  0.25000000  1
  Sb  Sb3  1  0.25000000  0.25000000  0.25000000  1
  P  P4  1  0.00000000  0.25000000  0.12500000  1
  P  P5  1  0.84988827  0.09362825  0.18087554  1
  P  P6  1  0.53960396  0.77836793  0.30508167  1
  Li  Li7  1  0.71294448  0.07091159  0.16541939  1
  Li  Li8  1  0.95673131  0.99613465  0.72964253  1
