# generated using pymatgen
data_Li2TiI4(OF)3
_symmetry_space_group_name_H-M   'P 1'
_cell_length_a   6.85616894
_cell_length_b   6.56814602
_cell_length_c   7.39754669
_cell_angle_alpha   95.01971343
_cell_angle_beta   96.54131903
_cell_angle_gamma   94.75636317
_symmetry_Int_Tables_number   1
_chemical_formula_structural   Li2TiI4(OF)3
_chemical_formula_sum   'Li2 Ti1 I4 O3 F3'
_cell_volume   328.23534814
_cell_formula_units_Z   1
loop_
 _symmetry_equiv_pos_site_id
 _symmetry_equiv_pos_as_xyz
  1  'x, y, z'
loop_
 _atom_site_type_symbol
 _atom_site_label
 _atom_site_symmetry_multiplicity
 _atom_site_fract_x
 _atom_site_fract_y
 _atom_site_fract_z
 _atom_site_occupancy
  I  I0  1  0.00000000  0.00000000  0.00000000  1
  I  I1  1  0.50000000  0.50000000  0.50000000  1
  I  I2  1  0.25000000  0.25000000  0.25000000  1
  I  I3  1  0.75000000  0.25000000  0.00000000  1
  Li  Li4  1  0.25000000  0.75000000  0.50000000  1
  Li  Li5  1  0.82526003  0.22255056  0.78983097  1
  F  F6  1  0.08895018  0.79560638  0.28352084  1
  F  F7  1  0.70938556  0.82637975  0.06024688  1
  F  F8  1  0.76660252  0.52298167  0.53858284  1
  Ti  Ti9  1  0.68230338  0.25971391  0.07261745  1
  O  O10  1  0.57866564  0.30471121  0.63797085  1
  O  O11  1  0.16119724  0.61375092  0.74015830  1
  O  O12  1  0.10863667  0.44837096  0.75081148  1
