# generated using pymatgen
data_LiTi(IO)4
_symmetry_space_group_name_H-M   'P 1'
_cell_length_a   7.63379184
_cell_length_b   7.59283828
_cell_length_c   7.78227065
_cell_angle_alpha   91.41365048
_cell_angle_beta   93.04681465
_cell_angle_gamma   91.69286577
_symmetry_Int_Tables_number   1
_chemical_formula_structural   LiTi(IO)4
_chemical_formula_sum   'Li1 Ti1 I4 O4'
_cell_volume   450.08728093
_cell_formula_units_Z   1
loop_
 _symmetry_equiv_pos_site_id
 _symmetry_equiv_pos_as_xyz
  1  'x, y, z'
loop_
 _atom_site_type_symbol
 _atom_site_label
 _atom_site_symmetry_multiplicity
 _atom_site_fract_x
 _atom_site_fract_y
 _atom_site_fract_z
 _atom_site_occupancy
  I  I0  1  0.00000000  0.00000000  0.00000000  1
  I  I1  1  0.50000000  0.50000000  0.50000000  1
  I  I2  1  0.50000000  0.50000000  0.00000000  1
  I  I3  1  0.50000000  0.00000000  0.50000000  1
  Li  Li4  1  0.00000000  0.50000000  0.50000000  1
  Ti  Ti5  1  0.38782561  0.70142169  0.33156541  1
  O  O6  1  0.46809560  0.54226633  0.77868771  1
  O  O7  1  0.95632044  0.43148452  0.49909389  1
  O  O8  1  0.04585167  0.28203211  0.60646668  1
  O  O9  1  0.28327893  0.01479567  0.98311630  1
