# generated using pymatgen
data_LiCuAs3
_symmetry_space_group_name_H-M   'P 1'
_cell_length_a   8.31857866
_cell_length_b   8.31683757
_cell_length_c   7.78810005
_cell_angle_alpha   90.18284121
_cell_angle_beta   90.86990293
_cell_angle_gamma   90.20903632
_symmetry_Int_Tables_number   1
_chemical_formula_structural   LiCuAs3
_chemical_formula_sum   'Li2 Cu2 As6'
_cell_volume   538.74547163
_cell_formula_units_Z   2
loop_
 _symmetry_equiv_pos_site_id
 _symmetry_equiv_pos_as_xyz
  1  'x, y, z'
loop_
 _atom_site_type_symbol
 _atom_site_label
 _atom_site_symmetry_multiplicity
 _atom_site_fract_x
 _atom_site_fract_y
 _atom_site_fract_z
 _atom_site_occupancy
  Li  Li0  1  0.00000000  0.00000000  0.00000000  1
  Li  Li1  1  0.50000000  0.50000000  0.50000000  1
  As  As2  1  0.25000000  0.25000000  0.25000000  1
  As  As3  1  0.75000000  0.25000000  0.00000000  1
  As  As4  1  0.25000000  0.75000000  0.50000000  1
  As  As5  1  0.75526584  0.22835287  0.97293845  1
  As  As6  1  0.95261525  0.85989926  0.74684983  1
  As  As7  1  0.17573751  0.69832123  0.60895961  1
  Cu  Cu8  1  0.32498554  0.46490727  0.05843224  1
  Cu  Cu9  1  0.14800858  0.14899657  0.11667062  1
