# generated using pymatgen
data_Li4TiP3SeCl2
_symmetry_space_group_name_H-M   'P 1'
_cell_length_a   6.65282009
_cell_length_b   6.28918187
_cell_length_c   6.82109780
_cell_angle_alpha   98.78468099
_cell_angle_beta   101.21601999
_cell_angle_gamma   98.26388894
_symmetry_Int_Tables_number   1
_chemical_formula_structural   Li4TiP3SeCl2
_chemical_formula_sum   'Li4 Ti1 P3 Se1 Cl2'
_cell_volume   272.20115892
_cell_formula_units_Z   1
loop_
 _symmetry_equiv_pos_site_id
 _symmetry_equiv_pos_as_xyz
  1  'x, y, z'
loop_
 _atom_site_type_symbol
 _atom_site_label
 _atom_site_symmetry_multiplicity
 _atom_site_fract_x
 _atom_site_fract_y
 _atom_site_fract_z
 _atom_site_occupancy
  P  P0  1  0.00000000  0.00000000  0.00000000  1
  P  P1  1  0.50000000  0.50000000  0.50000000  1
  P  P2  1  0.25000000  0.25000000  0.25000000  1
  Li  Li3  1  0.75000000  0.25000000  0.00000000  1
  Li  Li4  1  0.25000000  0.75000000  0.50000000  1
  Li  Li5  1  0.76208908  0.97874797  0.98611672  1
  Li  Li6  1  0.04232686  0.17965057  0.57429706  1
  Se  Se7  1  0.84996228  0.95790571  0.73756541  1
  Cl  Cl8  1  0.37136891  0.57921523  0.62262460  1
  Cl  Cl9  1  0.18365304  0.34922035  0.77973509  1
  Ti  Ti10  1  0.24592950  0.25852964  0.66112247  1
