# generated using pymatgen
data_Li2TiCu2F2
_symmetry_space_group_name_H-M   'P 1'
_cell_length_a   6.48777730
_cell_length_b   6.13827733
_cell_length_c   7.03706643
_cell_angle_alpha   93.43054067
_cell_angle_beta   95.17832171
_cell_angle_gamma   92.99979918
_symmetry_Int_Tables_number   1
_chemical_formula_structural   Li2TiCu2F2
_chemical_formula_sum   'Li2 Ti1 Cu2 F2'
_cell_volume   278.12846435
_cell_formula_units_Z   1
loop_
 _symmetry_equiv_pos_site_id
 _symmetry_equiv_pos_as_xyz
  1  'x, y, z'
loop_
 _atom_site_type_symbol
 _atom_site_label
 _atom_site_symmetry_multiplicity
 _atom_site_fract_x
 _atom_site_fract_y
 _atom_site_fract_z
 _atom_site_occupancy
  Li  Li0  1  0.00000000  0.00000000  0.00000000  1
  Li  Li1  1  0.50000000  0.50000000  0.50000000  1
  Cu  Cu2  1  0.25000000  0.25000000  0.25000000  1
  Cu  Cu3  1  0.75000000  0.25000000  0.00000000  1
  F  F4  1  0.25000000  0.75000000  0.50000000  1
  F  F5  1  0.29929949  0.30455225  0.52070271  1
  Ti  Ti6  1  0.54070225  0.39920843  0.51300520  1
