# generated using pymatgen
data_Li3Ni2As6N5O7
_symmetry_space_group_name_H-M   'P 1'
_cell_length_a   7.93021180
_cell_length_b   7.76364985
_cell_length_c   8.63033620
_cell_angle_alpha   91.45220896
_cell_angle_beta   90.99860165
_cell_angle_gamma   91.65524423
_symmetry_Int_Tables_number   1
_chemical_formula_structural   Li3Ni2As6N5O7
_chemical_formula_sum   'Li3 Ni2 As6 N5 O7'
_cell_volume   530.86725853
_cell_formula_units_Z   1
loop_
 _symmetry_equiv_pos_site_id
 _symmetry_equiv_pos_as_xyz
  1  'x, y, z'
loop_
 _atom_site_type_symbol
 _atom_site_label
 _atom_site_symmetry_multiplicity
 _atom_site_fract_x
 _atom_site_fract_y
 _atom_site_fract_z
 _atom_site_occupancy
  Li  Li0  1  0.00000000  0.00000000  0.00000000  1
  Li  Li1  1  0.50000000  0.50000000  0.50000000  1
  Li  Li2  1  0.25000000  0.25000000  0.25000000  1
  Ni  Ni3  1  0.75000000  0.25000000  0.00000000  1
  Ni  Ni4  1  0.25000000  0.75000000  0.50000000  1
  As  As5  1  0.98109452  0.04311465  0.53778830  1
  As  As6  1  0.17259065  0.37759313  0.58790007  1
  As  As7  1  0.26372660  0.08047087  0.49130825  1
  As  As8  1  0.24870024  0.76648893  0.01728901  1
  As  As9  1  0.20350975  0.37210014  0.99301289  1
  As  As10  1  0.68491595  0.90363617  0.36655221  1
  O  O11  1  0.43694875  0.00014813  0.72747904  1
  O  O12  1  0.49223494  0.21888066  0.91981327  1
  O  O13  1  0.20421555  0.58288394  0.49864157  1
  O  O14  1  0.80553615  0.21963480  0.44376798  1
  O  O15  1  0.94596420  0.22028155  0.87162410  1
  O  O16  1  0.40456055  0.74122444  0.46182340  1
  O  O17  1  0.27735921  0.50510439  0.47779869  1
  N  N18  1  0.98163754  0.45585864  0.09150959  1
  N  N19  1  0.64182642  0.92616762  0.08553112  1
  N  N20  1  0.21732549  0.40789022  0.07966710  1
  N  N21  1  0.50005456  0.15270649  0.81112759  1
  N  N22  1  0.96447278  0.72785095  0.63973580  1
