# generated using pymatgen
data_Li3LuTiO4
_symmetry_space_group_name_H-M   'P 1'
_cell_length_a   8.20576206
_cell_length_b   7.96521491
_cell_length_c   7.97878119
_cell_angle_alpha   91.62511025
_cell_angle_beta   90.57454471
_cell_angle_gamma   91.88493116
_symmetry_Int_Tables_number   1
_chemical_formula_structural   Li3LuTiO4
_chemical_formula_sum   'Li3 Lu1 Ti1 O4'
_cell_volume   520.97521258
_cell_formula_units_Z   1
loop_
 _symmetry_equiv_pos_site_id
 _symmetry_equiv_pos_as_xyz
  1  'x, y, z'
loop_
 _atom_site_type_symbol
 _atom_site_label
 _atom_site_symmetry_multiplicity
 _atom_site_fract_x
 _atom_site_fract_y
 _atom_site_fract_z
 _atom_site_occupancy
  Lu  Lu0  1  0.12500000  0.00000000  0.25000000  1
  Li  Li1  1  0.00000000  0.00000000  0.00000000  1
  Li  Li2  1  0.37500000  0.00000000  0.25000000  1
  Li  Li3  1  0.25000000  0.25000000  0.25000000  1
  Ti  Ti4  1  0.00000000  0.25000000  0.12500000  1
  O  O5  1  0.95121143  0.12983683  0.69298902  1
  O  O6  1  0.40813575  0.69205526  0.43005414  1
  O  O7  1  0.35786742  0.96016490  0.42801131  1
  O  O8  1  0.74239755  0.48324181  0.89564002  1
