# generated using pymatgen
data_Li2TiP4I4F3
_symmetry_space_group_name_H-M   'P 1'
_cell_length_a   6.45078302
_cell_length_b   6.36661404
_cell_length_c   7.38111920
_cell_angle_alpha   97.92105254
_cell_angle_beta   100.23509059
_cell_angle_gamma   97.50406407
_symmetry_Int_Tables_number   1
_chemical_formula_structural   Li2TiP4I4F3
_chemical_formula_sum   'Li2 Ti1 P4 I4 F3'
_cell_volume   291.70581737
_cell_formula_units_Z   1
loop_
 _symmetry_equiv_pos_site_id
 _symmetry_equiv_pos_as_xyz
  1  'x, y, z'
loop_
 _atom_site_type_symbol
 _atom_site_label
 _atom_site_symmetry_multiplicity
 _atom_site_fract_x
 _atom_site_fract_y
 _atom_site_fract_z
 _atom_site_occupancy
  F  F0  1  0.00000000  0.00000000  0.00000000  1
  F  F1  1  0.50000000  0.50000000  0.50000000  1
  F  F2  1  0.50000000  0.50000000  0.00000000  1
  Ti  Ti3  1  0.50000000  0.00000000  0.50000000  1
  I  I4  1  0.00000000  0.50000000  0.50000000  1
  I  I5  1  0.72851950  0.76616844  0.96379606  1
  I  I6  1  0.70456133  0.82390594  0.44668842  1
  I  I7  1  0.70740939  0.20798892  0.84561315  1
  P  P8  1  0.17110311  0.93669437  0.93992943  1
  P  P9  1  0.66826723  0.56526176  0.21751619  1
  P  P10  1  0.59840519  0.45245097  0.43111188  1
  P  P11  1  0.95873879  0.20768286  0.40082077  1
  Li  Li12  1  0.00258006  0.71651952  0.21879030  1
  Li  Li13  1  0.47831224  0.76173568  0.27995790  1
