# generated using pymatgen
data_LiTiP4S3F2
_symmetry_space_group_name_H-M   'P 1'
_cell_length_a   6.34991012
_cell_length_b   6.25554648
_cell_length_c   7.23488581
_cell_angle_alpha   91.56981346
_cell_angle_beta   95.29592608
_cell_angle_gamma   91.42134476
_symmetry_Int_Tables_number   1
_chemical_formula_structural   LiTiP4S3F2
_chemical_formula_sum   'Li1 Ti1 P4 S3 F2'
_cell_volume   285.94323182
_cell_formula_units_Z   1
loop_
 _symmetry_equiv_pos_site_id
 _symmetry_equiv_pos_as_xyz
  1  'x, y, z'
loop_
 _atom_site_type_symbol
 _atom_site_label
 _atom_site_symmetry_multiplicity
 _atom_site_fract_x
 _atom_site_fract_y
 _atom_site_fract_z
 _atom_site_occupancy
  P  P0  1  0.12500000  0.00000000  0.25000000  1
  P  P1  1  0.00000000  0.00000000  0.00000000  1
  P  P2  1  0.37500000  0.00000000  0.25000000  1
  P  P3  1  0.25000000  0.25000000  0.25000000  1
  Li  Li4  1  0.00000000  0.25000000  0.12500000  1
  F  F5  1  0.21658461  0.15403254  0.07288473  1
  F  F6  1  0.07233522  0.96767759  0.10949337  1
  S  S7  1  0.83821053  0.89156049  0.51342735  1
  S  S8  1  0.77185362  0.17382036  0.23839867  1
  S  S9  1  0.07449927  0.19727680  0.19190118  1
  Ti  Ti10  1  0.59234059  0.12835851  0.92030665  1
