# generated using pymatgen
data_LiI4O3F2
_symmetry_space_group_name_H-M   'P 1'
_cell_length_a   6.01337763
_cell_length_b   5.75614743
_cell_length_c   7.09005948
_cell_angle_alpha   93.36743680
_cell_angle_beta   97.21386783
_cell_angle_gamma   93.26380353
_symmetry_Int_Tables_number   1
_chemical_formula_structural   LiI4O3F2
_chemical_formula_sum   'Li1 I4 O3 F2'
_cell_volume   242.53856719
_cell_formula_units_Z   1
loop_
 _symmetry_equiv_pos_site_id
 _symmetry_equiv_pos_as_xyz
  1  'x, y, z'
loop_
 _atom_site_type_symbol
 _atom_site_label
 _atom_site_symmetry_multiplicity
 _atom_site_fract_x
 _atom_site_fract_y
 _atom_site_fract_z
 _atom_site_occupancy
  I  I0  1  0.12500000  0.12500000  0.12500000  1
  I  I1  1  0.50000000  0.50000000  0.50000000  1
  I  I2  1  0.25000000  0.25000000  0.25000000  1
  I  I3  1  0.75000000  0.75000000  0.75000000  1
  Li  Li4  1  0.39579782  0.26654939  0.53397366  1
  F  F5  1  0.20333039  0.33746921  0.46535351  1
  F  F6  1  0.02360039  0.67505741  0.71090414  1
  O  O7  1  0.11375842  0.30138494  0.48804314  1
  O  O8  1  0.66104773  0.64831525  0.04607036  1
  O  O9  1  0.43123467  0.29798414  0.50033480  1
