# generated using pymatgen
data_Li2P4(OF)3
_symmetry_space_group_name_H-M   'P 1'
_cell_length_a   6.50017645
_cell_length_b   6.26684104
_cell_length_c   7.31190172
_cell_angle_alpha   96.92614338
_cell_angle_beta   98.98144600
_cell_angle_gamma   96.60115086
_symmetry_Int_Tables_number   1
_chemical_formula_structural   Li2P4(OF)3
_chemical_formula_sum   'Li2 P4 O3 F3'
_cell_volume   289.32435045
_cell_formula_units_Z   1
loop_
 _symmetry_equiv_pos_site_id
 _symmetry_equiv_pos_as_xyz
  1  'x, y, z'
loop_
 _atom_site_type_symbol
 _atom_site_label
 _atom_site_symmetry_multiplicity
 _atom_site_fract_x
 _atom_site_fract_y
 _atom_site_fract_z
 _atom_site_occupancy
  P  P0  1  0.00000000  0.00000000  0.00000000  1
  P  P1  1  0.50000000  0.50000000  0.50000000  1
  P  P2  1  0.25000000  0.25000000  0.25000000  1
  P  P3  1  0.75000000  0.25000000  0.00000000  1
  Li  Li4  1  0.25000000  0.75000000  0.50000000  1
  Li  Li5  1  0.72664300  0.41028715  0.33144107  1
  F  F6  1  0.91396190  0.90942101  0.93801396  1
  F  F7  1  0.94425215  0.19292071  0.31076356  1
  F  F8  1  0.93036065  0.94134240  0.41795287  1
  O  O9  1  0.52962746  0.21592967  0.82547248  1
  O  O10  1  0.27118382  0.79959572  0.86164016  1
  O  O11  1  0.31991393  0.53097941  0.07469159  1
