# generated using pymatgen
data_Li3LuCu2(NiAs3)2
_symmetry_space_group_name_H-M   'P 1'
_cell_length_a   7.56962693
_cell_length_b   7.34954154
_cell_length_c   8.17377437
_cell_angle_alpha   91.72910373
_cell_angle_beta   91.41966114
_cell_angle_gamma   92.00250201
_symmetry_Int_Tables_number   1
_chemical_formula_structural   Li3LuCu2(NiAs3)2
_chemical_formula_sum   'Li3 Lu1 Cu2 Ni2 As6'
_cell_volume   454.09742475
_cell_formula_units_Z   1
loop_
 _symmetry_equiv_pos_site_id
 _symmetry_equiv_pos_as_xyz
  1  'x, y, z'
loop_
 _atom_site_type_symbol
 _atom_site_label
 _atom_site_symmetry_multiplicity
 _atom_site_fract_x
 _atom_site_fract_y
 _atom_site_fract_z
 _atom_site_occupancy
  Lu  Lu0  1  0.00000000  0.00000000  0.00000000  1
  Li  Li1  1  0.50000000  0.50000000  0.50000000  1
  Li  Li2  1  0.50000000  0.50000000  0.00000000  1
  Li  Li3  1  0.50000000  0.00000000  0.50000000  1
  Cu  Cu4  1  0.00000000  0.50000000  0.50000000  1
  Cu  Cu5  1  0.89912734  0.03244922  0.46403202  1
  Ni  Ni6  1  0.07059298  0.22732326  0.28651250  1
  Ni  Ni7  1  0.62613084  0.74444677  0.83672791  1
  As  As8  1  0.85125987  0.27226130  0.31197702  1
  As  As9  1  0.55505180  0.58554673  0.30403890  1
  As  As10  1  0.91277166  0.00311526  0.57331933  1
  As  As11  1  0.95874642  0.92608330  0.41827593  1
  As  As12  1  0.38499178  0.88383717  0.04842172  1
  As  As13  1  0.33285206  0.29741219  0.54534560  1
