# generated using pymatgen
data_Li2LuTi(PI)4
_symmetry_space_group_name_H-M   'P 1'
_cell_length_a   7.84111296
_cell_length_b   7.76042566
_cell_length_c   7.67001493
_cell_angle_alpha   92.61651044
_cell_angle_beta   93.10042491
_cell_angle_gamma   92.58310164
_symmetry_Int_Tables_number   1
_chemical_formula_structural   Li2LuTi(PI)4
_chemical_formula_sum   'Li2 Lu1 Ti1 P4 I4'
_cell_volume   465.02527686
_cell_formula_units_Z   1
loop_
 _symmetry_equiv_pos_site_id
 _symmetry_equiv_pos_as_xyz
  1  'x, y, z'
loop_
 _atom_site_type_symbol
 _atom_site_label
 _atom_site_symmetry_multiplicity
 _atom_site_fract_x
 _atom_site_fract_y
 _atom_site_fract_z
 _atom_site_occupancy
  Li  Li0  1  0.00000000  0.00000000  0.00000000  1
  Li  Li1  1  0.50000000  0.50000000  0.50000000  1
  Ti  Ti2  1  0.25000000  0.25000000  0.25000000  1
  I  I3  1  0.75000000  0.25000000  0.00000000  1
  I  I4  1  0.25000000  0.75000000  0.50000000  1
  I  I5  1  0.53396514  0.20433113  0.44900155  1
  I  I6  1  0.41912059  0.66037637  0.86704911  1
  P  P7  1  0.33282193  0.86350958  0.72144286  1
  P  P8  1  0.59964081  0.91994646  0.22754913  1
  P  P9  1  0.07271651  0.69675473  0.99040618  1
  P  P10  1  0.77579981  0.05405492  0.04744177  1
  Lu  Lu11  1  0.46432094  0.73180837  0.39653997  1
