# generated using pymatgen
data_LiAs3(PO)2
_symmetry_space_group_name_H-M   'P 1'
_cell_length_a   8.26589815
_cell_length_b   8.11405059
_cell_length_c   7.68633872
_cell_angle_alpha   90.60857737
_cell_angle_beta   90.77492108
_cell_angle_gamma   90.66006172
_symmetry_Int_Tables_number   1
_chemical_formula_structural   LiAs3(PO)2
_chemical_formula_sum   'Li2 As6 P4 O4'
_cell_volume   515.41079018
_cell_formula_units_Z   2
loop_
 _symmetry_equiv_pos_site_id
 _symmetry_equiv_pos_as_xyz
  1  'x, y, z'
loop_
 _atom_site_type_symbol
 _atom_site_label
 _atom_site_symmetry_multiplicity
 _atom_site_fract_x
 _atom_site_fract_y
 _atom_site_fract_z
 _atom_site_occupancy
  P  P0  1  0.12500000  0.00000000  0.25000000  1
  P  P1  1  0.00000000  0.00000000  0.00000000  1
  P  P2  1  0.37500000  0.00000000  0.25000000  1
  P  P3  1  0.25000000  0.25000000  0.25000000  1
  Li  Li4  1  0.00000000  0.25000000  0.12500000  1
  Li  Li5  1  0.37011365  0.86163883  0.13409513  1
  As  As6  1  0.21738283  0.17353973  0.41754061  1
  As  As7  1  0.42804430  0.39281999  0.10829994  1
  As  As8  1  0.12000932  0.46090368  0.24289749  1
  As  As9  1  0.49879358  0.41219396  0.41456593  1
  As  As10  1  0.96065218  0.33569507  0.82773513  1
  As  As11  1  0.53339566  0.45946674  0.28398947  1
  O  O12  1  0.37335972  0.26104649  0.32156230  1
  O  O13  1  0.27894458  0.49187589  0.71758700  1
  O  O14  1  0.07384018  0.68184413  0.91381968  1
  O  O15  1  0.20528721  0.17330596  0.88075628  1
