# generated using pymatgen
data_Li3LuCu2(PN)5
_symmetry_space_group_name_H-M   'P 1'
_cell_length_a   7.35012949
_cell_length_b   7.15755788
_cell_length_c   8.37845375
_cell_angle_alpha   93.57132867
_cell_angle_beta   93.13025394
_cell_angle_gamma   93.77445763
_symmetry_Int_Tables_number   1
_chemical_formula_structural   Li3LuCu2(PN)5
_chemical_formula_sum   'Li3 Lu1 Cu2 P5 N5'
_cell_volume   438.20829178
_cell_formula_units_Z   1
loop_
 _symmetry_equiv_pos_site_id
 _symmetry_equiv_pos_as_xyz
  1  'x, y, z'
loop_
 _atom_site_type_symbol
 _atom_site_label
 _atom_site_symmetry_multiplicity
 _atom_site_fract_x
 _atom_site_fract_y
 _atom_site_fract_z
 _atom_site_occupancy
  P  P0  1  0.00000000  0.00000000  0.00000000  1
  P  P1  1  0.50000000  0.50000000  0.50000000  1
  P  P2  1  0.25000000  0.25000000  0.25000000  1
  P  P3  1  0.75000000  0.25000000  0.00000000  1
  P  P4  1  0.25000000  0.75000000  0.50000000  1
  Lu  Lu5  1  0.24832223  0.09928748  0.82763995  1
  Li  Li6  1  0.71171300  0.48191882  0.53891528  1
  Li  Li7  1  0.00086039  0.17297409  0.51245298  1
  Li  Li8  1  0.75425934  0.28943972  0.84795290  1
  Cu  Cu9  1  0.04962973  0.27213000  0.27826719  1
  Cu  Cu10  1  0.91638677  0.03785799  0.13818586  1
  N  N11  1  0.49068198  0.12665213  0.44624500  1
  N  N12  1  0.85792827  0.84271296  0.21478731  1
  N  N13  1  0.20815445  0.84451576  0.19385313  1
  N  N14  1  0.70053960  0.66274364  0.68048609  1
  N  N15  1  0.94465287  0.64914285  0.72494284  1
