# generated using pymatgen
data_Li2LuTi2P4N3
_symmetry_space_group_name_H-M   'P 1'
_cell_length_a   7.27498974
_cell_length_b   7.13310959
_cell_length_c   8.15980947
_cell_angle_alpha   94.44790084
_cell_angle_beta   94.58374159
_cell_angle_gamma   94.49956385
_symmetry_Int_Tables_number   1
_chemical_formula_structural   Li2LuTi2P4N3
_chemical_formula_sum   'Li2 Lu1 Ti2 P4 N3'
_cell_volume   419.28457470
_cell_formula_units_Z   1
loop_
 _symmetry_equiv_pos_site_id
 _symmetry_equiv_pos_as_xyz
  1  'x, y, z'
loop_
 _atom_site_type_symbol
 _atom_site_label
 _atom_site_symmetry_multiplicity
 _atom_site_fract_x
 _atom_site_fract_y
 _atom_site_fract_z
 _atom_site_occupancy
  Ti  Ti0  1  0.00000000  0.00000000  0.00000000  1
  Ti  Ti1  1  0.50000000  0.50000000  0.50000000  1
  P  P2  1  0.50000000  0.50000000  0.00000000  1
  P  P3  1  0.50000000  0.00000000  0.50000000  1
  P  P4  1  0.00000000  0.50000000  0.50000000  1
  P  P5  1  0.43010717  0.35184126  0.53193789  1
  Lu  Lu6  1  0.59626008  0.61253605  0.07849652  1
  Li  Li7  1  0.67519630  0.09994700  0.00280856  1
  Li  Li8  1  0.97885163  0.77787058  0.35603750  1
  N  N9  1  0.56981342  0.47112890  0.87548014  1
  N  N10  1  0.21376482  0.69508699  0.19109606  1
  N  N11  1  0.32500392  0.21374724  0.54060754  1
