# generated using pymatgen
data_Li2LuCu2P4N5
_symmetry_space_group_name_H-M   'P 1'
_cell_length_a   7.02931371
_cell_length_b   6.99870106
_cell_length_c   7.98434723
_cell_angle_alpha   95.30615069
_cell_angle_beta   96.13120461
_cell_angle_gamma   95.20699475
_symmetry_Int_Tables_number   1
_chemical_formula_structural   Li2LuCu2P4N5
_chemical_formula_sum   'Li2 Lu1 Cu2 P4 N5'
_cell_volume   386.86389588
_cell_formula_units_Z   1
loop_
 _symmetry_equiv_pos_site_id
 _symmetry_equiv_pos_as_xyz
  1  'x, y, z'
loop_
 _atom_site_type_symbol
 _atom_site_label
 _atom_site_symmetry_multiplicity
 _atom_site_fract_x
 _atom_site_fract_y
 _atom_site_fract_z
 _atom_site_occupancy
  P  P0  1  0.00000000  0.00000000  0.00000000  1
  P  P1  1  0.50000000  0.50000000  0.50000000  1
  P  P2  1  0.50000000  0.50000000  0.00000000  1
  P  P3  1  0.50000000  0.00000000  0.50000000  1
  Lu  Lu4  1  0.00000000  0.50000000  0.50000000  1
  Li  Li5  1  0.71188857  0.37766220  0.68449111  1
  Li  Li6  1  0.34893073  0.04689708  0.09823432  1
  Cu  Cu7  1  0.60813984  0.38839555  0.68693800  1
  Cu  Cu8  1  0.19972832  0.71256971  0.28388118  1
  N  N9  1  0.74056054  0.85352599  0.07520522  1
  N  N10  1  0.64543167  0.65139145  0.68962381  1
  N  N11  1  0.56797238  0.40200073  0.39046007  1
  N  N12  1  0.94957963  0.07520181  0.20994584  1
  N  N13  1  0.23435995  0.09119331  0.43753365  1
