# generated using pymatgen
data_Li3Ti2I4O4F3
_symmetry_space_group_name_H-M   'P 1'
_cell_length_a   6.36177195
_cell_length_b   6.04059291
_cell_length_c   7.31355366
_cell_angle_alpha   97.29306773
_cell_angle_beta   99.36661160
_cell_angle_gamma   96.88270523
_symmetry_Int_Tables_number   1
_chemical_formula_structural   Li3Ti2I4O4F3
_chemical_formula_sum   'Li3 Ti2 I4 O4 F3'
_cell_volume   272.21188961
_cell_formula_units_Z   1
loop_
 _symmetry_equiv_pos_site_id
 _symmetry_equiv_pos_as_xyz
  1  'x, y, z'
loop_
 _atom_site_type_symbol
 _atom_site_label
 _atom_site_symmetry_multiplicity
 _atom_site_fract_x
 _atom_site_fract_y
 _atom_site_fract_z
 _atom_site_occupancy
  I  I0  1  0.12500000  0.00000000  0.25000000  1
  I  I1  1  0.00000000  0.00000000  0.00000000  1
  I  I2  1  0.37500000  0.00000000  0.25000000  1
  I  I3  1  0.25000000  0.25000000  0.25000000  1
  Li  Li4  1  0.00000000  0.25000000  0.12500000  1
  Li  Li5  1  0.97072734  0.35631263  0.20661765  1
  Li  Li6  1  0.31396871  0.36000089  0.07667377  1
  F  F7  1  0.52398538  0.87740993  0.24690405  1
  F  F8  1  0.40169722  0.77283395  0.05039680  1
  F  F9  1  0.28734513  0.04620773  0.68146778  1
  Ti  Ti10  1  0.10105932  0.05394493  0.95371543  1
  Ti  Ti11  1  0.84137974  0.46616624  0.31179865  1
  O  O12  1  0.86995493  0.39066494  0.48787681  1
  O  O13  1  0.66375057  0.97627994  0.02063265  1
  O  O14  1  0.91647070  0.35123602  0.17864779  1
  O  O15  1  0.66871816  0.37497313  0.02439772  1
