# generated using pymatgen
data_LiCuAs3O2
_symmetry_space_group_name_H-M   'P 1'
_cell_length_a   5.43372471
_cell_length_b   5.54187441
_cell_length_c   6.90469158
_cell_angle_alpha   95.96329888
_cell_angle_beta   102.70054110
_cell_angle_gamma   97.41252852
_symmetry_Int_Tables_number   1
_chemical_formula_structural   LiCuAs3O2
_chemical_formula_sum   'Li2 Cu2 As6 O4'
_cell_volume   199.25009976
_cell_formula_units_Z   2
loop_
 _symmetry_equiv_pos_site_id
 _symmetry_equiv_pos_as_xyz
  1  'x, y, z'
loop_
 _atom_site_type_symbol
 _atom_site_label
 _atom_site_symmetry_multiplicity
 _atom_site_fract_x
 _atom_site_fract_y
 _atom_site_fract_z
 _atom_site_occupancy
  Li  Li0  1  0.12500000  0.12500000  0.12500000  1
  Li  Li1  1  0.50000000  0.50000000  0.50000000  1
  Cu  Cu2  1  0.25000000  0.25000000  0.25000000  1
  Cu  Cu3  1  0.75000000  0.75000000  0.75000000  1
  As  As4  1  0.91661996  0.69937762  0.23805207  1
  As  As5  1  0.01872421  0.23709135  0.19072343  1
  As  As6  1  0.46161116  0.52788783  0.22941046  1
  As  As7  1  0.60153206  0.07883981  0.12334936  1
  As  As8  1  0.98172704  0.56657381  0.55079767  1
  As  As9  1  0.08217567  0.15123422  0.93677023  1
  O  O10  1  0.57190400  0.33857456  0.12611415  1
  O  O11  1  0.75777620  0.51482956  0.82756617  1
  O  O12  1  0.30096528  0.10184575  0.65966723  1
  O  O13  1  0.57671169  0.85328241  0.33234201  1
