# generated using pymatgen
data_Li2LuCu2(As3P2)2
_symmetry_space_group_name_H-M   'P 1'
_cell_length_a   7.14848440
_cell_length_b   7.11328445
_cell_length_c   7.86124606
_cell_angle_alpha   94.35889352
_cell_angle_beta   95.43544193
_cell_angle_gamma   94.23669991
_symmetry_Int_Tables_number   1
_chemical_formula_structural   Li2LuCu2(As3P2)2
_chemical_formula_sum   'Li2 Lu1 Cu2 As6 P4'
_cell_volume   395.46387652
_cell_formula_units_Z   1
loop_
 _symmetry_equiv_pos_site_id
 _symmetry_equiv_pos_as_xyz
  1  'x, y, z'
loop_
 _atom_site_type_symbol
 _atom_site_label
 _atom_site_symmetry_multiplicity
 _atom_site_fract_x
 _atom_site_fract_y
 _atom_site_fract_z
 _atom_site_occupancy
  P  P0  1  0.12500000  0.00000000  0.25000000  1
  P  P1  1  0.00000000  0.00000000  0.00000000  1
  P  P2  1  0.37500000  0.00000000  0.25000000  1
  P  P3  1  0.25000000  0.25000000  0.25000000  1
  Lu  Lu4  1  0.00000000  0.25000000  0.12500000  1
  Li  Li5  1  0.42307184  0.75067882  0.08021190  1
  Li  Li6  1  0.62242532  0.19922105  0.05522167  1
  Cu  Cu7  1  0.14934416  0.67744574  0.84618586  1
  Cu  Cu8  1  0.86680998  0.96661216  0.73053158  1
  As  As9  1  0.28514466  0.04435750  0.18999190  1
  As  As10  1  0.22865807  0.14288990  0.29853542  1
  As  As11  1  0.78943630  0.01024802  0.98420565  1
  As  As12  1  0.81364174  0.79233661  0.10517498  1
  As  As13  1  0.87799143  0.29206652  0.38722724  1
  As  As14  1  0.76055356  0.24017950  0.97356234  1
