# generated using pymatgen
data_Li3TiP3I4O3
_symmetry_space_group_name_H-M   'P 1'
_cell_length_a   8.65286353
_cell_length_b   8.76459842
_cell_length_c   7.28223804
_cell_angle_alpha   90.00000000
_cell_angle_beta   90.00000000
_cell_angle_gamma   90.00000000
_symmetry_Int_Tables_number   1
_chemical_formula_structural   Li3TiP3I4O3
_chemical_formula_sum   'Li3 Ti1 P3 I4 O3'
_cell_volume   552.27673363
_cell_formula_units_Z   1
loop_
 _symmetry_equiv_pos_site_id
 _symmetry_equiv_pos_as_xyz
  1  'x, y, z'
loop_
 _atom_site_type_symbol
 _atom_site_label
 _atom_site_symmetry_multiplicity
 _atom_site_fract_x
 _atom_site_fract_y
 _atom_site_fract_z
 _atom_site_occupancy
  P  P0  1  0.12500000  0.00000000  0.25000000  1
  P  P1  1  0.00000000  0.00000000  0.00000000  1
  P  P2  1  0.37500000  0.00000000  0.25000000  1
  I  I3  1  0.25000000  0.25000000  0.25000000  1
  I  I4  1  0.00000000  0.25000000  0.12500000  1
  I  I5  1  0.06945941  0.17136878  0.85598461  1
  I  I6  1  0.54278497  0.96423268  0.78905965  1
  Li  Li7  1  0.23118260  0.51563613  0.22171163  1
  Li  Li8  1  0.46514496  0.18980332  0.88331614  1
  Li  Li9  1  0.71881484  0.03509638  0.64581261  1
  Ti  Ti10  1  0.49548822  0.82973098  0.39109907  1
  O  O11  1  0.67972650  0.04364053  0.93190678  1
  O  O12  1  0.31421864  0.69886862  0.04316444  1
  O  O13  1  0.64740047  0.62742339  0.34789166  1
