# generated using pymatgen
data_Li4Ti2V(P2S)2
_symmetry_space_group_name_H-M   'P 1'
_cell_length_a   4.15186815
_cell_length_b   3.51524117
_cell_length_c   6.99134443
_cell_angle_alpha   103.25142825
_cell_angle_beta   101.76425838
_cell_angle_gamma   102.88846086
_symmetry_Int_Tables_number   1
_chemical_formula_structural   Li4Ti2V(P2S)2
_chemical_formula_sum   'Li4 Ti2 V1 P4 S2'
_cell_volume   93.25597068
_cell_formula_units_Z   1
loop_
 _symmetry_equiv_pos_site_id
 _symmetry_equiv_pos_as_xyz
  1  'x, y, z'
loop_
 _atom_site_type_symbol
 _atom_site_label
 _atom_site_symmetry_multiplicity
 _atom_site_fract_x
 _atom_site_fract_y
 _atom_site_fract_z
 _atom_site_occupancy
  S  S0  1  0.00000000  0.00000000  0.00000000  1
  S  S1  1  0.50000000  0.50000000  0.50000000  1
  Ti  Ti2  1  0.25000000  0.25000000  0.25000000  1
  Ti  Ti3  1  0.75000000  0.25000000  0.00000000  1
  P  P4  1  0.25000000  0.75000000  0.50000000  1
  P  P5  1  0.62995041  0.15000476  0.43418315  1
  P  P6  1  0.71151210  0.79271483  0.78552126  1
  P  P7  1  0.87472307  0.05802819  0.23570544  1
  V  V8  1  0.97077236  0.16237489  0.45828328  1
  Li  Li9  1  0.59428717  0.71999429  0.75663120  1
  Li  Li10  1  0.16450900  0.96201824  0.89200044  1
  Li  Li11  1  0.86197013  0.75385484  0.65189280  1
  Li  Li12  1  0.18137941  0.32543157  0.77495580  1
