# generated using pymatgen
data_Li2Mn3(SbP)4
_symmetry_space_group_name_H-M   'P 1'
_cell_length_a   7.57736925
_cell_length_b   8.26034177
_cell_length_c   7.54707920
_cell_angle_alpha   90.00000000
_cell_angle_beta   90.00000000
_cell_angle_gamma   90.00000000
_symmetry_Int_Tables_number   1
_chemical_formula_structural   Li2Mn3(SbP)4
_chemical_formula_sum   'Li2 Mn3 Sb4 P4'
_cell_volume   472.38421297
_cell_formula_units_Z   1
loop_
 _symmetry_equiv_pos_site_id
 _symmetry_equiv_pos_as_xyz
  1  'x, y, z'
loop_
 _atom_site_type_symbol
 _atom_site_label
 _atom_site_symmetry_multiplicity
 _atom_site_fract_x
 _atom_site_fract_y
 _atom_site_fract_z
 _atom_site_occupancy
  Mn  Mn0  1  0.00000000  0.00000000  0.00000000  1
  Mn  Mn1  1  0.50000000  0.50000000  0.50000000  1
  Mn  Mn2  1  0.50000000  0.50000000  0.00000000  1
  Sb  Sb3  1  0.50000000  0.00000000  0.50000000  1
  Sb  Sb4  1  0.00000000  0.50000000  0.50000000  1
  Sb  Sb5  1  0.62093303  0.77262629  0.09439720  1
  Sb  Sb6  1  0.62053656  0.82716370  0.18675154  1
  P  P7  1  0.30655692  0.98322175  0.78411701  1
  P  P8  1  0.56410374  0.22819601  0.18586167  1
  P  P9  1  0.09065060  0.50628940  0.51376982  1
  P  P10  1  0.97350143  0.17964022  0.80440498  1
  Li  Li11  1  0.90745665  0.10361629  0.71033354  1
  Li  Li12  1  0.65356668  0.77274153  0.95501010  1
