# generated using pymatgen
data_Li2Lu(P3Cl)2
_symmetry_space_group_name_H-M   'P 1'
_cell_length_a   6.31523207
_cell_length_b   6.10748466
_cell_length_c   7.61356010
_cell_angle_alpha   99.13535924
_cell_angle_beta   101.43700901
_cell_angle_gamma   98.70864170
_symmetry_Int_Tables_number   1
_chemical_formula_structural   Li2Lu(P3Cl)2
_chemical_formula_sum   'Li2 Lu1 P6 Cl2'
_cell_volume   279.05323908
_cell_formula_units_Z   1
loop_
 _symmetry_equiv_pos_site_id
 _symmetry_equiv_pos_as_xyz
  1  'x, y, z'
loop_
 _atom_site_type_symbol
 _atom_site_label
 _atom_site_symmetry_multiplicity
 _atom_site_fract_x
 _atom_site_fract_y
 _atom_site_fract_z
 _atom_site_occupancy
  Cl  Cl0  1  0.00000000  0.00000000  0.00000000  1
  Cl  Cl1  1  0.50000000  0.50000000  0.50000000  1
  P  P2  1  0.25000000  0.25000000  0.25000000  1
  P  P3  1  0.75000000  0.25000000  0.00000000  1
  P  P4  1  0.25000000  0.75000000  0.50000000  1
  P  P5  1  0.84105162  0.59389505  0.05163375  1
  P  P6  1  0.37124106  0.49076600  0.00910456  1
  P  P7  1  0.38893921  0.51112466  0.33343910  1
  Lu  Lu8  1  0.21403910  0.80559494  0.28361125  1
  Li  Li9  1  0.12373196  0.12601307  0.65631765  1
  Li  Li10  1  0.73465300  0.40815327  0.10650400  1
