# generated using pymatgen
data_Li2Cu2Ni2As6O7
_symmetry_space_group_name_H-M   'P 1'
_cell_length_a   7.63480656
_cell_length_b   7.61269924
_cell_length_c   8.79351509
_cell_angle_alpha   91.15711428
_cell_angle_beta   91.55562287
_cell_angle_gamma   91.33778791
_symmetry_Int_Tables_number   1
_chemical_formula_structural   Li2Cu2Ni2As6O7
_chemical_formula_sum   'Li2 Cu2 Ni2 As6 O7'
_cell_volume   510.65360047
_cell_formula_units_Z   1
loop_
 _symmetry_equiv_pos_site_id
 _symmetry_equiv_pos_as_xyz
  1  'x, y, z'
loop_
 _atom_site_type_symbol
 _atom_site_label
 _atom_site_symmetry_multiplicity
 _atom_site_fract_x
 _atom_site_fract_y
 _atom_site_fract_z
 _atom_site_occupancy
  Ni  Ni0  1  0.00000000  0.00000000  0.00000000  1
  Ni  Ni1  1  0.50000000  0.50000000  0.50000000  1
  O  O2  1  0.25000000  0.25000000  0.25000000  1
  O  O3  1  0.75000000  0.25000000  0.00000000  1
  O  O4  1  0.25000000  0.75000000  0.50000000  1
  O  O5  1  0.35564561  0.24703756  0.04918900  1
  O  O6  1  0.37747681  0.50739824  0.00263243  1
  O  O7  1  0.52966494  0.27052142  0.14620597  1
  O  O8  1  0.36808266  0.89251759  0.53484351  1
  As  As9  1  0.71618410  0.63167993  0.52184920  1
  As  As10  1  0.23670614  0.50141890  0.98527797  1
  As  As11  1  0.29013831  0.22482616  0.81678050  1
  As  As12  1  0.14773131  0.40797316  0.01376981  1
  As  As13  1  0.66072921  0.22877661  0.63112132  1
  As  As14  1  0.19053621  0.94355173  0.28218944  1
  Li  Li15  1  0.93138344  0.73184601  0.82580368  1
  Li  Li16  1  0.42810050  0.66785085  0.81220812  1
  Cu  Cu17  1  0.06017454  0.78940495  0.72134579  1
  Cu  Cu18  1  0.71038806  0.31849281  0.51191387  1
