# generated using pymatgen
data_Li3Cu2As6P8O3
_symmetry_space_group_name_H-M   'P 1'
_cell_length_a   8.20287908
_cell_length_b   8.12454485
_cell_length_c   7.78787467
_cell_angle_alpha   91.45160997
_cell_angle_beta   92.27768876
_cell_angle_gamma   91.37490040
_symmetry_Int_Tables_number   1
_chemical_formula_structural   Li3Cu2As6P8O3
_chemical_formula_sum   'Li3 Cu2 As6 P8 O3'
_cell_volume   518.28135109
_cell_formula_units_Z   1
loop_
 _symmetry_equiv_pos_site_id
 _symmetry_equiv_pos_as_xyz
  1  'x, y, z'
loop_
 _atom_site_type_symbol
 _atom_site_label
 _atom_site_symmetry_multiplicity
 _atom_site_fract_x
 _atom_site_fract_y
 _atom_site_fract_z
 _atom_site_occupancy
  P  P0  1  0.00000000  0.00000000  0.00000000  1
  P  P1  1  0.50000000  0.50000000  0.50000000  1
  P  P2  1  0.25000000  0.25000000  0.25000000  1
  P  P3  1  0.75000000  0.25000000  0.00000000  1
  P  P4  1  0.25000000  0.75000000  0.50000000  1
  P  P5  1  0.58797019  0.06292494  0.29744403  1
  P  P6  1  0.98735642  0.93951467  0.32292388  1
  P  P7  1  0.90707890  0.03284596  0.69272033  1
  Li  Li8  1  0.81335581  0.92254797  0.01480238  1
  Li  Li9  1  0.37749893  0.46590452  0.28255835  1
  Li  Li10  1  0.56985241  0.37586777  0.14950667  1
  Cu  Cu11  1  0.60584050  0.73987102  0.08329476  1
  Cu  Cu12  1  0.43097919  0.90389170  0.49367741  1
  As  As13  1  0.49036922  0.38061852  0.54983225  1
  As  As14  1  0.78300867  0.35412902  0.53384977  1
  As  As15  1  0.16601910  0.99588251  0.27740667  1
  As  As16  1  0.30362121  0.90368747  0.68456456  1
  As  As17  1  0.41879947  0.37874969  0.00262421  1
  As  As18  1  0.47886320  0.91236483  0.20894443  1
  O  O19  1  0.23615075  0.72945005  0.69407275  1
  O  O20  1  0.23084877  0.96160646  0.42971435  1
  O  O21  1  0.14585342  0.58025419  0.61426289  1
