# generated using pymatgen
data_Li2Cu2As6O7
_symmetry_space_group_name_H-M   'P 1'
_cell_length_a   7.57551304
_cell_length_b   7.51253839
_cell_length_c   8.46160424
_cell_angle_alpha   91.26574851
_cell_angle_beta   91.64445296
_cell_angle_gamma   91.46360026
_symmetry_Int_Tables_number   1
_chemical_formula_structural   Li2Cu2As6O7
_chemical_formula_sum   'Li2 Cu2 As6 O7'
_cell_volume   481.08027383
_cell_formula_units_Z   1
loop_
 _symmetry_equiv_pos_site_id
 _symmetry_equiv_pos_as_xyz
  1  'x, y, z'
loop_
 _atom_site_type_symbol
 _atom_site_label
 _atom_site_symmetry_multiplicity
 _atom_site_fract_x
 _atom_site_fract_y
 _atom_site_fract_z
 _atom_site_occupancy
  Li  Li0  1  0.00000000  0.00000000  0.00000000  1
  Li  Li1  1  0.50000000  0.50000000  0.50000000  1
  Cu  Cu2  1  0.25000000  0.25000000  0.25000000  1
  Cu  Cu3  1  0.75000000  0.25000000  0.00000000  1
  As  As4  1  0.25000000  0.75000000  0.50000000  1
  As  As5  1  0.29695981  0.72076690  0.48471811  1
  As  As6  1  0.18415258  0.86263832  0.59606428  1
  As  As7  1  0.63051598  0.61784331  0.12336261  1
  As  As8  1  0.00155008  0.49010203  0.72642294  1
  As  As9  1  0.67498761  0.52696017  0.90676531  1
  O  O10  1  0.75070250  0.45922413  0.10405336  1
  O  O11  1  0.40933863  0.60175329  0.60814055  1
  O  O12  1  0.73507138  0.52392235  0.30571868  1
  O  O13  1  0.10730466  0.68450698  0.03924296  1
  O  O14  1  0.64276997  0.66534665  0.18074007  1
  O  O15  1  0.11288876  0.23845061  0.39396531  1
  O  O16  1  0.86117741  0.83427445  0.76856162  1
