# generated using pymatgen
data_Li3Ti2Se(OF)3
_symmetry_space_group_name_H-M   'P 1'
_cell_length_a   5.21589878
_cell_length_b   4.80900318
_cell_length_c   6.78300724
_cell_angle_alpha   101.58409225
_cell_angle_beta   105.18174190
_cell_angle_gamma   100.82448800
_symmetry_Int_Tables_number   1
_chemical_formula_structural   Li3Ti2Se(OF)3
_chemical_formula_sum   'Li3 Ti2 Se1 O3 F3'
_cell_volume   155.57105601
_cell_formula_units_Z   1
loop_
 _symmetry_equiv_pos_site_id
 _symmetry_equiv_pos_as_xyz
  1  'x, y, z'
loop_
 _atom_site_type_symbol
 _atom_site_label
 _atom_site_symmetry_multiplicity
 _atom_site_fract_x
 _atom_site_fract_y
 _atom_site_fract_z
 _atom_site_occupancy
  Li  Li0  1  0.00000000  0.00000000  0.00000000  1
  Li  Li1  1  0.50000000  0.50000000  0.50000000  1
  Li  Li2  1  0.50000000  0.50000000  0.00000000  1
  Se  Se3  1  0.50000000  0.00000000  0.50000000  1
  F  F4  1  0.00000000  0.50000000  0.50000000  1
  F  F5  1  0.85630815  0.09182533  0.40859721  1
  F  F6  1  0.46838852  0.83563790  0.74101955  1
  Ti  Ti7  1  0.35964763  0.93152198  0.52268405  1
  Ti  Ti8  1  0.86203909  0.02979910  0.08036398  1
  O  O9  1  0.00184019  0.10555803  0.16417559  1
  O  O10  1  0.61330157  0.61748357  0.57418642  1
  O  O11  1  0.17664865  0.39708785  0.96581318  1
