# generated using pymatgen
data_Li2Sb4Mo2P3
_symmetry_space_group_name_H-M   'P 1'
_cell_length_a   6.39671929
_cell_length_b   6.52794393
_cell_length_c   7.38987069
_cell_angle_alpha   94.32502900
_cell_angle_beta   93.44413468
_cell_angle_gamma   94.68855692
_symmetry_Int_Tables_number   1
_chemical_formula_structural   Li2Sb4Mo2P3
_chemical_formula_sum   'Li2 Sb4 Mo2 P3'
_cell_volume   305.99160772
_cell_formula_units_Z   1
loop_
 _symmetry_equiv_pos_site_id
 _symmetry_equiv_pos_as_xyz
  1  'x, y, z'
loop_
 _atom_site_type_symbol
 _atom_site_label
 _atom_site_symmetry_multiplicity
 _atom_site_fract_x
 _atom_site_fract_y
 _atom_site_fract_z
 _atom_site_occupancy
  Sb  Sb0  1  0.00000000  0.00000000  0.00000000  1
  Sb  Sb1  1  0.50000000  0.50000000  0.50000000  1
  Sb  Sb2  1  0.50000000  0.50000000  0.00000000  1
  Sb  Sb3  1  0.50000000  0.00000000  0.50000000  1
  P  P4  1  0.00000000  0.50000000  0.50000000  1
  P  P5  1  0.45932225  0.81702812  0.65891317  1
  P  P6  1  0.22412244  0.27116306  0.48621338  1
  Mo  Mo7  1  0.22046998  0.51025107  0.43922936  1
  Mo  Mo8  1  0.20512411  0.19723624  0.51393904  1
  Li  Li9  1  0.90436091  0.47942910  0.25091284  1
  Li  Li10  1  0.41083959  0.42056212  0.82995529  1
