# generated using pymatgen
data_Li2LuTi2O4F3
_symmetry_space_group_name_H-M   'P 1'
_cell_length_a   6.42073805
_cell_length_b   6.42930671
_cell_length_c   7.48740322
_cell_angle_alpha   96.37791969
_cell_angle_beta   98.23747527
_cell_angle_gamma   96.02782909
_symmetry_Int_Tables_number   1
_chemical_formula_structural   Li2LuTi2O4F3
_chemical_formula_sum   'Li2 Lu1 Ti2 O4 F3'
_cell_volume   301.69801980
_cell_formula_units_Z   1
loop_
 _symmetry_equiv_pos_site_id
 _symmetry_equiv_pos_as_xyz
  1  'x, y, z'
loop_
 _atom_site_type_symbol
 _atom_site_label
 _atom_site_symmetry_multiplicity
 _atom_site_fract_x
 _atom_site_fract_y
 _atom_site_fract_z
 _atom_site_occupancy
  Lu  Lu0  1  0.12500000  0.00000000  0.25000000  1
  Li  Li1  1  0.00000000  0.00000000  0.00000000  1
  Li  Li2  1  0.37500000  0.00000000  0.25000000  1
  F  F3  1  0.25000000  0.25000000  0.25000000  1
  F  F4  1  0.00000000  0.25000000  0.12500000  1
  F  F5  1  0.83328561  0.07532311  0.47066050  1
  Ti  Ti6  1  0.86408213  0.73025376  0.34679248  1
  Ti  Ti7  1  0.94507033  0.05650256  0.73649825  1
  O  O8  1  0.18368146  0.20096588  0.96380137  1
  O  O9  1  0.16966683  0.38057478  0.44705365  1
  O  O10  1  0.34305928  0.24129284  0.68927348  1
  O  O11  1  0.71874779  0.23241824  0.05135823  1
