# generated using pymatgen
data_Li3LuAs6N5
_symmetry_space_group_name_H-M   'P 1'
_cell_length_a   8.08193751
_cell_length_b   7.91336105
_cell_length_c   8.00600266
_cell_angle_alpha   91.28733766
_cell_angle_beta   91.04526741
_cell_angle_gamma   91.43500300
_symmetry_Int_Tables_number   1
_chemical_formula_structural   Li3LuAs6N5
_chemical_formula_sum   'Li3 Lu1 As6 N5'
_cell_volume   511.64584699
_cell_formula_units_Z   1
loop_
 _symmetry_equiv_pos_site_id
 _symmetry_equiv_pos_as_xyz
  1  'x, y, z'
loop_
 _atom_site_type_symbol
 _atom_site_label
 _atom_site_symmetry_multiplicity
 _atom_site_fract_x
 _atom_site_fract_y
 _atom_site_fract_z
 _atom_site_occupancy
  Lu  Lu0  1  0.00000000  0.00000000  0.00000000  1
  Li  Li1  1  0.33300000  0.66700000  0.25000000  1
  Li  Li2  1  0.66700000  0.33300000  0.50000000  1
  Li  Li3  1  0.00000000  0.00000000  0.75000000  1
  As  As4  1  0.47354984  0.98300800  0.86896328  1
  As  As5  1  0.78415313  0.90005155  0.94249381  1
  As  As6  1  0.91421777  0.97993853  0.71167011  1
  As  As7  1  0.81003705  0.20867720  0.27420611  1
  As  As8  1  0.12236425  0.33637700  0.81147662  1
  As  As9  1  0.36016676  0.97291330  0.79699053  1
  N  N10  1  0.35660452  0.76575425  0.63993911  1
  N  N11  1  0.36802591  0.16696478  0.44441920  1
  N  N12  1  0.29420578  0.03838247  0.56031239  1
  N  N13  1  0.77228160  0.84918674  0.46563846  1
  N  N14  1  0.57081050  0.94607313  0.16223102  1
