# generated using pymatgen
data_LiCu2P5N5F2
_symmetry_space_group_name_H-M   'P 1'
_cell_length_a   7.20181070
_cell_length_b   7.10338957
_cell_length_c   8.18068679
_cell_angle_alpha   92.84562940
_cell_angle_beta   93.82165919
_cell_angle_gamma   93.15347314
_symmetry_Int_Tables_number   1
_chemical_formula_structural   LiCu2P5N5F2
_chemical_formula_sum   'Li1 Cu2 P5 N5 F2'
_cell_volume   416.34129690
_cell_formula_units_Z   1
loop_
 _symmetry_equiv_pos_site_id
 _symmetry_equiv_pos_as_xyz
  1  'x, y, z'
loop_
 _atom_site_type_symbol
 _atom_site_label
 _atom_site_symmetry_multiplicity
 _atom_site_fract_x
 _atom_site_fract_y
 _atom_site_fract_z
 _atom_site_occupancy
  P  P0  1  0.00000000  0.00000000  0.00000000  1
  P  P1  1  0.50000000  0.50000000  0.50000000  1
  P  P2  1  0.50000000  0.50000000  0.00000000  1
  P  P3  1  0.50000000  0.00000000  0.50000000  1
  P  P4  1  0.00000000  0.50000000  0.50000000  1
  Li  Li5  1  0.46300741  0.18223336  0.72540481  1
  Cu  Cu6  1  0.78996431  0.26429351  0.74982951  1
  Cu  Cu7  1  0.00422249  0.09568370  0.87578824  1
  F  F8  1  0.15146028  0.96023303  0.53228940  1
  F  F9  1  0.00392351  0.60431433  0.68873138  1
  N  N10  1  0.33469040  0.79056606  0.62469137  1
  N  N11  1  0.59840873  0.77010247  0.27053838  1
  N  N12  1  0.29076888  0.66924362  0.49008974  1
  N  N13  1  0.17536376  0.33571601  0.21447649  1
  N  N14  1  0.18090308  0.07686763  0.71334318  1
