# generated using pymatgen
data_Li2LuCu2(As3P2)2
_symmetry_space_group_name_H-M   'P 1'
_cell_length_a   7.58984340
_cell_length_b   7.38612368
_cell_length_c   8.02321101
_cell_angle_alpha   91.48462450
_cell_angle_beta   91.57902867
_cell_angle_gamma   91.66405193
_symmetry_Int_Tables_number   1
_chemical_formula_structural   Li2LuCu2(As3P2)2
_chemical_formula_sum   'Li2 Lu1 Cu2 As6 P4'
_cell_volume   449.25638511
_cell_formula_units_Z   1
loop_
 _symmetry_equiv_pos_site_id
 _symmetry_equiv_pos_as_xyz
  1  'x, y, z'
loop_
 _atom_site_type_symbol
 _atom_site_label
 _atom_site_symmetry_multiplicity
 _atom_site_fract_x
 _atom_site_fract_y
 _atom_site_fract_z
 _atom_site_occupancy
  P  P0  1  0.00000000  0.00000000  0.00000000  1
  P  P1  1  0.50000000  0.50000000  0.50000000  1
  P  P2  1  0.50000000  0.50000000  0.00000000  1
  P  P3  1  0.50000000  0.00000000  0.50000000  1
  Lu  Lu4  1  0.00000000  0.50000000  0.50000000  1
  Li  Li5  1  0.25578807  0.15852712  0.29765258  1
  Li  Li6  1  0.17581716  0.55221482  0.07515865  1
  Cu  Cu7  1  0.16191086  0.35409075  0.75344248  1
  Cu  Cu8  1  0.39280703  0.47534099  0.80588405  1
  As  As9  1  0.55618573  0.41359549  0.27361194  1
  As  As10  1  0.88554507  0.01422159  0.11595380  1
  As  As11  1  0.25148399  0.20322715  0.78489901  1
  As  As12  1  0.69825359  0.28287943  0.15536771  1
  As  As13  1  0.23740380  0.76536368  0.67167684  1
  As  As14  1  0.34128005  0.58077888  0.26304086  1
