# generated using pymatgen
data_Li2Ti2P3(OF)3
_symmetry_space_group_name_H-M   'P 1'
_cell_length_a   6.55547905
_cell_length_b   6.23179343
_cell_length_c   7.11425373
_cell_angle_alpha   96.05782315
_cell_angle_beta   98.88921318
_cell_angle_gamma   95.76588489
_symmetry_Int_Tables_number   1
_chemical_formula_structural   Li2Ti2P3(OF)3
_chemical_formula_sum   'Li2 Ti2 P3 O3 F3'
_cell_volume   283.51602555
_cell_formula_units_Z   1
loop_
 _symmetry_equiv_pos_site_id
 _symmetry_equiv_pos_as_xyz
  1  'x, y, z'
loop_
 _atom_site_type_symbol
 _atom_site_label
 _atom_site_symmetry_multiplicity
 _atom_site_fract_x
 _atom_site_fract_y
 _atom_site_fract_z
 _atom_site_occupancy
  P  P0  1  0.00000000  0.00000000  0.00000000  1
  P  P1  1  0.50000000  0.50000000  0.50000000  1
  P  P2  1  0.25000000  0.25000000  0.25000000  1
  Li  Li3  1  0.75000000  0.25000000  0.00000000  1
  Li  Li4  1  0.25000000  0.75000000  0.50000000  1
  F  F5  1  0.69041562  0.08653124  0.24969877  1
  F  F6  1  0.36458030  0.27024969  0.02090096  1
  F  F7  1  0.21642037  0.72287330  0.55055529  1
  Ti  Ti8  1  0.11024034  0.08070319  0.91177407  1
  Ti  Ti9  1  0.78271310  0.20976257  0.76531276  1
  O  O10  1  0.64436329  0.44546027  0.61173606  1
  O  O11  1  0.93269681  0.46357937  0.45722162  1
  O  O12  1  0.23936932  0.65945570  0.08190923  1
