# generated using pymatgen
data_Li2TiCu2(P2S)2
_symmetry_space_group_name_H-M   'P 1'
_cell_length_a   6.12901783
_cell_length_b   6.08593682
_cell_length_c   7.12892694
_cell_angle_alpha   96.29842875
_cell_angle_beta   98.86488747
_cell_angle_gamma   96.80866092
_symmetry_Int_Tables_number   1
_chemical_formula_structural   Li2TiCu2(P2S)2
_chemical_formula_sum   'Li2 Ti1 Cu2 P4 S2'
_cell_volume   258.65627563
_cell_formula_units_Z   1
loop_
 _symmetry_equiv_pos_site_id
 _symmetry_equiv_pos_as_xyz
  1  'x, y, z'
loop_
 _atom_site_type_symbol
 _atom_site_label
 _atom_site_symmetry_multiplicity
 _atom_site_fract_x
 _atom_site_fract_y
 _atom_site_fract_z
 _atom_site_occupancy
  P  P0  1  0.12500000  0.00000000  0.25000000  1
  P  P1  1  0.00000000  0.00000000  0.00000000  1
  P  P2  1  0.37500000  0.00000000  0.25000000  1
  P  P3  1  0.25000000  0.25000000  0.25000000  1
  Li  Li4  1  0.00000000  0.25000000  0.12500000  1
  Li  Li5  1  0.85485117  0.51013287  0.77388438  1
  Cu  Cu6  1  0.26335075  0.28031549  0.59198248  1
  Cu  Cu7  1  0.54779719  0.28893645  0.92406347  1
  S  S8  1  0.41718830  0.21695532  0.98319240  1
  S  S9  1  0.71201784  0.94981027  0.49783600  1
  Ti  Ti10  1  0.23372109  0.92217300  0.76793756  1
