# generated using pymatgen
data_Li3LuTi2P4N3
_symmetry_space_group_name_H-M   'P 1'
_cell_length_a   5.04164054
_cell_length_b   4.69083253
_cell_length_c   6.56196086
_cell_angle_alpha   97.16248557
_cell_angle_beta   101.26423941
_cell_angle_gamma   98.15797259
_symmetry_Int_Tables_number   1
_chemical_formula_structural   Li3LuTi2P4N3
_chemical_formula_sum   'Li3 Lu1 Ti2 P4 N3'
_cell_volume   148.78949962
_cell_formula_units_Z   1
loop_
 _symmetry_equiv_pos_site_id
 _symmetry_equiv_pos_as_xyz
  1  'x, y, z'
loop_
 _atom_site_type_symbol
 _atom_site_label
 _atom_site_symmetry_multiplicity
 _atom_site_fract_x
 _atom_site_fract_y
 _atom_site_fract_z
 _atom_site_occupancy
  Ti  Ti0  1  0.00000000  0.00000000  0.00000000  1
  Ti  Ti1  1  0.50000000  0.50000000  0.50000000  1
  P  P2  1  0.50000000  0.50000000  0.00000000  1
  P  P3  1  0.50000000  0.00000000  0.50000000  1
  P  P4  1  0.00000000  0.50000000  0.50000000  1
  P  P5  1  0.80921830  0.90351503  0.46146491  1
  Lu  Lu6  1  0.17088590  0.69603090  0.66711458  1
  Li  Li7  1  0.18472258  0.93660770  0.42983142  1
  Li  Li8  1  0.43932870  0.69094639  0.53411945  1
  Li  Li9  1  0.56666879  0.32123853  0.60045133  1
  N  N10  1  0.51677767  0.22619820  0.90092260  1
  N  N11  1  0.77123470  0.51365662  0.98754666  1
  N  N12  1  0.63795385  0.56559213  0.17936307  1
