# generated using pymatgen
data_LiMn2Sb4Mo2P3
_symmetry_space_group_name_H-M   'P 1'
_cell_length_a   4.03370904
_cell_length_b   4.14585389
_cell_length_c   5.69118338
_cell_angle_alpha   104.65832321
_cell_angle_beta   91.31184259
_cell_angle_gamma   104.54268924
_symmetry_Int_Tables_number   1
_chemical_formula_structural   LiMn2Sb4Mo2P3
_chemical_formula_sum   'Li1 Mn2 Sb4 Mo2 P3'
_cell_volume   88.74634147
_cell_formula_units_Z   1
loop_
 _symmetry_equiv_pos_site_id
 _symmetry_equiv_pos_as_xyz
  1  'x, y, z'
loop_
 _atom_site_type_symbol
 _atom_site_label
 _atom_site_symmetry_multiplicity
 _atom_site_fract_x
 _atom_site_fract_y
 _atom_site_fract_z
 _atom_site_occupancy
  Mn  Mn0  1  0.12500000  0.00000000  0.25000000  1
  Mn  Mn1  1  0.00000000  0.00000000  0.00000000  1
  Sb  Sb2  1  0.37500000  0.00000000  0.25000000  1
  Sb  Sb3  1  0.25000000  0.25000000  0.25000000  1
  Sb  Sb4  1  0.00000000  0.25000000  0.12500000  1
  Sb  Sb5  1  0.94030749  0.20809047  0.82282357  1
  P  P6  1  0.17397446  0.08911168  0.13163363  1
  P  P7  1  0.81401556  0.68127147  0.27009038  1
  P  P8  1  0.59696670  0.27226744  0.72780188  1
  Mo  Mo9  1  0.55170738  0.68264052  0.50322572  1
  Mo  Mo10  1  0.45620362  0.91736844  0.92511604  1
  Li  Li11  1  0.13932306  0.70027576  0.13139296  1
