# generated using pymatgen
data_Li2LuCu2(NiP2)2
_symmetry_space_group_name_H-M   'P 1'
_cell_length_a   7.32608073
_cell_length_b   7.18811988
_cell_length_c   7.95153824
_cell_angle_alpha   93.15605939
_cell_angle_beta   93.45078818
_cell_angle_gamma   93.26251642
_symmetry_Int_Tables_number   1
_chemical_formula_structural   Li2LuCu2(NiP2)2
_chemical_formula_sum   'Li2 Lu1 Cu2 Ni2 P4'
_cell_volume   416.57815861
_cell_formula_units_Z   1
loop_
 _symmetry_equiv_pos_site_id
 _symmetry_equiv_pos_as_xyz
  1  'x, y, z'
loop_
 _atom_site_type_symbol
 _atom_site_label
 _atom_site_symmetry_multiplicity
 _atom_site_fract_x
 _atom_site_fract_y
 _atom_site_fract_z
 _atom_site_occupancy
  Ni  Ni0  1  0.00000000  0.00000000  0.00000000  1
  Ni  Ni1  1  0.50000000  0.50000000  0.50000000  1
  P  P2  1  0.50000000  0.50000000  0.00000000  1
  P  P3  1  0.50000000  0.00000000  0.50000000  1
  P  P4  1  0.00000000  0.50000000  0.50000000  1
  P  P5  1  0.89107353  0.64751415  0.69383890  1
  Lu  Lu6  1  0.07091757  0.75504241  0.23854058  1
  Li  Li7  1  0.01735486  0.28286134  0.51203800  1
  Li  Li8  1  0.85590132  0.40307128  0.33098437  1
  Cu  Cu9  1  0.33252434  0.84768466  0.33842541  1
  Cu  Cu10  1  0.14448866  0.69437632  0.86572768  1
