# generated using pymatgen
data_Li2MnSb4P3
_symmetry_space_group_name_H-M   'P 1'
_cell_length_a   5.08163999
_cell_length_b   5.45891704
_cell_length_c   6.99818080
_cell_angle_alpha   97.97684875
_cell_angle_beta   95.81948850
_cell_angle_gamma   98.57313606
_symmetry_Int_Tables_number   1
_chemical_formula_structural   Li2MnSb4P3
_chemical_formula_sum   'Li2 Mn1 Sb4 P3'
_cell_volume   188.62167184
_cell_formula_units_Z   1
loop_
 _symmetry_equiv_pos_site_id
 _symmetry_equiv_pos_as_xyz
  1  'x, y, z'
loop_
 _atom_site_type_symbol
 _atom_site_label
 _atom_site_symmetry_multiplicity
 _atom_site_fract_x
 _atom_site_fract_y
 _atom_site_fract_z
 _atom_site_occupancy
  Mn  Mn0  1  0.00000000  0.00000000  0.00000000  1
  Sb  Sb1  1  0.33300000  0.66700000  0.25000000  1
  Sb  Sb2  1  0.66700000  0.33300000  0.50000000  1
  Sb  Sb3  1  0.00000000  0.00000000  0.75000000  1
  Sb  Sb4  1  0.66012541  0.46718454  0.98520578  1
  P  P5  1  0.44549826  0.35323249  0.03677895  1
  P  P6  1  0.31955026  0.53538192  0.56873612  1
  P  P7  1  0.91685850  0.23789543  0.97501441  1
  Li  Li8  1  0.41463400  0.79612902  0.33040997  1
  Li  Li9  1  0.54333849  0.87889303  0.54151400  1
