# generated using pymatgen
data_Li2Lu(As3P2)2
_symmetry_space_group_name_H-M   'P 1'
_cell_length_a   7.26362635
_cell_length_b   7.12796203
_cell_length_c   7.91879766
_cell_angle_alpha   93.10132841
_cell_angle_beta   93.50166706
_cell_angle_gamma   93.14890450
_symmetry_Int_Tables_number   1
_chemical_formula_structural   Li2Lu(As3P2)2
_chemical_formula_sum   'Li2 Lu1 As6 P4'
_cell_volume   407.93164096
_cell_formula_units_Z   1
loop_
 _symmetry_equiv_pos_site_id
 _symmetry_equiv_pos_as_xyz
  1  'x, y, z'
loop_
 _atom_site_type_symbol
 _atom_site_label
 _atom_site_symmetry_multiplicity
 _atom_site_fract_x
 _atom_site_fract_y
 _atom_site_fract_z
 _atom_site_occupancy
  P  P0  1  0.00000000  0.00000000  0.00000000  1
  P  P1  1  0.50000000  0.50000000  0.50000000  1
  P  P2  1  0.25000000  0.25000000  0.25000000  1
  P  P3  1  0.75000000  0.25000000  0.00000000  1
  Lu  Lu4  1  0.25000000  0.75000000  0.50000000  1
  As  As5  1  0.59366568  0.90292361  0.03180643  1
  As  As6  1  0.63865282  0.82907247  0.57527449  1
  As  As7  1  0.70913662  0.58034147  0.77387177  1
  As  As8  1  0.05585822  0.55677396  0.64518329  1
  As  As9  1  0.66147163  0.54644777  0.25497605  1
  As  As10  1  0.10796771  0.22139611  0.80479749  1
  Li  Li11  1  0.03087353  0.72595697  0.18543973  1
  Li  Li12  1  0.13459294  0.68052469  0.23183367  1
