# generated using pymatgen
data_LiMnSb4P3
_symmetry_space_group_name_H-M   'P 1'
_cell_length_a   4.61128619
_cell_length_b   4.76265843
_cell_length_c   6.63609888
_cell_angle_alpha   97.83854428
_cell_angle_beta   96.59600095
_cell_angle_gamma   98.67088808
_symmetry_Int_Tables_number   1
_chemical_formula_structural   LiMnSb4P3
_chemical_formula_sum   'Li1 Mn1 Sb4 P3'
_cell_volume   141.35862608
_cell_formula_units_Z   1
loop_
 _symmetry_equiv_pos_site_id
 _symmetry_equiv_pos_as_xyz
  1  'x, y, z'
loop_
 _atom_site_type_symbol
 _atom_site_label
 _atom_site_symmetry_multiplicity
 _atom_site_fract_x
 _atom_site_fract_y
 _atom_site_fract_z
 _atom_site_occupancy
  Mn  Mn0  1  0.12500000  0.12500000  0.12500000  1
  Sb  Sb1  1  0.50000000  0.50000000  0.50000000  1
  Sb  Sb2  1  0.25000000  0.25000000  0.25000000  1
  Sb  Sb3  1  0.75000000  0.75000000  0.75000000  1
  Sb  Sb4  1  0.60262868  0.33200392  0.35547748  1
  P  P5  1  0.85463932  0.18732974  0.32661071  1
  P  P6  1  0.68755066  0.56189323  0.22741917  1
  P  P7  1  0.73157942  0.05997589  0.61720196  1
  Li  Li8  1  0.34210594  0.74031656  0.40826246  1
