# generated using pymatgen
data_Li3LuV(PN)5
_symmetry_space_group_name_H-M   'P 1'
_cell_length_a   7.03980771
_cell_length_b   6.47748983
_cell_length_c   7.62046665
_cell_angle_alpha   94.46155929
_cell_angle_beta   91.57734855
_cell_angle_gamma   95.17486868
_symmetry_Int_Tables_number   1
_chemical_formula_structural   Li3LuV(PN)5
_chemical_formula_sum   'Li3 Lu1 V1 P5 N5'
_cell_volume   344.82149542
_cell_formula_units_Z   1
loop_
 _symmetry_equiv_pos_site_id
 _symmetry_equiv_pos_as_xyz
  1  'x, y, z'
loop_
 _atom_site_type_symbol
 _atom_site_label
 _atom_site_symmetry_multiplicity
 _atom_site_fract_x
 _atom_site_fract_y
 _atom_site_fract_z
 _atom_site_occupancy
  P  P0  1  0.00000000  0.00000000  0.00000000  1
  P  P1  1  0.50000000  0.50000000  0.50000000  1
  P  P2  1  0.25000000  0.25000000  0.25000000  1
  P  P3  1  0.75000000  0.25000000  0.00000000  1
  P  P4  1  0.25000000  0.75000000  0.50000000  1
  Lu  Lu5  1  0.76001782  0.26134029  0.18688670  1
  Li  Li6  1  0.99503949  0.48166858  0.48386561  1
  Li  Li7  1  0.55499105  0.71134224  0.68897101  1
  Li  Li8  1  0.23187682  0.17221318  0.46428449  1
  V  V9  1  0.18191502  0.93909469  0.82312960  1
  N  N10  1  0.51740388  0.69214501  0.60591724  1
  N  N11  1  0.62024994  0.63250426  0.73248086  1
  N  N12  1  0.19995475  0.18516968  0.00142620  1
  N  N13  1  0.11044651  0.45190966  0.94442580  1
  N  N14  1  0.20693352  0.06345699  0.69315117  1
