# generated using pymatgen
data_Li2LuCu2P4N5
_symmetry_space_group_name_H-M   'P 1'
_cell_length_a   7.27125196
_cell_length_b   7.12655116
_cell_length_c   8.20623002
_cell_angle_alpha   93.89449116
_cell_angle_beta   93.88620233
_cell_angle_gamma   94.00926882
_symmetry_Int_Tables_number   1
_chemical_formula_structural   Li2LuCu2P4N5
_chemical_formula_sum   'Li2 Lu1 Cu2 P4 N5'
_cell_volume   422.09285412
_cell_formula_units_Z   1
loop_
 _symmetry_equiv_pos_site_id
 _symmetry_equiv_pos_as_xyz
  1  'x, y, z'
loop_
 _atom_site_type_symbol
 _atom_site_label
 _atom_site_symmetry_multiplicity
 _atom_site_fract_x
 _atom_site_fract_y
 _atom_site_fract_z
 _atom_site_occupancy
  P  P0  1  0.00000000  0.00000000  0.00000000  1
  P  P1  1  0.50000000  0.50000000  0.50000000  1
  P  P2  1  0.50000000  0.50000000  0.00000000  1
  P  P3  1  0.50000000  0.00000000  0.50000000  1
  Lu  Lu4  1  0.00000000  0.50000000  0.50000000  1
  Li  Li5  1  0.65914157  0.58987662  0.70413878  1
  Li  Li6  1  0.42297099  0.56307560  0.02242996  1
  Cu  Cu7  1  0.17087889  0.34755133  0.95900790  1
  Cu  Cu8  1  0.47717580  0.82293718  0.57007860  1
  N  N9  1  0.60214710  0.66008122  0.30172063  1
  N  N10  1  0.63081896  0.85683701  0.20222537  1
  N  N11  1  0.55008237  0.81306424  0.39935826  1
  N  N12  1  0.64492170  0.00676639  0.38412594  1
  N  N13  1  0.02664161  0.61084832  0.13763388  1
