# generated using pymatgen
data_Li3TiP3SeCl2
_symmetry_space_group_name_H-M   'P 1'
_cell_length_a   6.23285822
_cell_length_b   5.96161993
_cell_length_c   6.83912552
_cell_angle_alpha   98.01755528
_cell_angle_beta   100.50699793
_cell_angle_gamma   97.49192288
_symmetry_Int_Tables_number   1
_chemical_formula_structural   Li3TiP3SeCl2
_chemical_formula_sum   'Li3 Ti1 P3 Se1 Cl2'
_cell_volume   244.23509294
_cell_formula_units_Z   1
loop_
 _symmetry_equiv_pos_site_id
 _symmetry_equiv_pos_as_xyz
  1  'x, y, z'
loop_
 _atom_site_type_symbol
 _atom_site_label
 _atom_site_symmetry_multiplicity
 _atom_site_fract_x
 _atom_site_fract_y
 _atom_site_fract_z
 _atom_site_occupancy
  P  P0  1  0.12500000  0.00000000  0.25000000  1
  P  P1  1  0.00000000  0.00000000  0.00000000  1
  P  P2  1  0.37500000  0.00000000  0.25000000  1
  Li  Li3  1  0.25000000  0.25000000  0.25000000  1
  Li  Li4  1  0.00000000  0.25000000  0.12500000  1
  Li  Li5  1  0.02838236  0.40182628  0.41463490  1
  Se  Se6  1  0.73777363  0.22392397  0.60531964  1
  Cl  Cl7  1  0.64091294  0.36733636  0.16951426  1
  Cl  Cl8  1  0.31012277  0.74773690  0.49010837  1
  Ti  Ti9  1  0.89424564  0.42473015  0.36484311  1
