# generated using pymatgen
data_Li2LuTi2(CuP2)2
_symmetry_space_group_name_H-M   'P 1'
_cell_length_a   7.29129030
_cell_length_b   6.99180527
_cell_length_c   7.72219056
_cell_angle_alpha   92.07583260
_cell_angle_beta   92.73677865
_cell_angle_gamma   92.18290865
_symmetry_Int_Tables_number   1
_chemical_formula_structural   Li2LuTi2(CuP2)2
_chemical_formula_sum   'Li2 Lu1 Ti2 Cu2 P4'
_cell_volume   392.65188893
_cell_formula_units_Z   1
loop_
 _symmetry_equiv_pos_site_id
 _symmetry_equiv_pos_as_xyz
  1  'x, y, z'
loop_
 _atom_site_type_symbol
 _atom_site_label
 _atom_site_symmetry_multiplicity
 _atom_site_fract_x
 _atom_site_fract_y
 _atom_site_fract_z
 _atom_site_occupancy
  P  P0  1  0.00000000  0.00000000  0.00000000  1
  P  P1  1  0.50000000  0.50000000  0.50000000  1
  P  P2  1  0.50000000  0.50000000  0.00000000  1
  P  P3  1  0.50000000  0.00000000  0.50000000  1
  Lu  Lu4  1  0.00000000  0.50000000  0.50000000  1
  Li  Li5  1  0.83951922  0.31580802  0.93404180  1
  Li  Li6  1  0.53621917  0.35364387  0.07872913  1
  Cu  Cu7  1  0.76297338  0.21379260  0.79865851  1
  Cu  Cu8  1  0.22295979  0.05195769  0.62988699  1
  Ti  Ti9  1  0.29649725  0.13838100  0.68768853  1
  Ti  Ti10  1  0.55330243  0.18827013  0.63783268  1
