# generated using pymatgen
data_LiAs3P2
_symmetry_space_group_name_H-M   'P 1'
_cell_length_a   7.23187639
_cell_length_b   7.03563730
_cell_length_c   7.88043315
_cell_angle_alpha   91.86121214
_cell_angle_beta   92.16763349
_cell_angle_gamma   91.85332838
_symmetry_Int_Tables_number   1
_chemical_formula_structural   LiAs3P2
_chemical_formula_sum   'Li2 As6 P4'
_cell_volume   400.23864416
_cell_formula_units_Z   2
loop_
 _symmetry_equiv_pos_site_id
 _symmetry_equiv_pos_as_xyz
  1  'x, y, z'
loop_
 _atom_site_type_symbol
 _atom_site_label
 _atom_site_symmetry_multiplicity
 _atom_site_fract_x
 _atom_site_fract_y
 _atom_site_fract_z
 _atom_site_occupancy
  P  P0  1  0.12500000  0.12500000  0.12500000  1
  P  P1  1  0.50000000  0.50000000  0.50000000  1
  P  P2  1  0.25000000  0.25000000  0.25000000  1
  P  P3  1  0.75000000  0.75000000  0.75000000  1
  As  As4  1  0.99865565  0.08164561  0.66006201  1
  As  As5  1  0.80338626  0.09221199  0.22120918  1
  As  As6  1  0.82521873  0.03932746  0.94790484  1
  As  As7  1  0.09431770  0.42638551  0.04052765  1
  As  As8  1  0.86106922  0.24926277  0.80012404  1
  As  As9  1  0.00745696  0.66853013  0.68429586  1
  Li  Li10  1  0.69672805  0.80248938  0.29706725  1
  Li  Li11  1  0.78171799  0.07937569  0.55553300  1
