# generated using pymatgen
data_LiSe3Br2O3F2
_symmetry_space_group_name_H-M   'P 1'
_cell_length_a   7.76407593
_cell_length_b   8.63540059
_cell_length_c   8.42602878
_cell_angle_alpha   90.00000000
_cell_angle_beta   90.00000000
_cell_angle_gamma   90.00000000
_symmetry_Int_Tables_number   1
_chemical_formula_structural   LiSe3Br2O3F2
_chemical_formula_sum   'Li1 Se3 Br2 O3 F2'
_cell_volume   564.93073213
_cell_formula_units_Z   1
loop_
 _symmetry_equiv_pos_site_id
 _symmetry_equiv_pos_as_xyz
  1  'x, y, z'
loop_
 _atom_site_type_symbol
 _atom_site_label
 _atom_site_symmetry_multiplicity
 _atom_site_fract_x
 _atom_site_fract_y
 _atom_site_fract_z
 _atom_site_occupancy
  Li  Li0  1  0.00000000  0.00000000  0.00000000  1
  Br  Br1  1  0.50000000  0.50000000  0.50000000  1
  Br  Br2  1  0.25000000  0.25000000  0.25000000  1
  Se  Se3  1  0.75000000  0.25000000  0.00000000  1
  Se  Se4  1  0.25000000  0.75000000  0.50000000  1
  Se  Se5  1  0.43432691  0.17278083  0.72339232  1
  F  F6  1  0.45378748  0.75109875  0.35113934  1
  F  F7  1  0.49823904  0.42993500  0.48127189  1
  O  O8  1  0.76145831  0.64342701  0.16446765  1
  O  O9  1  0.33656305  0.71094179  0.26362392  1
  O  O10  1  0.58489040  0.41706314  0.56942195  1
