# generated using pymatgen
data_Li4Ti2N
_symmetry_space_group_name_H-M   'P 1'
_cell_length_a   3.61777912
_cell_length_b   3.54926950
_cell_length_c   6.03641799
_cell_angle_alpha   98.70665038
_cell_angle_beta   109.63833354
_cell_angle_gamma   98.00850642
_symmetry_Int_Tables_number   1
_chemical_formula_structural   Li4Ti2N
_chemical_formula_sum   'Li4 Ti2 N1'
_cell_volume   70.63872925
_cell_formula_units_Z   1
loop_
 _symmetry_equiv_pos_site_id
 _symmetry_equiv_pos_as_xyz
  1  'x, y, z'
loop_
 _atom_site_type_symbol
 _atom_site_label
 _atom_site_symmetry_multiplicity
 _atom_site_fract_x
 _atom_site_fract_y
 _atom_site_fract_z
 _atom_site_occupancy
  Ti  Ti0  1  0.00000000  0.00000000  0.00000000  1
  Ti  Ti1  1  0.50000000  0.50000000  0.50000000  1
  Li  Li2  1  0.50000000  0.50000000  0.00000000  1
  Li  Li3  1  0.50000000  0.00000000  0.50000000  1
  Li  Li4  1  0.00000000  0.50000000  0.50000000  1
  Li  Li5  1  0.15857035  0.89615557  0.15309526  1
  N  N6  1  0.33288554  0.96284148  0.25268059  1
