# generated using pymatgen
data_Li2As6P4F3
_symmetry_space_group_name_H-M   'P 1'
_cell_length_a   7.58135626
_cell_length_b   7.40868842
_cell_length_c   7.64220423
_cell_angle_alpha   91.07834330
_cell_angle_beta   91.95564058
_cell_angle_gamma   91.04024988
_symmetry_Int_Tables_number   1
_chemical_formula_structural   Li2As6P4F3
_chemical_formula_sum   'Li2 As6 P4 F3'
_cell_volume   428.84472201
_cell_formula_units_Z   1
loop_
 _symmetry_equiv_pos_site_id
 _symmetry_equiv_pos_as_xyz
  1  'x, y, z'
loop_
 _atom_site_type_symbol
 _atom_site_label
 _atom_site_symmetry_multiplicity
 _atom_site_fract_x
 _atom_site_fract_y
 _atom_site_fract_z
 _atom_site_occupancy
  F  F0  1  0.00000000  0.00000000  0.00000000  1
  F  F1  1  0.33300000  0.66700000  0.25000000  1
  F  F2  1  0.66700000  0.33300000  0.50000000  1
  P  P3  1  0.00000000  0.00000000  0.75000000  1
  P  P4  1  0.61453975  0.08275352  0.90307624  1
  P  P5  1  0.57018056  0.40127057  0.69003240  1
  P  P6  1  0.39031665  0.54882593  0.67626713  1
  As  As7  1  0.64476590  0.61963391  0.96228839  1
  As  As8  1  0.64957744  0.67503355  0.74980119  1
  As  As9  1  0.07158322  0.41308868  0.84895714  1
  As  As10  1  0.33391766  0.44358994  0.92545708  1
  As  As11  1  0.18853614  0.56829150  0.94395012  1
  As  As12  1  0.15163940  0.48878247  0.38590858  1
  Li  Li13  1  0.39002111  0.18268513  0.19254727  1
  Li  Li14  1  0.98565783  0.84530572  0.24886964  1
