# generated using pymatgen
data_Li2LuCu2P4N5
_symmetry_space_group_name_H-M   'P 1'
_cell_length_a   7.09793323
_cell_length_b   7.03267906
_cell_length_c   8.06864297
_cell_angle_alpha   94.93508832
_cell_angle_beta   95.48932905
_cell_angle_gamma   94.90058832
_symmetry_Int_Tables_number   1
_chemical_formula_structural   Li2LuCu2P4N5
_chemical_formula_sum   'Li2 Lu1 Cu2 P4 N5'
_cell_volume   397.64784131
_cell_formula_units_Z   1
loop_
 _symmetry_equiv_pos_site_id
 _symmetry_equiv_pos_as_xyz
  1  'x, y, z'
loop_
 _atom_site_type_symbol
 _atom_site_label
 _atom_site_symmetry_multiplicity
 _atom_site_fract_x
 _atom_site_fract_y
 _atom_site_fract_z
 _atom_site_occupancy
  P  P0  1  0.00000000  0.00000000  0.00000000  1
  P  P1  1  0.50000000  0.50000000  0.50000000  1
  P  P2  1  0.25000000  0.25000000  0.25000000  1
  P  P3  1  0.75000000  0.25000000  0.00000000  1
  Lu  Lu4  1  0.25000000  0.75000000  0.50000000  1
  Li  Li5  1  0.87362080  0.55675378  0.84268105  1
  Li  Li6  1  0.87380472  0.15832573  0.74772881  1
  N  N7  1  0.49421749  0.60736264  0.00904203  1
  N  N8  1  0.08010125  0.28572759  0.79509747  1
  N  N9  1  0.12780446  0.49439702  0.46054801  1
  N  N10  1  0.22167438  0.56381634  0.46029007  1
  N  N11  1  0.21243253  0.66364695  0.45294469  1
  Cu  Cu12  1  0.91501925  0.13405808  0.19347834  1
  Cu  Cu13  1  0.17458571  0.95568536  0.84567750  1
