# generated using pymatgen
data_Li2As6I4O4F3
_symmetry_space_group_name_H-M   'P 1'
_cell_length_a   7.85353511
_cell_length_b   7.61673408
_cell_length_c   7.52485426
_cell_angle_alpha   91.74908341
_cell_angle_beta   92.21257303
_cell_angle_gamma   91.67807288
_symmetry_Int_Tables_number   1
_chemical_formula_structural   Li2As6I4O4F3
_chemical_formula_sum   'Li2 As6 I4 O4 F3'
_cell_volume   449.36961001
_cell_formula_units_Z   1
loop_
 _symmetry_equiv_pos_site_id
 _symmetry_equiv_pos_as_xyz
  1  'x, y, z'
loop_
 _atom_site_type_symbol
 _atom_site_label
 _atom_site_symmetry_multiplicity
 _atom_site_fract_x
 _atom_site_fract_y
 _atom_site_fract_z
 _atom_site_occupancy
  I  I0  1  0.00000000  0.00000000  0.00000000  1
  I  I1  1  0.50000000  0.50000000  0.50000000  1
  I  I2  1  0.50000000  0.50000000  0.00000000  1
  I  I3  1  0.50000000  0.00000000  0.50000000  1
  Li  Li4  1  0.00000000  0.50000000  0.50000000  1
  Li  Li5  1  0.26420168  0.87980922  0.64150379  1
  F  F6  1  0.05018265  0.86896647  0.30668576  1
  F  F7  1  0.38513072  0.99653141  0.21242589  1
  F  F8  1  0.46292937  0.45124324  0.89499920  1
  As  As9  1  0.18565283  0.67047196  0.77327270  1
  As  As10  1  0.79906956  0.68015337  0.89847729  1
  As  As11  1  0.32541211  0.92779683  0.24320145  1
  As  As12  1  0.31936720  0.63304401  0.62391120  1
  As  As13  1  0.47112159  0.73520862  0.98648730  1
  As  As14  1  0.63497896  0.59188461  0.70427662  1
  O  O15  1  0.77748812  0.45624322  0.22227605  1
  O  O16  1  0.55065522  0.95716289  0.36308955  1
  O  O17  1  0.87934969  0.21144460  0.11339972  1
  O  O18  1  0.66561976  0.38824163  0.83904521  1
