# generated using pymatgen
data_Li3Zn2I4O5
_symmetry_space_group_name_H-M   'P 1'
_cell_length_a   8.27730106
_cell_length_b   8.51841434
_cell_length_c   7.91705915
_cell_angle_alpha   90.61083646
_cell_angle_beta   90.38726831
_cell_angle_gamma   90.70785018
_symmetry_Int_Tables_number   1
_chemical_formula_structural   Li3Zn2I4O5
_chemical_formula_sum   'Li3 Zn2 I4 O5'
_cell_volume   558.14014783
_cell_formula_units_Z   1
loop_
 _symmetry_equiv_pos_site_id
 _symmetry_equiv_pos_as_xyz
  1  'x, y, z'
loop_
 _atom_site_type_symbol
 _atom_site_label
 _atom_site_symmetry_multiplicity
 _atom_site_fract_x
 _atom_site_fract_y
 _atom_site_fract_z
 _atom_site_occupancy
  I  I0  1  0.00000000  0.00000000  0.00000000  1
  I  I1  1  0.50000000  0.50000000  0.50000000  1
  I  I2  1  0.50000000  0.50000000  0.00000000  1
  I  I3  1  0.50000000  0.00000000  0.50000000  1
  Li  Li4  1  0.00000000  0.50000000  0.50000000  1
  Li  Li5  1  0.39648131  0.09918790  0.07159260  1
  Li  Li6  1  0.72317015  0.51043563  0.49652130  1
  Zn  Zn7  1  0.37365067  0.63784868  0.47147412  1
  Zn  Zn8  1  0.42204409  0.65185109  0.32230469  1
  O  O9  1  0.51401979  0.43380308  0.98859609  1
  O  O10  1  0.72092777  0.22801657  0.14942814  1
  O  O11  1  0.01148071  0.83545637  0.79481956  1
  O  O12  1  0.10698112  0.65469456  0.29889813  1
  O  O13  1  0.28504790  0.75460682  0.72979460  1
