# generated using pymatgen
data_Li2TiI4O5F3
_symmetry_space_group_name_H-M   'P 1'
_cell_length_a   7.81478018
_cell_length_b   7.62981465
_cell_length_c   8.01337831
_cell_angle_alpha   91.04939089
_cell_angle_beta   91.38210329
_cell_angle_gamma   91.21335266
_symmetry_Int_Tables_number   1
_chemical_formula_structural   Li2TiI4O5F3
_chemical_formula_sum   'Li2 Ti1 I4 O5 F3'
_cell_volume   477.46945905
_cell_formula_units_Z   1
loop_
 _symmetry_equiv_pos_site_id
 _symmetry_equiv_pos_as_xyz
  1  'x, y, z'
loop_
 _atom_site_type_symbol
 _atom_site_label
 _atom_site_symmetry_multiplicity
 _atom_site_fract_x
 _atom_site_fract_y
 _atom_site_fract_z
 _atom_site_occupancy
  I  I0  1  0.00000000  0.00000000  0.00000000  1
  I  I1  1  0.50000000  0.50000000  0.50000000  1
  I  I2  1  0.50000000  0.50000000  0.00000000  1
  I  I3  1  0.50000000  0.00000000  0.50000000  1
  Li  Li4  1  0.00000000  0.50000000  0.50000000  1
  Li  Li5  1  0.55071051  0.60904368  0.15411352  1
  F  F6  1  0.98468615  0.10389234  0.87807207  1
  F  F7  1  0.22811355  0.48635370  0.89902065  1
  F  F8  1  0.49948129  0.96945440  0.47333021  1
  Ti  Ti9  1  0.40675768  0.69767782  0.16811859  1
  O  O10  1  0.55686816  0.40884581  0.84607852  1
  O  O11  1  0.68897042  0.64162190  0.35052636  1
  O  O12  1  0.47600258  0.09938926  0.55965159  1
  O  O13  1  0.84402936  0.99112342  0.77647302  1
  O  O14  1  0.70487133  0.79110312  0.82366056  1
