# generated using pymatgen
data_Li2LuP4N5
_symmetry_space_group_name_H-M   'P 1'
_cell_length_a   7.03173108
_cell_length_b   6.99989806
_cell_length_c   7.98731686
_cell_angle_alpha   95.29307867
_cell_angle_beta   96.10859221
_cell_angle_gamma   95.19620047
_symmetry_Int_Tables_number   1
_chemical_formula_structural   Li2LuP4N5
_chemical_formula_sum   'Li2 Lu1 P4 N5'
_cell_volume   387.24187651
_cell_formula_units_Z   1
loop_
 _symmetry_equiv_pos_site_id
 _symmetry_equiv_pos_as_xyz
  1  'x, y, z'
loop_
 _atom_site_type_symbol
 _atom_site_label
 _atom_site_symmetry_multiplicity
 _atom_site_fract_x
 _atom_site_fract_y
 _atom_site_fract_z
 _atom_site_occupancy
  P  P0  1  0.00000000  0.00000000  0.00000000  1
  P  P1  1  0.50000000  0.50000000  0.50000000  1
  P  P2  1  0.50000000  0.50000000  0.00000000  1
  P  P3  1  0.50000000  0.00000000  0.50000000  1
  Lu  Lu4  1  0.00000000  0.50000000  0.50000000  1
  Li  Li5  1  0.93757851  0.55572101  0.61749464  1
  Li  Li6  1  0.61426527  0.93424300  0.63110019  1
  N  N7  1  0.84379211  0.20925206  0.95115626  1
  N  N8  1  0.85092961  0.61698632  0.61451603  1
  N  N9  1  0.32500951  0.57940008  0.98239820  1
  N  N10  1  0.67194012  0.62997230  0.02632553  1
  N  N11  1  0.95596644  0.22397060  0.32571626  1
