# generated using pymatgen
data_Li3TiI4(OF)3
_symmetry_space_group_name_H-M   'P 1'
_cell_length_a   6.00187425
_cell_length_b   5.75718984
_cell_length_c   6.95003627
_cell_angle_alpha   99.77332677
_cell_angle_beta   102.96936700
_cell_angle_gamma   99.18794529
_symmetry_Int_Tables_number   1
_chemical_formula_structural   Li3TiI4(OF)3
_chemical_formula_sum   'Li3 Ti1 I4 O3 F3'
_cell_volume   225.68501794
_cell_formula_units_Z   1
loop_
 _symmetry_equiv_pos_site_id
 _symmetry_equiv_pos_as_xyz
  1  'x, y, z'
loop_
 _atom_site_type_symbol
 _atom_site_label
 _atom_site_symmetry_multiplicity
 _atom_site_fract_x
 _atom_site_fract_y
 _atom_site_fract_z
 _atom_site_occupancy
  I  I0  1  0.00000000  0.00000000  0.00000000  1
  I  I1  1  0.50000000  0.50000000  0.50000000  1
  I  I2  1  0.50000000  0.50000000  0.00000000  1
  I  I3  1  0.50000000  0.00000000  0.50000000  1
  Li  Li4  1  0.00000000  0.50000000  0.50000000  1
  Li  Li5  1  0.43684623  0.37861625  0.89751856  1
  Li  Li6  1  0.34588392  0.00193261  0.09680499  1
  F  F7  1  0.44691300  0.18532814  0.66061664  1
  F  F8  1  0.50215230  0.55196616  0.43053730  1
  F  F9  1  0.22310870  0.60045504  0.03413855  1
  Ti  Ti10  1  0.33714758  0.59243301  0.61211332  1
  O  O11  1  0.76650410  0.54460939  0.39504505  1
  O  O12  1  0.98106080  0.45672009  0.26173382  1
  O  O13  1  0.49529418  0.26557041  0.69285251  1
