# generated using pymatgen
data_LiNi2Se3Br3O4
_symmetry_space_group_name_H-M   'P 1'
_cell_length_a   8.04263707
_cell_length_b   8.03453444
_cell_length_c   8.49701808
_cell_angle_alpha   90.00000000
_cell_angle_beta   90.00000000
_cell_angle_gamma   90.00000000
_symmetry_Int_Tables_number   1
_chemical_formula_structural   LiNi2Se3Br3O4
_chemical_formula_sum   'Li1 Ni2 Se3 Br3 O4'
_cell_volume   549.06749076
_cell_formula_units_Z   1
loop_
 _symmetry_equiv_pos_site_id
 _symmetry_equiv_pos_as_xyz
  1  'x, y, z'
loop_
 _atom_site_type_symbol
 _atom_site_label
 _atom_site_symmetry_multiplicity
 _atom_site_fract_x
 _atom_site_fract_y
 _atom_site_fract_z
 _atom_site_occupancy
  Li  Li0  1  0.00000000  0.00000000  0.00000000  1
  Br  Br1  1  0.50000000  0.50000000  0.50000000  1
  Br  Br2  1  0.25000000  0.25000000  0.25000000  1
  Br  Br3  1  0.75000000  0.25000000  0.00000000  1
  Se  Se4  1  0.25000000  0.75000000  0.50000000  1
  Se  Se5  1  0.20904788  0.10011116  0.34641776  1
  Se  Se6  1  0.97336357  0.85193313  0.66311545  1
  Ni  Ni7  1  0.59513922  0.19371267  0.30808110  1
  Ni  Ni8  1  0.43808530  0.15918265  0.73658615  1
  O  O9  1  0.35103284  0.22282048  0.23455532  1
  O  O10  1  0.63298785  0.15173544  0.43642803  1
  O  O11  1  0.46529114  0.49647855  0.59333115  1
  O  O12  1  0.53913218  0.75242703  0.47702120  1
