# generated using pymatgen
data_Li2Lu(NiP2)2
_symmetry_space_group_name_H-M   'P 1'
_cell_length_a   7.27678112
_cell_length_b   7.15929620
_cell_length_c   7.93225926
_cell_angle_alpha   93.47930152
_cell_angle_beta   93.90201315
_cell_angle_gamma   93.54699573
_symmetry_Int_Tables_number   1
_chemical_formula_structural   Li2Lu(NiP2)2
_chemical_formula_sum   'Li2 Lu1 Ni2 P4'
_cell_volume   410.62139384
_cell_formula_units_Z   1
loop_
 _symmetry_equiv_pos_site_id
 _symmetry_equiv_pos_as_xyz
  1  'x, y, z'
loop_
 _atom_site_type_symbol
 _atom_site_label
 _atom_site_symmetry_multiplicity
 _atom_site_fract_x
 _atom_site_fract_y
 _atom_site_fract_z
 _atom_site_occupancy
  Ni  Ni0  1  0.00000000  0.00000000  0.00000000  1
  Ni  Ni1  1  0.50000000  0.50000000  0.50000000  1
  P  P2  1  0.25000000  0.25000000  0.25000000  1
  P  P3  1  0.75000000  0.25000000  0.00000000  1
  P  P4  1  0.25000000  0.75000000  0.50000000  1
  P  P5  1  0.81962708  0.92180484  0.68909754  1
  Lu  Lu6  1  0.61686732  0.15364846  0.31602316  1
  Li  Li7  1  0.35444220  0.95366096  0.04779512  1
  Li  Li8  1  0.46197180  0.76177974  0.41554394  1
