# generated using pymatgen
data_Li3LuCu2P4N5
_symmetry_space_group_name_H-M   'P 1'
_cell_length_a   7.44293171
_cell_length_b   7.23347496
_cell_length_c   8.21209168
_cell_angle_alpha   92.68475333
_cell_angle_beta   92.32960609
_cell_angle_gamma   92.92310497
_symmetry_Int_Tables_number   1
_chemical_formula_structural   Li3LuCu2P4N5
_chemical_formula_sum   'Li3 Lu1 Cu2 P4 N5'
_cell_volume   440.65419345
_cell_formula_units_Z   1
loop_
 _symmetry_equiv_pos_site_id
 _symmetry_equiv_pos_as_xyz
  1  'x, y, z'
loop_
 _atom_site_type_symbol
 _atom_site_label
 _atom_site_symmetry_multiplicity
 _atom_site_fract_x
 _atom_site_fract_y
 _atom_site_fract_z
 _atom_site_occupancy
  P  P0  1  0.12500000  0.00000000  0.25000000  1
  P  P1  1  0.00000000  0.00000000  0.00000000  1
  P  P2  1  0.37500000  0.00000000  0.25000000  1
  P  P3  1  0.25000000  0.25000000  0.25000000  1
  Lu  Lu4  1  0.00000000  0.25000000  0.12500000  1
  Li  Li5  1  0.55901255  0.68908762  0.77481807  1
  Li  Li6  1  0.13434530  0.78406825  0.02271300  1
  Li  Li7  1  0.18139118  0.92333432  0.75124615  1
  Cu  Cu8  1  0.25342713  0.55948171  0.89384362  1
  Cu  Cu9  1  0.44237450  0.27475910  0.36649088  1
  N  N10  1  0.20604423  0.90846967  0.00403967  1
  N  N11  1  0.15358545  0.53262290  0.86979146  1
  N  N12  1  0.51438663  0.16311895  0.30869722  1
  N  N13  1  0.00511150  0.26252025  0.59007191  1
  N  N14  1  0.23513040  0.11707993  0.33094292  1
