# generated using pymatgen
data_Li3TiSe(OF)3
_symmetry_space_group_name_H-M   'P 1'
_cell_length_a   6.90134851
_cell_length_b   6.68063020
_cell_length_c   7.23161058
_cell_angle_alpha   95.53227481
_cell_angle_beta   97.89808826
_cell_angle_gamma   95.23388017
_symmetry_Int_Tables_number   1
_chemical_formula_structural   Li3TiSe(OF)3
_chemical_formula_sum   'Li3 Ti1 Se1 O3 F3'
_cell_volume   326.86428352
_cell_formula_units_Z   1
loop_
 _symmetry_equiv_pos_site_id
 _symmetry_equiv_pos_as_xyz
  1  'x, y, z'
loop_
 _atom_site_type_symbol
 _atom_site_label
 _atom_site_symmetry_multiplicity
 _atom_site_fract_x
 _atom_site_fract_y
 _atom_site_fract_z
 _atom_site_occupancy
  Li  Li0  1  0.12500000  0.00000000  0.25000000  1
  Li  Li1  1  0.00000000  0.00000000  0.00000000  1
  Li  Li2  1  0.37500000  0.00000000  0.25000000  1
  F  F3  1  0.25000000  0.25000000  0.25000000  1
  F  F4  1  0.00000000  0.25000000  0.12500000  1
  F  F5  1  0.91378238  0.61147721  0.62947773  1
  Se  Se6  1  0.26616916  0.33822199  0.41423388  1
  Ti  Ti7  1  0.27232394  0.32311706  0.23945223  1
  O  O8  1  0.03147965  0.68727764  0.81588441  1
  O  O9  1  0.82059092  0.85500652  0.06242251  1
  O  O10  1  0.96261741  0.49117836  0.87206554  1
