# generated using pymatgen
data_Li3Zn2Te6(IO)4
_symmetry_space_group_name_H-M   'P 1'
_cell_length_a   8.70882413
_cell_length_b   8.95172480
_cell_length_c   7.22647784
_cell_angle_alpha   90.00000000
_cell_angle_beta   90.00000000
_cell_angle_gamma   90.00000000
_symmetry_Int_Tables_number   1
_chemical_formula_structural   Li3Zn2Te6(IO)4
_chemical_formula_sum   'Li3 Zn2 Te6 I4 O4'
_cell_volume   563.36896341
_cell_formula_units_Z   1
loop_
 _symmetry_equiv_pos_site_id
 _symmetry_equiv_pos_as_xyz
  1  'x, y, z'
loop_
 _atom_site_type_symbol
 _atom_site_label
 _atom_site_symmetry_multiplicity
 _atom_site_fract_x
 _atom_site_fract_y
 _atom_site_fract_z
 _atom_site_occupancy
  I  I0  1  0.00000000  0.00000000  0.00000000  1
  I  I1  1  0.50000000  0.50000000  0.50000000  1
  I  I2  1  0.50000000  0.50000000  0.00000000  1
  I  I3  1  0.50000000  0.00000000  0.50000000  1
  Li  Li4  1  0.00000000  0.50000000  0.50000000  1
  Li  Li5  1  0.53252225  0.32334623  0.78045337  1
  Li  Li6  1  0.94805594  0.41569430  0.36544561  1
  Zn  Zn7  1  0.69512719  0.94697476  0.59691616  1
  Zn  Zn8  1  0.31090168  0.27412367  0.31038090  1
  Te  Te9  1  0.43051427  0.11430160  0.02916573  1
  Te  Te10  1  0.19117010  0.26706526  0.87178062  1
  Te  Te11  1  0.46557658  0.53951482  0.44161113  1
  Te  Te12  1  0.92714211  0.50790800  0.97890248  1
  Te  Te13  1  0.48997592  0.31139178  0.84905587  1
  Te  Te14  1  0.09602365  0.82452496  0.96737995  1
  O  O15  1  0.74320005  0.49167697  0.24901448  1
  O  O16  1  0.34757526  0.24907713  0.49510112  1
  O  O17  1  0.06214080  0.26986783  0.50607978  1
  O  O18  1  0.40363640  0.52692246  0.62988072  1
