# generated using pymatgen
data_Li3VZn2(Te3O2)2
_symmetry_space_group_name_H-M   'P 1'
_cell_length_a   6.77255374
_cell_length_b   6.41435942
_cell_length_c   7.33117447
_cell_angle_alpha   96.51533078
_cell_angle_beta   92.30344301
_cell_angle_gamma   97.55699497
_symmetry_Int_Tables_number   1
_chemical_formula_structural   Li3VZn2(Te3O2)2
_chemical_formula_sum   'Li3 V1 Zn2 Te6 O4'
_cell_volume   313.18125984
_cell_formula_units_Z   1
loop_
 _symmetry_equiv_pos_site_id
 _symmetry_equiv_pos_as_xyz
  1  'x, y, z'
loop_
 _atom_site_type_symbol
 _atom_site_label
 _atom_site_symmetry_multiplicity
 _atom_site_fract_x
 _atom_site_fract_y
 _atom_site_fract_z
 _atom_site_occupancy
  Li  Li0  1  0.00000000  0.00000000  0.00000000  1
  Li  Li1  1  0.50000000  0.50000000  0.50000000  1
  Li  Li2  1  0.25000000  0.25000000  0.25000000  1
  Zn  Zn3  1  0.75000000  0.25000000  0.00000000  1
  Zn  Zn4  1  0.25000000  0.75000000  0.50000000  1
  Te  Te5  1  0.44208913  0.83482317  0.32804395  1
  Te  Te6  1  0.66556262  0.51550702  0.57248043  1
  Te  Te7  1  0.88388496  0.19417324  0.10337853  1
  Te  Te8  1  0.74825904  0.29666027  0.27663574  1
  Te  Te9  1  0.37280621  0.52722547  0.33758084  1
  Te  Te10  1  0.94638202  0.26327191  0.02622134  1
  V  V11  1  0.89078344  0.34867802  0.77367754  1
  O  O12  1  0.35430383  0.36610743  0.87837295  1
  O  O13  1  0.19021421  0.72370051  0.37887117  1
  O  O14  1  0.91704261  0.68883739  0.41625105  1
  O  O15  1  0.95485999  0.31890319  0.02350688  1
