# generated using pymatgen
data_Li2Cu2As6O7
_symmetry_space_group_name_H-M   'P 1'
_cell_length_a   7.97261556
_cell_length_b   7.82564547
_cell_length_c   8.42348186
_cell_angle_alpha   90.72820533
_cell_angle_beta   91.24473394
_cell_angle_gamma   90.84090612
_symmetry_Int_Tables_number   1
_chemical_formula_structural   Li2Cu2As6O7
_chemical_formula_sum   'Li2 Cu2 As6 O7'
_cell_volume   525.32308115
_cell_formula_units_Z   1
loop_
 _symmetry_equiv_pos_site_id
 _symmetry_equiv_pos_as_xyz
  1  'x, y, z'
loop_
 _atom_site_type_symbol
 _atom_site_label
 _atom_site_symmetry_multiplicity
 _atom_site_fract_x
 _atom_site_fract_y
 _atom_site_fract_z
 _atom_site_occupancy
  Li  Li0  1  0.12500000  0.00000000  0.25000000  1
  Li  Li1  1  0.00000000  0.00000000  0.00000000  1
  Cu  Cu2  1  0.37500000  0.00000000  0.25000000  1
  Cu  Cu3  1  0.25000000  0.25000000  0.25000000  1
  As  As4  1  0.00000000  0.25000000  0.12500000  1
  As  As5  1  0.97560518  0.83365904  0.18149325  1
  As  As6  1  0.98506779  0.29090144  0.69169238  1
  As  As7  1  0.27793726  0.30718423  0.44949442  1
  As  As8  1  0.52415141  0.24851951  0.31060978  1
  As  As9  1  0.55385283  0.63396793  0.86565093  1
  O  O10  1  0.23044397  0.67752832  0.41745221  1
  O  O11  1  0.45545724  0.66431820  0.50150282  1
  O  O12  1  0.16495328  0.04967284  0.07091080  1
  O  O13  1  0.53448896  0.42578639  0.45492762  1
  O  O14  1  0.40149743  0.22751243  0.65177923  1
  O  O15  1  0.24850791  0.45423003  0.45544030  1
  O  O16  1  0.57416160  0.44877503  0.71704861  1
