# generated using pymatgen
data_Li2Lu(OF)3
_symmetry_space_group_name_H-M   'P 1'
_cell_length_a   6.42652580
_cell_length_b   6.25550891
_cell_length_c   7.30025094
_cell_angle_alpha   97.77531094
_cell_angle_beta   100.07316179
_cell_angle_gamma   97.39080877
_symmetry_Int_Tables_number   1
_chemical_formula_structural   Li2Lu(OF)3
_chemical_formula_sum   'Li2 Lu1 O3 F3'
_cell_volume   282.78775789
_cell_formula_units_Z   1
loop_
 _symmetry_equiv_pos_site_id
 _symmetry_equiv_pos_as_xyz
  1  'x, y, z'
loop_
 _atom_site_type_symbol
 _atom_site_label
 _atom_site_symmetry_multiplicity
 _atom_site_fract_x
 _atom_site_fract_y
 _atom_site_fract_z
 _atom_site_occupancy
  Lu  Lu0  1  0.00000000  0.00000000  0.00000000  1
  Li  Li1  1  0.50000000  0.50000000  0.50000000  1
  Li  Li2  1  0.25000000  0.25000000  0.25000000  1
  F  F3  1  0.75000000  0.25000000  0.00000000  1
  F  F4  1  0.25000000  0.75000000  0.50000000  1
  F  F5  1  0.56612388  0.49164280  0.85333610  1
  O  O6  1  0.76187886  0.08220828  0.82340250  1
  O  O7  1  0.24123508  0.67598836  0.32180182  1
  O  O8  1  0.75862127  0.27463431  0.19809677  1
