# generated using pymatgen
data_Li2TiI4(OF)3
_symmetry_space_group_name_H-M   'P 1'
_cell_length_a   8.38502228
_cell_length_b   8.24045990
_cell_length_c   7.36660232
_cell_angle_alpha   90.18076541
_cell_angle_beta   90.86002694
_cell_angle_gamma   90.20666314
_symmetry_Int_Tables_number   1
_chemical_formula_structural   Li2TiI4(OF)3
_chemical_formula_sum   'Li2 Ti1 I4 O3 F3'
_cell_volume   508.94272127
_cell_formula_units_Z   1
loop_
 _symmetry_equiv_pos_site_id
 _symmetry_equiv_pos_as_xyz
  1  'x, y, z'
loop_
 _atom_site_type_symbol
 _atom_site_label
 _atom_site_symmetry_multiplicity
 _atom_site_fract_x
 _atom_site_fract_y
 _atom_site_fract_z
 _atom_site_occupancy
  I  I0  1  0.12500000  0.00000000  0.25000000  1
  I  I1  1  0.00000000  0.00000000  0.00000000  1
  I  I2  1  0.37500000  0.00000000  0.25000000  1
  I  I3  1  0.25000000  0.25000000  0.25000000  1
  Li  Li4  1  0.00000000  0.25000000  0.12500000  1
  Li  Li5  1  0.78814615  0.68977397  0.01255711  1
  F  F6  1  0.71937777  0.81941950  0.11345616  1
  F  F7  1  0.55051119  0.71616019  0.75972647  1
  F  F8  1  0.21673029  0.62450173  0.13603784  1
  Ti  Ti9  1  0.85149582  0.22778863  0.57196822  1
  O  O10  1  0.82110094  0.87669333  0.54369099  1
  O  O11  1  0.81631899  0.69321668  0.87859609  1
  O  O12  1  0.23992133  0.76551295  0.04099039  1
