# generated using pymatgen
data_Li2LuTiN5F2
_symmetry_space_group_name_H-M   'P 1'
_cell_length_a   7.27306042
_cell_length_b   7.18264383
_cell_length_c   7.59021969
_cell_angle_alpha   91.31800931
_cell_angle_beta   93.71555224
_cell_angle_gamma   91.46769944
_symmetry_Int_Tables_number   1
_chemical_formula_structural   Li2LuTiN5F2
_chemical_formula_sum   'Li2 Lu1 Ti1 N5 F2'
_cell_volume   395.42743534
_cell_formula_units_Z   1
loop_
 _symmetry_equiv_pos_site_id
 _symmetry_equiv_pos_as_xyz
  1  'x, y, z'
loop_
 _atom_site_type_symbol
 _atom_site_label
 _atom_site_symmetry_multiplicity
 _atom_site_fract_x
 _atom_site_fract_y
 _atom_site_fract_z
 _atom_site_occupancy
  Lu  Lu0  1  0.00000000  0.00000000  0.00000000  1
  Li  Li1  1  0.50000000  0.50000000  0.50000000  1
  Li  Li2  1  0.25000000  0.25000000  0.25000000  1
  F  F3  1  0.75000000  0.25000000  0.00000000  1
  F  F4  1  0.25000000  0.75000000  0.50000000  1
  Ti  Ti5  1  0.46856484  0.83315408  0.43248635  1
  N  N6  1  0.30432347  0.35659184  0.22952326  1
  N  N7  1  0.86351062  0.86954373  0.58308375  1
  N  N8  1  0.92790064  0.76007867  0.26288287  1
  N  N9  1  0.22735207  0.08299339  0.06873646  1
  N  N10  1  0.73836736  0.40169607  0.07555389  1
