# generated using pymatgen
data_Li2TiCu2As6F3
_symmetry_space_group_name_H-M   'P 1'
_cell_length_a   7.00269184
_cell_length_b   7.05683097
_cell_length_c   7.95874811
_cell_angle_alpha   93.45163213
_cell_angle_beta   95.70884353
_cell_angle_gamma   93.31172113
_symmetry_Int_Tables_number   1
_chemical_formula_structural   Li2TiCu2As6F3
_chemical_formula_sum   'Li2 Ti1 Cu2 As6 F3'
_cell_volume   389.82975325
_cell_formula_units_Z   1
loop_
 _symmetry_equiv_pos_site_id
 _symmetry_equiv_pos_as_xyz
  1  'x, y, z'
loop_
 _atom_site_type_symbol
 _atom_site_label
 _atom_site_symmetry_multiplicity
 _atom_site_fract_x
 _atom_site_fract_y
 _atom_site_fract_z
 _atom_site_occupancy
  F  F0  1  0.00000000  0.00000000  0.00000000  1
  F  F1  1  0.50000000  0.50000000  0.50000000  1
  F  F2  1  0.25000000  0.25000000  0.25000000  1
  Ti  Ti3  1  0.75000000  0.25000000  0.00000000  1
  As  As4  1  0.25000000  0.75000000  0.50000000  1
  As  As5  1  0.07394244  0.36611946  0.85074761  1
  As  As6  1  0.32323522  0.05347653  0.85066812  1
  As  As7  1  0.06842689  0.77952965  0.44488853  1
  As  As8  1  0.72761508  0.41868700  0.93387851  1
  As  As9  1  0.78689612  0.48837857  0.38793223  1
  Li  Li10  1  0.29640843  0.81826090  0.36559072  1
  Li  Li11  1  0.57579936  0.63725209  0.56002474  1
  Cu  Cu12  1  0.44415813  0.28412450  0.34092522  1
  Cu  Cu13  1  0.45870231  0.82409127  0.89972213  1
