# generated using pymatgen
data_Li2MnSb4P3
_symmetry_space_group_name_H-M   'P 1'
_cell_length_a   5.09682464
_cell_length_b   5.44470339
_cell_length_c   6.66518562
_cell_angle_alpha   99.27379176
_cell_angle_beta   93.92541560
_cell_angle_gamma   99.57148436
_symmetry_Int_Tables_number   1
_chemical_formula_structural   Li2MnSb4P3
_chemical_formula_sum   'Li2 Mn1 Sb4 P3'
_cell_volume   179.14045001
_cell_formula_units_Z   1
loop_
 _symmetry_equiv_pos_site_id
 _symmetry_equiv_pos_as_xyz
  1  'x, y, z'
loop_
 _atom_site_type_symbol
 _atom_site_label
 _atom_site_symmetry_multiplicity
 _atom_site_fract_x
 _atom_site_fract_y
 _atom_site_fract_z
 _atom_site_occupancy
  Mn  Mn0  1  0.00000000  0.00000000  0.00000000  1
  Sb  Sb1  1  0.50000000  0.50000000  0.50000000  1
  Sb  Sb2  1  0.50000000  0.50000000  0.00000000  1
  Sb  Sb3  1  0.50000000  0.00000000  0.50000000  1
  Sb  Sb4  1  0.00000000  0.50000000  0.50000000  1
  P  P5  1  0.07664802  0.60024246  0.73623636  1
  P  P6  1  0.30344014  0.35613625  0.29904553  1
  P  P7  1  0.43116456  0.36402451  0.60882233  1
  Li  Li8  1  0.77070243  0.95074685  0.60261651  1
  Li  Li9  1  0.60702849  0.19957494  0.40094876  1
