# generated using pymatgen
data_Li3TiAs6I4O5
_symmetry_space_group_name_H-M   'P 1'
_cell_length_a   8.39622997
_cell_length_b   8.24422550
_cell_length_c   7.69751552
_cell_angle_alpha   90.65423641
_cell_angle_beta   90.49619591
_cell_angle_gamma   90.75783588
_symmetry_Int_Tables_number   1
_chemical_formula_structural   Li3TiAs6I4O5
_chemical_formula_sum   'Li3 Ti1 As6 I4 O5'
_cell_volume   532.72317886
_cell_formula_units_Z   1
loop_
 _symmetry_equiv_pos_site_id
 _symmetry_equiv_pos_as_xyz
  1  'x, y, z'
loop_
 _atom_site_type_symbol
 _atom_site_label
 _atom_site_symmetry_multiplicity
 _atom_site_fract_x
 _atom_site_fract_y
 _atom_site_fract_z
 _atom_site_occupancy
  I  I0  1  0.00000000  0.00000000  0.00000000  1
  I  I1  1  0.50000000  0.50000000  0.50000000  1
  I  I2  1  0.25000000  0.25000000  0.25000000  1
  I  I3  1  0.75000000  0.25000000  0.00000000  1
  Li  Li4  1  0.25000000  0.75000000  0.50000000  1
  Li  Li5  1  0.02896874  0.05875234  0.32105360  1
  Li  Li6  1  0.18903513  0.50905357  0.99768615  1
  Ti  Ti7  1  0.24870143  0.49928222  0.96825887  1
  As  As8  1  0.87014492  0.00845530  0.55502124  1
  As  As9  1  0.80693826  0.20623509  0.62595981  1
  As  As10  1  0.33777220  0.10340041  0.27829820  1
  As  As11  1  0.04901576  0.51803667  0.22300672  1
  As  As12  1  0.60134458  0.39029029  0.47178579  1
  As  As13  1  0.16930713  0.67810800  0.21108282  1
  O  O14  1  0.29484525  0.75894683  0.03181286  1
  O  O15  1  0.20774471  0.97060516  0.08961528  1
  O  O16  1  0.97104436  0.89007821  0.15472745  1
  O  O17  1  0.92871519  0.27070435  0.94719550  1
  O  O18  1  0.27842890  0.64565791  0.98492559  1
