# generated using pymatgen
data_Li5Ti2(PO)3
_symmetry_space_group_name_H-M   'P 1'
_cell_length_a   8.09037448
_cell_length_b   7.65019411
_cell_length_c   6.80556501
_cell_angle_alpha   90.00000000
_cell_angle_beta   90.00000000
_cell_angle_gamma   90.00000000
_symmetry_Int_Tables_number   1
_chemical_formula_structural   Li5Ti2(PO)3
_chemical_formula_sum   'Li5 Ti2 P3 O3'
_cell_volume   421.21639370
_cell_formula_units_Z   1
loop_
 _symmetry_equiv_pos_site_id
 _symmetry_equiv_pos_as_xyz
  1  'x, y, z'
loop_
 _atom_site_type_symbol
 _atom_site_label
 _atom_site_symmetry_multiplicity
 _atom_site_fract_x
 _atom_site_fract_y
 _atom_site_fract_z
 _atom_site_occupancy
  P  P0  1  0.12500000  0.12500000  0.12500000  1
  P  P1  1  0.50000000  0.50000000  0.50000000  1
  P  P2  1  0.25000000  0.25000000  0.25000000  1
  Li  Li3  1  0.75000000  0.75000000  0.75000000  1
  Li  Li4  1  0.51035652  0.61148836  0.20209360  1
  Li  Li5  1  0.47694993  0.49167204  0.63082463  1
  Li  Li6  1  0.14067143  0.63957259  0.97638193  1
  Li  Li7  1  0.83595311  0.94240493  0.72471613  1
  Ti  Ti8  1  0.91167071  0.26236570  0.69197257  1
  Ti  Ti9  1  0.47356368  0.00788816  0.66960370  1
  O  O10  1  0.26933714  0.02973151  0.18638035  1
  O  O11  1  0.61973469  0.86750270  0.83476444  1
  O  O12  1  0.34192278  0.38983739  0.25733535  1
