# generated using pymatgen
data_Li2LuTiP4
_symmetry_space_group_name_H-M   'P 1'
_cell_length_a   6.91906187
_cell_length_b   6.90425175
_cell_length_c   7.38843487
_cell_angle_alpha   92.00207010
_cell_angle_beta   93.06579692
_cell_angle_gamma   91.47988431
_symmetry_Int_Tables_number   1
_chemical_formula_structural   Li2LuTiP4
_chemical_formula_sum   'Li2 Lu1 Ti1 P4'
_cell_volume   352.09655887
_cell_formula_units_Z   1
loop_
 _symmetry_equiv_pos_site_id
 _symmetry_equiv_pos_as_xyz
  1  'x, y, z'
loop_
 _atom_site_type_symbol
 _atom_site_label
 _atom_site_symmetry_multiplicity
 _atom_site_fract_x
 _atom_site_fract_y
 _atom_site_fract_z
 _atom_site_occupancy
  Ti  Ti0  1  0.00000000  0.00000000  0.00000000  1
  P  P1  1  0.50000000  0.50000000  0.50000000  1
  P  P2  1  0.50000000  0.50000000  0.00000000  1
  P  P3  1  0.50000000  0.00000000  0.50000000  1
  P  P4  1  0.00000000  0.50000000  0.50000000  1
  Lu  Lu5  1  0.32999122  0.00069797  0.41958750  1
  Li  Li6  1  0.02407328  0.31301187  0.97636097  1
  Li  Li7  1  0.74490460  0.79705147  0.31323419  1
