# generated using pymatgen
data_Li2Lu(As3P2)2
_symmetry_space_group_name_H-M   'P 1'
_cell_length_a   7.28823052
_cell_length_b   7.19143131
_cell_length_c   7.91845172
_cell_angle_alpha   93.43791213
_cell_angle_beta   94.11232335
_cell_angle_gamma   93.43651688
_symmetry_Int_Tables_number   1
_chemical_formula_structural   Li2Lu(As3P2)2
_chemical_formula_sum   'Li2 Lu1 As6 P4'
_cell_volume   412.35368572
_cell_formula_units_Z   1
loop_
 _symmetry_equiv_pos_site_id
 _symmetry_equiv_pos_as_xyz
  1  'x, y, z'
loop_
 _atom_site_type_symbol
 _atom_site_label
 _atom_site_symmetry_multiplicity
 _atom_site_fract_x
 _atom_site_fract_y
 _atom_site_fract_z
 _atom_site_occupancy
  P  P0  1  0.12500000  0.00000000  0.25000000  1
  P  P1  1  0.00000000  0.00000000  0.00000000  1
  P  P2  1  0.37500000  0.00000000  0.25000000  1
  P  P3  1  0.25000000  0.25000000  0.25000000  1
  Lu  Lu4  1  0.00000000  0.25000000  0.12500000  1
  Li  Li5  1  0.33363441  0.47666536  0.77247423  1
  Li  Li6  1  0.66575529  0.37948138  0.69652671  1
  As  As7  1  0.66703922  0.94717824  0.05493962  1
  As  As8  1  0.54574174  0.87862416  0.07313609  1
  As  As9  1  0.93536579  0.37173094  0.25452505  1
  As  As10  1  0.87175963  0.43498367  0.49549874  1
  As  As11  1  0.02984835  0.70815458  0.33970914  1
  As  As12  1  0.98576317  0.25014017  0.15173521  1
