# generated using pymatgen
data_Li3Zn2Te6(IO)4
_symmetry_space_group_name_H-M   'P 1'
_cell_length_a   8.59417627
_cell_length_b   9.08415372
_cell_length_c   7.23980888
_cell_angle_alpha   90.00000000
_cell_angle_beta   90.00000000
_cell_angle_gamma   90.00000000
_symmetry_Int_Tables_number   1
_chemical_formula_structural   Li3Zn2Te6(IO)4
_chemical_formula_sum   'Li3 Zn2 Te6 I4 O4'
_cell_volume   565.21780327
_cell_formula_units_Z   1
loop_
 _symmetry_equiv_pos_site_id
 _symmetry_equiv_pos_as_xyz
  1  'x, y, z'
loop_
 _atom_site_type_symbol
 _atom_site_label
 _atom_site_symmetry_multiplicity
 _atom_site_fract_x
 _atom_site_fract_y
 _atom_site_fract_z
 _atom_site_occupancy
  I  I0  1  0.00000000  0.00000000  0.00000000  1
  I  I1  1  0.50000000  0.50000000  0.50000000  1
  I  I2  1  0.25000000  0.25000000  0.25000000  1
  I  I3  1  0.75000000  0.25000000  0.00000000  1
  Li  Li4  1  0.25000000  0.75000000  0.50000000  1
  Li  Li5  1  0.21011113  0.48870262  0.26235155  1
  Li  Li6  1  0.46276987  0.00798902  0.82101905  1
  Zn  Zn7  1  0.99835348  0.49270450  0.80560495  1
  Zn  Zn8  1  0.07096108  0.26102398  0.45422739  1
  Te  Te9  1  0.15771010  0.53295481  0.99404617  1
  Te  Te10  1  0.69536458  0.07017981  0.70290383  1
  Te  Te11  1  0.15141242  0.87719396  0.92313012  1
  Te  Te12  1  0.59041835  0.91411256  0.01616476  1
  Te  Te13  1  0.33770090  0.60288233  0.33359862  1
  Te  Te14  1  0.83243516  0.21691951  0.06916801  1
  O  O15  1  0.23255797  0.85815782  0.49864984  1
  O  O16  1  0.55253244  0.15561715  0.21671762  1
  O  O17  1  0.71406310  0.09006836  0.22518894  1
  O  O18  1  0.78183580  0.30000861  0.43793046  1
