# generated using pymatgen
data_LiTiCu2(I2F)2
_symmetry_space_group_name_H-M   'P 1'
_cell_length_a   6.50798002
_cell_length_b   6.48759530
_cell_length_c   7.36312080
_cell_angle_alpha   93.94198545
_cell_angle_beta   96.65509813
_cell_angle_gamma   94.76592640
_symmetry_Int_Tables_number   1
_chemical_formula_structural   LiTiCu2(I2F)2
_chemical_formula_sum   'Li1 Ti1 Cu2 I4 F2'
_cell_volume   306.75079847
_cell_formula_units_Z   1
loop_
 _symmetry_equiv_pos_site_id
 _symmetry_equiv_pos_as_xyz
  1  'x, y, z'
loop_
 _atom_site_type_symbol
 _atom_site_label
 _atom_site_symmetry_multiplicity
 _atom_site_fract_x
 _atom_site_fract_y
 _atom_site_fract_z
 _atom_site_occupancy
  I  I0  1  0.12500000  0.00000000  0.25000000  1
  I  I1  1  0.00000000  0.00000000  0.00000000  1
  I  I2  1  0.37500000  0.00000000  0.25000000  1
  I  I3  1  0.25000000  0.25000000  0.25000000  1
  Li  Li4  1  0.00000000  0.25000000  0.12500000  1
  Cu  Cu5  1  0.53260039  0.84545975  0.81755871  1
  Cu  Cu6  1  0.77213123  0.30799983  0.59968266  1
  F  F7  1  0.45796439  0.57264579  0.80472792  1
  F  F8  1  0.27522748  0.01895585  0.07489334  1
  Ti  Ti9  1  0.72900353  0.35638741  0.70743764  1
