# generated using pymatgen
data_Li2As6SeS3F2
_symmetry_space_group_name_H-M   'P 1'
_cell_length_a   5.91405691
_cell_length_b   5.89977064
_cell_length_c   7.43285672
_cell_angle_alpha   93.89588774
_cell_angle_beta   98.95047055
_cell_angle_gamma   93.88642305
_symmetry_Int_Tables_number   1
_chemical_formula_structural   Li2As6SeS3F2
_chemical_formula_sum   'Li2 As6 Se1 S3 F2'
_cell_volume   254.78515154
_cell_formula_units_Z   1
loop_
 _symmetry_equiv_pos_site_id
 _symmetry_equiv_pos_as_xyz
  1  'x, y, z'
loop_
 _atom_site_type_symbol
 _atom_site_label
 _atom_site_symmetry_multiplicity
 _atom_site_fract_x
 _atom_site_fract_y
 _atom_site_fract_z
 _atom_site_occupancy
  Li  Li0  1  0.00000000  0.00000000  0.00000000  1
  Li  Li1  1  0.50000000  0.50000000  0.50000000  1
  F  F2  1  0.25000000  0.25000000  0.25000000  1
  F  F3  1  0.75000000  0.25000000  0.00000000  1
  Se  Se4  1  0.25000000  0.75000000  0.50000000  1
  S  S5  1  0.89940855  0.62112679  0.03467326  1
  S  S6  1  0.10921931  0.16577482  0.16845259  1
  S  S7  1  0.04740829  0.78865171  0.42714418  1
  As  As8  1  0.16253834  0.11715351  0.96595332  1
  As  As9  1  0.97345949  0.68685254  0.87582983  1
  As  As10  1  0.94184207  0.45268907  0.92401247  1
  As  As11  1  0.13220242  0.54455031  0.53435545  1
  As  As12  1  0.94859488  0.91650074  0.51389034  1
  As  As13  1  0.74595100  0.43343650  0.25191722  1
