# generated using pymatgen
data_Li2TiP4N5F2
_symmetry_space_group_name_H-M   'P 1'
_cell_length_a   7.76133882
_cell_length_b   7.60007597
_cell_length_c   7.57194536
_cell_angle_alpha   91.24858778
_cell_angle_beta   91.72088807
_cell_angle_gamma   91.12412053
_symmetry_Int_Tables_number   1
_chemical_formula_structural   Li2TiP4N5F2
_chemical_formula_sum   'Li2 Ti1 P4 N5 F2'
_cell_volume   446.24525673
_cell_formula_units_Z   1
loop_
 _symmetry_equiv_pos_site_id
 _symmetry_equiv_pos_as_xyz
  1  'x, y, z'
loop_
 _atom_site_type_symbol
 _atom_site_label
 _atom_site_symmetry_multiplicity
 _atom_site_fract_x
 _atom_site_fract_y
 _atom_site_fract_z
 _atom_site_occupancy
  P  P0  1  0.00000000  0.00000000  0.00000000  1
  P  P1  1  0.50000000  0.50000000  0.50000000  1
  P  P2  1  0.50000000  0.50000000  0.00000000  1
  P  P3  1  0.50000000  0.00000000  0.50000000  1
  Li  Li4  1  0.00000000  0.50000000  0.50000000  1
  Li  Li5  1  0.22452274  0.02287529  0.11361626  1
  F  F6  1  0.64654730  0.34257772  0.19187238  1
  F  F7  1  0.24220764  0.53730375  0.44943376  1
  Ti  Ti8  1  0.18231523  0.08408077  0.53045770  1
  N  N9  1  0.04284889  0.73364163  0.84502897  1
  N  N10  1  0.26914224  0.40829591  0.54959735  1
  N  N11  1  0.82982139  0.03105541  0.41388292  1
  N  N12  1  0.50942216  0.20549937  0.42242939  1
  N  N13  1  0.36347999  0.46223480  0.14910116  1
