# generated using pymatgen
data_Li3Lu(PN)5
_symmetry_space_group_name_H-M   'P 1'
_cell_length_a   7.70070521
_cell_length_b   7.30402040
_cell_length_c   7.38986947
_cell_angle_alpha   93.25561301
_cell_angle_beta   91.15099591
_cell_angle_gamma   93.77611698
_symmetry_Int_Tables_number   1
_chemical_formula_structural   Li3Lu(PN)5
_chemical_formula_sum   'Li3 Lu1 P5 N5'
_cell_volume   413.96120379
_cell_formula_units_Z   1
loop_
 _symmetry_equiv_pos_site_id
 _symmetry_equiv_pos_as_xyz
  1  'x, y, z'
loop_
 _atom_site_type_symbol
 _atom_site_label
 _atom_site_symmetry_multiplicity
 _atom_site_fract_x
 _atom_site_fract_y
 _atom_site_fract_z
 _atom_site_occupancy
  P  P0  1  0.00000000  0.00000000  0.00000000  1
  P  P1  1  0.50000000  0.50000000  0.50000000  1
  P  P2  1  0.25000000  0.25000000  0.25000000  1
  P  P3  1  0.75000000  0.25000000  0.00000000  1
  P  P4  1  0.25000000  0.75000000  0.50000000  1
  Lu  Lu5  1  0.30874670  0.31681630  0.86833651  1
  Li  Li6  1  0.61061802  0.78444614  0.58618310  1
  Li  Li7  1  0.71383456  0.30211574  0.17456639  1
  Li  Li8  1  0.46762147  0.27027106  0.73722491  1
  N  N9  1  0.30500950  0.38761324  0.79092857  1
  N  N10  1  0.30376342  0.72245041  0.57199778  1
  N  N11  1  0.71030547  0.07881551  0.11898699  1
  N  N12  1  0.22902494  0.35509699  0.10773456  1
  N  N13  1  0.97178055  0.90614045  0.76327347  1
