# generated using pymatgen
data_Li2Lu(NiP2)2
_symmetry_space_group_name_H-M   'P 1'
_cell_length_a   7.24783751
_cell_length_b   7.14237392
_cell_length_c   7.92094065
_cell_angle_alpha   93.66907569
_cell_angle_beta   94.16692554
_cell_angle_gamma   93.71401240
_symmetry_Int_Tables_number   1
_chemical_formula_structural   Li2Lu(NiP2)2
_chemical_formula_sum   'Li2 Lu1 Ni2 P4'
_cell_volume   407.12526342
_cell_formula_units_Z   1
loop_
 _symmetry_equiv_pos_site_id
 _symmetry_equiv_pos_as_xyz
  1  'x, y, z'
loop_
 _atom_site_type_symbol
 _atom_site_label
 _atom_site_symmetry_multiplicity
 _atom_site_fract_x
 _atom_site_fract_y
 _atom_site_fract_z
 _atom_site_occupancy
  Ni  Ni0  1  0.00000000  0.00000000  0.00000000  1
  Ni  Ni1  1  0.50000000  0.50000000  0.50000000  1
  P  P2  1  0.50000000  0.50000000  0.00000000  1
  P  P3  1  0.50000000  0.00000000  0.50000000  1
  P  P4  1  0.00000000  0.50000000  0.50000000  1
  P  P5  1  0.15201534  0.20461829  0.08642348  1
  Lu  Lu6  1  0.85050789  0.76137839  0.44875067  1
  Li  Li7  1  0.11488912  0.98596766  0.77900221  1
  Li  Li8  1  0.58894125  0.40105669  0.12980748  1
