# generated using pymatgen
data_Li4TiS2Br4O3
_symmetry_space_group_name_H-M   'P 1'
_cell_length_a   5.49672267
_cell_length_b   5.06224459
_cell_length_c   8.01218030
_cell_angle_alpha   96.21292529
_cell_angle_beta   98.64774301
_cell_angle_gamma   95.71150449
_symmetry_Int_Tables_number   1
_chemical_formula_structural   Li4TiS2Br4O3
_chemical_formula_sum   'Li4 Ti1 S2 Br4 O3'
_cell_volume   217.58980332
_cell_formula_units_Z   1
loop_
 _symmetry_equiv_pos_site_id
 _symmetry_equiv_pos_as_xyz
  1  'x, y, z'
loop_
 _atom_site_type_symbol
 _atom_site_label
 _atom_site_symmetry_multiplicity
 _atom_site_fract_x
 _atom_site_fract_y
 _atom_site_fract_z
 _atom_site_occupancy
  Li  Li0  1  0.12500000  0.00000000  0.25000000  1
  Li  Li1  1  0.00000000  0.00000000  0.00000000  1
  Li  Li2  1  0.37500000  0.00000000  0.25000000  1
  Li  Li3  1  0.25000000  0.25000000  0.25000000  1
  Br  Br4  1  0.00000000  0.25000000  0.12500000  1
  Br  Br5  1  0.20330006  0.27266148  0.83352068  1
  Br  Br6  1  0.37113676  0.83255241  0.89681671  1
  Br  Br7  1  0.53328099  0.69393357  0.36865096  1
  S  S8  1  0.14859535  0.30732560  0.31954462  1
  S  S9  1  0.60206739  0.11469422  0.34443670  1
  Ti  Ti10  1  0.86726236  0.51848859  0.41776888  1
  O  O11  1  0.23538750  0.83904445  0.51635675  1
  O  O12  1  0.03142964  0.64912018  0.48148495  1
  O  O13  1  0.62068891  0.91536071  0.62382582  1
