# generated using pymatgen
data_Li2LuCu2(P2S)2
_symmetry_space_group_name_H-M   'P 1'
_cell_length_a   6.99443754
_cell_length_b   6.88702579
_cell_length_c   7.72739215
_cell_angle_alpha   94.07651454
_cell_angle_beta   95.00947728
_cell_angle_gamma   94.28058467
_symmetry_Int_Tables_number   1
_chemical_formula_structural   Li2LuCu2(P2S)2
_chemical_formula_sum   'Li2 Lu1 Cu2 P4 S2'
_cell_volume   368.64887840
_cell_formula_units_Z   1
loop_
 _symmetry_equiv_pos_site_id
 _symmetry_equiv_pos_as_xyz
  1  'x, y, z'
loop_
 _atom_site_type_symbol
 _atom_site_label
 _atom_site_symmetry_multiplicity
 _atom_site_fract_x
 _atom_site_fract_y
 _atom_site_fract_z
 _atom_site_occupancy
  P  P0  1  0.00000000  0.00000000  0.00000000  1
  P  P1  1  0.50000000  0.50000000  0.50000000  1
  P  P2  1  0.50000000  0.50000000  0.00000000  1
  P  P3  1  0.50000000  0.00000000  0.50000000  1
  Lu  Lu4  1  0.00000000  0.50000000  0.50000000  1
  Li  Li5  1  0.15179887  0.57797230  0.22680640  1
  Li  Li6  1  0.09112088  0.98631790  0.85620765  1
  Cu  Cu7  1  0.69270227  0.59695055  0.43139001  1
  Cu  Cu8  1  0.90270599  0.67096229  0.04365722  1
  S  S9  1  0.87441506  0.12782231  0.00148870  1
  S  S10  1  0.57142850  0.22491668  0.65961173  1
