# generated using pymatgen
data_Li3TiNi2SeCl2
_symmetry_space_group_name_H-M   'P 1'
_cell_length_a   7.28817648
_cell_length_b   7.02808008
_cell_length_c   7.89605263
_cell_angle_alpha   94.18378418
_cell_angle_beta   94.77174060
_cell_angle_gamma   94.17507702
_symmetry_Int_Tables_number   1
_chemical_formula_structural   Li3TiNi2SeCl2
_chemical_formula_sum   'Li3 Ti1 Ni2 Se1 Cl2'
_cell_volume   400.70705070
_cell_formula_units_Z   1
loop_
 _symmetry_equiv_pos_site_id
 _symmetry_equiv_pos_as_xyz
  1  'x, y, z'
loop_
 _atom_site_type_symbol
 _atom_site_label
 _atom_site_symmetry_multiplicity
 _atom_site_fract_x
 _atom_site_fract_y
 _atom_site_fract_z
 _atom_site_occupancy
  Li  Li0  1  0.00000000  0.00000000  0.00000000  1
  Li  Li1  1  0.50000000  0.50000000  0.50000000  1
  Li  Li2  1  0.50000000  0.50000000  0.00000000  1
  Se  Se3  1  0.50000000  0.00000000  0.50000000  1
  Cl  Cl4  1  0.00000000  0.50000000  0.50000000  1
  Cl  Cl5  1  0.48347550  0.39424707  0.92438656  1
  Ni  Ni6  1  0.45732832  0.18157169  0.52496679  1
  Ni  Ni7  1  0.08227420  0.70024175  0.34272031  1
  Ti  Ti8  1  0.01536088  0.46723279  0.08593255  1
