# generated using pymatgen
data_Li2Mn2Mo2P3
_symmetry_space_group_name_H-M   'P 1'
_cell_length_a   6.26614686
_cell_length_b   6.77480179
_cell_length_c   7.10089714
_cell_angle_alpha   94.78103139
_cell_angle_beta   92.24230136
_cell_angle_gamma   94.96494527
_symmetry_Int_Tables_number   1
_chemical_formula_structural   Li2Mn2Mo2P3
_chemical_formula_sum   'Li2 Mn2 Mo2 P3'
_cell_volume   298.94439368
_cell_formula_units_Z   1
loop_
 _symmetry_equiv_pos_site_id
 _symmetry_equiv_pos_as_xyz
  1  'x, y, z'
loop_
 _atom_site_type_symbol
 _atom_site_label
 _atom_site_symmetry_multiplicity
 _atom_site_fract_x
 _atom_site_fract_y
 _atom_site_fract_z
 _atom_site_occupancy
  Mn  Mn0  1  0.00000000  0.00000000  0.00000000  1
  Mn  Mn1  1  0.33300000  0.66700000  0.25000000  1
  P  P2  1  0.66700000  0.33300000  0.50000000  1
  P  P3  1  0.00000000  0.00000000  0.75000000  1
  P  P4  1  0.68612146  0.19441527  0.71888995  1
  Mo  Mo5  1  0.95901661  0.78412791  0.86027660  1
  Mo  Mo6  1  0.73154205  0.20414735  0.02833317  1
  Li  Li7  1  0.99027025  0.92971833  0.22436713  1
  Li  Li8  1  0.31898230  0.97793202  0.62259117  1
