# generated using pymatgen
data_Li3Ti3Se3O2
_symmetry_space_group_name_H-M   'P 1'
_cell_length_a   5.50470404
_cell_length_b   5.92180183
_cell_length_c   6.33096054
_cell_angle_alpha   93.90358083
_cell_angle_beta   98.11901488
_cell_angle_gamma   97.92486185
_symmetry_Int_Tables_number   1
_chemical_formula_structural   Li3Ti3Se3O2
_chemical_formula_sum   'Li3 Ti3 Se3 O2'
_cell_volume   201.54720700
_cell_formula_units_Z   1
loop_
 _symmetry_equiv_pos_site_id
 _symmetry_equiv_pos_as_xyz
  1  'x, y, z'
loop_
 _atom_site_type_symbol
 _atom_site_label
 _atom_site_symmetry_multiplicity
 _atom_site_fract_x
 _atom_site_fract_y
 _atom_site_fract_z
 _atom_site_occupancy
  Se  Se0  1  0.12500000  0.12500000  0.12500000  1
  Se  Se1  1  0.50000000  0.50000000  0.50000000  1
  Se  Se2  1  0.25000000  0.25000000  0.25000000  1
  Li  Li3  1  0.75000000  0.75000000  0.75000000  1
  Li  Li4  1  0.98311924  0.52201697  0.84537063  1
  Li  Li5  1  0.79358380  0.62900862  0.74207187  1
  Ti  Ti6  1  0.38575918  0.44183130  0.66826339  1
  Ti  Ti7  1  0.85715932  0.33414473  0.76335299  1
  Ti  Ti8  1  0.40860765  0.77091313  0.03283108  1
  O  O9  1  0.53627593  0.91892316  0.69459085  1
  O  O10  1  0.54134723  0.34765459  0.70614469  1
