# generated using pymatgen
data_LiCuAs3
_symmetry_space_group_name_H-M   'P 1'
_cell_length_a   7.52067747
_cell_length_b   7.59487888
_cell_length_c   8.44602720
_cell_angle_alpha   90.84883681
_cell_angle_beta   91.99366695
_cell_angle_gamma   90.97816002
_symmetry_Int_Tables_number   1
_chemical_formula_structural   LiCuAs3
_chemical_formula_sum   'Li2 Cu2 As6'
_cell_volume   482.00594409
_cell_formula_units_Z   2
loop_
 _symmetry_equiv_pos_site_id
 _symmetry_equiv_pos_as_xyz
  1  'x, y, z'
loop_
 _atom_site_type_symbol
 _atom_site_label
 _atom_site_symmetry_multiplicity
 _atom_site_fract_x
 _atom_site_fract_y
 _atom_site_fract_z
 _atom_site_occupancy
  As  As0  1  0.00000000  0.00000000  0.00000000  1
  As  As1  1  0.50000000  0.50000000  0.50000000  1
  As  As2  1  0.50000000  0.50000000  0.00000000  1
  As  As3  1  0.50000000  0.00000000  0.50000000  1
  As  As4  1  0.00000000  0.50000000  0.50000000  1
  As  As5  1  0.91039015  0.50922777  0.52924409  1
  Li  Li6  1  0.66836450  0.81213226  0.68644426  1
  Li  Li7  1  0.39547592  0.93816533  0.82806278  1
  Cu  Cu8  1  0.50153125  0.28410146  0.83946689  1
  Cu  Cu9  1  0.03223536  0.11488051  0.74022144  1
