# generated using pymatgen
data_Li2TiCu2I4F3
_symmetry_space_group_name_H-M   'P 1'
_cell_length_a   7.70801424
_cell_length_b   7.74422456
_cell_length_c   8.15251566
_cell_angle_alpha   90.66823842
_cell_angle_beta   91.83807146
_cell_angle_gamma   90.76903380
_symmetry_Int_Tables_number   1
_chemical_formula_structural   Li2TiCu2I4F3
_chemical_formula_sum   'Li2 Ti1 Cu2 I4 F3'
_cell_volume   486.31498678
_cell_formula_units_Z   1
loop_
 _symmetry_equiv_pos_site_id
 _symmetry_equiv_pos_as_xyz
  1  'x, y, z'
loop_
 _atom_site_type_symbol
 _atom_site_label
 _atom_site_symmetry_multiplicity
 _atom_site_fract_x
 _atom_site_fract_y
 _atom_site_fract_z
 _atom_site_occupancy
  F  F0  1  0.12500000  0.00000000  0.25000000  1
  F  F1  1  0.00000000  0.00000000  0.00000000  1
  F  F2  1  0.37500000  0.00000000  0.25000000  1
  Ti  Ti3  1  0.25000000  0.25000000  0.25000000  1
  I  I4  1  0.00000000  0.25000000  0.12500000  1
  I  I5  1  0.87696482  0.65111764  0.21224201  1
  I  I6  1  0.17159461  0.88999291  0.91155857  1
  I  I7  1  0.13499867  0.91495282  0.63267794  1
  Li  Li8  1  0.70650136  0.36086239  0.25855871  1
  Li  Li9  1  0.94650442  0.92831741  0.11141873  1
  Cu  Cu10  1  0.16739524  0.85670235  0.08216751  1
  Cu  Cu11  1  0.57633002  0.45165754  0.73758171  1
