# generated using pymatgen
data_Li2LuTi(PO)4
_symmetry_space_group_name_H-M   'P 1'
_cell_length_a   7.61978528
_cell_length_b   7.61125042
_cell_length_c   7.55391836
_cell_angle_alpha   93.89009513
_cell_angle_beta   94.83765045
_cell_angle_gamma   93.72458622
_symmetry_Int_Tables_number   1
_chemical_formula_structural   Li2LuTi(PO)4
_chemical_formula_sum   'Li2 Lu1 Ti1 P4 O4'
_cell_volume   434.42913636
_cell_formula_units_Z   1
loop_
 _symmetry_equiv_pos_site_id
 _symmetry_equiv_pos_as_xyz
  1  'x, y, z'
loop_
 _atom_site_type_symbol
 _atom_site_label
 _atom_site_symmetry_multiplicity
 _atom_site_fract_x
 _atom_site_fract_y
 _atom_site_fract_z
 _atom_site_occupancy
  Li  Li0  1  0.00000000  0.00000000  0.00000000  1
  Li  Li1  1  0.50000000  0.50000000  0.50000000  1
  Ti  Ti2  1  0.25000000  0.25000000  0.25000000  1
  P  P3  1  0.75000000  0.25000000  0.00000000  1
  P  P4  1  0.25000000  0.75000000  0.50000000  1
  P  P5  1  0.81852943  0.64797159  0.32507215  1
  P  P6  1  0.57820046  0.19807381  0.07257649  1
  Lu  Lu7  1  0.36351496  0.30502960  0.30813961  1
  O  O8  1  0.38121786  0.31690568  0.17166174  1
  O  O9  1  0.27775756  0.30724952  0.89365644  1
  O  O10  1  0.86397874  0.60540866  0.59520902  1
  O  O11  1  0.72660575  0.28907053  0.62486432  1
