# generated using pymatgen
data_Li2TiI4O3F2
_symmetry_space_group_name_H-M   'P 1'
_cell_length_a   8.03957338
_cell_length_b   7.86020679
_cell_length_c   7.58749105
_cell_angle_alpha   90.57832021
_cell_angle_beta   91.34649314
_cell_angle_gamma   90.66647382
_symmetry_Int_Tables_number   1
_chemical_formula_structural   Li2TiI4O3F2
_chemical_formula_sum   'Li2 Ti1 I4 O3 F2'
_cell_volume   479.28351583
_cell_formula_units_Z   1
loop_
 _symmetry_equiv_pos_site_id
 _symmetry_equiv_pos_as_xyz
  1  'x, y, z'
loop_
 _atom_site_type_symbol
 _atom_site_label
 _atom_site_symmetry_multiplicity
 _atom_site_fract_x
 _atom_site_fract_y
 _atom_site_fract_z
 _atom_site_occupancy
  I  I0  1  0.12500000  0.00000000  0.25000000  1
  I  I1  1  0.00000000  0.00000000  0.00000000  1
  I  I2  1  0.37500000  0.00000000  0.25000000  1
  I  I3  1  0.25000000  0.25000000  0.25000000  1
  Li  Li4  1  0.00000000  0.25000000  0.12500000  1
  Li  Li5  1  0.97306417  0.25327784  0.71458897  1
  F  F6  1  0.45352224  0.09736122  0.59815544  1
  F  F7  1  0.96959462  0.48351483  0.66694795  1
  Ti  Ti8  1  0.68921122  0.53264138  0.14438707  1
  O  O9  1  0.98399024  0.29983274  0.91627302  1
  O  O10  1  0.07088293  0.07479223  0.67898510  1
  O  O11  1  0.01935914  0.98240828  0.87614719  1
