# generated using pymatgen
data_LiCu2As6S3F2
_symmetry_space_group_name_H-M   'P 1'
_cell_length_a   6.57921142
_cell_length_b   6.67135220
_cell_length_c   7.82981037
_cell_angle_alpha   91.09242165
_cell_angle_beta   95.19741043
_cell_angle_gamma   91.24892964
_symmetry_Int_Tables_number   1
_chemical_formula_structural   LiCu2As6S3F2
_chemical_formula_sum   'Li1 Cu2 As6 S3 F2'
_cell_volume   342.09718245
_cell_formula_units_Z   1
loop_
 _symmetry_equiv_pos_site_id
 _symmetry_equiv_pos_as_xyz
  1  'x, y, z'
loop_
 _atom_site_type_symbol
 _atom_site_label
 _atom_site_symmetry_multiplicity
 _atom_site_fract_x
 _atom_site_fract_y
 _atom_site_fract_z
 _atom_site_occupancy
  F  F0  1  0.00000000  0.00000000  0.00000000  1
  F  F1  1  0.50000000  0.50000000  0.50000000  1
  S  S2  1  0.50000000  0.50000000  0.00000000  1
  S  S3  1  0.50000000  0.00000000  0.50000000  1
  S  S4  1  0.00000000  0.50000000  0.50000000  1
  As  As5  1  0.99707324  0.88579999  0.79353490  1
  As  As6  1  0.67366286  0.67841934  0.85623515  1
  As  As7  1  0.21725429  0.21428855  0.99682407  1
  As  As8  1  0.93560125  0.63056189  0.02649883  1
  As  As9  1  0.54571559  0.86964468  0.15279684  1
  As  As10  1  0.92699858  0.75585337  0.35664699  1
  Li  Li11  1  0.98374024  0.40072782  0.20234334  1
  Cu  Cu12  1  0.60950989  0.98528943  0.60323601  1
  Cu  Cu13  1  0.34996041  0.60664390  0.15504959  1
