# generated using pymatgen
data_Li4LuNi2(As3P2)2
_symmetry_space_group_name_H-M   'P 1'
_cell_length_a   7.55390574
_cell_length_b   7.28273801
_cell_length_c   8.61024050
_cell_angle_alpha   92.37490694
_cell_angle_beta   91.27327052
_cell_angle_gamma   92.75296890
_symmetry_Int_Tables_number   1
_chemical_formula_structural   Li4LuNi2(As3P2)2
_chemical_formula_sum   'Li4 Lu1 Ni2 As6 P4'
_cell_volume   472.58397884
_cell_formula_units_Z   1
loop_
 _symmetry_equiv_pos_site_id
 _symmetry_equiv_pos_as_xyz
  1  'x, y, z'
loop_
 _atom_site_type_symbol
 _atom_site_label
 _atom_site_symmetry_multiplicity
 _atom_site_fract_x
 _atom_site_fract_y
 _atom_site_fract_z
 _atom_site_occupancy
  P  P0  1  0.00000000  0.00000000  0.00000000  1
  P  P1  1  0.50000000  0.50000000  0.50000000  1
  P  P2  1  0.25000000  0.25000000  0.25000000  1
  P  P3  1  0.75000000  0.25000000  0.00000000  1
  Lu  Lu4  1  0.25000000  0.75000000  0.50000000  1
  Li  Li5  1  0.11475126  0.82836151  0.99015826  1
  Li  Li6  1  0.38753419  0.49704655  0.12255305  1
  Li  Li7  1  0.81146832  0.69186504  0.30567924  1
  Li  Li8  1  0.78430224  0.25168639  0.71405107  1
  Ni  Ni9  1  0.02399420  0.09627196  0.65644370  1
  Ni  Ni10  1  0.78945039  0.56014324  0.38033984  1
  As  As11  1  0.52336562  0.68911170  0.40646366  1
  As  As12  1  0.79743878  0.94608479  0.97612843  1
  As  As13  1  0.43808781  0.81685364  0.92361203  1
  As  As14  1  0.39850724  0.96292852  0.55178367  1
  As  As15  1  0.10195612  0.90460876  0.23759921  1
  As  As16  1  0.53203863  0.32424635  0.73874560  1
