# generated using pymatgen
data_Li3Ti(IO)4
_symmetry_space_group_name_H-M   'P 1'
_cell_length_a   7.43359954
_cell_length_b   7.31996979
_cell_length_c   7.17805414
_cell_angle_alpha   92.75489954
_cell_angle_beta   93.83453238
_cell_angle_gamma   92.53256241
_symmetry_Int_Tables_number   1
_chemical_formula_structural   Li3Ti(IO)4
_chemical_formula_sum   'Li3 Ti1 I4 O4'
_cell_volume   388.81933211
_cell_formula_units_Z   1
loop_
 _symmetry_equiv_pos_site_id
 _symmetry_equiv_pos_as_xyz
  1  'x, y, z'
loop_
 _atom_site_type_symbol
 _atom_site_label
 _atom_site_symmetry_multiplicity
 _atom_site_fract_x
 _atom_site_fract_y
 _atom_site_fract_z
 _atom_site_occupancy
  I  I0  1  0.12500000  0.00000000  0.25000000  1
  I  I1  1  0.00000000  0.00000000  0.00000000  1
  I  I2  1  0.37500000  0.00000000  0.25000000  1
  I  I3  1  0.25000000  0.25000000  0.25000000  1
  Li  Li4  1  0.00000000  0.25000000  0.12500000  1
  Li  Li5  1  0.13553732  0.67967567  0.25327897  1
  Li  Li6  1  0.14883978  0.44412572  0.69361834  1
  Ti  Ti7  1  0.01486977  0.76638603  0.21811199  1
  O  O8  1  0.61237893  0.81993364  0.32916458  1
  O  O9  1  0.94514409  0.28281398  0.51754947  1
  O  O10  1  0.17414417  0.78022111  0.48056200  1
  O  O11  1  0.76953403  0.29409105  0.81097986  1
