# generated using pymatgen
data_Li2TiP3(I2O)2
_symmetry_space_group_name_H-M   'P 1'
_cell_length_a   6.40162021
_cell_length_b   6.17400432
_cell_length_c   7.21548866
_cell_angle_alpha   96.00334383
_cell_angle_beta   97.07143839
_cell_angle_gamma   95.52482210
_symmetry_Int_Tables_number   1
_chemical_formula_structural   Li2TiP3(I2O)2
_chemical_formula_sum   'Li2 Ti1 P3 I4 O2'
_cell_volume   279.73432812
_cell_formula_units_Z   1
loop_
 _symmetry_equiv_pos_site_id
 _symmetry_equiv_pos_as_xyz
  1  'x, y, z'
loop_
 _atom_site_type_symbol
 _atom_site_label
 _atom_site_symmetry_multiplicity
 _atom_site_fract_x
 _atom_site_fract_y
 _atom_site_fract_z
 _atom_site_occupancy
  P  P0  1  0.12500000  0.00000000  0.25000000  1
  P  P1  1  0.00000000  0.00000000  0.00000000  1
  P  P2  1  0.37500000  0.00000000  0.25000000  1
  I  I3  1  0.25000000  0.25000000  0.25000000  1
  I  I4  1  0.00000000  0.25000000  0.12500000  1
  I  I5  1  0.13322222  0.44320179  0.49436650  1
  I  I6  1  0.94841548  0.58463233  0.73177068  1
  Li  Li7  1  0.43313582  0.49665126  0.25509973  1
  Li  Li8  1  0.34630043  0.60539031  0.68856730  1
  Ti  Ti9  1  0.52539353  0.22559849  0.70244006  1
  O  O10  1  0.62268488  0.92918384  0.72164425  1
  O  O11  1  0.30237663  0.37185760  0.69308597  1
