# generated using pymatgen
data_Li2LuCu2As6F3
_symmetry_space_group_name_H-M   'P 1'
_cell_length_a   7.56594958
_cell_length_b   7.51264385
_cell_length_c   8.34584870
_cell_angle_alpha   90.73649023
_cell_angle_beta   92.29538839
_cell_angle_gamma   90.80560962
_symmetry_Int_Tables_number   1
_chemical_formula_structural   Li2LuCu2As6F3
_chemical_formula_sum   'Li2 Lu1 Cu2 As6 F3'
_cell_volume   473.91019112
_cell_formula_units_Z   1
loop_
 _symmetry_equiv_pos_site_id
 _symmetry_equiv_pos_as_xyz
  1  'x, y, z'
loop_
 _atom_site_type_symbol
 _atom_site_label
 _atom_site_symmetry_multiplicity
 _atom_site_fract_x
 _atom_site_fract_y
 _atom_site_fract_z
 _atom_site_occupancy
  Lu  Lu0  1  0.00000000  0.00000000  0.00000000  1
  Li  Li1  1  0.50000000  0.50000000  0.50000000  1
  Li  Li2  1  0.25000000  0.25000000  0.25000000  1
  Cu  Cu3  1  0.75000000  0.25000000  0.00000000  1
  Cu  Cu4  1  0.25000000  0.75000000  0.50000000  1
  F  F5  1  0.34918103  0.63488114  0.74090208  1
  F  F6  1  0.28546980  0.60554590  0.57831392  1
  F  F7  1  0.43123237  0.17481745  0.37252429  1
  As  As8  1  0.86801716  0.35292915  0.66509595  1
  As  As9  1  0.70339859  0.86081168  0.80163026  1
  As  As10  1  0.60439956  0.09732417  0.61468195  1
  As  As11  1  0.49813764  0.99967946  0.14979587  1
  As  As12  1  0.61761434  0.81520931  0.17243550  1
  As  As13  1  0.35610998  0.39303957  0.71948436  1
