# generated using pymatgen
data_Li2TiP4I4O3
_symmetry_space_group_name_H-M   'P 1'
_cell_length_a   7.40483518
_cell_length_b   7.35899510
_cell_length_c   7.63283812
_cell_angle_alpha   93.45611426
_cell_angle_beta   94.81851828
_cell_angle_gamma   93.33659479
_symmetry_Int_Tables_number   1
_chemical_formula_structural   Li2TiP4I4O3
_chemical_formula_sum   'Li2 Ti1 P4 I4 O3'
_cell_volume   412.86823432
_cell_formula_units_Z   1
loop_
 _symmetry_equiv_pos_site_id
 _symmetry_equiv_pos_as_xyz
  1  'x, y, z'
loop_
 _atom_site_type_symbol
 _atom_site_label
 _atom_site_symmetry_multiplicity
 _atom_site_fract_x
 _atom_site_fract_y
 _atom_site_fract_z
 _atom_site_occupancy
  Ti  Ti0  1  0.00000000  0.00000000  0.00000000  1
  I  I1  1  0.50000000  0.50000000  0.50000000  1
  I  I2  1  0.25000000  0.25000000  0.25000000  1
  I  I3  1  0.75000000  0.25000000  0.00000000  1
  I  I4  1  0.25000000  0.75000000  0.50000000  1
  O  O5  1  0.07697084  0.85350706  0.59412173  1
  O  O6  1  0.50553420  0.14289096  0.11888889  1
  O  O7  1  0.11655945  0.87252682  0.33805624  1
  P  P8  1  0.58436060  0.05335336  0.62926537  1
  P  P9  1  0.17865920  0.59495831  0.46241922  1
  P  P10  1  0.53058110  0.36947058  0.81248979  1
  P  P11  1  0.10172966  0.78985510  0.06567717  1
  Li  Li12  1  0.09952850  0.92634707  0.02753944  1
  Li  Li13  1  0.27095000  0.56556055  0.25583122  1
