# generated using pymatgen
data_Li3Ti(Te3S)2
_symmetry_space_group_name_H-M   'P 1'
_cell_length_a   5.05515101
_cell_length_b   4.91350742
_cell_length_c   7.33814330
_cell_angle_alpha   100.12117030
_cell_angle_beta   101.09312162
_cell_angle_gamma   99.10506570
_symmetry_Int_Tables_number   1
_chemical_formula_structural   Li3Ti(Te3S)2
_chemical_formula_sum   'Li3 Ti1 Te6 S2'
_cell_volume   172.56488176
_cell_formula_units_Z   1
loop_
 _symmetry_equiv_pos_site_id
 _symmetry_equiv_pos_as_xyz
  1  'x, y, z'
loop_
 _atom_site_type_symbol
 _atom_site_label
 _atom_site_symmetry_multiplicity
 _atom_site_fract_x
 _atom_site_fract_y
 _atom_site_fract_z
 _atom_site_occupancy
  Li  Li0  1  0.00000000  0.00000000  0.00000000  1
  Li  Li1  1  0.33300000  0.66700000  0.25000000  1
  Li  Li2  1  0.66700000  0.33300000  0.50000000  1
  S  S3  1  0.00000000  0.00000000  0.75000000  1
  S  S4  1  0.56325859  0.23939130  0.33050005  1
  Ti  Ti5  1  0.56622787  0.31983428  0.25281771  1
  Te  Te6  1  0.63859526  0.16995663  0.21460779  1
  Te  Te7  1  0.07458546  0.36455857  0.73463144  1
  Te  Te8  1  0.94480415  0.61738618  0.51125416  1
  Te  Te9  1  0.79947044  0.33635871  0.80806157  1
  Te  Te10  1  0.52239057  0.07329641  0.67453318  1
  Te  Te11  1  0.28613583  0.47763522  0.54398383  1
