# generated using pymatgen
data_LiZnCuTe3I2
_symmetry_space_group_name_H-M   'P 1'
_cell_length_a   7.86464696
_cell_length_b   8.16239492
_cell_length_c   8.01551882
_cell_angle_alpha   90.31441798
_cell_angle_beta   91.49590526
_cell_angle_gamma   90.35946371
_symmetry_Int_Tables_number   1
_chemical_formula_structural   LiZnCuTe3I2
_chemical_formula_sum   'Li2 Zn2 Cu2 Te6 I4'
_cell_volume   514.35734984
_cell_formula_units_Z   2
loop_
 _symmetry_equiv_pos_site_id
 _symmetry_equiv_pos_as_xyz
  1  'x, y, z'
loop_
 _atom_site_type_symbol
 _atom_site_label
 _atom_site_symmetry_multiplicity
 _atom_site_fract_x
 _atom_site_fract_y
 _atom_site_fract_z
 _atom_site_occupancy
  Te  Te0  1  0.00000000  0.00000000  0.00000000  1
  Te  Te1  1  0.50000000  0.50000000  0.50000000  1
  Te  Te2  1  0.50000000  0.50000000  0.00000000  1
  Te  Te3  1  0.50000000  0.00000000  0.50000000  1
  Te  Te4  1  0.00000000  0.50000000  0.50000000  1
  Te  Te5  1  0.16291579  0.15810425  0.93948151  1
  I  I6  1  0.55158878  0.53380899  0.92602091  1
  I  I7  1  0.95534935  0.63536275  0.67475895  1
  I  I8  1  0.45622912  0.73731422  0.05437807  1
  I  I9  1  0.38467125  0.02031819  0.89530458  1
  Li  Li10  1  0.29176878  0.85654816  0.38845668  1
  Li  Li11  1  0.76838107  0.20415232  0.00558222  1
  Cu  Cu12  1  0.84399552  0.84213471  0.62834168  1
  Cu  Cu13  1  0.86139600  0.11823675  0.05882959  1
  Zn  Zn14  1  0.78907287  0.68503054  0.16744193  1
  Zn  Zn15  1  0.22568319  0.41731181  0.07928624  1
