# generated using pymatgen
data_Li3LuCu2(IO)4
_symmetry_space_group_name_H-M   'P 1'
_cell_length_a   8.08982420
_cell_length_b   7.90758004
_cell_length_c   7.76417316
_cell_angle_alpha   91.00401472
_cell_angle_beta   90.85207336
_cell_angle_gamma   91.16266048
_symmetry_Int_Tables_number   1
_chemical_formula_structural   Li3LuCu2(IO)4
_chemical_formula_sum   'Li3 Lu1 Cu2 I4 O4'
_cell_volume   496.44529855
_cell_formula_units_Z   1
loop_
 _symmetry_equiv_pos_site_id
 _symmetry_equiv_pos_as_xyz
  1  'x, y, z'
loop_
 _atom_site_type_symbol
 _atom_site_label
 _atom_site_symmetry_multiplicity
 _atom_site_fract_x
 _atom_site_fract_y
 _atom_site_fract_z
 _atom_site_occupancy
  I  I0  1  0.00000000  0.00000000  0.00000000  1
  I  I1  1  0.50000000  0.50000000  0.50000000  1
  I  I2  1  0.50000000  0.50000000  0.00000000  1
  I  I3  1  0.50000000  0.00000000  0.50000000  1
  Lu  Lu4  1  0.00000000  0.50000000  0.50000000  1
  Li  Li5  1  0.46739221  0.31862219  0.50291052  1
  Li  Li6  1  0.06633054  0.18096056  0.46282472  1
  Li  Li7  1  0.04756100  0.12957683  0.28050021  1
  Cu  Cu8  1  0.18169842  0.41320003  0.37193423  1
  Cu  Cu9  1  0.69851007  0.46662559  0.31539176  1
  O  O10  1  0.66407874  0.18127324  0.75988088  1
  O  O11  1  0.47637762  0.07373742  0.65715139  1
  O  O12  1  0.59729091  0.87524332  0.74602843  1
  O  O13  1  0.78531413  0.20197903  0.00345606  1
