# generated using pymatgen
data_Li2(SeO)3
_symmetry_space_group_name_H-M   'P 1'
_cell_length_a   8.33153317
_cell_length_b   8.82846920
_cell_length_c   7.51073103
_cell_angle_alpha   90.00000000
_cell_angle_beta   90.00000000
_cell_angle_gamma   90.00000000
_symmetry_Int_Tables_number   1
_chemical_formula_structural   Li2(SeO)3
_chemical_formula_sum   'Li2 Se3 O3'
_cell_volume   552.44944729
_cell_formula_units_Z   1
loop_
 _symmetry_equiv_pos_site_id
 _symmetry_equiv_pos_as_xyz
  1  'x, y, z'
loop_
 _atom_site_type_symbol
 _atom_site_label
 _atom_site_symmetry_multiplicity
 _atom_site_fract_x
 _atom_site_fract_y
 _atom_site_fract_z
 _atom_site_occupancy
  Li  Li0  1  0.12500000  0.00000000  0.25000000  1
  Li  Li1  1  0.00000000  0.00000000  0.00000000  1
  Se  Se2  1  0.37500000  0.00000000  0.25000000  1
  Se  Se3  1  0.25000000  0.25000000  0.25000000  1
  Se  Se4  1  0.00000000  0.25000000  0.12500000  1
  O  O5  1  0.06623635  0.72650603  0.42698337  1
  O  O6  1  0.44661271  0.20672458  0.20273172  1
  O  O7  1  0.31942813  0.05432273  0.10132634  1
