# generated using pymatgen
data_Li2LuCu2(NiP2)2
_symmetry_space_group_name_H-M   'P 1'
_cell_length_a   7.21991506
_cell_length_b   7.12604868
_cell_length_c   7.91002136
_cell_angle_alpha   93.85215447
_cell_angle_beta   94.42249159
_cell_angle_gamma   93.87513658
_symmetry_Int_Tables_number   1
_chemical_formula_structural   Li2LuCu2(NiP2)2
_chemical_formula_sum   'Li2 Lu1 Cu2 Ni2 P4'
_cell_volume   403.75350564
_cell_formula_units_Z   1
loop_
 _symmetry_equiv_pos_site_id
 _symmetry_equiv_pos_as_xyz
  1  'x, y, z'
loop_
 _atom_site_type_symbol
 _atom_site_label
 _atom_site_symmetry_multiplicity
 _atom_site_fract_x
 _atom_site_fract_y
 _atom_site_fract_z
 _atom_site_occupancy
  P  P0  1  0.00000000  0.00000000  0.00000000  1
  P  P1  1  0.50000000  0.50000000  0.50000000  1
  P  P2  1  0.50000000  0.50000000  0.00000000  1
  P  P3  1  0.50000000  0.00000000  0.50000000  1
  Lu  Lu4  1  0.00000000  0.50000000  0.50000000  1
  Li  Li5  1  0.41965642  0.49524980  0.27302638  1
  Li  Li6  1  0.53229015  0.84194638  0.77667391  1
  Cu  Cu7  1  0.82155205  0.00169403  0.56915601  1
  Cu  Cu8  1  0.16659821  0.78204029  0.73222307  1
  Ni  Ni9  1  0.24166723  0.50877087  0.92004776  1
  Ni  Ni10  1  0.65205326  0.14181016  0.54165426  1
