# generated using pymatgen
data_Li4TiI4O4F3
_symmetry_space_group_name_H-M   'P 1'
_cell_length_a   7.39230850
_cell_length_b   7.19713247
_cell_length_c   7.15909919
_cell_angle_alpha   95.58807504
_cell_angle_beta   97.21641012
_cell_angle_gamma   95.24158455
_symmetry_Int_Tables_number   1
_chemical_formula_structural   Li4TiI4O4F3
_chemical_formula_sum   'Li4 Ti1 I4 O4 F3'
_cell_volume   374.00030008
_cell_formula_units_Z   1
loop_
 _symmetry_equiv_pos_site_id
 _symmetry_equiv_pos_as_xyz
  1  'x, y, z'
loop_
 _atom_site_type_symbol
 _atom_site_label
 _atom_site_symmetry_multiplicity
 _atom_site_fract_x
 _atom_site_fract_y
 _atom_site_fract_z
 _atom_site_occupancy
  I  I0  1  0.12500000  0.00000000  0.25000000  1
  I  I1  1  0.00000000  0.00000000  0.00000000  1
  I  I2  1  0.37500000  0.00000000  0.25000000  1
  I  I3  1  0.25000000  0.25000000  0.25000000  1
  Li  Li4  1  0.00000000  0.25000000  0.12500000  1
  Li  Li5  1  0.19921924  0.80537003  0.69987034  1
  Li  Li6  1  0.30853528  0.26669332  0.30373535  1
  Li  Li7  1  0.84026769  0.37095870  0.59486071  1
  F  F8  1  0.20373482  0.29785501  0.49594666  1
  F  F9  1  0.23274626  0.61852076  0.35435178  1
  F  F10  1  0.98057791  0.20192036  0.80475582  1
  Ti  Ti11  1  0.17242125  0.35576402  0.56543667  1
  O  O12  1  0.26713030  0.46033988  0.41454378  1
  O  O13  1  0.56867721  0.32741969  0.36284512  1
  O  O14  1  0.45595096  0.47289021  0.94783285  1
  O  O15  1  0.45384568  0.19659024  0.20430081  1
