# generated using pymatgen
data_Li3LuNi2P4N5
_symmetry_space_group_name_H-M   'P 1'
_cell_length_a   7.50778844
_cell_length_b   7.19516756
_cell_length_c   8.70819327
_cell_angle_alpha   92.80135547
_cell_angle_beta   91.25932144
_cell_angle_gamma   93.24821888
_symmetry_Int_Tables_number   1
_chemical_formula_structural   Li3LuNi2P4N5
_chemical_formula_sum   'Li3 Lu1 Ni2 P4 N5'
_cell_volume   468.95334927
_cell_formula_units_Z   1
loop_
 _symmetry_equiv_pos_site_id
 _symmetry_equiv_pos_as_xyz
  1  'x, y, z'
loop_
 _atom_site_type_symbol
 _atom_site_label
 _atom_site_symmetry_multiplicity
 _atom_site_fract_x
 _atom_site_fract_y
 _atom_site_fract_z
 _atom_site_occupancy
  P  P0  1  0.00000000  0.00000000  0.00000000  1
  P  P1  1  0.50000000  0.50000000  0.50000000  1
  P  P2  1  0.25000000  0.25000000  0.25000000  1
  P  P3  1  0.75000000  0.25000000  0.00000000  1
  Lu  Lu4  1  0.25000000  0.75000000  0.50000000  1
  Li  Li5  1  0.16002220  0.50572595  0.45907163  1
  Li  Li6  1  0.50539651  0.77960568  0.86525272  1
  Li  Li7  1  0.11139326  0.79224354  0.50891869  1
  Ni  Ni8  1  0.97778539  0.35757861  0.19806830  1
  Ni  Ni9  1  0.33384966  0.60813649  0.86532806  1
  N  N10  1  0.76131440  0.97272814  0.67571169  1
  N  N11  1  0.93300562  0.86716399  0.06527839  1
  N  N12  1  0.15205062  0.74668143  0.24684363  1
  N  N13  1  0.15007312  0.03147330  0.72383003  1
  N  N14  1  0.76821141  0.90924268  0.68015054  1
