# generated using pymatgen
data_Li4Ti2Ni2P3O5
_symmetry_space_group_name_H-M   'P 1'
_cell_length_a   8.16787602
_cell_length_b   7.83076972
_cell_length_c   7.79170992
_cell_angle_alpha   90.00000000
_cell_angle_beta   90.00000000
_cell_angle_gamma   90.00000000
_symmetry_Int_Tables_number   1
_chemical_formula_structural   Li4Ti2Ni2P3O5
_chemical_formula_sum   'Li4 Ti2 Ni2 P3 O5'
_cell_volume   498.36365877
_cell_formula_units_Z   1
loop_
 _symmetry_equiv_pos_site_id
 _symmetry_equiv_pos_as_xyz
  1  'x, y, z'
loop_
 _atom_site_type_symbol
 _atom_site_label
 _atom_site_symmetry_multiplicity
 _atom_site_fract_x
 _atom_site_fract_y
 _atom_site_fract_z
 _atom_site_occupancy
  P  P0  1  0.00000000  0.00000000  0.00000000  1
  P  P1  1  0.50000000  0.50000000  0.50000000  1
  P  P2  1  0.50000000  0.50000000  0.00000000  1
  Li  Li3  1  0.50000000  0.00000000  0.50000000  1
  Li  Li4  1  0.00000000  0.50000000  0.50000000  1
  Li  Li5  1  0.22640465  0.91231897  0.81604053  1
  Li  Li6  1  0.74549664  0.97116653  0.90496547  1
  Ni  Ni7  1  0.39851208  0.09606745  0.51643913  1
  Ni  Ni8  1  0.69219253  0.57298476  0.91818726  1
  Ti  Ti9  1  0.22302442  0.79738567  0.92697258  1
  Ti  Ti10  1  0.66358691  0.28945297  0.93682350  1
  O  O11  1  0.06282118  0.91259329  0.10707596  1
  O  O12  1  0.26871641  0.40293743  0.41600799  1
  O  O13  1  0.42698235  0.11501811  0.31824635  1
  O  O14  1  0.52257718  0.92785791  0.07468102  1
  O  O15  1  0.70072757  0.05108844  0.69069722  1
