# generated using pymatgen
data_Li3TiAs6(IO)4
_symmetry_space_group_name_H-M   'P 1'
_cell_length_a   6.54011219
_cell_length_b   6.31718209
_cell_length_c   7.59617252
_cell_angle_alpha   97.26406562
_cell_angle_beta   99.29147303
_cell_angle_gamma   96.93882694
_symmetry_Int_Tables_number   1
_chemical_formula_structural   Li3TiAs6(IO)4
_chemical_formula_sum   'Li3 Ti1 As6 I4 O4'
_cell_volume   304.01932718
_cell_formula_units_Z   1
loop_
 _symmetry_equiv_pos_site_id
 _symmetry_equiv_pos_as_xyz
  1  'x, y, z'
loop_
 _atom_site_type_symbol
 _atom_site_label
 _atom_site_symmetry_multiplicity
 _atom_site_fract_x
 _atom_site_fract_y
 _atom_site_fract_z
 _atom_site_occupancy
  I  I0  1  0.00000000  0.00000000  0.00000000  1
  I  I1  1  0.50000000  0.50000000  0.50000000  1
  I  I2  1  0.50000000  0.50000000  0.00000000  1
  I  I3  1  0.50000000  0.00000000  0.50000000  1
  Li  Li4  1  0.00000000  0.50000000  0.50000000  1
  Li  Li5  1  0.17266976  0.28739453  0.34490248  1
  Li  Li6  1  0.99580476  0.84262140  0.55706638  1
  Ti  Ti7  1  0.51151085  0.45315985  0.35338466  1
  As  As8  1  0.51440548  0.39196767  0.05782363  1
  As  As9  1  0.07932933  0.42391603  0.45198647  1
  As  As10  1  0.04454394  0.40181270  0.65729668  1
  As  As11  1  0.29179700  0.62433369  0.22104136  1
  As  As12  1  0.97366548  0.54309973  0.72001798  1
  As  As13  1  0.56450204  0.50591145  0.78661187  1
  O  O14  1  0.95874404  0.08083952  0.16595809  1
  O  O15  1  0.07336158  0.37517892  0.87530501  1
  O  O16  1  0.31064851  0.87177931  0.20811751  1
  O  O17  1  0.94493463  0.24538488  0.30598095  1
