# generated using pymatgen
data_Li2LuCu2As6N5
_symmetry_space_group_name_H-M   'P 1'
_cell_length_a   7.51675757
_cell_length_b   7.32229137
_cell_length_c   8.28819661
_cell_angle_alpha   92.31558370
_cell_angle_beta   92.13207622
_cell_angle_gamma   92.50911790
_symmetry_Int_Tables_number   1
_chemical_formula_structural   Li2LuCu2As6N5
_chemical_formula_sum   'Li2 Lu1 Cu2 As6 N5'
_cell_volume   455.02474957
_cell_formula_units_Z   1
loop_
 _symmetry_equiv_pos_site_id
 _symmetry_equiv_pos_as_xyz
  1  'x, y, z'
loop_
 _atom_site_type_symbol
 _atom_site_label
 _atom_site_symmetry_multiplicity
 _atom_site_fract_x
 _atom_site_fract_y
 _atom_site_fract_z
 _atom_site_occupancy
  Lu  Lu0  1  0.12500000  0.00000000  0.25000000  1
  Li  Li1  1  0.00000000  0.00000000  0.00000000  1
  Li  Li2  1  0.37500000  0.00000000  0.25000000  1
  Cu  Cu3  1  0.25000000  0.25000000  0.25000000  1
  Cu  Cu4  1  0.00000000  0.25000000  0.12500000  1
  As  As5  1  0.71464133  0.24121498  0.60602984  1
  As  As6  1  0.46388279  0.17426615  0.20315884  1
  As  As7  1  0.02540301  0.38221307  0.23232370  1
  As  As8  1  0.45996091  0.18102803  0.73801163  1
  As  As9  1  0.01789239  0.12844270  0.14562967  1
  As  As10  1  0.32660232  0.49571766  0.15922947  1
  N  N11  1  0.16334206  0.99132501  0.16784159  1
  N  N12  1  0.21251705  0.81255620  0.74225037  1
  N  N13  1  0.85402769  0.55695712  0.24112358  1
  N  N14  1  0.98113601  0.12281464  0.75523057  1
  N  N15  1  0.78087778  0.75566710  0.73342107  1
