# generated using pymatgen
data_Li3LuTiP3Se
_symmetry_space_group_name_H-M   'P 1'
_cell_length_a   6.84519514
_cell_length_b   6.61098973
_cell_length_c   7.25556394
_cell_angle_alpha   97.02030645
_cell_angle_beta   98.79116316
_cell_angle_gamma   96.69132361
_symmetry_Int_Tables_number   1
_chemical_formula_structural   Li3LuTiP3Se
_chemical_formula_sum   'Li3 Lu1 Ti1 P3 Se1'
_cell_volume   318.97560251
_cell_formula_units_Z   1
loop_
 _symmetry_equiv_pos_site_id
 _symmetry_equiv_pos_as_xyz
  1  'x, y, z'
loop_
 _atom_site_type_symbol
 _atom_site_label
 _atom_site_symmetry_multiplicity
 _atom_site_fract_x
 _atom_site_fract_y
 _atom_site_fract_z
 _atom_site_occupancy
  P  P0  1  0.12500000  0.00000000  0.25000000  1
  P  P1  1  0.00000000  0.00000000  0.00000000  1
  P  P2  1  0.37500000  0.00000000  0.25000000  1
  Lu  Lu3  1  0.25000000  0.25000000  0.25000000  1
  Li  Li4  1  0.00000000  0.25000000  0.12500000  1
  Li  Li5  1  0.42425307  0.83754912  0.49141471  1
  Li  Li6  1  0.22791194  0.25103696  0.71269030  1
  Se  Se7  1  0.67034320  0.65548580  0.65781259  1
  Ti  Ti8  1  0.70708844  0.60574187  0.31044024  1
