# generated using pymatgen
data_LiCu2Ni2(I2F)2
_symmetry_space_group_name_H-M   'P 1'
_cell_length_a   7.18063949
_cell_length_b   7.10806450
_cell_length_c   7.97673392
_cell_angle_alpha   91.99644816
_cell_angle_beta   93.60014217
_cell_angle_gamma   92.33882734
_symmetry_Int_Tables_number   1
_chemical_formula_structural   LiCu2Ni2(I2F)2
_chemical_formula_sum   'Li1 Cu2 Ni2 I4 F2'
_cell_volume   405.70849176
_cell_formula_units_Z   1
loop_
 _symmetry_equiv_pos_site_id
 _symmetry_equiv_pos_as_xyz
  1  'x, y, z'
loop_
 _atom_site_type_symbol
 _atom_site_label
 _atom_site_symmetry_multiplicity
 _atom_site_fract_x
 _atom_site_fract_y
 _atom_site_fract_z
 _atom_site_occupancy
  I  I0  1  0.00000000  0.00000000  0.00000000  1
  I  I1  1  0.50000000  0.50000000  0.50000000  1
  I  I2  1  0.25000000  0.25000000  0.25000000  1
  I  I3  1  0.75000000  0.25000000  0.00000000  1
  Li  Li4  1  0.25000000  0.75000000  0.50000000  1
  Cu  Cu5  1  0.62150664  0.69800484  0.11740247  1
  Cu  Cu6  1  0.17526204  0.54941315  0.84879729  1
  F  F7  1  0.49803181  0.54135414  0.89153772  1
  F  F8  1  0.81624904  0.81250937  0.82605131  1
  Ni  Ni9  1  0.54316172  0.53110567  0.79621531  1
  Ni  Ni10  1  0.17825416  0.38698451  0.50002139  1
