# generated using pymatgen
data_Li2Ti(CuAs3)2
_symmetry_space_group_name_H-M   'P 1'
_cell_length_a   6.33803024
_cell_length_b   6.34086457
_cell_length_c   7.35414015
_cell_angle_alpha   94.30623012
_cell_angle_beta   96.97958864
_cell_angle_gamma   94.93746464
_symmetry_Int_Tables_number   1
_chemical_formula_structural   Li2Ti(CuAs3)2
_chemical_formula_sum   'Li2 Ti1 Cu2 As6'
_cell_volume   291.17811748
_cell_formula_units_Z   1
loop_
 _symmetry_equiv_pos_site_id
 _symmetry_equiv_pos_as_xyz
  1  'x, y, z'
loop_
 _atom_site_type_symbol
 _atom_site_label
 _atom_site_symmetry_multiplicity
 _atom_site_fract_x
 _atom_site_fract_y
 _atom_site_fract_z
 _atom_site_occupancy
  Li  Li0  1  0.00000000  0.00000000  0.00000000  1
  Li  Li1  1  0.33300000  0.66700000  0.25000000  1
  Cu  Cu2  1  0.66700000  0.33300000  0.50000000  1
  Cu  Cu3  1  0.00000000  0.00000000  0.75000000  1
  Ti  Ti4  1  0.43577495  0.28488231  0.74586384  1
  As  As5  1  0.35194920  0.30251303  0.53677041  1
  As  As6  1  0.92206642  0.09736185  0.38363068  1
  As  As7  1  0.78835747  0.29655373  0.76516109  1
  As  As8  1  0.83684009  0.38047172  0.25035008  1
  As  As9  1  0.10599355  0.18134078  0.78749313  1
  As  As10  1  0.60082252  0.88513866  0.35365194  1
