# generated using pymatgen
data_LiCu2As6F2
_symmetry_space_group_name_H-M   'P 1'
_cell_length_a   7.52572620
_cell_length_b   7.40655393
_cell_length_c   8.70352162
_cell_angle_alpha   91.78048920
_cell_angle_beta   92.14879211
_cell_angle_gamma   92.08921046
_symmetry_Int_Tables_number   1
_chemical_formula_structural   LiCu2As6F2
_chemical_formula_sum   'Li1 Cu2 As6 F2'
_cell_volume   484.21263468
_cell_formula_units_Z   1
loop_
 _symmetry_equiv_pos_site_id
 _symmetry_equiv_pos_as_xyz
  1  'x, y, z'
loop_
 _atom_site_type_symbol
 _atom_site_label
 _atom_site_symmetry_multiplicity
 _atom_site_fract_x
 _atom_site_fract_y
 _atom_site_fract_z
 _atom_site_occupancy
  Li  Li0  1  0.00000000  0.00000000  0.00000000  1
  Cu  Cu1  1  0.50000000  0.50000000  0.50000000  1
  Cu  Cu2  1  0.50000000  0.50000000  0.00000000  1
  F  F3  1  0.50000000  0.00000000  0.50000000  1
  F  F4  1  0.00000000  0.50000000  0.50000000  1
  As  As5  1  0.75173893  0.50408170  0.57626330  1
  As  As6  1  0.34552348  0.83374526  0.06658194  1
  As  As7  1  0.30660223  0.26482439  0.02581508  1
  As  As8  1  0.61871104  0.12894044  0.66841564  1
  As  As9  1  0.52926827  0.99011225  0.50499706  1
  As  As10  1  0.12668566  0.60156010  0.57639047  1
