# generated using pymatgen
data_LiCu2I4(O2F)2
_symmetry_space_group_name_H-M   'P 1'
_cell_length_a   7.16984953
_cell_length_b   6.98478978
_cell_length_c   7.75119163
_cell_angle_alpha   92.53497833
_cell_angle_beta   93.95848302
_cell_angle_gamma   92.63312322
_symmetry_Int_Tables_number   1
_chemical_formula_structural   LiCu2I4(O2F)2
_chemical_formula_sum   'Li1 Cu2 I4 O4 F2'
_cell_volume   386.40606436
_cell_formula_units_Z   1
loop_
 _symmetry_equiv_pos_site_id
 _symmetry_equiv_pos_as_xyz
  1  'x, y, z'
loop_
 _atom_site_type_symbol
 _atom_site_label
 _atom_site_symmetry_multiplicity
 _atom_site_fract_x
 _atom_site_fract_y
 _atom_site_fract_z
 _atom_site_occupancy
  I  I0  1  0.00000000  0.00000000  0.00000000  1
  I  I1  1  0.50000000  0.50000000  0.50000000  1
  I  I2  1  0.25000000  0.25000000  0.25000000  1
  I  I3  1  0.75000000  0.25000000  0.00000000  1
  Li  Li4  1  0.25000000  0.75000000  0.50000000  1
  Cu  Cu5  1  0.31946278  0.65131048  0.56369030  1
  Cu  Cu6  1  0.42132478  0.39523670  0.78919479  1
  F  F7  1  0.97746642  0.12126281  0.16351205  1
  F  F8  1  0.35298445  0.08302026  0.19793487  1
  O  O9  1  0.66531602  0.86661486  0.60947599  1
  O  O10  1  0.36328463  0.11531408  0.84958042  1
  O  O11  1  0.33221420  0.78508138  0.46032912  1
  O  O12  1  0.98140628  0.59631406  0.35342830  1
