# generated using pymatgen
data_Li2P4I4O3
_symmetry_space_group_name_H-M   'P 1'
_cell_length_a   6.53529001
_cell_length_b   6.48133804
_cell_length_c   7.46227049
_cell_angle_alpha   97.57236223
_cell_angle_beta   99.72036351
_cell_angle_gamma   97.18707372
_symmetry_Int_Tables_number   1
_chemical_formula_structural   Li2P4I4O3
_chemical_formula_sum   'Li2 P4 I4 O3'
_cell_volume   305.29518172
_cell_formula_units_Z   1
loop_
 _symmetry_equiv_pos_site_id
 _symmetry_equiv_pos_as_xyz
  1  'x, y, z'
loop_
 _atom_site_type_symbol
 _atom_site_label
 _atom_site_symmetry_multiplicity
 _atom_site_fract_x
 _atom_site_fract_y
 _atom_site_fract_z
 _atom_site_occupancy
  I  I0  1  0.00000000  0.00000000  0.00000000  1
  I  I1  1  0.50000000  0.50000000  0.50000000  1
  I  I2  1  0.25000000  0.25000000  0.25000000  1
  I  I3  1  0.75000000  0.25000000  0.00000000  1
  O  O4  1  0.25000000  0.75000000  0.50000000  1
  O  O5  1  0.65279225  0.70784116  0.86752968  1
  O  O6  1  0.68593523  0.31193274  0.39609361  1
  P  P7  1  0.31954355  0.52972977  0.56078305  1
  P  P8  1  0.67582201  0.13401605  0.54721988  1
  P  P9  1  0.80999850  0.07933446  0.20297845  1
  P  P10  1  0.26140067  0.48424535  0.88124878  1
  Li  Li11  1  0.03039731  0.88036388  0.14553999  1
  Li  Li12  1  0.12264047  0.10096044  0.02560511  1
