# generated using pymatgen
data_Li3LuP4Cl2F3
_symmetry_space_group_name_H-M   'P 1'
_cell_length_a   6.63782287
_cell_length_b   6.45024318
_cell_length_c   7.66682014
_cell_angle_alpha   95.30353281
_cell_angle_beta   96.25902752
_cell_angle_gamma   95.16370714
_symmetry_Int_Tables_number   1
_chemical_formula_structural   Li3LuP4Cl2F3
_chemical_formula_sum   'Li3 Lu1 P4 Cl2 F3'
_cell_volume   323.24056399
_cell_formula_units_Z   1
loop_
 _symmetry_equiv_pos_site_id
 _symmetry_equiv_pos_as_xyz
  1  'x, y, z'
loop_
 _atom_site_type_symbol
 _atom_site_label
 _atom_site_symmetry_multiplicity
 _atom_site_fract_x
 _atom_site_fract_y
 _atom_site_fract_z
 _atom_site_occupancy
  P  P0  1  0.00000000  0.00000000  0.00000000  1
  P  P1  1  0.50000000  0.50000000  0.50000000  1
  P  P2  1  0.25000000  0.25000000  0.25000000  1
  P  P3  1  0.75000000  0.25000000  0.00000000  1
  Lu  Lu4  1  0.25000000  0.75000000  0.50000000  1
  Li  Li5  1  0.01288710  0.84160470  0.61294948  1
  Li  Li6  1  0.19422927  0.20821757  0.41754373  1
  Li  Li7  1  0.01146374  0.46271675  0.53372720  1
  F  F8  1  0.10842386  0.36980374  0.61912255  1
  F  F9  1  0.01026821  0.46761840  0.48633206  1
  F  F10  1  0.03796925  0.67224694  0.76907941  1
  Cl  Cl11  1  0.16345432  0.64865162  0.11437184  1
  Cl  Cl12  1  0.37657950  0.93291617  0.70056368  1
