# generated using pymatgen
data_Li2LuNi2(As3P2)2
_symmetry_space_group_name_H-M   'P 1'
_cell_length_a   7.62570350
_cell_length_b   7.43321456
_cell_length_c   8.15317179
_cell_angle_alpha   91.42266603
_cell_angle_beta   91.53827372
_cell_angle_gamma   91.58252276
_symmetry_Int_Tables_number   1
_chemical_formula_structural   Li2LuNi2(As3P2)2
_chemical_formula_sum   'Li2 Lu1 Ni2 As6 P4'
_cell_volume   461.65626750
_cell_formula_units_Z   1
loop_
 _symmetry_equiv_pos_site_id
 _symmetry_equiv_pos_as_xyz
  1  'x, y, z'
loop_
 _atom_site_type_symbol
 _atom_site_label
 _atom_site_symmetry_multiplicity
 _atom_site_fract_x
 _atom_site_fract_y
 _atom_site_fract_z
 _atom_site_occupancy
  P  P0  1  0.12500000  0.00000000  0.25000000  1
  P  P1  1  0.00000000  0.00000000  0.00000000  1
  P  P2  1  0.37500000  0.00000000  0.25000000  1
  P  P3  1  0.25000000  0.25000000  0.25000000  1
  Lu  Lu4  1  0.00000000  0.25000000  0.12500000  1
  Li  Li5  1  0.78776077  0.19589966  0.72633924  1
  Li  Li6  1  0.70965965  0.77075794  0.69915215  1
  Ni  Ni7  1  0.03408526  0.00920832  0.65585034  1
  Ni  Ni8  1  0.89718314  0.10527552  0.90409552  1
  As  As9  1  0.87665005  0.96387825  0.78950082  1
  As  As10  1  0.35371446  0.56447752  0.40925867  1
  As  As11  1  0.13608284  0.72471061  0.58880216  1
  As  As12  1  0.01920933  0.39283911  0.44915508  1
  As  As13  1  0.21639372  0.39626576  0.68618458  1
  As  As14  1  0.55340293  0.75356507  0.20596234  1
