# generated using pymatgen
data_LiTiP2F
_symmetry_space_group_name_H-M   'P 1'
_cell_length_a   7.02893929
_cell_length_b   6.81461459
_cell_length_c   7.59041322
_cell_angle_alpha   93.61901007
_cell_angle_beta   94.99834532
_cell_angle_gamma   93.52359125
_symmetry_Int_Tables_number   1
_chemical_formula_structural   LiTiP2F
_chemical_formula_sum   'Li2 Ti2 P4 F2'
_cell_volume   360.65148110
_cell_formula_units_Z   2
loop_
 _symmetry_equiv_pos_site_id
 _symmetry_equiv_pos_as_xyz
  1  'x, y, z'
loop_
 _atom_site_type_symbol
 _atom_site_label
 _atom_site_symmetry_multiplicity
 _atom_site_fract_x
 _atom_site_fract_y
 _atom_site_fract_z
 _atom_site_occupancy
  F  F0  1  0.12500000  0.12500000  0.12500000  1
  F  F1  1  0.50000000  0.50000000  0.50000000  1
  Ti  Ti2  1  0.25000000  0.25000000  0.25000000  1
  Ti  Ti3  1  0.75000000  0.75000000  0.75000000  1
  P  P4  1  0.00385514  0.37333574  0.61658068  1
  P  P5  1  0.74248951  0.25534484  0.42965469  1
  P  P6  1  0.26627600  0.54935415  0.36059984  1
  P  P7  1  0.66083983  0.20771313  0.63045259  1
  Li  Li8  1  0.06539954  0.92908980  0.56654796  1
  Li  Li9  1  0.51397419  0.48605996  0.29073724  1
