# generated using pymatgen
data_Li2TiCu2(IO)4
_symmetry_space_group_name_H-M   'P 1'
_cell_length_a   7.59753969
_cell_length_b   7.55333005
_cell_length_c   7.23455164
_cell_angle_alpha   90.40257150
_cell_angle_beta   91.12726349
_cell_angle_gamma   89.93175640
_symmetry_Int_Tables_number   1
_chemical_formula_structural   Li2TiCu2(IO)4
_chemical_formula_sum   'Li2 Ti1 Cu2 I4 O4'
_cell_volume   415.07639823
_cell_formula_units_Z   1
loop_
 _symmetry_equiv_pos_site_id
 _symmetry_equiv_pos_as_xyz
  1  'x, y, z'
loop_
 _atom_site_type_symbol
 _atom_site_label
 _atom_site_symmetry_multiplicity
 _atom_site_fract_x
 _atom_site_fract_y
 _atom_site_fract_z
 _atom_site_occupancy
  I  I0  1  0.00000000  0.00000000  0.00000000  1
  I  I1  1  0.50000000  0.50000000  0.50000000  1
  I  I2  1  0.25000000  0.25000000  0.25000000  1
  I  I3  1  0.75000000  0.25000000  0.00000000  1
  Li  Li4  1  0.25000000  0.75000000  0.50000000  1
  Li  Li5  1  0.21186176  0.79542270  0.84653670  1
  Cu  Cu6  1  0.91385195  0.26694812  0.06146399  1
  Cu  Cu7  1  0.24289705  0.75007927  0.85802533  1
  Ti  Ti8  1  0.01918188  0.70856457  0.47608825  1
  O  O9  1  0.53752202  0.52195430  0.87861418  1
  O  O10  1  0.91798418  0.77288666  0.45992996  1
  O  O11  1  0.46498397  0.01457150  0.40084264  1
  O  O12  1  0.76478065  0.71117038  0.69728931  1
