# generated using pymatgen
data_LiAs3(IO)2
_symmetry_space_group_name_H-M   'P 1'
_cell_length_a   8.35591984
_cell_length_b   8.34551898
_cell_length_c   7.75966178
_cell_angle_alpha   90.16957534
_cell_angle_beta   90.80678796
_cell_angle_gamma   90.19386989
_symmetry_Int_Tables_number   1
_chemical_formula_structural   LiAs3(IO)2
_chemical_formula_sum   'Li2 As6 I4 O4'
_cell_volume   541.05684883
_cell_formula_units_Z   2
loop_
 _symmetry_equiv_pos_site_id
 _symmetry_equiv_pos_as_xyz
  1  'x, y, z'
loop_
 _atom_site_type_symbol
 _atom_site_label
 _atom_site_symmetry_multiplicity
 _atom_site_fract_x
 _atom_site_fract_y
 _atom_site_fract_z
 _atom_site_occupancy
  O  O0  1  0.00000000  0.00000000  0.00000000  1
  O  O1  1  0.50000000  0.50000000  0.50000000  1
  O  O2  1  0.50000000  0.50000000  0.00000000  1
  O  O3  1  0.50000000  0.00000000  0.50000000  1
  I  I4  1  0.00000000  0.50000000  0.50000000  1
  I  I5  1  0.00548242  0.22264056  0.81560627  1
  I  I6  1  0.56469306  0.35990574  0.10510751  1
  I  I7  1  0.15023856  0.86442592  0.12703185  1
  As  As8  1  0.78368576  0.57891549  0.51857351  1
  As  As9  1  0.76058389  0.67137491  0.24957682  1
  As  As10  1  0.70120240  0.45016132  0.49660187  1
  As  As11  1  0.01166294  0.85409155  0.79502038  1
  As  As12  1  0.16803163  0.88652598  0.40703475  1
  As  As13  1  0.22369223  0.05332092  0.41002594  1
  Li  Li14  1  0.89371905  0.50922000  0.52627801  1
  Li  Li15  1  0.60329220  0.86424404  0.34722204  1
