# generated using pymatgen
data_Li2LuCu2(As3P2)2
_symmetry_space_group_name_H-M   'P 1'
_cell_length_a   7.48573541
_cell_length_b   7.29611782
_cell_length_c   8.19873715
_cell_angle_alpha   92.44889012
_cell_angle_beta   92.40016003
_cell_angle_gamma   92.60590034
_symmetry_Int_Tables_number   1
_chemical_formula_structural   Li2LuCu2(As3P2)2
_chemical_formula_sum   'Li2 Lu1 Cu2 As6 P4'
_cell_volume   446.48627115
_cell_formula_units_Z   1
loop_
 _symmetry_equiv_pos_site_id
 _symmetry_equiv_pos_as_xyz
  1  'x, y, z'
loop_
 _atom_site_type_symbol
 _atom_site_label
 _atom_site_symmetry_multiplicity
 _atom_site_fract_x
 _atom_site_fract_y
 _atom_site_fract_z
 _atom_site_occupancy
  P  P0  1  0.12500000  0.00000000  0.25000000  1
  P  P1  1  0.00000000  0.00000000  0.00000000  1
  P  P2  1  0.37500000  0.00000000  0.25000000  1
  P  P3  1  0.25000000  0.25000000  0.25000000  1
  Lu  Lu4  1  0.00000000  0.25000000  0.12500000  1
  Li  Li5  1  0.58897650  0.94382512  0.06412746  1
  Li  Li6  1  0.17453930  0.11413511  0.20568235  1
  Cu  Cu7  1  0.69121000  0.99997139  0.30380358  1
  Cu  Cu8  1  0.63342411  0.11846968  0.12923539  1
  As  As9  1  0.42817444  0.21094357  0.35515507  1
  As  As10  1  0.41601493  0.34225978  0.13784299  1
  As  As11  1  0.17358418  0.35301490  0.01123787  1
  As  As12  1  0.60357612  0.23057513  0.52828786  1
  As  As13  1  0.97855050  0.30615698  0.54036766  1
  As  As14  1  0.91718864  0.26501777  0.74251621  1
