# generated using pymatgen
data_Li2TiCu2(I2F)2
_symmetry_space_group_name_H-M   'P 1'
_cell_length_a   7.06910516
_cell_length_b   6.91608456
_cell_length_c   7.88599358
_cell_angle_alpha   93.37568648
_cell_angle_beta   94.23664836
_cell_angle_gamma   93.50595490
_symmetry_Int_Tables_number   1
_chemical_formula_structural   Li2TiCu2(I2F)2
_chemical_formula_sum   'Li2 Ti1 Cu2 I4 F2'
_cell_volume   382.99799454
_cell_formula_units_Z   1
loop_
 _symmetry_equiv_pos_site_id
 _symmetry_equiv_pos_as_xyz
  1  'x, y, z'
loop_
 _atom_site_type_symbol
 _atom_site_label
 _atom_site_symmetry_multiplicity
 _atom_site_fract_x
 _atom_site_fract_y
 _atom_site_fract_z
 _atom_site_occupancy
  I  I0  1  0.00000000  0.00000000  0.00000000  1
  I  I1  1  0.50000000  0.50000000  0.50000000  1
  I  I2  1  0.25000000  0.25000000  0.25000000  1
  I  I3  1  0.75000000  0.25000000  0.00000000  1
  Li  Li4  1  0.25000000  0.75000000  0.50000000  1
  Li  Li5  1  0.65656885  0.82098615  0.14883305  1
  Cu  Cu6  1  0.21547701  0.89973611  0.30839570  1
  Cu  Cu7  1  0.47521216  0.46992871  0.07268584  1
  F  F8  1  0.25575110  0.52147969  0.15395548  1
  F  F9  1  0.15253386  0.23161548  0.85647417  1
  Ti  Ti10  1  0.94509707  0.13241228  0.50717896  1
