# generated using pymatgen
data_Li3LuP4
_symmetry_space_group_name_H-M   'P 1'
_cell_length_a   8.41571606
_cell_length_b   8.26027674
_cell_length_c   7.60283943
_cell_angle_alpha   90.56388727
_cell_angle_beta   90.47855206
_cell_angle_gamma   90.65298788
_symmetry_Int_Tables_number   1
_chemical_formula_structural   Li3LuP4
_chemical_formula_sum   'Li3 Lu1 P4'
_cell_volume   528.44122432
_cell_formula_units_Z   1
loop_
 _symmetry_equiv_pos_site_id
 _symmetry_equiv_pos_as_xyz
  1  'x, y, z'
loop_
 _atom_site_type_symbol
 _atom_site_label
 _atom_site_symmetry_multiplicity
 _atom_site_fract_x
 _atom_site_fract_y
 _atom_site_fract_z
 _atom_site_occupancy
  P  P0  1  0.00000000  0.00000000  0.00000000  1
  P  P1  1  0.50000000  0.50000000  0.50000000  1
  P  P2  1  0.25000000  0.25000000  0.25000000  1
  P  P3  1  0.75000000  0.25000000  0.00000000  1
  Lu  Lu4  1  0.25000000  0.75000000  0.50000000  1
  Li  Li5  1  0.01396348  0.96770711  0.09536674  1
  Li  Li6  1  0.57936134  0.74358636  0.74175255  1
  Li  Li7  1  0.35003574  0.91468126  0.02648138  1
