# generated using pymatgen
data_Li3LuAs6
_symmetry_space_group_name_H-M   'P 1'
_cell_length_a   6.54677535
_cell_length_b   6.25103892
_cell_length_c   7.90901029
_cell_angle_alpha   97.85854644
_cell_angle_beta   99.57593240
_cell_angle_gamma   97.58659937
_symmetry_Int_Tables_number   1
_chemical_formula_structural   Li3LuAs6
_chemical_formula_sum   'Li3 Lu1 As6'
_cell_volume   312.16833645
_cell_formula_units_Z   1
loop_
 _symmetry_equiv_pos_site_id
 _symmetry_equiv_pos_as_xyz
  1  'x, y, z'
loop_
 _atom_site_type_symbol
 _atom_site_label
 _atom_site_symmetry_multiplicity
 _atom_site_fract_x
 _atom_site_fract_y
 _atom_site_fract_z
 _atom_site_occupancy
  Lu  Lu0  1  0.00000000  0.00000000  0.00000000  1
  As  As1  1  0.33300000  0.66700000  0.25000000  1
  As  As2  1  0.66700000  0.33300000  0.50000000  1
  As  As3  1  0.00000000  0.00000000  0.75000000  1
  As  As4  1  0.47408925  0.95339161  0.06063062  1
  As  As5  1  0.16091467  0.42916901  0.53228142  1
  As  As6  1  0.23231995  0.26482291  0.44622241  1
  Li  Li7  1  0.36286112  0.45264213  0.62422560  1
  Li  Li8  1  0.23402902  0.71222670  0.29969687  1
  Li  Li9  1  0.69067969  0.65092672  0.21463013  1
