# generated using pymatgen
data_Li2LuCu2As6F3
_symmetry_space_group_name_H-M   'P 1'
_cell_length_a   7.08435035
_cell_length_b   7.12833731
_cell_length_c   8.02075816
_cell_angle_alpha   94.28875173
_cell_angle_beta   96.03522503
_cell_angle_gamma   94.12930343
_symmetry_Int_Tables_number   1
_chemical_formula_structural   Li2LuCu2As6F3
_chemical_formula_sum   'Li2 Lu1 Cu2 As6 F3'
_cell_volume   400.36758389
_cell_formula_units_Z   1
loop_
 _symmetry_equiv_pos_site_id
 _symmetry_equiv_pos_as_xyz
  1  'x, y, z'
loop_
 _atom_site_type_symbol
 _atom_site_label
 _atom_site_symmetry_multiplicity
 _atom_site_fract_x
 _atom_site_fract_y
 _atom_site_fract_z
 _atom_site_occupancy
  F  F0  1  0.00000000  0.00000000  0.00000000  1
  F  F1  1  0.50000000  0.50000000  0.50000000  1
  F  F2  1  0.25000000  0.25000000  0.25000000  1
  Lu  Lu3  1  0.75000000  0.25000000  0.00000000  1
  As  As4  1  0.25000000  0.75000000  0.50000000  1
  As  As5  1  0.75950234  0.02293244  0.56408395  1
  As  As6  1  0.58891489  0.64873563  0.14735067  1
  As  As7  1  0.25368172  0.37684734  0.77356853  1
  As  As8  1  0.69732720  0.87859552  0.06108649  1
  As  As9  1  0.17773367  0.57852647  0.88935031  1
  Li  Li10  1  0.43435881  0.75932520  0.11268451  1
  Li  Li11  1  0.83971567  0.07723574  0.73857348  1
  Cu  Cu12  1  0.97280184  0.84258136  0.94583102  1
  Cu  Cu13  1  0.25554460  0.50765518  0.10047890  1
