# generated using pymatgen
data_Li2Ti2P5Se2O3
_symmetry_space_group_name_H-M   'P 1'
_cell_length_a   7.63002737
_cell_length_b   7.26355206
_cell_length_c   7.38726687
_cell_angle_alpha   90.36514268
_cell_angle_beta   91.73723799
_cell_angle_gamma   90.41745559
_symmetry_Int_Tables_number   1
_chemical_formula_structural   Li2Ti2P5Se2O3
_chemical_formula_sum   'Li2 Ti2 P5 Se2 O3'
_cell_volume   409.20251888
_cell_formula_units_Z   1
loop_
 _symmetry_equiv_pos_site_id
 _symmetry_equiv_pos_as_xyz
  1  'x, y, z'
loop_
 _atom_site_type_symbol
 _atom_site_label
 _atom_site_symmetry_multiplicity
 _atom_site_fract_x
 _atom_site_fract_y
 _atom_site_fract_z
 _atom_site_occupancy
  P  P0  1  0.00000000  0.00000000  0.00000000  1
  P  P1  1  0.50000000  0.50000000  0.50000000  1
  P  P2  1  0.25000000  0.25000000  0.25000000  1
  P  P3  1  0.75000000  0.25000000  0.00000000  1
  P  P4  1  0.25000000  0.75000000  0.50000000  1
  Li  Li5  1  0.26100431  0.31491598  0.46475830  1
  Li  Li6  1  0.73726592  0.23605909  0.99006413  1
  Se  Se7  1  0.32921194  0.67228249  0.66839239  1
  Se  Se8  1  0.24625282  0.34739563  0.70400343  1
  Ti  Ti9  1  0.27417646  0.55079236  0.44468486  1
  Ti  Ti10  1  0.56964445  0.75267230  0.35524107  1
  O  O11  1  0.71886473  0.18224016  0.41403534  1
  O  O12  1  0.28326485  0.55853934  0.57709177  1
  O  O13  1  0.57796029  0.14739886  0.83757980  1
