# generated using pymatgen
data_Li2Lu(CuAs3)2
_symmetry_space_group_name_H-M   'P 1'
_cell_length_a   7.56173441
_cell_length_b   7.53336157
_cell_length_c   8.18780363
_cell_angle_alpha   90.95860525
_cell_angle_beta   91.91996426
_cell_angle_gamma   91.05147662
_symmetry_Int_Tables_number   1
_chemical_formula_structural   Li2Lu(CuAs3)2
_chemical_formula_sum   'Li2 Lu1 Cu2 As6'
_cell_volume   466.00996198
_cell_formula_units_Z   1
loop_
 _symmetry_equiv_pos_site_id
 _symmetry_equiv_pos_as_xyz
  1  'x, y, z'
loop_
 _atom_site_type_symbol
 _atom_site_label
 _atom_site_symmetry_multiplicity
 _atom_site_fract_x
 _atom_site_fract_y
 _atom_site_fract_z
 _atom_site_occupancy
  Lu  Lu0  1  0.00000000  0.00000000  0.00000000  1
  Li  Li1  1  0.33300000  0.66700000  0.25000000  1
  Li  Li2  1  0.66700000  0.33300000  0.50000000  1
  Cu  Cu3  1  0.00000000  0.00000000  0.75000000  1
  Cu  Cu4  1  0.75395460  0.69881169  0.84620751  1
  As  As5  1  0.11705803  0.63285322  0.76707521  1
  As  As6  1  0.90302158  0.25980367  0.79621216  1
  As  As7  1  0.54622023  0.03332972  0.03152659  1
  As  As8  1  0.45240334  0.70204044  0.58659755  1
  As  As9  1  0.18185511  0.53925496  0.91257120  1
  As  As10  1  0.42326768  0.45148901  0.56198182  1
