# generated using pymatgen
data_Li3P6N5Cl2
_symmetry_space_group_name_H-M   'P 1'
_cell_length_a   6.10558501
_cell_length_b   5.78645840
_cell_length_c   7.71027813
_cell_angle_alpha   100.48543590
_cell_angle_beta   102.84844032
_cell_angle_gamma   100.02025212
_symmetry_Int_Tables_number   1
_chemical_formula_structural   Li3P6N5Cl2
_chemical_formula_sum   'Li3 P6 N5 Cl2'
_cell_volume   254.52808386
_cell_formula_units_Z   1
loop_
 _symmetry_equiv_pos_site_id
 _symmetry_equiv_pos_as_xyz
  1  'x, y, z'
loop_
 _atom_site_type_symbol
 _atom_site_label
 _atom_site_symmetry_multiplicity
 _atom_site_fract_x
 _atom_site_fract_y
 _atom_site_fract_z
 _atom_site_occupancy
  Cl  Cl0  1  0.00000000  0.00000000  0.00000000  1
  Cl  Cl1  1  0.50000000  0.50000000  0.50000000  1
  P  P2  1  0.25000000  0.25000000  0.25000000  1
  P  P3  1  0.75000000  0.25000000  0.00000000  1
  P  P4  1  0.25000000  0.75000000  0.50000000  1
  P  P5  1  0.81069670  0.85342175  0.21413354  1
  P  P6  1  0.93414634  0.48622593  0.37041542  1
  P  P7  1  0.05542048  0.71431082  0.47002951  1
  Li  Li8  1  0.88578646  0.75847259  0.46068425  1
  Li  Li9  1  0.38008252  0.24399122  0.81714912  1
  Li  Li10  1  0.84708034  0.80860691  0.14488806  1
  N  N11  1  0.59865306  0.95563395  0.08495523  1
  N  N12  1  0.81129641  0.48660215  0.23002918  1
  N  N13  1  0.92656490  0.64452553  0.14099409  1
  N  N14  1  0.20964465  0.32268974  0.57912452  1
  N  N15  1  0.45017802  0.65080491  0.41762767  1
