# generated using pymatgen
data_Li2Cu2As6F3
_symmetry_space_group_name_H-M   'P 1'
_cell_length_a   7.49624740
_cell_length_b   7.62347549
_cell_length_c   8.46321826
_cell_angle_alpha   90.47140009
_cell_angle_beta   92.42102969
_cell_angle_gamma   90.53288353
_symmetry_Int_Tables_number   1
_chemical_formula_structural   Li2Cu2As6F3
_chemical_formula_sum   'Li2 Cu2 As6 F3'
_cell_volume   483.18081538
_cell_formula_units_Z   1
loop_
 _symmetry_equiv_pos_site_id
 _symmetry_equiv_pos_as_xyz
  1  'x, y, z'
loop_
 _atom_site_type_symbol
 _atom_site_label
 _atom_site_symmetry_multiplicity
 _atom_site_fract_x
 _atom_site_fract_y
 _atom_site_fract_z
 _atom_site_occupancy
  F  F0  1  0.12500000  0.12500000  0.12500000  1
  F  F1  1  0.50000000  0.50000000  0.50000000  1
  F  F2  1  0.25000000  0.25000000  0.25000000  1
  As  As3  1  0.75000000  0.75000000  0.75000000  1
  As  As4  1  0.81122099  0.23683498  0.35512540  1
  As  As5  1  0.31455878  0.65975525  0.71113998  1
  As  As6  1  0.81494708  0.24241207  0.45650265  1
  As  As7  1  0.20421671  0.02464627  0.94254971  1
  As  As8  1  0.90049650  0.20847710  0.64317665  1
  Li  Li9  1  0.51089715  0.46665342  0.18664075  1
  Li  Li10  1  0.58461609  0.99137380  0.73162086  1
  Cu  Cu11  1  0.53216751  0.14816091  0.54595438  1
  Cu  Cu12  1  0.65566953  0.10085564  0.59045358  1
