# generated using pymatgen
data_Li2LuAs6P4O7
_symmetry_space_group_name_H-M   'P 1'
_cell_length_a   7.49791703
_cell_length_b   7.37262392
_cell_length_c   8.57958356
_cell_angle_alpha   92.77970957
_cell_angle_beta   92.75235525
_cell_angle_gamma   92.91284847
_symmetry_Int_Tables_number   1
_chemical_formula_structural   Li2LuAs6P4O7
_chemical_formula_sum   'Li2 Lu1 As6 P4 O7'
_cell_volume   472.49722838
_cell_formula_units_Z   1
loop_
 _symmetry_equiv_pos_site_id
 _symmetry_equiv_pos_as_xyz
  1  'x, y, z'
loop_
 _atom_site_type_symbol
 _atom_site_label
 _atom_site_symmetry_multiplicity
 _atom_site_fract_x
 _atom_site_fract_y
 _atom_site_fract_z
 _atom_site_occupancy
  O  O0  1  0.00000000  0.00000000  0.00000000  1
  O  O1  1  0.50000000  0.50000000  0.50000000  1
  O  O2  1  0.25000000  0.25000000  0.25000000  1
  O  O3  1  0.75000000  0.25000000  0.00000000  1
  O  O4  1  0.25000000  0.75000000  0.50000000  1
  O  O5  1  0.44709487  0.96218897  0.12636545  1
  O  O6  1  0.92604575  0.16659502  0.37991198  1
  P  P7  1  0.83886156  0.55113690  0.20213341  1
  P  P8  1  0.53965161  0.47282871  0.51642190  1
  P  P9  1  0.72700375  0.18535992  0.31712256  1
  P  P10  1  0.46115943  0.98189519  0.91496756  1
  Lu  Lu11  1  0.88610516  0.36251053  0.79845237  1
  As  As12  1  0.98638705  0.47749379  0.44876939  1
  As  As13  1  0.13713985  0.12204695  0.33785732  1
  As  As14  1  0.63601223  0.98374787  0.64259464  1
  As  As15  1  0.01607761  0.00985110  0.74479958  1
  As  As16  1  0.44307866  0.27844532  0.86922617  1
  As  As17  1  0.53592146  0.05831698  0.28200611  1
  Li  Li18  1  0.03509887  0.84110909  0.45271298  1
  Li  Li19  1  0.59584855  0.06432859  0.20049961  1
