# generated using pymatgen
data_LiCu2S3(I2F)2
_symmetry_space_group_name_H-M   'P 1'
_cell_length_a   6.46609231
_cell_length_b   6.46484942
_cell_length_c   7.65733336
_cell_angle_alpha   91.89266079
_cell_angle_beta   96.03131015
_cell_angle_gamma   92.22579629
_symmetry_Int_Tables_number   1
_chemical_formula_structural   LiCu2S3(I2F)2
_chemical_formula_sum   'Li1 Cu2 S3 I4 F2'
_cell_volume   317.86038536
_cell_formula_units_Z   1
loop_
 _symmetry_equiv_pos_site_id
 _symmetry_equiv_pos_as_xyz
  1  'x, y, z'
loop_
 _atom_site_type_symbol
 _atom_site_label
 _atom_site_symmetry_multiplicity
 _atom_site_fract_x
 _atom_site_fract_y
 _atom_site_fract_z
 _atom_site_occupancy
  I  I0  1  0.12500000  0.00000000  0.25000000  1
  I  I1  1  0.00000000  0.00000000  0.00000000  1
  I  I2  1  0.37500000  0.00000000  0.25000000  1
  I  I3  1  0.25000000  0.25000000  0.25000000  1
  Li  Li4  1  0.00000000  0.25000000  0.12500000  1
  Cu  Cu5  1  0.20715770  0.81996566  0.85710153  1
  Cu  Cu6  1  0.50461613  0.11456420  0.50415652  1
  F  F7  1  0.25876823  0.33580509  0.75997934  1
  F  F8  1  0.28076315  0.95272417  0.78537172  1
  S  S9  1  0.51282928  0.93140400  0.27375995  1
  S  S10  1  0.21533386  0.46540733  0.96889323  1
  S  S11  1  0.22361249  0.28573950  0.36066195  1
