# generated using pymatgen
data_Li2LuTi(CuP2)2
_symmetry_space_group_name_H-M   'P 1'
_cell_length_a   6.83044876
_cell_length_b   6.85929678
_cell_length_c   7.41409989
_cell_angle_alpha   93.15390224
_cell_angle_beta   94.49062125
_cell_angle_gamma   92.60812678
_symmetry_Int_Tables_number   1
_chemical_formula_structural   Li2LuTi(CuP2)2
_chemical_formula_sum   'Li2 Lu1 Ti1 Cu2 P4'
_cell_volume   345.34187776
_cell_formula_units_Z   1
loop_
 _symmetry_equiv_pos_site_id
 _symmetry_equiv_pos_as_xyz
  1  'x, y, z'
loop_
 _atom_site_type_symbol
 _atom_site_label
 _atom_site_symmetry_multiplicity
 _atom_site_fract_x
 _atom_site_fract_y
 _atom_site_fract_z
 _atom_site_occupancy
  Ti  Ti0  1  0.00000000  0.00000000  0.00000000  1
  P  P1  1  0.50000000  0.50000000  0.50000000  1
  P  P2  1  0.25000000  0.25000000  0.25000000  1
  P  P3  1  0.75000000  0.25000000  0.00000000  1
  P  P4  1  0.25000000  0.75000000  0.50000000  1
  Lu  Lu5  1  0.48374790  0.14559258  0.88205063  1
  Li  Li6  1  0.14174623  0.89225060  0.40623529  1
  Li  Li7  1  0.16179214  0.49865891  0.76691260  1
  Cu  Cu8  1  0.55800369  0.32720224  0.29502822  1
  Cu  Cu9  1  0.34507260  0.67469970  0.97850870  1
