# generated using pymatgen
data_Li2LuCu2(NiP2)2
_symmetry_space_group_name_H-M   'P 1'
_cell_length_a   7.37017897
_cell_length_b   7.21390252
_cell_length_c   7.96878318
_cell_angle_alpha   92.86692107
_cell_angle_beta   93.04716991
_cell_angle_gamma   93.00805123
_symmetry_Int_Tables_number   1
_chemical_formula_structural   Li2LuCu2(NiP2)2
_chemical_formula_sum   'Li2 Lu1 Cu2 Ni2 P4'
_cell_volume   421.90753710
_cell_formula_units_Z   1
loop_
 _symmetry_equiv_pos_site_id
 _symmetry_equiv_pos_as_xyz
  1  'x, y, z'
loop_
 _atom_site_type_symbol
 _atom_site_label
 _atom_site_symmetry_multiplicity
 _atom_site_fract_x
 _atom_site_fract_y
 _atom_site_fract_z
 _atom_site_occupancy
  Ni  Ni0  1  0.00000000  0.00000000  0.00000000  1
  Ni  Ni1  1  0.50000000  0.50000000  0.50000000  1
  P  P2  1  0.25000000  0.25000000  0.25000000  1
  P  P3  1  0.75000000  0.25000000  0.00000000  1
  P  P4  1  0.25000000  0.75000000  0.50000000  1
  P  P5  1  0.74820096  0.38877044  0.28332177  1
  Lu  Lu6  1  0.20431340  0.71942035  0.71117177  1
  Li  Li7  1  0.94646437  0.28286697  0.05734356  1
  Li  Li8  1  0.45864248  0.65406067  0.44171931  1
  Cu  Cu9  1  0.27473831  0.01509209  0.66697822  1
  Cu  Cu10  1  0.84604009  0.00587868  0.14438690  1
