# generated using pymatgen
data_Li3SeI4(OF)3
_symmetry_space_group_name_H-M   'P 1'
_cell_length_a   5.48257479
_cell_length_b   5.05802548
_cell_length_c   6.82120205
_cell_angle_alpha   99.78198024
_cell_angle_beta   102.92428360
_cell_angle_gamma   99.12113232
_symmetry_Int_Tables_number   1
_chemical_formula_structural   Li3SeI4(OF)3
_chemical_formula_sum   'Li3 Se1 I4 O3 F3'
_cell_volume   177.84263045
_cell_formula_units_Z   1
loop_
 _symmetry_equiv_pos_site_id
 _symmetry_equiv_pos_as_xyz
  1  'x, y, z'
loop_
 _atom_site_type_symbol
 _atom_site_label
 _atom_site_symmetry_multiplicity
 _atom_site_fract_x
 _atom_site_fract_y
 _atom_site_fract_z
 _atom_site_occupancy
  I  I0  1  0.12500000  0.00000000  0.25000000  1
  I  I1  1  0.00000000  0.00000000  0.00000000  1
  I  I2  1  0.37500000  0.00000000  0.25000000  1
  I  I3  1  0.25000000  0.25000000  0.25000000  1
  Li  Li4  1  0.00000000  0.25000000  0.12500000  1
  Li  Li5  1  0.05203882  0.67931739  0.84614486  1
  Li  Li6  1  0.13677474  0.10709846  0.72177303  1
  F  F7  1  0.10866015  0.57074256  0.44860373  1
  F  F8  1  0.83737557  0.42002685  0.72410058  1
  F  F9  1  0.82013309  0.56260509  0.21919310  1
  Se  Se10  1  0.56354176  0.35805405  0.76798366  1
  O  O11  1  0.13622784  0.85004607  0.49583693  1
  O  O12  1  0.21373739  0.37053754  0.72288341  1
  O  O13  1  0.89907806  0.76770858  0.53005564  1
