# generated using pymatgen
data_Li4Ni2S2O7F3
_symmetry_space_group_name_H-M   'P 1'
_cell_length_a   6.30725218
_cell_length_b   6.01160037
_cell_length_c   8.45160938
_cell_angle_alpha   94.48538757
_cell_angle_beta   96.24319097
_cell_angle_gamma   94.12338956
_symmetry_Int_Tables_number   1
_chemical_formula_structural   Li4Ni2S2O7F3
_chemical_formula_sum   'Li4 Ni2 S2 O7 F3'
_cell_volume   316.53369020
_cell_formula_units_Z   1
loop_
 _symmetry_equiv_pos_site_id
 _symmetry_equiv_pos_as_xyz
  1  'x, y, z'
loop_
 _atom_site_type_symbol
 _atom_site_label
 _atom_site_symmetry_multiplicity
 _atom_site_fract_x
 _atom_site_fract_y
 _atom_site_fract_z
 _atom_site_occupancy
  Li  Li0  1  0.00000000  0.00000000  0.00000000  1
  Li  Li1  1  0.50000000  0.50000000  0.50000000  1
  Li  Li2  1  0.25000000  0.25000000  0.25000000  1
  Li  Li3  1  0.75000000  0.25000000  0.00000000  1
  F  F4  1  0.25000000  0.75000000  0.50000000  1
  F  F5  1  0.34244650  0.91403721  0.59992902  1
  F  F6  1  0.84395919  0.67218173  0.79181493  1
  S  S7  1  0.11647819  0.02475671  0.97203587  1
  S  S8  1  0.70899034  0.34351284  0.75124769  1
  Ni  Ni9  1  0.73191412  0.51733519  0.36015399  1
  Ni  Ni10  1  0.69138018  0.79653102  0.62820591  1
  O  O11  1  0.91747528  0.33717377  0.00925721  1
  O  O12  1  0.33075276  0.67601053  0.96428930  1
  O  O13  1  0.83946983  0.16941331  0.35512802  1
  O  O14  1  0.22997832  0.30460074  0.72375560  1
  O  O15  1  0.91304432  0.15210087  0.76419927  1
  O  O16  1  0.82288379  0.25900608  0.59410849  1
  O  O17  1  0.01911714  0.17657651  0.16881014  1
