# generated using pymatgen
data_LiCu2P4F2
_symmetry_space_group_name_H-M   'P 1'
_cell_length_a   7.22705281
_cell_length_b   7.16822157
_cell_length_c   7.98378904
_cell_angle_alpha   91.85359502
_cell_angle_beta   93.64280739
_cell_angle_gamma   92.17461180
_symmetry_Int_Tables_number   1
_chemical_formula_structural   LiCu2P4F2
_chemical_formula_sum   'Li1 Cu2 P4 F2'
_cell_volume   412.21760719
_cell_formula_units_Z   1
loop_
 _symmetry_equiv_pos_site_id
 _symmetry_equiv_pos_as_xyz
  1  'x, y, z'
loop_
 _atom_site_type_symbol
 _atom_site_label
 _atom_site_symmetry_multiplicity
 _atom_site_fract_x
 _atom_site_fract_y
 _atom_site_fract_z
 _atom_site_occupancy
  P  P0  1  0.00000000  0.00000000  0.00000000  1
  P  P1  1  0.50000000  0.50000000  0.50000000  1
  P  P2  1  0.25000000  0.25000000  0.25000000  1
  P  P3  1  0.75000000  0.25000000  0.00000000  1
  Li  Li4  1  0.25000000  0.75000000  0.50000000  1
  Cu  Cu5  1  0.52662939  0.30051804  0.76556001  1
  Cu  Cu6  1  0.22171634  0.95271614  0.74702914  1
  F  F7  1  0.43278436  0.38600611  0.12767710  1
  F  F8  1  0.26171343  0.13291841  0.87402763  1
