# generated using pymatgen
data_LiAs3
_symmetry_space_group_name_H-M   'P 1'
_cell_length_a   7.63925058
_cell_length_b   7.61120989
_cell_length_c   8.80341003
_cell_angle_alpha   91.17557390
_cell_angle_beta   91.53523370
_cell_angle_gamma   91.35930034
_symmetry_Int_Tables_number   1
_chemical_formula_structural   LiAs3
_chemical_formula_sum   'Li2 As6'
_cell_volume   511.42262144
_cell_formula_units_Z   2
loop_
 _symmetry_equiv_pos_site_id
 _symmetry_equiv_pos_as_xyz
  1  'x, y, z'
loop_
 _atom_site_type_symbol
 _atom_site_label
 _atom_site_symmetry_multiplicity
 _atom_site_fract_x
 _atom_site_fract_y
 _atom_site_fract_z
 _atom_site_occupancy
  As  As0  1  0.00000000  0.00000000  0.00000000  1
  As  As1  1  0.50000000  0.50000000  0.50000000  1
  As  As2  1  0.25000000  0.25000000  0.25000000  1
  As  As3  1  0.75000000  0.25000000  0.00000000  1
  As  As4  1  0.25000000  0.75000000  0.50000000  1
  As  As5  1  0.71011715  0.42486801  0.02336338  1
  Li  Li6  1  0.15203250  0.58042840  0.75281607  1
  Li  Li7  1  0.99346801  0.28950726  0.33836670  1
