# generated using pymatgen
data_Li2Sb2Mo2P3
_symmetry_space_group_name_H-M   'P 1'
_cell_length_a   4.50201837
_cell_length_b   4.68604448
_cell_length_c   5.92614978
_cell_angle_alpha   102.79263229
_cell_angle_beta   91.32284160
_cell_angle_gamma   102.51898776
_symmetry_Int_Tables_number   1
_chemical_formula_structural   Li2Sb2Mo2P3
_chemical_formula_sum   'Li2 Sb2 Mo2 P3'
_cell_volume   118.68769146
_cell_formula_units_Z   1
loop_
 _symmetry_equiv_pos_site_id
 _symmetry_equiv_pos_as_xyz
  1  'x, y, z'
loop_
 _atom_site_type_symbol
 _atom_site_label
 _atom_site_symmetry_multiplicity
 _atom_site_fract_x
 _atom_site_fract_y
 _atom_site_fract_z
 _atom_site_occupancy
  Sb  Sb0  1  0.12500000  0.12500000  0.12500000  1
  Sb  Sb1  1  0.50000000  0.50000000  0.50000000  1
  P  P2  1  0.25000000  0.25000000  0.25000000  1
  P  P3  1  0.75000000  0.75000000  0.75000000  1
  P  P4  1  0.81494768  0.32457391  0.49825909  1
  Mo  Mo5  1  0.22106899  0.91866415  0.80728286  1
  Mo  Mo6  1  0.33043168  0.76243635  0.32383099  1
  Li  Li7  1  0.77891154  0.63974605  0.96940637  1
  Li  Li8  1  0.35932807  0.85167173  0.95543757  1
