# generated using pymatgen
data_LiCuNiAs3I2
_symmetry_space_group_name_H-M   'P 1'
_cell_length_a   7.29847611
_cell_length_b   7.21019013
_cell_length_c   8.18700173
_cell_angle_alpha   91.92791785
_cell_angle_beta   93.14402938
_cell_angle_gamma   92.28035868
_symmetry_Int_Tables_number   1
_chemical_formula_structural   LiCuNiAs3I2
_chemical_formula_sum   'Li2 Cu2 Ni2 As6 I4'
_cell_volume   429.56154780
_cell_formula_units_Z   2
loop_
 _symmetry_equiv_pos_site_id
 _symmetry_equiv_pos_as_xyz
  1  'x, y, z'
loop_
 _atom_site_type_symbol
 _atom_site_label
 _atom_site_symmetry_multiplicity
 _atom_site_fract_x
 _atom_site_fract_y
 _atom_site_fract_z
 _atom_site_occupancy
  I  I0  1  0.12500000  0.00000000  0.25000000  1
  I  I1  1  0.00000000  0.00000000  0.00000000  1
  I  I2  1  0.37500000  0.00000000  0.25000000  1
  I  I3  1  0.25000000  0.25000000  0.25000000  1
  Li  Li4  1  0.00000000  0.25000000  0.12500000  1
  Li  Li5  1  0.81248744  0.76728224  0.20074458  1
  Cu  Cu6  1  0.64312544  0.16935705  0.99371913  1
  Cu  Cu7  1  0.76355870  0.57955717  0.05022881  1
  Ni  Ni8  1  0.58953088  0.10379670  0.59815848  1
  Ni  Ni9  1  0.19923504  0.28730563  0.33144968  1
  As  As10  1  0.42490332  0.30186171  0.97647493  1
  As  As11  1  0.01225187  0.26589366  0.48167336  1
  As  As12  1  0.85280790  0.39847476  0.61707481  1
  As  As13  1  0.57630795  0.49278021  0.56036908  1
  As  As14  1  0.84228257  0.93076133  0.18803560  1
  As  As15  1  0.63512005  0.74441592  0.61202130  1
