# generated using pymatgen
data_Li2Zr3Ti2Ni2O7
_symmetry_space_group_name_H-M   'P 1'
_cell_length_a   8.47067812
_cell_length_b   8.24074438
_cell_length_c   9.53965210
_cell_angle_alpha   94.79824974
_cell_angle_beta   98.19909494
_cell_angle_gamma   94.53864485
_symmetry_Int_Tables_number   1
_chemical_formula_structural   Li2Zr3Ti2Ni2O7
_chemical_formula_sum   'Li2 Zr3 Ti2 Ni2 O7'
_cell_volume   653.99075580
_cell_formula_units_Z   1
loop_
 _symmetry_equiv_pos_site_id
 _symmetry_equiv_pos_as_xyz
  1  'x, y, z'
loop_
 _atom_site_type_symbol
 _atom_site_label
 _atom_site_symmetry_multiplicity
 _atom_site_fract_x
 _atom_site_fract_y
 _atom_site_fract_z
 _atom_site_occupancy
  Li  Li0  1  0.12500000  0.00000000  0.25000000  1
  Li  Li1  1  0.00000000  0.00000000  0.00000000  1
  Ni  Ni2  1  0.37500000  0.00000000  0.25000000  1
  Ni  Ni3  1  0.25000000  0.25000000  0.25000000  1
  Ti  Ti4  1  0.00000000  0.25000000  0.12500000  1
  Ti  Ti5  1  0.38944433  0.36699551  0.03637330  1
  O  O6  1  0.21269737  0.34154774  0.88340589  1
  O  O7  1  0.08637058  0.01205871  0.23657185  1
  O  O8  1  0.74158120  0.05817206  0.38244415  1
  O  O9  1  0.71525257  0.00907716  0.36689696  1
  O  O10  1  0.36208894  0.51586020  0.75521463  1
  O  O11  1  0.24239185  0.77700721  0.15544418  1
  O  O12  1  0.89153308  0.92971499  0.09368667  1
  Zr  Zr13  1  0.54027071  0.65722671  0.99269476  1
  Zr  Zr14  1  0.52746552  0.17982296  0.20287312  1
  Zr  Zr15  1  0.57310927  0.14140553  0.76180546  1
