# generated using pymatgen
data_Li2Lu(As3P2)2
_symmetry_space_group_name_H-M   'P 1'
_cell_length_a   7.30204851
_cell_length_b   7.20156554
_cell_length_c   7.92237813
_cell_angle_alpha   93.35003296
_cell_angle_beta   94.01130817
_cell_angle_gamma   93.35319344
_symmetry_Int_Tables_number   1
_chemical_formula_structural   Li2Lu(As3P2)2
_chemical_formula_sum   'Li2 Lu1 As6 P4'
_cell_volume   414.05691373
_cell_formula_units_Z   1
loop_
 _symmetry_equiv_pos_site_id
 _symmetry_equiv_pos_as_xyz
  1  'x, y, z'
loop_
 _atom_site_type_symbol
 _atom_site_label
 _atom_site_symmetry_multiplicity
 _atom_site_fract_x
 _atom_site_fract_y
 _atom_site_fract_z
 _atom_site_occupancy
  P  P0  1  0.00000000  0.00000000  0.00000000  1
  P  P1  1  0.50000000  0.50000000  0.50000000  1
  P  P2  1  0.50000000  0.50000000  0.00000000  1
  P  P3  1  0.50000000  0.00000000  0.50000000  1
  Lu  Lu4  1  0.00000000  0.50000000  0.50000000  1
  Li  Li5  1  0.78645890  0.04235615  0.20319054  1
  Li  Li6  1  0.46851022  0.41720477  0.68302228  1
  As  As7  1  0.68200832  0.69561315  0.19833383  1
  As  As8  1  0.19787262  0.64066955  0.47175801  1
  As  As9  1  0.16265095  0.21016632  0.55322373  1
  As  As10  1  0.30019658  0.04584505  0.62334974  1
  As  As11  1  0.07689658  0.12019050  0.54750179  1
  As  As12  1  0.94279046  0.88161284  0.60648001  1
