# generated using pymatgen
data_Li3TiI4(OF)3
_symmetry_space_group_name_H-M   'P 1'
_cell_length_a   7.71065029
_cell_length_b   7.54055267
_cell_length_c   7.21926678
_cell_angle_alpha   93.87497438
_cell_angle_beta   95.14215538
_cell_angle_gamma   93.64287959
_symmetry_Int_Tables_number   1
_chemical_formula_structural   Li3TiI4(OF)3
_chemical_formula_sum   'Li3 Ti1 I4 O3 F3'
_cell_volume   416.07744563
_cell_formula_units_Z   1
loop_
 _symmetry_equiv_pos_site_id
 _symmetry_equiv_pos_as_xyz
  1  'x, y, z'
loop_
 _atom_site_type_symbol
 _atom_site_label
 _atom_site_symmetry_multiplicity
 _atom_site_fract_x
 _atom_site_fract_y
 _atom_site_fract_z
 _atom_site_occupancy
  I  I0  1  0.00000000  0.00000000  0.00000000  1
  I  I1  1  0.50000000  0.50000000  0.50000000  1
  I  I2  1  0.50000000  0.50000000  0.00000000  1
  I  I3  1  0.50000000  0.00000000  0.50000000  1
  Li  Li4  1  0.00000000  0.50000000  0.50000000  1
  Li  Li5  1  0.20653575  0.87730497  0.26049556  1
  Li  Li6  1  0.81072234  0.95709165  0.61661568  1
  F  F7  1  0.78053298  0.94764785  0.58777374  1
  F  F8  1  0.39313879  0.46405582  0.71885357  1
  F  F9  1  0.32724969  0.06162020  0.70613023  1
  Ti  Ti10  1  0.12592260  0.99422627  0.93988503  1
  O  O11  1  0.24983950  0.14718071  0.73344345  1
  O  O12  1  0.44683806  0.81307775  0.38669171  1
  O  O13  1  0.70770045  0.71096430  0.37385492  1
