# generated using pymatgen
data_LiTe3As3I2
_symmetry_space_group_name_H-M   'P 1'
_cell_length_a   7.82859995
_cell_length_b   8.11684961
_cell_length_c   8.05384767
_cell_angle_alpha   90.32995378
_cell_angle_beta   91.56981990
_cell_angle_gamma   90.37722528
_symmetry_Int_Tables_number   1
_chemical_formula_structural   LiTe3As3I2
_chemical_formula_sum   'Li2 Te6 As6 I4'
_cell_volume   511.55802773
_cell_formula_units_Z   2
loop_
 _symmetry_equiv_pos_site_id
 _symmetry_equiv_pos_as_xyz
  1  'x, y, z'
loop_
 _atom_site_type_symbol
 _atom_site_label
 _atom_site_symmetry_multiplicity
 _atom_site_fract_x
 _atom_site_fract_y
 _atom_site_fract_z
 _atom_site_occupancy
  Te  Te0  1  0.00000000  0.00000000  0.00000000  1
  Te  Te1  1  0.33300000  0.66700000  0.25000000  1
  Te  Te2  1  0.66700000  0.33300000  0.50000000  1
  Te  Te3  1  0.00000000  0.00000000  0.75000000  1
  Te  Te4  1  0.64080706  0.17510638  0.16631630  1
  Te  Te5  1  0.27398913  0.02036850  0.80919270  1
  I  I6  1  0.05464645  0.15361552  0.74573072  1
  I  I7  1  0.33980099  0.74944596  0.87348365  1
  I  I8  1  0.95942364  0.75060282  0.85019525  1
  I  I9  1  0.78051760  0.13340861  0.47635243  1
  As  As10  1  0.16095380  0.45563820  0.12710750  1
  As  As11  1  0.12489301  0.14184600  0.36870196  1
  As  As12  1  0.78735266  0.01289578  0.06899328  1
  As  As13  1  0.06169187  0.58690239  0.12962330  1
  As  As14  1  0.77459010  0.76159584  0.68780342  1
  As  As15  1  0.49512354  0.11093123  0.45415953  1
  Li  Li16  1  0.47744271  0.68826321  0.49320312  1
  Li  Li17  1  0.11969028  0.14445977  0.99671747  1
