# generated using pymatgen
data_Li2TiI4O3
_symmetry_space_group_name_H-M   'P 1'
_cell_length_a   8.58940635
_cell_length_b   8.45564221
_cell_length_c   7.42259950
_cell_angle_alpha   90.09444318
_cell_angle_beta   90.44933195
_cell_angle_gamma   90.10797377
_symmetry_Int_Tables_number   1
_chemical_formula_structural   Li2TiI4O3
_chemical_formula_sum   'Li2 Ti1 I4 O3'
_cell_volume   539.07730438
_cell_formula_units_Z   1
loop_
 _symmetry_equiv_pos_site_id
 _symmetry_equiv_pos_as_xyz
  1  'x, y, z'
loop_
 _atom_site_type_symbol
 _atom_site_label
 _atom_site_symmetry_multiplicity
 _atom_site_fract_x
 _atom_site_fract_y
 _atom_site_fract_z
 _atom_site_occupancy
  I  I0  1  0.12500000  0.00000000  0.25000000  1
  I  I1  1  0.00000000  0.00000000  0.00000000  1
  I  I2  1  0.37500000  0.00000000  0.25000000  1
  I  I3  1  0.25000000  0.25000000  0.25000000  1
  Li  Li4  1  0.00000000  0.25000000  0.12500000  1
  Li  Li5  1  0.81996914  0.21347403  0.61622413  1
  Ti  Ti6  1  0.34064453  0.98506850  0.94818475  1
  O  O7  1  0.00729545  0.35111864  0.48454698  1
  O  O8  1  0.76634592  0.26754972  0.53310530  1
  O  O9  1  0.01843718  0.68567941  0.95228242  1
