# generated using pymatgen
data_Li3TiS
_symmetry_space_group_name_H-M   'P 1'
_cell_length_a   3.22626536
_cell_length_b   2.70241306
_cell_length_c   6.76567773
_cell_angle_alpha   105.03939410
_cell_angle_beta   106.48364990
_cell_angle_gamma   103.52952942
_symmetry_Int_Tables_number   1
_chemical_formula_structural   Li3TiS
_chemical_formula_sum   'Li6 Ti2 S2'
_cell_volume   51.52516872
_cell_formula_units_Z   2
loop_
 _symmetry_equiv_pos_site_id
 _symmetry_equiv_pos_as_xyz
  1  'x, y, z'
loop_
 _atom_site_type_symbol
 _atom_site_label
 _atom_site_symmetry_multiplicity
 _atom_site_fract_x
 _atom_site_fract_y
 _atom_site_fract_z
 _atom_site_occupancy
  S  S0  1  0.12500000  0.12500000  0.12500000  1
  S  S1  1  0.50000000  0.50000000  0.50000000  1
  Ti  Ti2  1  0.25000000  0.25000000  0.25000000  1
  Ti  Ti3  1  0.75000000  0.75000000  0.75000000  1
  Li  Li4  1  0.60077606  0.94963262  0.35650671  1
  Li  Li5  1  0.16528140  0.46269833  0.21420340  1
  Li  Li6  1  0.68899161  0.94943605  0.09631774  1
  Li  Li7  1  0.95366902  0.33814943  0.70844013  1
  Li  Li8  1  0.84362774  0.19852483  0.75057840  1
  Li  Li9  1  0.70833946  0.58966921  0.45137460  1
