# generated using pymatgen
data_Li3TiNi2(IO)4
_symmetry_space_group_name_H-M   'P 1'
_cell_length_a   8.80203413
_cell_length_b   8.67962097
_cell_length_c   7.53150193
_cell_angle_alpha   90.00000000
_cell_angle_beta   90.00000000
_cell_angle_gamma   90.00000000
_symmetry_Int_Tables_number   1
_chemical_formula_structural   Li3TiNi2(IO)4
_chemical_formula_sum   'Li3 Ti1 Ni2 I4 O4'
_cell_volume   575.39409470
_cell_formula_units_Z   1
loop_
 _symmetry_equiv_pos_site_id
 _symmetry_equiv_pos_as_xyz
  1  'x, y, z'
loop_
 _atom_site_type_symbol
 _atom_site_label
 _atom_site_symmetry_multiplicity
 _atom_site_fract_x
 _atom_site_fract_y
 _atom_site_fract_z
 _atom_site_occupancy
  I  I0  1  0.00000000  0.00000000  0.00000000  1
  I  I1  1  0.50000000  0.50000000  0.50000000  1
  I  I2  1  0.50000000  0.50000000  0.00000000  1
  I  I3  1  0.50000000  0.00000000  0.50000000  1
  Li  Li4  1  0.00000000  0.50000000  0.50000000  1
  Li  Li5  1  0.25659941  0.50229000  0.85591086  1
  Li  Li6  1  0.76977104  0.69559272  0.76749354  1
  Ni  Ni7  1  0.30753574  0.99465617  0.87061743  1
  Ni  Ni8  1  0.87283995  0.35286895  0.24180454  1
  Ti  Ti9  1  0.40238620  0.69949715  0.39629550  1
  O  O10  1  0.51326422  0.95573344  0.54805636  1
  O  O11  1  0.76411876  0.24869362  0.95203474  1
  O  O12  1  0.30435721  0.12815222  0.66402465  1
  O  O13  1  0.05500223  0.08057537  0.19432393  1
