# generated using pymatgen
data_LiZnCuAs3O2
_symmetry_space_group_name_H-M   'P 1'
_cell_length_a   8.03275531
_cell_length_b   8.27056426
_cell_length_c   7.91621400
_cell_angle_alpha   90.23942012
_cell_angle_beta   91.39205935
_cell_angle_gamma   90.26513131
_symmetry_Int_Tables_number   1
_chemical_formula_structural   LiZnCuAs3O2
_chemical_formula_sum   'Li2 Zn2 Cu2 As6 O4'
_cell_volume   525.75130486
_cell_formula_units_Z   2
loop_
 _symmetry_equiv_pos_site_id
 _symmetry_equiv_pos_as_xyz
  1  'x, y, z'
loop_
 _atom_site_type_symbol
 _atom_site_label
 _atom_site_symmetry_multiplicity
 _atom_site_fract_x
 _atom_site_fract_y
 _atom_site_fract_z
 _atom_site_occupancy
  Li  Li0  1  0.00000000  0.00000000  0.00000000  1
  Li  Li1  1  0.50000000  0.50000000  0.50000000  1
  Cu  Cu2  1  0.25000000  0.25000000  0.25000000  1
  Cu  Cu3  1  0.75000000  0.25000000  0.00000000  1
  Zn  Zn4  1  0.25000000  0.75000000  0.50000000  1
  Zn  Zn5  1  0.26781212  0.71960570  0.17734682  1
  As  As6  1  0.73136822  0.23900097  0.43233340  1
  As  As7  1  0.21523828  0.23520927  0.38239397  1
  As  As8  1  0.19987510  0.63055400  0.80394896  1
  As  As9  1  0.95260582  0.42062569  0.17974127  1
  As  As10  1  0.82521870  0.43535108  0.29151985  1
  As  As11  1  0.95337696  0.34063317  0.11990507  1
  O  O12  1  0.75510384  0.48829705  0.21032059  1
  O  O13  1  0.10291716  0.66376249  0.20877927  1
  O  O14  1  0.71651934  0.89804653  0.73335144  1
  O  O15  1  0.44826947  0.57074770  0.76716813  1
