# generated using pymatgen
data_Li2TiCu2(SO)2
_symmetry_space_group_name_H-M   'P 1'
_cell_length_a   6.34180482
_cell_length_b   6.28156491
_cell_length_c   7.36522646
_cell_angle_alpha   94.35404992
_cell_angle_beta   97.15973088
_cell_angle_gamma   94.98693907
_symmetry_Int_Tables_number   1
_chemical_formula_structural   Li2TiCu2(SO)2
_chemical_formula_sum   'Li2 Ti1 Cu2 S2 O2'
_cell_volume   288.89554036
_cell_formula_units_Z   1
loop_
 _symmetry_equiv_pos_site_id
 _symmetry_equiv_pos_as_xyz
  1  'x, y, z'
loop_
 _atom_site_type_symbol
 _atom_site_label
 _atom_site_symmetry_multiplicity
 _atom_site_fract_x
 _atom_site_fract_y
 _atom_site_fract_z
 _atom_site_occupancy
  Li  Li0  1  0.00000000  0.00000000  0.00000000  1
  Li  Li1  1  0.50000000  0.50000000  0.50000000  1
  Cu  Cu2  1  0.25000000  0.25000000  0.25000000  1
  Cu  Cu3  1  0.75000000  0.25000000  0.00000000  1
  S  S4  1  0.25000000  0.75000000  0.50000000  1
  S  S5  1  0.14984660  0.08067410  0.69436470  1
  Ti  Ti6  1  0.43843999  0.38505115  0.93056510  1
  O  O7  1  0.23580050  0.94134890  0.40419379  1
  O  O8  1  0.17642089  0.02331606  0.88041235  1
