# generated using pymatgen
data_Li2LuP4
_symmetry_space_group_name_H-M   'P 1'
_cell_length_a   7.11719208
_cell_length_b   7.06599030
_cell_length_c   7.86985078
_cell_angle_alpha   94.52567686
_cell_angle_beta   95.36268500
_cell_angle_gamma   94.46789094
_symmetry_Int_Tables_number   1
_chemical_formula_structural   Li2LuP4
_chemical_formula_sum   'Li2 Lu1 P4'
_cell_volume   391.36145710
_cell_formula_units_Z   1
loop_
 _symmetry_equiv_pos_site_id
 _symmetry_equiv_pos_as_xyz
  1  'x, y, z'
loop_
 _atom_site_type_symbol
 _atom_site_label
 _atom_site_symmetry_multiplicity
 _atom_site_fract_x
 _atom_site_fract_y
 _atom_site_fract_z
 _atom_site_occupancy
  P  P0  1  0.00000000  0.00000000  0.00000000  1
  P  P1  1  0.33300000  0.66700000  0.25000000  1
  P  P2  1  0.66700000  0.33300000  0.50000000  1
  P  P3  1  0.00000000  0.00000000  0.75000000  1
  Lu  Lu4  1  0.17602849  0.91475335  0.06366807  1
  Li  Li5  1  0.60897737  0.63659184  0.06436934  1
  Li  Li6  1  0.97501552  0.22131001  0.01386183  1
