# generated using pymatgen
data_Li2LuTiI4O3
_symmetry_space_group_name_H-M   'P 1'
_cell_length_a   7.58156158
_cell_length_b   7.50219269
_cell_length_c   7.59031515
_cell_angle_alpha   92.55814856
_cell_angle_beta   93.86809645
_cell_angle_gamma   92.48562598
_symmetry_Int_Tables_number   1
_chemical_formula_structural   Li2LuTiI4O3
_chemical_formula_sum   'Li2 Lu1 Ti1 I4 O3'
_cell_volume   429.84565167
_cell_formula_units_Z   1
loop_
 _symmetry_equiv_pos_site_id
 _symmetry_equiv_pos_as_xyz
  1  'x, y, z'
loop_
 _atom_site_type_symbol
 _atom_site_label
 _atom_site_symmetry_multiplicity
 _atom_site_fract_x
 _atom_site_fract_y
 _atom_site_fract_z
 _atom_site_occupancy
  Ti  Ti0  1  0.12500000  0.00000000  0.25000000  1
  I  I1  1  0.00000000  0.00000000  0.00000000  1
  I  I2  1  0.37500000  0.00000000  0.25000000  1
  I  I3  1  0.25000000  0.25000000  0.25000000  1
  I  I4  1  0.00000000  0.25000000  0.12500000  1
  O  O5  1  0.91673648  0.36129405  0.10937720  1
  O  O6  1  0.37354888  0.08233079  0.29503936  1
  O  O7  1  0.30187139  0.82348012  0.97390324  1
  Li  Li8  1  0.77908488  0.05369382  0.92165049  1
  Li  Li9  1  0.95969441  0.43938116  0.78378317  1
  Lu  Lu10  1  0.78009798  0.96262922  0.90509100  1
