# generated using pymatgen
data_Li3Cu2P5I4N5
_symmetry_space_group_name_H-M   'P 1'
_cell_length_a   7.87446334
_cell_length_b   7.70707014
_cell_length_c   7.97611632
_cell_angle_alpha   92.34481621
_cell_angle_beta   92.05522114
_cell_angle_gamma   92.47818396
_symmetry_Int_Tables_number   1
_chemical_formula_structural   Li3Cu2P5I4N5
_chemical_formula_sum   'Li3 Cu2 P5 I4 N5'
_cell_volume   482.86172655
_cell_formula_units_Z   1
loop_
 _symmetry_equiv_pos_site_id
 _symmetry_equiv_pos_as_xyz
  1  'x, y, z'
loop_
 _atom_site_type_symbol
 _atom_site_label
 _atom_site_symmetry_multiplicity
 _atom_site_fract_x
 _atom_site_fract_y
 _atom_site_fract_z
 _atom_site_occupancy
  I  I0  1  0.12500000  0.00000000  0.25000000  1
  I  I1  1  0.00000000  0.00000000  0.00000000  1
  I  I2  1  0.37500000  0.00000000  0.25000000  1
  I  I3  1  0.25000000  0.25000000  0.25000000  1
  P  P4  1  0.00000000  0.25000000  0.12500000  1
  P  P5  1  0.12563473  0.81046019  0.86059811  1
  P  P6  1  0.99511450  0.42947898  0.78310386  1
  P  P7  1  0.74819362  0.18081360  0.49089214  1
  P  P8  1  0.37308777  0.09085994  0.62810388  1
  Li  Li9  1  0.34552441  0.78423256  0.73889896  1
  Li  Li10  1  0.21956437  0.30841661  0.07459634  1
  Li  Li11  1  0.41502658  0.89010726  0.75512667  1
  Cu  Cu12  1  0.87861814  0.86556896  0.44201608  1
  Cu  Cu13  1  0.89231908  0.89302377  0.52433881  1
  N  N14  1  0.57119340  0.08630918  0.50364958  1
  N  N15  1  0.14187964  0.41066459  0.52690067  1
  N  N16  1  0.49204696  0.40646759  0.09485779  1
  N  N17  1  0.84288909  0.20999742  0.71123619  1
  N  N18  1  0.87214227  0.63632466  0.07637301  1
