# generated using pymatgen
data_Li3TiNi2As6O7
_symmetry_space_group_name_H-M   'P 1'
_cell_length_a   6.99458463
_cell_length_b   6.69006470
_cell_length_c   7.51530402
_cell_angle_alpha   96.55324967
_cell_angle_beta   98.04024240
_cell_angle_gamma   96.27561928
_symmetry_Int_Tables_number   1
_chemical_formula_structural   Li3TiNi2As6O7
_chemical_formula_sum   'Li3 Ti1 Ni2 As6 O7'
_cell_volume   343.12403722
_cell_formula_units_Z   1
loop_
 _symmetry_equiv_pos_site_id
 _symmetry_equiv_pos_as_xyz
  1  'x, y, z'
loop_
 _atom_site_type_symbol
 _atom_site_label
 _atom_site_symmetry_multiplicity
 _atom_site_fract_x
 _atom_site_fract_y
 _atom_site_fract_z
 _atom_site_occupancy
  Li  Li0  1  0.00000000  0.00000000  0.00000000  1
  Li  Li1  1  0.50000000  0.50000000  0.50000000  1
  Li  Li2  1  0.50000000  0.50000000  0.00000000  1
  Ni  Ni3  1  0.50000000  0.00000000  0.50000000  1
  Ni  Ni4  1  0.00000000  0.50000000  0.50000000  1
  Ti  Ti5  1  0.44546173  0.39157558  0.50646281  1
  As  As6  1  0.13438982  0.60219182  0.62163297  1
  As  As7  1  0.77603932  0.91616851  0.56471262  1
  As  As8  1  0.55508114  0.86806857  0.08067358  1
  As  As9  1  0.17660097  0.66126151  0.30062650  1
  As  As10  1  0.48498812  0.85518682  0.56960601  1
  As  As11  1  0.25691163  0.60802333  0.05879911  1
  O  O12  1  0.12062815  0.20547952  0.83900178  1
  O  O13  1  0.66070659  0.30515794  0.27533793  1
  O  O14  1  0.67527770  0.84615346  0.60606320  1
  O  O15  1  0.85892768  0.09904072  0.09456212  1
  O  O16  1  0.92541357  0.11756675  0.94471926  1
  O  O17  1  0.24439148  0.01726100  0.40136002  1
  O  O18  1  0.77792885  0.51369587  0.83665763  1
