# generated using pymatgen
data_Li3Cu2Ni2(P3Cl)2
_symmetry_space_group_name_H-M   'P 1'
_cell_length_a   6.39716165
_cell_length_b   6.08179865
_cell_length_c   7.65421425
_cell_angle_alpha   98.50070571
_cell_angle_beta   100.49689490
_cell_angle_gamma   98.17772718
_symmetry_Int_Tables_number   1
_chemical_formula_structural   Li3Cu2Ni2(P3Cl)2
_chemical_formula_sum   'Li3 Cu2 Ni2 P6 Cl2'
_cell_volume   285.18042093
_cell_formula_units_Z   1
loop_
 _symmetry_equiv_pos_site_id
 _symmetry_equiv_pos_as_xyz
  1  'x, y, z'
loop_
 _atom_site_type_symbol
 _atom_site_label
 _atom_site_symmetry_multiplicity
 _atom_site_fract_x
 _atom_site_fract_y
 _atom_site_fract_z
 _atom_site_occupancy
  P  P0  1  0.12500000  0.00000000  0.25000000  1
  P  P1  1  0.00000000  0.00000000  0.00000000  1
  P  P2  1  0.37500000  0.00000000  0.25000000  1
  P  P3  1  0.25000000  0.25000000  0.25000000  1
  P  P4  1  0.00000000  0.25000000  0.12500000  1
  P  P5  1  0.47038857  0.81671179  0.98779140  1
  Li  Li6  1  0.73903423  0.59613033  0.20106341  1
  Li  Li7  1  0.76748469  0.59288826  0.82678782  1
  Li  Li8  1  0.21451195  0.47856019  0.78620836  1
  Cu  Cu9  1  0.75254620  0.10255577  0.96136526  1
  Cu  Cu10  1  0.75679866  0.50651885  0.49654157  1
  Cl  Cl11  1  0.20557841  0.16260901  0.55707190  1
  Cl  Cl12  1  0.93962925  0.30491646  0.22931572  1
  Ni  Ni13  1  0.71711917  0.06737500  0.71211043  1
  Ni  Ni14  1  0.95712911  0.04252938  0.32553596  1
