# generated using pymatgen
data_Li2Ti(IO)4
_symmetry_space_group_name_H-M   'P 1'
_cell_length_a   8.36973702
_cell_length_b   8.20006838
_cell_length_c   7.59769266
_cell_angle_alpha   90.56894473
_cell_angle_beta   90.68733233
_cell_angle_gamma   90.65807318
_symmetry_Int_Tables_number   1
_chemical_formula_structural   Li2Ti(IO)4
_chemical_formula_sum   'Li2 Ti1 I4 O4'
_cell_volume   521.34966067
_cell_formula_units_Z   1
loop_
 _symmetry_equiv_pos_site_id
 _symmetry_equiv_pos_as_xyz
  1  'x, y, z'
loop_
 _atom_site_type_symbol
 _atom_site_label
 _atom_site_symmetry_multiplicity
 _atom_site_fract_x
 _atom_site_fract_y
 _atom_site_fract_z
 _atom_site_occupancy
  I  I0  1  0.00000000  0.00000000  0.00000000  1
  I  I1  1  0.50000000  0.50000000  0.50000000  1
  I  I2  1  0.25000000  0.25000000  0.25000000  1
  I  I3  1  0.75000000  0.25000000  0.00000000  1
  Li  Li4  1  0.25000000  0.75000000  0.50000000  1
  Li  Li5  1  0.54419623  0.54235232  0.98085841  1
  Ti  Ti6  1  0.57011566  0.11284351  0.74279071  1
  O  O7  1  0.72818668  0.92921273  0.77798489  1
  O  O8  1  0.10408803  0.91800510  0.88108708  1
  O  O9  1  0.06786508  0.50411956  0.32086259  1
  O  O10  1  0.93037060  0.34797097  0.36632947  1
