# generated using pymatgen
data_LiMn2Sb4P3
_symmetry_space_group_name_H-M   'P 1'
_cell_length_a   6.71409203
_cell_length_b   6.95787102
_cell_length_c   7.21766762
_cell_angle_alpha   91.75831640
_cell_angle_beta   91.60822884
_cell_angle_gamma   91.79114608
_symmetry_Int_Tables_number   1
_chemical_formula_structural   LiMn2Sb4P3
_chemical_formula_sum   'Li1 Mn2 Sb4 P3'
_cell_volume   336.71340242
_cell_formula_units_Z   1
loop_
 _symmetry_equiv_pos_site_id
 _symmetry_equiv_pos_as_xyz
  1  'x, y, z'
loop_
 _atom_site_type_symbol
 _atom_site_label
 _atom_site_symmetry_multiplicity
 _atom_site_fract_x
 _atom_site_fract_y
 _atom_site_fract_z
 _atom_site_occupancy
  Mn  Mn0  1  0.00000000  0.00000000  0.00000000  1
  Mn  Mn1  1  0.50000000  0.50000000  0.50000000  1
  Sb  Sb2  1  0.25000000  0.25000000  0.25000000  1
  Sb  Sb3  1  0.75000000  0.25000000  0.00000000  1
  Sb  Sb4  1  0.25000000  0.75000000  0.50000000  1
  Sb  Sb5  1  0.63641534  0.65558655  0.49261891  1
  P  P6  1  0.88485409  0.07214594  0.71423073  1
  P  P7  1  0.30997269  0.37799396  0.82710943  1
  P  P8  1  0.26771013  0.10488740  0.73996005  1
  Li  Li9  1  0.91224029  0.05324967  0.39741958  1
