# generated using pymatgen
data_Li2Ti(CuI2)2
_symmetry_space_group_name_H-M   'P 1'
_cell_length_a   7.91423396
_cell_length_b   7.74640537
_cell_length_c   7.94351708
_cell_angle_alpha   91.67016073
_cell_angle_beta   91.63692646
_cell_angle_gamma   91.77724283
_symmetry_Int_Tables_number   1
_chemical_formula_structural   Li2Ti(CuI2)2
_chemical_formula_sum   'Li2 Ti1 Cu2 I4'
_cell_volume   486.33936813
_cell_formula_units_Z   1
loop_
 _symmetry_equiv_pos_site_id
 _symmetry_equiv_pos_as_xyz
  1  'x, y, z'
loop_
 _atom_site_type_symbol
 _atom_site_label
 _atom_site_symmetry_multiplicity
 _atom_site_fract_x
 _atom_site_fract_y
 _atom_site_fract_z
 _atom_site_occupancy
  I  I0  1  0.00000000  0.00000000  0.00000000  1
  I  I1  1  0.33300000  0.66700000  0.25000000  1
  I  I2  1  0.66700000  0.33300000  0.50000000  1
  I  I3  1  0.00000000  0.00000000  0.75000000  1
  Li  Li4  1  0.07866072  0.57732562  0.07522715  1
  Li  Li5  1  0.17394175  0.28754291  0.84505776  1
  Cu  Cu6  1  0.19609218  0.39087925  0.12350744  1
  Cu  Cu7  1  0.50000895  0.62790579  0.06664337  1
  Ti  Ti8  1  0.59559733  0.03284974  0.32806288  1
