# generated using pymatgen
data_LiCuAs3F
_symmetry_space_group_name_H-M   'P 1'
_cell_length_a   7.12693644
_cell_length_b   7.11018116
_cell_length_c   7.72771661
_cell_angle_alpha   91.06288972
_cell_angle_beta   92.72994941
_cell_angle_gamma   90.81529982
_symmetry_Int_Tables_number   1
_chemical_formula_structural   LiCuAs3F
_chemical_formula_sum   'Li2 Cu2 As6 F2'
_cell_volume   391.03634235
_cell_formula_units_Z   2
loop_
 _symmetry_equiv_pos_site_id
 _symmetry_equiv_pos_as_xyz
  1  'x, y, z'
loop_
 _atom_site_type_symbol
 _atom_site_label
 _atom_site_symmetry_multiplicity
 _atom_site_fract_x
 _atom_site_fract_y
 _atom_site_fract_z
 _atom_site_occupancy
  F  F0  1  0.00000000  0.00000000  0.00000000  1
  F  F1  1  0.50000000  0.50000000  0.50000000  1
  As  As2  1  0.50000000  0.50000000  0.00000000  1
  As  As3  1  0.50000000  0.00000000  0.50000000  1
  As  As4  1  0.00000000  0.50000000  0.50000000  1
  As  As5  1  0.73058035  0.86284003  0.42463523  1
  As  As6  1  0.18954095  0.76670649  0.62491704  1
  As  As7  1  0.00556402  0.63677668  0.44224524  1
  Li  Li8  1  0.64122643  0.33598833  0.99540814  1
  Li  Li9  1  0.28874714  0.55975442  0.19685550  1
  Cu  Cu10  1  0.90662829  0.14673861  0.47077095  1
  Cu  Cu11  1  0.26425243  0.67822324  0.15847795  1
