# generated using pymatgen
data_LiCu2(I2F)2
_symmetry_space_group_name_H-M   'P 1'
_cell_length_a   7.30186627
_cell_length_b   7.41700668
_cell_length_c   8.24575561
_cell_angle_alpha   91.13701226
_cell_angle_beta   93.20052482
_cell_angle_gamma   91.34595535
_symmetry_Int_Tables_number   1
_chemical_formula_structural   LiCu2(I2F)2
_chemical_formula_sum   'Li1 Cu2 I4 F2'
_cell_volume   445.65387285
_cell_formula_units_Z   1
loop_
 _symmetry_equiv_pos_site_id
 _symmetry_equiv_pos_as_xyz
  1  'x, y, z'
loop_
 _atom_site_type_symbol
 _atom_site_label
 _atom_site_symmetry_multiplicity
 _atom_site_fract_x
 _atom_site_fract_y
 _atom_site_fract_z
 _atom_site_occupancy
  F  F0  1  0.12500000  0.00000000  0.25000000  1
  F  F1  1  0.00000000  0.00000000  0.00000000  1
  I  I2  1  0.37500000  0.00000000  0.25000000  1
  I  I3  1  0.25000000  0.25000000  0.25000000  1
  I  I4  1  0.00000000  0.25000000  0.12500000  1
  I  I5  1  0.75041483  0.92646493  0.01356881  1
  Li  Li6  1  0.02083002  0.75169018  0.28180496  1
  Cu  Cu7  1  0.95045795  0.13513341  0.63806813  1
  Cu  Cu8  1  0.14765921  0.19719246  0.00682167  1
