# generated using pymatgen
data_Li2LuTiAs6
_symmetry_space_group_name_H-M   'P 1'
_cell_length_a   7.86954150
_cell_length_b   7.75414967
_cell_length_c   7.82369952
_cell_angle_alpha   92.33198784
_cell_angle_beta   92.52603563
_cell_angle_gamma   92.36968720
_symmetry_Int_Tables_number   1
_chemical_formula_structural   Li2LuTiAs6
_chemical_formula_sum   'Li2 Lu1 Ti1 As6'
_cell_volume   476.11051856
_cell_formula_units_Z   1
loop_
 _symmetry_equiv_pos_site_id
 _symmetry_equiv_pos_as_xyz
  1  'x, y, z'
loop_
 _atom_site_type_symbol
 _atom_site_label
 _atom_site_symmetry_multiplicity
 _atom_site_fract_x
 _atom_site_fract_y
 _atom_site_fract_z
 _atom_site_occupancy
  Lu  Lu0  1  0.00000000  0.00000000  0.00000000  1
  Li  Li1  1  0.50000000  0.50000000  0.50000000  1
  Li  Li2  1  0.25000000  0.25000000  0.25000000  1
  Ti  Ti3  1  0.75000000  0.25000000  0.00000000  1
  As  As4  1  0.25000000  0.75000000  0.50000000  1
  As  As5  1  0.99444306  0.47272086  0.07901812  1
  As  As6  1  0.75620757  0.47164730  0.70993982  1
  As  As7  1  0.89134617  0.16873349  0.25828297  1
  As  As8  1  0.66863013  0.21272938  0.78008486  1
  As  As9  1  0.47612485  0.07812409  0.29862056  1
