# generated using pymatgen
data_Li2TiI4(OF)3
_symmetry_space_group_name_H-M   'P 1'
_cell_length_a   8.02328352
_cell_length_b   7.86011044
_cell_length_c   7.48403036
_cell_angle_alpha   90.31371228
_cell_angle_beta   91.49254774
_cell_angle_gamma   90.35865690
_symmetry_Int_Tables_number   1
_chemical_formula_structural   Li2TiI4(OF)3
_chemical_formula_sum   'Li2 Ti1 I4 O3 F3'
_cell_volume   471.79522268
_cell_formula_units_Z   1
loop_
 _symmetry_equiv_pos_site_id
 _symmetry_equiv_pos_as_xyz
  1  'x, y, z'
loop_
 _atom_site_type_symbol
 _atom_site_label
 _atom_site_symmetry_multiplicity
 _atom_site_fract_x
 _atom_site_fract_y
 _atom_site_fract_z
 _atom_site_occupancy
  I  I0  1  0.12500000  0.00000000  0.25000000  1
  I  I1  1  0.00000000  0.00000000  0.00000000  1
  I  I2  1  0.37500000  0.00000000  0.25000000  1
  I  I3  1  0.25000000  0.25000000  0.25000000  1
  Li  Li4  1  0.00000000  0.25000000  0.12500000  1
  Li  Li5  1  0.39381881  0.29909312  0.87712666  1
  F  F6  1  0.03436338  0.92869867  0.79224930  1
  F  F7  1  0.51268143  0.94864148  0.48801878  1
  F  F8  1  0.67425803  0.13994313  0.34820903  1
  Ti  Ti9  1  0.01110953  0.19988990  0.87401383  1
  O  O10  1  0.21829810  0.55129390  0.66814183  1
  O  O11  1  0.31620769  0.75878555  0.85660768  1
  O  O12  1  0.47632941  0.32747842  0.98730210  1
