# generated using pymatgen
data_Li2LuNi2(As3P2)2
_symmetry_space_group_name_H-M   'P 1'
_cell_length_a   7.27471938
_cell_length_b   7.18958771
_cell_length_c   8.14165624
_cell_angle_alpha   93.77403902
_cell_angle_beta   94.24858045
_cell_angle_gamma   93.79947382
_symmetry_Int_Tables_number   1
_chemical_formula_structural   Li2LuNi2(As3P2)2
_chemical_formula_sum   'Li2 Lu1 Ni2 As6 P4'
_cell_volume   422.65145581
_cell_formula_units_Z   1
loop_
 _symmetry_equiv_pos_site_id
 _symmetry_equiv_pos_as_xyz
  1  'x, y, z'
loop_
 _atom_site_type_symbol
 _atom_site_label
 _atom_site_symmetry_multiplicity
 _atom_site_fract_x
 _atom_site_fract_y
 _atom_site_fract_z
 _atom_site_occupancy
  Ni  Ni0  1  0.00000000  0.00000000  0.00000000  1
  Ni  Ni1  1  0.50000000  0.50000000  0.50000000  1
  P  P2  1  0.50000000  0.50000000  0.00000000  1
  P  P3  1  0.50000000  0.00000000  0.50000000  1
  P  P4  1  0.00000000  0.50000000  0.50000000  1
  P  P5  1  0.35233864  0.53616154  0.88095847  1
  Lu  Lu6  1  0.47003046  0.29267575  0.80733163  1
  As  As7  1  0.84985572  0.04212971  0.78848101  1
  As  As8  1  0.56108883  0.63077728  0.79859192  1
  As  As9  1  0.09358891  0.53941612  0.21035162  1
  As  As10  1  0.17518193  0.22360706  0.88281925  1
  As  As11  1  0.64150732  0.75778972  0.38716233  1
  As  As12  1  0.92389609  0.64262817  0.54420666  1
  Li  Li13  1  0.04921653  0.18934261  0.75737305  1
  Li  Li14  1  0.61871409  0.31610536  0.01645204  1
