# generated using pymatgen
data_Li3TiP3SeCl2
_symmetry_space_group_name_H-M   'P 1'
_cell_length_a   7.62902307
_cell_length_b   7.37265076
_cell_length_c   6.99045444
_cell_angle_alpha   94.92882118
_cell_angle_beta   96.29297261
_cell_angle_gamma   94.63662037
_symmetry_Int_Tables_number   1
_chemical_formula_structural   Li3TiP3SeCl2
_chemical_formula_sum   'Li3 Ti1 P3 Se1 Cl2'
_cell_volume   387.75116695
_cell_formula_units_Z   1
loop_
 _symmetry_equiv_pos_site_id
 _symmetry_equiv_pos_as_xyz
  1  'x, y, z'
loop_
 _atom_site_type_symbol
 _atom_site_label
 _atom_site_symmetry_multiplicity
 _atom_site_fract_x
 _atom_site_fract_y
 _atom_site_fract_z
 _atom_site_occupancy
  P  P0  1  0.00000000  0.00000000  0.00000000  1
  P  P1  1  0.50000000  0.50000000  0.50000000  1
  P  P2  1  0.50000000  0.50000000  0.00000000  1
  Li  Li3  1  0.50000000  0.00000000  0.50000000  1
  Li  Li4  1  0.00000000  0.50000000  0.50000000  1
  Li  Li5  1  0.82728682  0.66758375  0.07831441  1
  Se  Se6  1  0.45333789  0.09694126  0.96367802  1
  Cl  Cl7  1  0.24466687  0.03276371  0.01329410  1
  Cl  Cl8  1  0.00976052  0.35411442  0.05647753  1
  Ti  Ti9  1  0.29410189  0.20289949  0.63576026  1
