# generated using pymatgen
data_Li2LuP5Cl2
_symmetry_space_group_name_H-M   'P 1'
_cell_length_a   6.16868510
_cell_length_b   6.02065328
_cell_length_c   7.55638653
_cell_angle_alpha   100.09469772
_cell_angle_beta   102.77533587
_cell_angle_gamma   99.55336951
_symmetry_Int_Tables_number   1
_chemical_formula_structural   Li2LuP5Cl2
_chemical_formula_sum   'Li2 Lu1 P5 Cl2'
_cell_volume   263.25974551
_cell_formula_units_Z   1
loop_
 _symmetry_equiv_pos_site_id
 _symmetry_equiv_pos_as_xyz
  1  'x, y, z'
loop_
 _atom_site_type_symbol
 _atom_site_label
 _atom_site_symmetry_multiplicity
 _atom_site_fract_x
 _atom_site_fract_y
 _atom_site_fract_z
 _atom_site_occupancy
  Cl  Cl0  1  0.12500000  0.00000000  0.25000000  1
  Cl  Cl1  1  0.00000000  0.00000000  0.00000000  1
  P  P2  1  0.37500000  0.00000000  0.25000000  1
  P  P3  1  0.25000000  0.25000000  0.25000000  1
  P  P4  1  0.00000000  0.25000000  0.12500000  1
  P  P5  1  0.28446636  0.40277482  0.11198402  1
  P  P6  1  0.14746260  0.81908641  0.81135082  1
  Lu  Lu7  1  0.07215133  0.98629645  0.32249435  1
  Li  Li8  1  0.43492202  0.69768438  0.76164427  1
  Li  Li9  1  0.86186981  0.15173637  0.40237211  1
