# generated using pymatgen
data_Li2LuP4
_symmetry_space_group_name_H-M   'P 1'
_cell_length_a   7.76753701
_cell_length_b   7.68984648
_cell_length_c   7.69032532
_cell_angle_alpha   92.81054922
_cell_angle_beta   93.33035049
_cell_angle_gamma   92.77466284
_symmetry_Int_Tables_number   1
_chemical_formula_structural   Li2LuP4
_chemical_formula_sum   'Li2 Lu1 P4'
_cell_volume   457.41917373
_cell_formula_units_Z   1
loop_
 _symmetry_equiv_pos_site_id
 _symmetry_equiv_pos_as_xyz
  1  'x, y, z'
loop_
 _atom_site_type_symbol
 _atom_site_label
 _atom_site_symmetry_multiplicity
 _atom_site_fract_x
 _atom_site_fract_y
 _atom_site_fract_z
 _atom_site_occupancy
  Li  Li0  1  0.00000000  0.00000000  0.00000000  1
  Li  Li1  1  0.33300000  0.66700000  0.25000000  1
  P  P2  1  0.66700000  0.33300000  0.50000000  1
  P  P3  1  0.00000000  0.00000000  0.75000000  1
  P  P4  1  0.66654291  0.66899524  0.55552104  1
  P  P5  1  0.35356947  0.89772865  0.36913932  1
  Lu  Lu6  1  0.33548727  0.08600349  0.53754431  1
