# generated using pymatgen
data_Li3As6N5O7
_symmetry_space_group_name_H-M   'P 1'
_cell_length_a   8.06712296
_cell_length_b   7.89763497
_cell_length_c   8.03008657
_cell_angle_alpha   91.30125147
_cell_angle_beta   91.05082101
_cell_angle_gamma   91.45315952
_symmetry_Int_Tables_number   1
_chemical_formula_structural   Li3As6N5O7
_chemical_formula_sum   'Li3 As6 N5 O7'
_cell_volume   511.21837604
_cell_formula_units_Z   1
loop_
 _symmetry_equiv_pos_site_id
 _symmetry_equiv_pos_as_xyz
  1  'x, y, z'
loop_
 _atom_site_type_symbol
 _atom_site_label
 _atom_site_symmetry_multiplicity
 _atom_site_fract_x
 _atom_site_fract_y
 _atom_site_fract_z
 _atom_site_occupancy
  Li  Li0  1  0.00000000  0.00000000  0.00000000  1
  Li  Li1  1  0.50000000  0.50000000  0.50000000  1
  Li  Li2  1  0.50000000  0.50000000  0.00000000  1
  As  As3  1  0.50000000  0.00000000  0.50000000  1
  As  As4  1  0.00000000  0.50000000  0.50000000  1
  As  As5  1  0.78923810  0.49519437  0.09983086  1
  As  As6  1  0.02223037  0.81797540  0.61541599  1
  As  As7  1  0.30176073  0.58038709  0.18299709  1
  As  As8  1  0.23971693  0.35757658  0.97765305  1
  O  O9  1  0.69619159  0.02059736  0.57217131  1
  O  O10  1  0.63201033  0.12054869  0.85590780  1
  O  O11  1  0.34353836  0.84155267  0.25251853  1
  O  O12  1  0.51623909  0.77885563  0.16151759  1
  O  O13  1  0.54211230  0.66597594  0.50019033  1
  O  O14  1  0.91646038  0.41656241  0.41572867  1
  O  O15  1  0.52905162  0.06680809  0.39341350  1
  N  N16  1  0.90925858  0.26292436  0.10937803  1
  N  N17  1  0.74143198  0.91398828  0.47442872  1
  N  N18  1  0.89121649  0.86761332  0.31344421  1
  N  N19  1  0.87523005  0.54653759  0.64592506  1
  N  N20  1  0.14087358  0.65216102  0.87492386  1
