# generated using pymatgen
data_Li2Ti(CuP2)2
_symmetry_space_group_name_H-M   'P 1'
_cell_length_a   6.85589336
_cell_length_b   6.82904380
_cell_length_c   7.55713414
_cell_angle_alpha   94.53826177
_cell_angle_beta   96.07456028
_cell_angle_gamma   94.19087170
_symmetry_Int_Tables_number   1
_chemical_formula_structural   Li2Ti(CuP2)2
_chemical_formula_sum   'Li2 Ti1 Cu2 P4'
_cell_volume   349.54311497
_cell_formula_units_Z   1
loop_
 _symmetry_equiv_pos_site_id
 _symmetry_equiv_pos_as_xyz
  1  'x, y, z'
loop_
 _atom_site_type_symbol
 _atom_site_label
 _atom_site_symmetry_multiplicity
 _atom_site_fract_x
 _atom_site_fract_y
 _atom_site_fract_z
 _atom_site_occupancy
  P  P0  1  0.12500000  0.12500000  0.12500000  1
  P  P1  1  0.50000000  0.50000000  0.50000000  1
  P  P2  1  0.25000000  0.25000000  0.25000000  1
  P  P3  1  0.75000000  0.75000000  0.75000000  1
  Li  Li4  1  0.67123795  0.73839987  0.34177268  1
  Li  Li5  1  0.18793066  0.72848505  0.79391332  1
  Cu  Cu6  1  0.49179470  0.34189182  0.61035276  1
  Cu  Cu7  1  0.84949207  0.40009973  0.89186345  1
  Ti  Ti8  1  0.23042189  0.23846275  0.36487086  1
