# generated using pymatgen
data_LiCu2(I2F)2
_symmetry_space_group_name_H-M   'P 1'
_cell_length_a   6.93922549
_cell_length_b   6.97135138
_cell_length_c   7.85631624
_cell_angle_alpha   94.42529518
_cell_angle_beta   96.35068040
_cell_angle_gamma   94.46016173
_symmetry_Int_Tables_number   1
_chemical_formula_structural   LiCu2(I2F)2
_chemical_formula_sum   'Li1 Cu2 I4 F2'
_cell_volume   375.16612853
_cell_formula_units_Z   1
loop_
 _symmetry_equiv_pos_site_id
 _symmetry_equiv_pos_as_xyz
  1  'x, y, z'
loop_
 _atom_site_type_symbol
 _atom_site_label
 _atom_site_symmetry_multiplicity
 _atom_site_fract_x
 _atom_site_fract_y
 _atom_site_fract_z
 _atom_site_occupancy
  F  F0  1  0.00000000  0.00000000  0.00000000  1
  F  F1  1  0.50000000  0.50000000  0.50000000  1
  I  I2  1  0.25000000  0.25000000  0.25000000  1
  I  I3  1  0.75000000  0.25000000  0.00000000  1
  I  I4  1  0.25000000  0.75000000  0.50000000  1
  I  I5  1  0.56975604  0.06104279  0.44872730  1
  Li  Li6  1  0.89745201  0.05849114  0.09277382  1
  Cu  Cu7  1  0.43164943  0.37533334  0.64751440  1
  Cu  Cu8  1  0.31710228  0.99533609  0.64283063  1
