# generated using pymatgen
data_LiCuNiAs3
_symmetry_space_group_name_H-M   'P 1'
_cell_length_a   7.59667356
_cell_length_b   7.47282657
_cell_length_c   8.49129882
_cell_angle_alpha   91.23848813
_cell_angle_beta   91.77643898
_cell_angle_gamma   91.42616677
_symmetry_Int_Tables_number   1
_chemical_formula_structural   LiCuNiAs3
_chemical_formula_sum   'Li2 Cu2 Ni2 As6'
_cell_volume   481.53753903
_cell_formula_units_Z   2
loop_
 _symmetry_equiv_pos_site_id
 _symmetry_equiv_pos_as_xyz
  1  'x, y, z'
loop_
 _atom_site_type_symbol
 _atom_site_label
 _atom_site_symmetry_multiplicity
 _atom_site_fract_x
 _atom_site_fract_y
 _atom_site_fract_z
 _atom_site_occupancy
  Li  Li0  1  0.00000000  0.00000000  0.00000000  1
  Li  Li1  1  0.50000000  0.50000000  0.50000000  1
  Cu  Cu2  1  0.25000000  0.25000000  0.25000000  1
  Cu  Cu3  1  0.75000000  0.25000000  0.00000000  1
  Ni  Ni4  1  0.25000000  0.75000000  0.50000000  1
  Ni  Ni5  1  0.63697098  0.58538770  0.61143636  1
  As  As6  1  0.03338039  0.46938015  0.39799510  1
  As  As7  1  0.23204166  0.66123191  0.15626820  1
  As  As8  1  0.59644286  0.87877818  0.74942914  1
  As  As9  1  0.36344926  0.79817959  0.19875111  1
  As  As10  1  0.16027315  0.27613404  0.33446191  1
  As  As11  1  0.35997944  0.88710813  0.76912405  1
