# generated using pymatgen
data_Li2Cu2P3Cl2
_symmetry_space_group_name_H-M   'P 1'
_cell_length_a   7.14023391
_cell_length_b   7.10841058
_cell_length_c   7.77909672
_cell_angle_alpha   93.84906365
_cell_angle_beta   95.91478435
_cell_angle_gamma   93.67908828
_symmetry_Int_Tables_number   1
_chemical_formula_structural   Li2Cu2P3Cl2
_chemical_formula_sum   'Li2 Cu2 P3 Cl2'
_cell_volume   390.83927542
_cell_formula_units_Z   1
loop_
 _symmetry_equiv_pos_site_id
 _symmetry_equiv_pos_as_xyz
  1  'x, y, z'
loop_
 _atom_site_type_symbol
 _atom_site_label
 _atom_site_symmetry_multiplicity
 _atom_site_fract_x
 _atom_site_fract_y
 _atom_site_fract_z
 _atom_site_occupancy
  Cl  Cl0  1  0.12500000  0.12500000  0.12500000  1
  Cl  Cl1  1  0.50000000  0.50000000  0.50000000  1
  P  P2  1  0.25000000  0.25000000  0.25000000  1
  P  P3  1  0.75000000  0.75000000  0.75000000  1
  P  P4  1  0.92131027  0.41802767  0.18505227  1
  Li  Li5  1  0.32054204  0.00303110  0.88551819  1
  Li  Li6  1  0.12176189  0.53984522  0.02136905  1
  Cu  Cu7  1  0.26871258  0.73288480  0.99637486  1
  Cu  Cu8  1  0.62691002  0.67850937  0.72739268  1
