# generated using pymatgen
data_Li2Lu(CuAs3)2
_symmetry_space_group_name_H-M   'P 1'
_cell_length_a   7.42940015
_cell_length_b   7.38942061
_cell_length_c   8.16256885
_cell_angle_alpha   91.24045262
_cell_angle_beta   92.01211624
_cell_angle_gamma   91.35267646
_symmetry_Int_Tables_number   1
_chemical_formula_structural   Li2Lu(CuAs3)2
_chemical_formula_sum   'Li2 Lu1 Cu2 As6'
_cell_volume   447.60214872
_cell_formula_units_Z   1
loop_
 _symmetry_equiv_pos_site_id
 _symmetry_equiv_pos_as_xyz
  1  'x, y, z'
loop_
 _atom_site_type_symbol
 _atom_site_label
 _atom_site_symmetry_multiplicity
 _atom_site_fract_x
 _atom_site_fract_y
 _atom_site_fract_z
 _atom_site_occupancy
  Lu  Lu0  1  0.00000000  0.00000000  0.00000000  1
  As  As1  1  0.50000000  0.50000000  0.50000000  1
  As  As2  1  0.25000000  0.25000000  0.25000000  1
  As  As3  1  0.75000000  0.25000000  0.00000000  1
  As  As4  1  0.25000000  0.75000000  0.50000000  1
  As  As5  1  0.19870329  0.26414875  0.96679223  1
  As  As6  1  0.98679391  0.06076061  0.38819148  1
  Li  Li7  1  0.27744655  0.17716062  0.77636241  1
  Li  Li8  1  0.04086585  0.91473385  0.72370401  1
  Cu  Cu9  1  0.17245697  0.71546352  0.91797512  1
  Cu  Cu10  1  0.26116550  0.64566944  0.78988337  1
