# generated using pymatgen
data_Li3Cu2Ni2As6O7
_symmetry_space_group_name_H-M   'P 1'
_cell_length_a   7.69788172
_cell_length_b   7.51075471
_cell_length_c   8.79939004
_cell_angle_alpha   91.65805438
_cell_angle_beta   91.14289828
_cell_angle_gamma   91.92104254
_symmetry_Int_Tables_number   1
_chemical_formula_structural   Li3Cu2Ni2As6O7
_chemical_formula_sum   'Li3 Cu2 Ni2 As6 O7'
_cell_volume   508.14323734
_cell_formula_units_Z   1
loop_
 _symmetry_equiv_pos_site_id
 _symmetry_equiv_pos_as_xyz
  1  'x, y, z'
loop_
 _atom_site_type_symbol
 _atom_site_label
 _atom_site_symmetry_multiplicity
 _atom_site_fract_x
 _atom_site_fract_y
 _atom_site_fract_z
 _atom_site_occupancy
  Li  Li0  1  0.12500000  0.00000000  0.25000000  1
  Li  Li1  1  0.00000000  0.00000000  0.00000000  1
  Li  Li2  1  0.37500000  0.00000000  0.25000000  1
  Cu  Cu3  1  0.25000000  0.25000000  0.25000000  1
  Cu  Cu4  1  0.00000000  0.25000000  0.12500000  1
  Ni  Ni5  1  0.38065085  0.33855926  0.89048924  1
  Ni  Ni6  1  0.41120544  0.30235212  0.37138965  1
  As  As7  1  0.30739685  0.53942190  0.42307081  1
  As  As8  1  0.59438974  0.81486024  0.13689288  1
  As  As9  1  0.80028766  0.08885963  0.90780460  1
  As  As10  1  0.13553579  0.21774186  0.89238756  1
  As  As11  1  0.58716819  0.00917603  0.17427544  1
  As  As12  1  0.09079871  0.50398223  0.94643892  1
  O  O13  1  0.31957787  0.23867779  0.96877998  1
  O  O14  1  0.96584155  0.25821170  0.47038278  1
  O  O15  1  0.61830283  0.61005475  0.00932541  1
  O  O16  1  0.06304361  0.18297393  0.67474743  1
  O  O17  1  0.05521160  0.39846575  0.16018135  1
  O  O18  1  0.20731065  0.69160860  0.35198428  1
  O  O19  1  0.44651524  0.39846175  0.79117306  1
