# generated using pymatgen
data_Li3TiNi2As6O5
_symmetry_space_group_name_H-M   'P 1'
_cell_length_a   8.27877470
_cell_length_b   8.13058953
_cell_length_c   8.24006914
_cell_angle_alpha   90.83325204
_cell_angle_beta   90.52827906
_cell_angle_gamma   90.96559005
_symmetry_Int_Tables_number   1
_chemical_formula_structural   Li3TiNi2As6O5
_chemical_formula_sum   'Li3 Ti1 Ni2 As6 O5'
_cell_volume   554.48766254
_cell_formula_units_Z   1
loop_
 _symmetry_equiv_pos_site_id
 _symmetry_equiv_pos_as_xyz
  1  'x, y, z'
loop_
 _atom_site_type_symbol
 _atom_site_label
 _atom_site_symmetry_multiplicity
 _atom_site_fract_x
 _atom_site_fract_y
 _atom_site_fract_z
 _atom_site_occupancy
  Li  Li0  1  0.12500000  0.00000000  0.25000000  1
  Li  Li1  1  0.00000000  0.00000000  0.00000000  1
  Li  Li2  1  0.37500000  0.00000000  0.25000000  1
  Ni  Ni3  1  0.25000000  0.25000000  0.25000000  1
  Ni  Ni4  1  0.00000000  0.25000000  0.12500000  1
  Ti  Ti5  1  0.23002786  0.42806914  0.79752722  1
  As  As6  1  0.35487254  0.62156694  0.48102712  1
  As  As7  1  0.37507318  0.59802858  0.27808077  1
  As  As8  1  0.29449678  0.71140419  0.10847388  1
  As  As9  1  0.77282026  0.29840565  0.43304954  1
  As  As10  1  0.53125085  0.54868432  0.14662153  1
  As  As11  1  0.70360097  0.48595015  0.35574738  1
  O  O12  1  0.77926518  0.38308960  0.32878096  1
  O  O13  1  0.62769553  0.44825781  0.79915739  1
  O  O14  1  0.41003643  0.26297730  0.65996237  1
  O  O15  1  0.27892932  0.15777112  0.93658811  1
  O  O16  1  0.77216538  0.85119798  0.98106433  1
