# generated using pymatgen
data_Li2Lu(CuP2)2
_symmetry_space_group_name_H-M   'P 1'
_cell_length_a   7.29266349
_cell_length_b   7.21166106
_cell_length_c   7.90750858
_cell_angle_alpha   93.43219700
_cell_angle_beta   94.29020662
_cell_angle_gamma   93.38014726
_symmetry_Int_Tables_number   1
_chemical_formula_structural   Li2Lu(CuP2)2
_chemical_formula_sum   'Li2 Lu1 Cu2 P4'
_cell_volume   413.12270243
_cell_formula_units_Z   1
loop_
 _symmetry_equiv_pos_site_id
 _symmetry_equiv_pos_as_xyz
  1  'x, y, z'
loop_
 _atom_site_type_symbol
 _atom_site_label
 _atom_site_symmetry_multiplicity
 _atom_site_fract_x
 _atom_site_fract_y
 _atom_site_fract_z
 _atom_site_occupancy
  P  P0  1  0.00000000  0.00000000  0.00000000  1
  P  P1  1  0.50000000  0.50000000  0.50000000  1
  P  P2  1  0.50000000  0.50000000  0.00000000  1
  P  P3  1  0.50000000  0.00000000  0.50000000  1
  Lu  Lu4  1  0.00000000  0.50000000  0.50000000  1
  Li  Li5  1  0.24596633  0.76514318  0.33093641  1
  Li  Li6  1  0.48682898  0.87194612  0.35996086  1
  Cu  Cu7  1  0.90212934  0.85223499  0.51315315  1
  Cu  Cu8  1  0.60859751  0.94313037  0.17732908  1
