# generated using pymatgen
data_Li2Mn3Sb4P3
_symmetry_space_group_name_H-M   'P 1'
_cell_length_a   6.86221763
_cell_length_b   7.43238066
_cell_length_c   7.17773945
_cell_angle_alpha   93.37100741
_cell_angle_beta   90.16840462
_cell_angle_gamma   93.30395805
_symmetry_Int_Tables_number   1
_chemical_formula_structural   Li2Mn3Sb4P3
_chemical_formula_sum   'Li2 Mn3 Sb4 P3'
_cell_volume   364.83524887
_cell_formula_units_Z   1
loop_
 _symmetry_equiv_pos_site_id
 _symmetry_equiv_pos_as_xyz
  1  'x, y, z'
loop_
 _atom_site_type_symbol
 _atom_site_label
 _atom_site_symmetry_multiplicity
 _atom_site_fract_x
 _atom_site_fract_y
 _atom_site_fract_z
 _atom_site_occupancy
  Mn  Mn0  1  0.00000000  0.00000000  0.00000000  1
  Mn  Mn1  1  0.50000000  0.50000000  0.50000000  1
  Mn  Mn2  1  0.50000000  0.50000000  0.00000000  1
  Sb  Sb3  1  0.50000000  0.00000000  0.50000000  1
  Sb  Sb4  1  0.00000000  0.50000000  0.50000000  1
  Sb  Sb5  1  0.49558415  0.22600135  0.97947205  1
  Sb  Sb6  1  0.12675690  0.52281385  0.88431546  1
  P  P7  1  0.72831278  0.30032934  0.41737640  1
  P  P8  1  0.53104919  0.39807250  0.10403394  1
  P  P9  1  0.70620170  0.25535678  0.53874010  1
  Li  Li10  1  0.38679179  0.95374495  0.79989243  1
  Li  Li11  1  0.05101352  0.13805965  0.34659824  1
