# generated using pymatgen
data_Li2Cu2P4I4F3
_symmetry_space_group_name_H-M   'P 1'
_cell_length_a   7.83286038
_cell_length_b   7.61975443
_cell_length_c   7.86540163
_cell_angle_alpha   91.29795139
_cell_angle_beta   91.29189957
_cell_angle_gamma   91.50232444
_symmetry_Int_Tables_number   1
_chemical_formula_structural   Li2Cu2P4I4F3
_chemical_formula_sum   'Li2 Cu2 P4 I4 F3'
_cell_volume   469.03480024
_cell_formula_units_Z   1
loop_
 _symmetry_equiv_pos_site_id
 _symmetry_equiv_pos_as_xyz
  1  'x, y, z'
loop_
 _atom_site_type_symbol
 _atom_site_label
 _atom_site_symmetry_multiplicity
 _atom_site_fract_x
 _atom_site_fract_y
 _atom_site_fract_z
 _atom_site_occupancy
  I  I0  1  0.00000000  0.00000000  0.00000000  1
  I  I1  1  0.50000000  0.50000000  0.50000000  1
  I  I2  1  0.50000000  0.50000000  0.00000000  1
  I  I3  1  0.50000000  0.00000000  0.50000000  1
  P  P4  1  0.00000000  0.50000000  0.50000000  1
  P  P5  1  0.26269129  0.19734859  0.49594086  1
  P  P6  1  0.29938269  0.88793194  0.17282791  1
  P  P7  1  0.28206693  0.59174302  0.50278916  1
  Li  Li8  1  0.77938383  0.87728683  0.70638472  1
  Li  Li9  1  0.71204793  0.37549739  0.93332681  1
  Cu  Cu10  1  0.44954302  0.46944964  0.89449762  1
  Cu  Cu11  1  0.94299328  0.95557834  0.15892466  1
  F  F12  1  0.97982541  0.52556018  0.05001084  1
  F  F13  1  0.67951619  0.44344301  0.53507682  1
  F  F14  1  0.54697145  0.01821854  0.10983500  1
