# generated using pymatgen
data_Li2MnSb4P3
_symmetry_space_group_name_H-M   'P 1'
_cell_length_a   7.20382987
_cell_length_b   7.17602428
_cell_length_c   7.73653445
_cell_angle_alpha   91.91309525
_cell_angle_beta   92.26623809
_cell_angle_gamma   92.17733860
_symmetry_Int_Tables_number   1
_chemical_formula_structural   Li2MnSb4P3
_chemical_formula_sum   'Li2 Mn1 Sb4 P3'
_cell_volume   399.09391423
_cell_formula_units_Z   1
loop_
 _symmetry_equiv_pos_site_id
 _symmetry_equiv_pos_as_xyz
  1  'x, y, z'
loop_
 _atom_site_type_symbol
 _atom_site_label
 _atom_site_symmetry_multiplicity
 _atom_site_fract_x
 _atom_site_fract_y
 _atom_site_fract_z
 _atom_site_occupancy
  Mn  Mn0  1  0.12500000  0.00000000  0.25000000  1
  Sb  Sb1  1  0.00000000  0.00000000  0.00000000  1
  Sb  Sb2  1  0.37500000  0.00000000  0.25000000  1
  Sb  Sb3  1  0.25000000  0.25000000  0.25000000  1
  Sb  Sb4  1  0.00000000  0.25000000  0.12500000  1
  P  P5  1  0.31228123  0.97122120  0.77661023  1
  P  P6  1  0.35550741  0.41697399  0.26495166  1
  P  P7  1  0.29664558  0.85189706  0.43577027  1
  Li  Li8  1  0.02386768  0.74473165  0.82128779  1
  Li  Li9  1  0.42457859  0.08277857  0.66886414  1
