# generated using pymatgen
data_Li2LuCu2P4N5
_symmetry_space_group_name_H-M   'P 1'
_cell_length_a   7.26153430
_cell_length_b   7.12273116
_cell_length_c   8.18501219
_cell_angle_alpha   93.93430453
_cell_angle_beta   93.97933459
_cell_angle_gamma   94.03819738
_symmetry_Int_Tables_number   1
_chemical_formula_structural   Li2LuCu2P4N5
_chemical_formula_sum   'Li2 Lu1 Cu2 P4 N5'
_cell_volume   420.12504463
_cell_formula_units_Z   1
loop_
 _symmetry_equiv_pos_site_id
 _symmetry_equiv_pos_as_xyz
  1  'x, y, z'
loop_
 _atom_site_type_symbol
 _atom_site_label
 _atom_site_symmetry_multiplicity
 _atom_site_fract_x
 _atom_site_fract_y
 _atom_site_fract_z
 _atom_site_occupancy
  P  P0  1  0.00000000  0.00000000  0.00000000  1
  P  P1  1  0.50000000  0.50000000  0.50000000  1
  P  P2  1  0.50000000  0.50000000  0.00000000  1
  P  P3  1  0.50000000  0.00000000  0.50000000  1
  Lu  Lu4  1  0.00000000  0.50000000  0.50000000  1
  Li  Li5  1  0.91662600  0.85806223  0.44625561  1
  Li  Li6  1  0.51457078  0.83531120  0.53961590  1
  Cu  Cu7  1  0.79727312  0.72067777  0.82523621  1
  Cu  Cu8  1  0.69633456  0.66324400  0.79955660  1
  N  N9  1  0.40758439  0.23087521  0.28403105  1
  N  N10  1  0.99458875  0.41881933  0.91561677  1
  N  N11  1  0.22106735  0.92566172  0.80467028  1
  N  N12  1  0.55986118  0.29991483  0.83351895  1
  N  N13  1  0.45499503  0.73402082  0.81648496  1
