# generated using pymatgen
data_Li2Lu(CuAs3)2
_symmetry_space_group_name_H-M   'P 1'
_cell_length_a   7.62607247
_cell_length_b   7.43041268
_cell_length_c   8.22781798
_cell_angle_alpha   91.49066037
_cell_angle_beta   91.47813308
_cell_angle_gamma   91.67747955
_symmetry_Int_Tables_number   1
_chemical_formula_structural   Li2Lu(CuAs3)2
_chemical_formula_sum   'Li2 Lu1 Cu2 As6'
_cell_volume   465.70611676
_cell_formula_units_Z   1
loop_
 _symmetry_equiv_pos_site_id
 _symmetry_equiv_pos_as_xyz
  1  'x, y, z'
loop_
 _atom_site_type_symbol
 _atom_site_label
 _atom_site_symmetry_multiplicity
 _atom_site_fract_x
 _atom_site_fract_y
 _atom_site_fract_z
 _atom_site_occupancy
  Lu  Lu0  1  0.00000000  0.00000000  0.00000000  1
  Li  Li1  1  0.50000000  0.50000000  0.50000000  1
  Li  Li2  1  0.50000000  0.50000000  0.00000000  1
  Cu  Cu3  1  0.50000000  0.00000000  0.50000000  1
  Cu  Cu4  1  0.00000000  0.50000000  0.50000000  1
  As  As5  1  0.25403353  0.73484844  0.28355133  1
  As  As6  1  0.53544154  0.96482349  0.18348269  1
  As  As7  1  0.01771743  0.87441614  0.78452097  1
  As  As8  1  0.29227859  0.47363518  0.60040224  1
  As  As9  1  0.33325834  0.90370306  0.77701899  1
  As  As10  1  0.38483834  0.78133147  0.89806959  1
