# generated using pymatgen
data_Li3Ti(CuP2)2
_symmetry_space_group_name_H-M   'P 1'
_cell_length_a   8.40282235
_cell_length_b   8.24632252
_cell_length_c   7.60922249
_cell_angle_alpha   90.58130063
_cell_angle_beta   90.49333020
_cell_angle_gamma   90.67315275
_symmetry_Int_Tables_number   1
_chemical_formula_structural   Li3Ti(CuP2)2
_chemical_formula_sum   'Li3 Ti1 Cu2 P4'
_cell_volume   527.17754571
_cell_formula_units_Z   1
loop_
 _symmetry_equiv_pos_site_id
 _symmetry_equiv_pos_as_xyz
  1  'x, y, z'
loop_
 _atom_site_type_symbol
 _atom_site_label
 _atom_site_symmetry_multiplicity
 _atom_site_fract_x
 _atom_site_fract_y
 _atom_site_fract_z
 _atom_site_occupancy
  P  P0  1  0.12500000  0.12500000  0.12500000  1
  P  P1  1  0.50000000  0.50000000  0.50000000  1
  P  P2  1  0.25000000  0.25000000  0.25000000  1
  P  P3  1  0.75000000  0.75000000  0.75000000  1
  Li  Li4  1  0.32700098  0.13385135  0.58284455  1
  Li  Li5  1  0.94459069  0.93251174  0.16183796  1
  Li  Li6  1  0.73281202  0.31013174  0.40738904  1
  Cu  Cu7  1  0.11711704  0.11254572  0.35368405  1
  Cu  Cu8  1  0.60248698  0.30149781  0.58875350  1
  Ti  Ti9  1  0.60686306  0.20164449  0.38001393  1
