# generated using pymatgen
data_Li3TiP3Cl2F3
_symmetry_space_group_name_H-M   'P 1'
_cell_length_a   5.82679312
_cell_length_b   5.64489721
_cell_length_c   6.85655669
_cell_angle_alpha   97.27581419
_cell_angle_beta   99.82143781
_cell_angle_gamma   96.74550162
_symmetry_Int_Tables_number   1
_chemical_formula_structural   Li3TiP3Cl2F3
_chemical_formula_sum   'Li3 Ti1 P3 Cl2 F3'
_cell_volume   218.18647594
_cell_formula_units_Z   1
loop_
 _symmetry_equiv_pos_site_id
 _symmetry_equiv_pos_as_xyz
  1  'x, y, z'
loop_
 _atom_site_type_symbol
 _atom_site_label
 _atom_site_symmetry_multiplicity
 _atom_site_fract_x
 _atom_site_fract_y
 _atom_site_fract_z
 _atom_site_occupancy
  P  P0  1  0.00000000  0.00000000  0.00000000  1
  P  P1  1  0.50000000  0.50000000  0.50000000  1
  P  P2  1  0.25000000  0.25000000  0.25000000  1
  Li  Li3  1  0.75000000  0.25000000  0.00000000  1
  Li  Li4  1  0.25000000  0.75000000  0.50000000  1
  Li  Li5  1  0.21773883  0.54618469  0.39685753  1
  F  F6  1  0.46745035  0.78990456  0.61965562  1
  F  F7  1  0.93144548  0.90818826  0.38539269  1
  F  F8  1  0.29675322  0.30986993  0.90038336  1
  Cl  Cl9  1  0.77140586  0.97832372  0.78717329  1
  Cl  Cl10  1  0.85725974  0.42327170  0.55692166  1
  Ti  Ti11  1  0.17539620  0.20176244  0.36350114  1
