# generated using pymatgen
data_Li2Cu2As6I4O3
_symmetry_space_group_name_H-M   'P 1'
_cell_length_a   6.93384292
_cell_length_b   6.96742518
_cell_length_c   7.88935613
_cell_angle_alpha   93.88651841
_cell_angle_beta   96.20831436
_cell_angle_gamma   93.71596231
_symmetry_Int_Tables_number   1
_chemical_formula_structural   Li2Cu2As6I4O3
_chemical_formula_sum   'Li2 Cu2 As6 I4 O3'
_cell_volume   377.03499309
_cell_formula_units_Z   1
loop_
 _symmetry_equiv_pos_site_id
 _symmetry_equiv_pos_as_xyz
  1  'x, y, z'
loop_
 _atom_site_type_symbol
 _atom_site_label
 _atom_site_symmetry_multiplicity
 _atom_site_fract_x
 _atom_site_fract_y
 _atom_site_fract_z
 _atom_site_occupancy
  I  I0  1  0.00000000  0.00000000  0.00000000  1
  I  I1  1  0.50000000  0.50000000  0.50000000  1
  I  I2  1  0.50000000  0.50000000  0.00000000  1
  I  I3  1  0.50000000  0.00000000  0.50000000  1
  O  O4  1  0.00000000  0.50000000  0.50000000  1
  O  O5  1  0.57664973  0.30586104  0.65316216  1
  O  O6  1  0.91798807  0.58635472  0.74325474  1
  As  As7  1  0.69701562  0.46891603  0.41234299  1
  As  As8  1  0.02586536  0.10797454  0.44384521  1
  As  As9  1  0.89958522  0.22510158  0.51145512  1
  As  As10  1  0.53292198  0.14557475  0.22142943  1
  As  As11  1  0.37888299  0.43717977  0.12989286  1
  As  As12  1  0.78042842  0.06031675  0.39402944  1
  Li  Li13  1  0.07108766  0.80676848  0.16574465  1
  Li  Li14  1  0.31983844  0.45347513  0.81952483  1
  Cu  Cu15  1  0.60206081  0.94562934  0.80684436  1
  Cu  Cu16  1  0.19799382  0.89737202  0.70580104  1
