# generated using pymatgen
data_Li3Ti(I2O)2
_symmetry_space_group_name_H-M   'P 1'
_cell_length_a   7.88284177
_cell_length_b   7.67795970
_cell_length_c   7.24391539
_cell_angle_alpha   92.12938703
_cell_angle_beta   92.44327700
_cell_angle_gamma   91.92288939
_symmetry_Int_Tables_number   1
_chemical_formula_structural   Li3Ti(I2O)2
_chemical_formula_sum   'Li3 Ti1 I4 O2'
_cell_volume   437.45952663
_cell_formula_units_Z   1
loop_
 _symmetry_equiv_pos_site_id
 _symmetry_equiv_pos_as_xyz
  1  'x, y, z'
loop_
 _atom_site_type_symbol
 _atom_site_label
 _atom_site_symmetry_multiplicity
 _atom_site_fract_x
 _atom_site_fract_y
 _atom_site_fract_z
 _atom_site_occupancy
  I  I0  1  0.12500000  0.00000000  0.25000000  1
  I  I1  1  0.00000000  0.00000000  0.00000000  1
  I  I2  1  0.37500000  0.00000000  0.25000000  1
  I  I3  1  0.25000000  0.25000000  0.25000000  1
  Li  Li4  1  0.00000000  0.25000000  0.12500000  1
  Li  Li5  1  0.84956374  0.91438008  0.29411033  1
  Li  Li6  1  0.80625412  0.50587444  0.71943315  1
  Ti  Ti7  1  0.22595142  0.56852305  0.07651437  1
  O  O8  1  0.07273308  0.34230384  0.76360655  1
  O  O9  1  0.91258813  0.71468390  0.52041361  1
