# generated using pymatgen
data_LiCuAs3P2F
_symmetry_space_group_name_H-M   'P 1'
_cell_length_a   7.12686606
_cell_length_b   6.94609479
_cell_length_c   7.47549939
_cell_angle_alpha   91.43240357
_cell_angle_beta   92.57101252
_cell_angle_gamma   91.15040658
_symmetry_Int_Tables_number   1
_chemical_formula_structural   LiCuAs3P2F
_chemical_formula_sum   'Li2 Cu2 As6 P4 F2'
_cell_volume   369.49497455
_cell_formula_units_Z   2
loop_
 _symmetry_equiv_pos_site_id
 _symmetry_equiv_pos_as_xyz
  1  'x, y, z'
loop_
 _atom_site_type_symbol
 _atom_site_label
 _atom_site_symmetry_multiplicity
 _atom_site_fract_x
 _atom_site_fract_y
 _atom_site_fract_z
 _atom_site_occupancy
  P  P0  1  0.00000000  0.00000000  0.00000000  1
  P  P1  1  0.50000000  0.50000000  0.50000000  1
  P  P2  1  0.25000000  0.25000000  0.25000000  1
  P  P3  1  0.75000000  0.25000000  0.00000000  1
  Li  Li4  1  0.25000000  0.75000000  0.50000000  1
  Li  Li5  1  0.36789538  0.55602366  0.85679788  1
  Cu  Cu6  1  0.07786579  0.10285864  0.95298977  1
  Cu  Cu7  1  0.16922618  0.74204444  0.61795462  1
  F  F8  1  0.50933553  0.38570541  0.76942320  1
  F  F9  1  0.64165212  0.64489856  0.51854000  1
  As  As10  1  0.57101411  0.75153318  0.46496225  1
  As  As11  1  0.94194854  0.35295758  0.63395347  1
  As  As12  1  0.41731373  0.89993956  0.07160144  1
  As  As13  1  0.56459803  0.58335831  0.13476927  1
  As  As14  1  0.79260849  0.61420953  0.79803656  1
  As  As15  1  0.88574012  0.89318184  0.75332510  1
