# generated using pymatgen
data_LiCuNiAs3
_symmetry_space_group_name_H-M   'P 1'
_cell_length_a   7.59120944
_cell_length_b   7.47254586
_cell_length_c   8.47833815
_cell_angle_alpha   91.20642352
_cell_angle_beta   91.81885875
_cell_angle_gamma   91.38838334
_symmetry_Int_Tables_number   1
_chemical_formula_structural   LiCuNiAs3
_chemical_formula_sum   'Li2 Cu2 Ni2 As6'
_cell_volume   480.44126613
_cell_formula_units_Z   2
loop_
 _symmetry_equiv_pos_site_id
 _symmetry_equiv_pos_as_xyz
  1  'x, y, z'
loop_
 _atom_site_type_symbol
 _atom_site_label
 _atom_site_symmetry_multiplicity
 _atom_site_fract_x
 _atom_site_fract_y
 _atom_site_fract_z
 _atom_site_occupancy
  Li  Li0  1  0.12500000  0.12500000  0.12500000  1
  Li  Li1  1  0.50000000  0.50000000  0.50000000  1
  Cu  Cu2  1  0.25000000  0.25000000  0.25000000  1
  Cu  Cu3  1  0.75000000  0.75000000  0.75000000  1
  Ni  Ni4  1  0.71654264  0.62971695  0.16929845  1
  Ni  Ni5  1  0.13550507  0.95284743  0.81547811  1
  As  As6  1  0.00834286  0.85180648  0.44969644  1
  As  As7  1  0.24884249  0.18599782  0.17277651  1
  As  As8  1  0.05840883  0.09596731  0.07059103  1
  As  As9  1  0.61577846  0.30596093  0.03862313  1
  As  As10  1  0.62103416  0.77453387  0.04700479  1
  As  As11  1  0.24737270  0.79689376  0.61618217  1
