# generated using pymatgen
data_Li2LuTiN5F3
_symmetry_space_group_name_H-M   'P 1'
_cell_length_a   8.17787616
_cell_length_b   8.02137526
_cell_length_c   7.66376834
_cell_angle_alpha   90.76253619
_cell_angle_beta   91.16970544
_cell_angle_gamma   90.83412995
_symmetry_Int_Tables_number   1
_chemical_formula_structural   Li2LuTiN5F3
_chemical_formula_sum   'Li2 Lu1 Ti1 N5 F3'
_cell_volume   502.52187653
_cell_formula_units_Z   1
loop_
 _symmetry_equiv_pos_site_id
 _symmetry_equiv_pos_as_xyz
  1  'x, y, z'
loop_
 _atom_site_type_symbol
 _atom_site_label
 _atom_site_symmetry_multiplicity
 _atom_site_fract_x
 _atom_site_fract_y
 _atom_site_fract_z
 _atom_site_occupancy
  Lu  Lu0  1  0.00000000  0.00000000  0.00000000  1
  Li  Li1  1  0.50000000  0.50000000  0.50000000  1
  Li  Li2  1  0.25000000  0.25000000  0.25000000  1
  F  F3  1  0.75000000  0.25000000  0.00000000  1
  F  F4  1  0.25000000  0.75000000  0.50000000  1
  F  F5  1  0.23931119  0.53276222  0.69588228  1
  Ti  Ti6  1  0.38475279  0.68916610  0.50918025  1
  N  N7  1  0.16751977  0.93532075  0.00968442  1
  N  N8  1  0.27656641  0.67338883  0.69480820  1
  N  N9  1  0.52894981  0.76266082  0.32583809  1
  N  N10  1  0.07489348  0.94770442  0.90889698  1
  N  N11  1  0.72694923  0.01123288  0.61043946  1
