# generated using pymatgen
data_Li2TiCu2O3
_symmetry_space_group_name_H-M   'P 1'
_cell_length_a   7.23456925
_cell_length_b   7.16950862
_cell_length_c   7.51357556
_cell_angle_alpha   94.14298443
_cell_angle_beta   96.05437021
_cell_angle_gamma   93.92779618
_symmetry_Int_Tables_number   1
_chemical_formula_structural   Li2TiCu2O3
_chemical_formula_sum   'Li2 Ti1 Cu2 O3'
_cell_volume   385.38997723
_cell_formula_units_Z   1
loop_
 _symmetry_equiv_pos_site_id
 _symmetry_equiv_pos_as_xyz
  1  'x, y, z'
loop_
 _atom_site_type_symbol
 _atom_site_label
 _atom_site_symmetry_multiplicity
 _atom_site_fract_x
 _atom_site_fract_y
 _atom_site_fract_z
 _atom_site_occupancy
  Li  Li0  1  0.00000000  0.00000000  0.00000000  1
  Li  Li1  1  0.33300000  0.66700000  0.25000000  1
  Ti  Ti2  1  0.66700000  0.33300000  0.50000000  1
  O  O3  1  0.00000000  0.00000000  0.75000000  1
  O  O4  1  0.02915714  0.03823772  0.71562511  1
  O  O5  1  0.46830893  0.46487813  0.53397318  1
  Cu  Cu6  1  0.64282914  0.51295288  0.37770899  1
  Cu  Cu7  1  0.40312286  0.22532315  0.60291629  1
