# generated using pymatgen
data_Li2Mn2Sb4P3
_symmetry_space_group_name_H-M   'P 1'
_cell_length_a   5.85311693
_cell_length_b   6.31461932
_cell_length_c   7.01545484
_cell_angle_alpha   95.95315365
_cell_angle_beta   93.40985099
_cell_angle_gamma   96.26819657
_symmetry_Int_Tables_number   1
_chemical_formula_structural   Li2Mn2Sb4P3
_chemical_formula_sum   'Li2 Mn2 Sb4 P3'
_cell_volume   255.69432269
_cell_formula_units_Z   1
loop_
 _symmetry_equiv_pos_site_id
 _symmetry_equiv_pos_as_xyz
  1  'x, y, z'
loop_
 _atom_site_type_symbol
 _atom_site_label
 _atom_site_symmetry_multiplicity
 _atom_site_fract_x
 _atom_site_fract_y
 _atom_site_fract_z
 _atom_site_occupancy
  Mn  Mn0  1  0.00000000  0.00000000  0.00000000  1
  Mn  Mn1  1  0.50000000  0.50000000  0.50000000  1
  Sb  Sb2  1  0.50000000  0.50000000  0.00000000  1
  Sb  Sb3  1  0.50000000  0.00000000  0.50000000  1
  Sb  Sb4  1  0.00000000  0.50000000  0.50000000  1
  Sb  Sb5  1  0.62042572  0.75703044  0.74115947  1
  P  P6  1  0.73417337  0.12361685  0.85027507  1
  P  P7  1  0.16107657  0.57191906  0.18003883  1
  P  P8  1  0.78674606  0.01309838  0.43256590  1
  Li  Li9  1  0.57286951  0.59327331  0.31779003  1
  Li  Li10  1  0.20828732  0.82277473  0.63327779  1
