# generated using pymatgen
data_Li2TiP5F2
_symmetry_space_group_name_H-M   'P 1'
_cell_length_a   6.39888634
_cell_length_b   6.08535568
_cell_length_c   7.08491420
_cell_angle_alpha   96.67372646
_cell_angle_beta   99.36141188
_cell_angle_gamma   96.27998323
_symmetry_Int_Tables_number   1
_chemical_formula_structural   Li2TiP5F2
_chemical_formula_sum   'Li2 Ti1 P5 F2'
_cell_volume   268.03764205
_cell_formula_units_Z   1
loop_
 _symmetry_equiv_pos_site_id
 _symmetry_equiv_pos_as_xyz
  1  'x, y, z'
loop_
 _atom_site_type_symbol
 _atom_site_label
 _atom_site_symmetry_multiplicity
 _atom_site_fract_x
 _atom_site_fract_y
 _atom_site_fract_z
 _atom_site_occupancy
  P  P0  1  0.12500000  0.12500000  0.12500000  1
  P  P1  1  0.50000000  0.50000000  0.50000000  1
  P  P2  1  0.25000000  0.25000000  0.25000000  1
  P  P3  1  0.75000000  0.75000000  0.75000000  1
  P  P4  1  0.24842636  0.22052498  0.23937312  1
  Li  Li5  1  0.55226539  0.29167282  0.68672903  1
  Li  Li6  1  0.54971670  0.50126767  0.10475031  1
  F  F7  1  0.42857189  0.86571127  0.48402369  1
  F  F8  1  0.08002440  0.23759091  0.47229799  1
  Ti  Ti9  1  0.43162827  0.96707249  0.43887190  1
