# generated using pymatgen
data_Li2Cu2As6P4F3
_symmetry_space_group_name_H-M   'P 1'
_cell_length_a   7.32000177
_cell_length_b   7.34865961
_cell_length_c   8.27866404
_cell_angle_alpha   92.28587115
_cell_angle_beta   94.25487375
_cell_angle_gamma   92.23494133
_symmetry_Int_Tables_number   1
_chemical_formula_structural   Li2Cu2As6P4F3
_chemical_formula_sum   'Li2 Cu2 As6 P4 F3'
_cell_volume   443.35326280
_cell_formula_units_Z   1
loop_
 _symmetry_equiv_pos_site_id
 _symmetry_equiv_pos_as_xyz
  1  'x, y, z'
loop_
 _atom_site_type_symbol
 _atom_site_label
 _atom_site_symmetry_multiplicity
 _atom_site_fract_x
 _atom_site_fract_y
 _atom_site_fract_z
 _atom_site_occupancy
  F  F0  1  0.00000000  0.00000000  0.00000000  1
  F  F1  1  0.50000000  0.50000000  0.50000000  1
  F  F2  1  0.50000000  0.50000000  0.00000000  1
  P  P3  1  0.50000000  0.00000000  0.50000000  1
  P  P4  1  0.00000000  0.50000000  0.50000000  1
  P  P5  1  0.00533359  0.15127361  0.18736236  1
  P  P6  1  0.72204361  0.52373506  0.98569386  1
  As  As7  1  0.98258120  0.32156588  0.27221781  1
  As  As8  1  0.08262662  0.75630800  0.28928750  1
  As  As9  1  0.17066202  0.78904984  0.83145143  1
  As  As10  1  0.56664893  0.30203788  0.10891357  1
  As  As11  1  0.28929342  0.71417247  0.32762039  1
  As  As12  1  0.50808687  0.39256531  0.57945403  1
  Li  Li13  1  0.04638061  0.40565505  0.57839408  1
  Li  Li14  1  0.18717198  0.63981019  0.69495757  1
  Cu  Cu15  1  0.07652061  0.92881400  0.35971143  1
  Cu  Cu16  1  0.45383910  0.38875296  0.40154884  1
