# generated using pymatgen
data_Li2LuTiI4
_symmetry_space_group_name_H-M   'P 1'
_cell_length_a   7.02843417
_cell_length_b   6.91572080
_cell_length_c   7.28363631
_cell_angle_alpha   96.08178960
_cell_angle_beta   97.89971930
_cell_angle_gamma   95.75305638
_symmetry_Int_Tables_number   1
_chemical_formula_structural   Li2LuTiI4
_chemical_formula_sum   'Li2 Lu1 Ti1 I4'
_cell_volume   346.32320290
_cell_formula_units_Z   1
loop_
 _symmetry_equiv_pos_site_id
 _symmetry_equiv_pos_as_xyz
  1  'x, y, z'
loop_
 _atom_site_type_symbol
 _atom_site_label
 _atom_site_symmetry_multiplicity
 _atom_site_fract_x
 _atom_site_fract_y
 _atom_site_fract_z
 _atom_site_occupancy
  Ti  Ti0  1  0.12500000  0.12500000  0.12500000  1
  Lu  Lu1  1  0.50000000  0.50000000  0.50000000  1
  I  I2  1  0.25000000  0.25000000  0.25000000  1
  I  I3  1  0.75000000  0.75000000  0.75000000  1
  I  I4  1  0.55546284  0.86349363  0.44993445  1
  I  I5  1  0.89489774  0.01451662  0.81848962  1
  Li  Li6  1  0.68446072  0.97373705  0.26478377  1
  Li  Li7  1  0.72072722  0.13460335  0.48779795  1
