# generated using pymatgen
data_Li2LuTi(PO)4
_symmetry_space_group_name_H-M   'P 1'
_cell_length_a   7.54539022
_cell_length_b   7.58948537
_cell_length_c   7.83253551
_cell_angle_alpha   93.11575610
_cell_angle_beta   94.30039621
_cell_angle_gamma   93.00570180
_symmetry_Int_Tables_number   1
_chemical_formula_structural   Li2LuTi(PO)4
_chemical_formula_sum   'Li2 Lu1 Ti1 P4 O4'
_cell_volume   445.89123211
_cell_formula_units_Z   1
loop_
 _symmetry_equiv_pos_site_id
 _symmetry_equiv_pos_as_xyz
  1  'x, y, z'
loop_
 _atom_site_type_symbol
 _atom_site_label
 _atom_site_symmetry_multiplicity
 _atom_site_fract_x
 _atom_site_fract_y
 _atom_site_fract_z
 _atom_site_occupancy
  O  O0  1  0.00000000  0.00000000  0.00000000  1
  O  O1  1  0.50000000  0.50000000  0.50000000  1
  O  O2  1  0.25000000  0.25000000  0.25000000  1
  O  O3  1  0.75000000  0.25000000  0.00000000  1
  P  P4  1  0.25000000  0.75000000  0.50000000  1
  P  P5  1  0.88145823  0.71722599  0.52765436  1
  P  P6  1  0.64351812  0.29572382  0.96054703  1
  P  P7  1  0.57460704  0.16346737  0.75362356  1
  Ti  Ti8  1  0.16759812  0.30254960  0.08083093  1
  Lu  Lu9  1  0.37605173  0.45387585  0.42211528  1
  Li  Li10  1  0.77937503  0.15308387  0.16007904  1
  Li  Li11  1  0.01384652  0.43046187  0.74473102  1
