# generated using pymatgen
data_LiNiO2F3
_symmetry_space_group_name_H-M   'P 1'
_cell_length_a   8.16768465
_cell_length_b   7.91090771
_cell_length_c   8.64144975
_cell_angle_alpha   90.00000000
_cell_angle_beta   90.00000000
_cell_angle_gamma   90.00000000
_symmetry_Int_Tables_number   1
_chemical_formula_structural   LiNiO2F3
_chemical_formula_sum   'Li2 Ni2 O4 F6'
_cell_volume   558.35690148
_cell_formula_units_Z   2
loop_
 _symmetry_equiv_pos_site_id
 _symmetry_equiv_pos_as_xyz
  1  'x, y, z'
loop_
 _atom_site_type_symbol
 _atom_site_label
 _atom_site_symmetry_multiplicity
 _atom_site_fract_x
 _atom_site_fract_y
 _atom_site_fract_z
 _atom_site_occupancy
  Li  Li0  1  0.00000000  0.00000000  0.00000000  1
  Li  Li1  1  0.33300000  0.66700000  0.25000000  1
  F  F2  1  0.66700000  0.33300000  0.50000000  1
  F  F3  1  0.00000000  0.00000000  0.75000000  1
  F  F4  1  0.63470386  0.32944694  0.68994916  1
  F  F5  1  0.67198661  0.71263092  0.93098265  1
  F  F6  1  0.37875472  0.82236688  0.13762741  1
  F  F7  1  0.97461230  0.77128098  0.61506930  1
  Ni  Ni8  1  0.47146869  0.74566690  0.01142772  1
  Ni  Ni9  1  0.26013119  0.55931339  0.54922119  1
  O  O10  1  0.17919837  0.72110811  0.04003776  1
  O  O11  1  0.29804120  0.65906840  0.81584282  1
  O  O12  1  0.89070522  0.94223815  0.79831647  1
  O  O13  1  0.52356145  0.29888980  0.41368549  1
