# generated using pymatgen
data_LiMn2Sb4P3
_symmetry_space_group_name_H-M   'P 1'
_cell_length_a   4.96502074
_cell_length_b   5.22320016
_cell_length_c   6.19861888
_cell_angle_alpha   98.87608187
_cell_angle_beta   91.70187860
_cell_angle_gamma   99.02328061
_symmetry_Int_Tables_number   1
_chemical_formula_structural   LiMn2Sb4P3
_chemical_formula_sum   'Li1 Mn2 Sb4 P3'
_cell_volume   156.62055225
_cell_formula_units_Z   1
loop_
 _symmetry_equiv_pos_site_id
 _symmetry_equiv_pos_as_xyz
  1  'x, y, z'
loop_
 _atom_site_type_symbol
 _atom_site_label
 _atom_site_symmetry_multiplicity
 _atom_site_fract_x
 _atom_site_fract_y
 _atom_site_fract_z
 _atom_site_occupancy
  Mn  Mn0  1  0.12500000  0.12500000  0.12500000  1
  Mn  Mn1  1  0.50000000  0.50000000  0.50000000  1
  Sb  Sb2  1  0.25000000  0.25000000  0.25000000  1
  Sb  Sb3  1  0.75000000  0.75000000  0.75000000  1
  Sb  Sb4  1  0.42388631  0.71944528  0.23547240  1
  Sb  Sb5  1  0.52970765  0.98022793  0.79032548  1
  P  P6  1  0.21341864  0.25165247  0.62482663  1
  P  P7  1  0.50480996  0.07711536  0.13953349  1
  P  P8  1  0.86628339  0.87017129  0.37498237  1
  Li  Li9  1  0.24266936  0.92523243  0.76408186  1
