# generated using pymatgen
data_Li2Ni2I4F3
_symmetry_space_group_name_H-M   'P 1'
_cell_length_a   7.82026631
_cell_length_b   7.63005614
_cell_length_c   7.71641564
_cell_angle_alpha   90.91652524
_cell_angle_beta   91.48757334
_cell_angle_gamma   91.05866959
_symmetry_Int_Tables_number   1
_chemical_formula_structural   Li2Ni2I4F3
_chemical_formula_sum   'Li2 Ni2 I4 F3'
_cell_volume   460.13508304
_cell_formula_units_Z   1
loop_
 _symmetry_equiv_pos_site_id
 _symmetry_equiv_pos_as_xyz
  1  'x, y, z'
loop_
 _atom_site_type_symbol
 _atom_site_label
 _atom_site_symmetry_multiplicity
 _atom_site_fract_x
 _atom_site_fract_y
 _atom_site_fract_z
 _atom_site_occupancy
  I  I0  1  0.00000000  0.00000000  0.00000000  1
  I  I1  1  0.33300000  0.66700000  0.25000000  1
  I  I2  1  0.66700000  0.33300000  0.50000000  1
  I  I3  1  0.00000000  0.00000000  0.75000000  1
  Li  Li4  1  0.94171514  0.23469626  0.96696173  1
  Li  Li5  1  0.85833001  0.61730819  0.57717688  1
  F  F6  1  0.50402382  0.48649367  0.32528860  1
  F  F7  1  0.33033237  0.25071777  0.69127749  1
  F  F8  1  0.72189247  0.44852445  0.58581461  1
  Ni  Ni9  1  0.16202910  0.65254925  0.87309185  1
  Ni  Ni10  1  0.69037741  0.39639151  0.43741972  1
