# generated using pymatgen
data_Li2MnSb4P3
_symmetry_space_group_name_H-M   'P 1'
_cell_length_a   4.85729418
_cell_length_b   5.16503787
_cell_length_c   6.52477879
_cell_angle_alpha   100.50406344
_cell_angle_beta   93.84202379
_cell_angle_gamma   100.75711329
_symmetry_Int_Tables_number   1
_chemical_formula_structural   Li2MnSb4P3
_chemical_formula_sum   'Li2 Mn1 Sb4 P3'
_cell_volume   157.25553417
_cell_formula_units_Z   1
loop_
 _symmetry_equiv_pos_site_id
 _symmetry_equiv_pos_as_xyz
  1  'x, y, z'
loop_
 _atom_site_type_symbol
 _atom_site_label
 _atom_site_symmetry_multiplicity
 _atom_site_fract_x
 _atom_site_fract_y
 _atom_site_fract_z
 _atom_site_occupancy
  Mn  Mn0  1  0.00000000  0.00000000  0.00000000  1
  Sb  Sb1  1  0.50000000  0.50000000  0.50000000  1
  Sb  Sb2  1  0.50000000  0.50000000  0.00000000  1
  Sb  Sb3  1  0.50000000  0.00000000  0.50000000  1
  Sb  Sb4  1  0.00000000  0.50000000  0.50000000  1
  P  P5  1  0.21894430  0.56258629  0.60916194  1
  P  P6  1  0.81727143  0.96957383  0.66776649  1
  P  P7  1  0.66656427  0.40504060  0.96905299  1
  Li  Li8  1  0.87889877  0.12084710  0.33037728  1
  Li  Li9  1  0.49869959  0.32810996  0.23757007  1
