# generated using pymatgen
data_Li2Ti(IO)4
_symmetry_space_group_name_H-M   'P 1'
_cell_length_a   7.89649174
_cell_length_b   7.86058877
_cell_length_c   7.57095844
_cell_angle_alpha   92.96263150
_cell_angle_beta   93.68427381
_cell_angle_gamma   92.83658268
_symmetry_Int_Tables_number   1
_chemical_formula_structural   Li2Ti(IO)4
_chemical_formula_sum   'Li2 Ti1 I4 O4'
_cell_volume   467.68153867
_cell_formula_units_Z   1
loop_
 _symmetry_equiv_pos_site_id
 _symmetry_equiv_pos_as_xyz
  1  'x, y, z'
loop_
 _atom_site_type_symbol
 _atom_site_label
 _atom_site_symmetry_multiplicity
 _atom_site_fract_x
 _atom_site_fract_y
 _atom_site_fract_z
 _atom_site_occupancy
  O  O0  1  0.00000000  0.00000000  0.00000000  1
  O  O1  1  0.50000000  0.50000000  0.50000000  1
  O  O2  1  0.25000000  0.25000000  0.25000000  1
  O  O3  1  0.75000000  0.25000000  0.00000000  1
  Ti  Ti4  1  0.25000000  0.75000000  0.50000000  1
  I  I5  1  0.90873899  0.14918419  0.21799365  1
  I  I6  1  0.63762913  0.08754719  0.30321462  1
  I  I7  1  0.42412982  0.51996757  0.52669883  1
  I  I8  1  0.61966692  0.27923731  0.61412939  1
  Li  Li9  1  0.47098348  0.82325770  0.95095209  1
  Li  Li10  1  0.18911376  0.70489957  0.76153239  1
