# generated using pymatgen
data_Li2Cu2As6(OF)3
_symmetry_space_group_name_H-M   'P 1'
_cell_length_a   7.80368521
_cell_length_b   7.72060961
_cell_length_c   7.94845161
_cell_angle_alpha   90.37571071
_cell_angle_beta   92.00235696
_cell_angle_gamma   90.42224263
_symmetry_Int_Tables_number   1
_chemical_formula_structural   Li2Cu2As6(OF)3
_chemical_formula_sum   'Li2 Cu2 As6 O3 F3'
_cell_volume   478.57136999
_cell_formula_units_Z   1
loop_
 _symmetry_equiv_pos_site_id
 _symmetry_equiv_pos_as_xyz
  1  'x, y, z'
loop_
 _atom_site_type_symbol
 _atom_site_label
 _atom_site_symmetry_multiplicity
 _atom_site_fract_x
 _atom_site_fract_y
 _atom_site_fract_z
 _atom_site_occupancy
  Li  Li0  1  0.12500000  0.00000000  0.25000000  1
  Li  Li1  1  0.00000000  0.00000000  0.00000000  1
  Cu  Cu2  1  0.37500000  0.00000000  0.25000000  1
  Cu  Cu3  1  0.25000000  0.25000000  0.25000000  1
  F  F4  1  0.00000000  0.25000000  0.12500000  1
  F  F5  1  0.35404158  0.31401360  0.52264271  1
  F  F6  1  0.80501636  0.34886302  0.17969919  1
  As  As7  1  0.69470579  0.41385337  0.66271147  1
  As  As8  1  0.36197603  0.23480761  0.79296401  1
  As  As9  1  0.24105825  0.22618773  0.45532853  1
  As  As10  1  0.55276602  0.20261442  0.86245192  1
  As  As11  1  0.50035839  0.26844397  0.01470293  1
  As  As12  1  0.31377665  0.12893186  0.40268201  1
  O  O13  1  0.64293239  0.40112020  0.73752303  1
  O  O14  1  0.56476287  0.40506798  0.89512629  1
  O  O15  1  0.44774780  0.14393779  0.12854071  1
