# generated using pymatgen
data_Li2P3I4O2F3
_symmetry_space_group_name_H-M   'P 1'
_cell_length_a   6.21162745
_cell_length_b   5.79489070
_cell_length_c   6.94930029
_cell_angle_alpha   95.31920620
_cell_angle_beta   96.72891372
_cell_angle_gamma   94.84500584
_symmetry_Int_Tables_number   1
_chemical_formula_structural   Li2P3I4O2F3
_chemical_formula_sum   'Li2 P3 I4 O2 F3'
_cell_volume   246.20009206
_cell_formula_units_Z   1
loop_
 _symmetry_equiv_pos_site_id
 _symmetry_equiv_pos_as_xyz
  1  'x, y, z'
loop_
 _atom_site_type_symbol
 _atom_site_label
 _atom_site_symmetry_multiplicity
 _atom_site_fract_x
 _atom_site_fract_y
 _atom_site_fract_z
 _atom_site_occupancy
  I  I0  1  0.00000000  0.00000000  0.00000000  1
  I  I1  1  0.50000000  0.50000000  0.50000000  1
  I  I2  1  0.25000000  0.25000000  0.25000000  1
  I  I3  1  0.75000000  0.25000000  0.00000000  1
  P  P4  1  0.25000000  0.75000000  0.50000000  1
  P  P5  1  0.93645234  0.14764358  0.37241310  1
  P  P6  1  0.36795939  0.56162304  0.96255513  1
  Li  Li7  1  0.02031806  0.61601376  0.06036318  1
  Li  Li8  1  0.52040875  0.63608899  0.48632210  1
  F  F9  1  0.55142214  0.68954999  0.85116213  1
  F  F10  1  0.43283125  0.47066135  0.74947405  1
  F  F11  1  0.00357818  0.39861943  0.09841341  1
  O  O12  1  0.47027370  0.61326491  0.74222542  1
  O  O13  1  0.98969918  0.03074392  0.10850358  1
