# generated using pymatgen
data_Li2LuP4N5
_symmetry_space_group_name_H-M   'P 1'
_cell_length_a   7.19175523
_cell_length_b   7.07913646
_cell_length_c   8.18389871
_cell_angle_alpha   94.42774273
_cell_angle_beta   94.61170640
_cell_angle_gamma   94.48164541
_symmetry_Int_Tables_number   1
_chemical_formula_structural   Li2LuP4N5
_chemical_formula_sum   'Li2 Lu1 P4 N5'
_cell_volume   412.57138240
_cell_formula_units_Z   1
loop_
 _symmetry_equiv_pos_site_id
 _symmetry_equiv_pos_as_xyz
  1  'x, y, z'
loop_
 _atom_site_type_symbol
 _atom_site_label
 _atom_site_symmetry_multiplicity
 _atom_site_fract_x
 _atom_site_fract_y
 _atom_site_fract_z
 _atom_site_occupancy
  P  P0  1  0.12500000  0.12500000  0.12500000  1
  P  P1  1  0.50000000  0.50000000  0.50000000  1
  P  P2  1  0.25000000  0.25000000  0.25000000  1
  P  P3  1  0.75000000  0.75000000  0.75000000  1
  Lu  Lu4  1  0.52295067  0.94705918  0.73927091  1
  Li  Li5  1  0.41928347  0.30010719  0.33343316  1
  Li  Li6  1  0.51018788  0.72885834  0.71971029  1
  N  N7  1  0.89007107  0.38056899  0.84328725  1
  N  N8  1  0.74735765  0.17992158  0.67117507  1
  N  N9  1  0.36529646  0.03490516  0.93104324  1
  N  N10  1  0.01923273  0.25633082  0.15086639  1
  N  N11  1  0.36539423  0.45478592  0.33853566  1
