# generated using pymatgen
data_Li2LuCu2P5I4
_symmetry_space_group_name_H-M   'P 1'
_cell_length_a   7.66165380
_cell_length_b   7.46500469
_cell_length_c   8.09539030
_cell_angle_alpha   92.42299880
_cell_angle_beta   92.26103192
_cell_angle_gamma   92.60212361
_symmetry_Int_Tables_number   1
_chemical_formula_structural   Li2LuCu2P5I4
_chemical_formula_sum   'Li2 Lu1 Cu2 P5 I4'
_cell_volume   461.72190505
_cell_formula_units_Z   1
loop_
 _symmetry_equiv_pos_site_id
 _symmetry_equiv_pos_as_xyz
  1  'x, y, z'
loop_
 _atom_site_type_symbol
 _atom_site_label
 _atom_site_symmetry_multiplicity
 _atom_site_fract_x
 _atom_site_fract_y
 _atom_site_fract_z
 _atom_site_occupancy
  I  I0  1  0.00000000  0.00000000  0.00000000  1
  I  I1  1  0.50000000  0.50000000  0.50000000  1
  I  I2  1  0.50000000  0.50000000  0.00000000  1
  I  I3  1  0.50000000  0.00000000  0.50000000  1
  P  P4  1  0.00000000  0.50000000  0.50000000  1
  P  P5  1  0.61216236  0.53099226  0.26346185  1
  P  P6  1  0.33381389  0.21775584  0.83610982  1
  P  P7  1  0.15638223  0.55773901  0.06180750  1
  P  P8  1  0.15463483  0.31508771  0.36808749  1
  Lu  Lu9  1  0.88452242  0.89982956  0.32286595  1
  Li  Li10  1  0.36384403  0.77223872  0.26880803  1
  Li  Li11  1  0.09211971  0.61912579  0.91277183  1
  Cu  Cu12  1  0.87271894  0.19109021  0.87855873  1
  Cu  Cu13  1  0.88583441  0.71105583  0.04735210  1
