# generated using pymatgen
data_LiCuNiAs3P2
_symmetry_space_group_name_H-M   'P 1'
_cell_length_a   7.16728588
_cell_length_b   6.97861138
_cell_length_c   7.69345740
_cell_angle_alpha   91.58115254
_cell_angle_beta   92.35675995
_cell_angle_gamma   91.39353086
_symmetry_Int_Tables_number   1
_chemical_formula_structural   LiCuNiAs3P2
_chemical_formula_sum   'Li2 Cu2 Ni2 As6 P4'
_cell_volume   384.21234789
_cell_formula_units_Z   2
loop_
 _symmetry_equiv_pos_site_id
 _symmetry_equiv_pos_as_xyz
  1  'x, y, z'
loop_
 _atom_site_type_symbol
 _atom_site_label
 _atom_site_symmetry_multiplicity
 _atom_site_fract_x
 _atom_site_fract_y
 _atom_site_fract_z
 _atom_site_occupancy
  P  P0  1  0.00000000  0.00000000  0.00000000  1
  P  P1  1  0.50000000  0.50000000  0.50000000  1
  P  P2  1  0.50000000  0.50000000  0.00000000  1
  P  P3  1  0.50000000  0.00000000  0.50000000  1
  Li  Li4  1  0.00000000  0.50000000  0.50000000  1
  Li  Li5  1  0.77163585  0.22789294  0.70076329  1
  Cu  Cu6  1  0.52256571  0.68691459  0.69405896  1
  Cu  Cu7  1  0.33550140  0.55525680  0.86731868  1
  Ni  Ni8  1  0.71561724  0.88641275  0.26981743  1
  Ni  Ni9  1  0.49207700  0.25220621  0.43497753  1
  As  As10  1  0.69573992  0.06558868  0.88601155  1
  As  As11  1  0.00717118  0.83454385  0.68794940  1
  As  As12  1  0.70171822  0.25385433  0.82266708  1
  As  As13  1  0.12201747  0.80274120  0.12279182  1
  As  As14  1  0.28487626  0.70063715  0.69753723  1
  As  As15  1  0.43923862  0.41734296  0.03592298  1
