# generated using pymatgen
data_Li2LuP4
_symmetry_space_group_name_H-M   'P 1'
_cell_length_a   6.98861944
_cell_length_b   6.87330288
_cell_length_c   7.52564660
_cell_angle_alpha   92.99439497
_cell_angle_beta   94.19443330
_cell_angle_gamma   92.71803114
_symmetry_Int_Tables_number   1
_chemical_formula_structural   Li2LuP4
_chemical_formula_sum   'Li2 Lu1 P4'
_cell_volume   359.55636802
_cell_formula_units_Z   1
loop_
 _symmetry_equiv_pos_site_id
 _symmetry_equiv_pos_as_xyz
  1  'x, y, z'
loop_
 _atom_site_type_symbol
 _atom_site_label
 _atom_site_symmetry_multiplicity
 _atom_site_fract_x
 _atom_site_fract_y
 _atom_site_fract_z
 _atom_site_occupancy
  P  P0  1  0.12500000  0.12500000  0.12500000  1
  P  P1  1  0.50000000  0.50000000  0.50000000  1
  P  P2  1  0.25000000  0.25000000  0.25000000  1
  P  P3  1  0.75000000  0.75000000  0.75000000  1
  Lu  Lu4  1  0.76582208  0.80238746  0.52999558  1
  Li  Li5  1  0.13513344  0.40464129  0.11773475  1
  Li  Li6  1  0.94903038  0.44640041  0.43577373  1
