# generated using pymatgen
data_Li3Ti(IO)4
_symmetry_space_group_name_H-M   'P 1'
_cell_length_a   8.85972032
_cell_length_b   8.73973940
_cell_length_c   7.28132216
_cell_angle_alpha   90.00000000
_cell_angle_beta   90.00000000
_cell_angle_gamma   90.00000000
_symmetry_Int_Tables_number   1
_chemical_formula_structural   Li3Ti(IO)4
_chemical_formula_sum   'Li3 Ti1 I4 O4'
_cell_volume   563.80476519
_cell_formula_units_Z   1
loop_
 _symmetry_equiv_pos_site_id
 _symmetry_equiv_pos_as_xyz
  1  'x, y, z'
loop_
 _atom_site_type_symbol
 _atom_site_label
 _atom_site_symmetry_multiplicity
 _atom_site_fract_x
 _atom_site_fract_y
 _atom_site_fract_z
 _atom_site_occupancy
  I  I0  1  0.12500000  0.00000000  0.25000000  1
  I  I1  1  0.00000000  0.00000000  0.00000000  1
  I  I2  1  0.37500000  0.00000000  0.25000000  1
  I  I3  1  0.25000000  0.25000000  0.25000000  1
  Li  Li4  1  0.00000000  0.25000000  0.12500000  1
  Li  Li5  1  0.75612891  0.73942107  0.68261560  1
  Li  Li6  1  0.37444910  0.52853184  0.99846741  1
  Ti  Ti7  1  0.50321941  0.35573316  0.36888169  1
  O  O8  1  0.10158269  0.31489042  0.04422720  1
  O  O9  1  0.13675186  0.75944431  0.78107258  1
  O  O10  1  0.44672974  0.90974678  0.55612139  1
  O  O11  1  0.96635933  0.71924822  0.42480401  1
