# generated using pymatgen
data_Li2Lu(As3P2)2
_symmetry_space_group_name_H-M   'P 1'
_cell_length_a   7.36552695
_cell_length_b   7.24812116
_cell_length_c   7.94041567
_cell_angle_alpha   92.94632483
_cell_angle_beta   93.54725455
_cell_angle_gamma   92.97041389
_symmetry_Int_Tables_number   1
_chemical_formula_structural   Li2Lu(As3P2)2
_chemical_formula_sum   'Li2 Lu1 As6 P4'
_cell_volume   421.89368145
_cell_formula_units_Z   1
loop_
 _symmetry_equiv_pos_site_id
 _symmetry_equiv_pos_as_xyz
  1  'x, y, z'
loop_
 _atom_site_type_symbol
 _atom_site_label
 _atom_site_symmetry_multiplicity
 _atom_site_fract_x
 _atom_site_fract_y
 _atom_site_fract_z
 _atom_site_occupancy
  P  P0  1  0.00000000  0.00000000  0.00000000  1
  P  P1  1  0.50000000  0.50000000  0.50000000  1
  P  P2  1  0.25000000  0.25000000  0.25000000  1
  P  P3  1  0.75000000  0.25000000  0.00000000  1
  Lu  Lu4  1  0.25000000  0.75000000  0.50000000  1
  Li  Li5  1  0.68354810  0.27858718  0.11106359  1
  Li  Li6  1  0.18899138  0.07126802  0.39945824  1
  As  As7  1  0.16903688  0.32405246  0.79972167  1
  As  As8  1  0.66108617  0.13505413  0.97716715  1
  As  As9  1  0.42080737  0.09603865  0.64087451  1
  As  As10  1  0.03231870  0.45979841  0.55855225  1
  As  As11  1  0.49522397  0.96858189  0.69274074  1
  As  As12  1  0.89498422  0.75315533  0.60205891  1
