# generated using pymatgen
data_Li3TiI4O4F3
_symmetry_space_group_name_H-M   'P 1'
_cell_length_a   6.85580761
_cell_length_b   6.63304996
_cell_length_c   7.07084227
_cell_angle_alpha   97.66867036
_cell_angle_beta   99.90327975
_cell_angle_gamma   97.19317186
_symmetry_Int_Tables_number   1
_chemical_formula_structural   Li3TiI4O4F3
_chemical_formula_sum   'Li3 Ti1 I4 O4 F3'
_cell_volume   310.28556280
_cell_formula_units_Z   1
loop_
 _symmetry_equiv_pos_site_id
 _symmetry_equiv_pos_as_xyz
  1  'x, y, z'
loop_
 _atom_site_type_symbol
 _atom_site_label
 _atom_site_symmetry_multiplicity
 _atom_site_fract_x
 _atom_site_fract_y
 _atom_site_fract_z
 _atom_site_occupancy
  I  I0  1  0.12500000  0.00000000  0.25000000  1
  I  I1  1  0.00000000  0.00000000  0.00000000  1
  I  I2  1  0.37500000  0.00000000  0.25000000  1
  I  I3  1  0.25000000  0.25000000  0.25000000  1
  Li  Li4  1  0.00000000  0.25000000  0.12500000  1
  Li  Li5  1  0.68299520  0.10925047  0.90903851  1
  Li  Li6  1  0.97419659  0.44124556  0.67667788  1
  F  F7  1  0.05701465  0.96731524  0.22214312  1
  F  F8  1  0.53052550  0.95181808  0.28092830  1
  F  F9  1  0.01553736  0.93075020  0.05616555  1
  Ti  Ti10  1  0.76109374  0.76556723  0.95353611  1
  O  O11  1  0.97680184  0.20314884  0.64172423  1
  O  O12  1  0.92676113  0.43365551  0.15555588  1
  O  O13  1  0.38143883  0.37971614  0.54980706  1
  O  O14  1  0.15870949  0.91230229  0.31377563  1
