# generated using pymatgen
data_Li3Ti2I4O4F3
_symmetry_space_group_name_H-M   'P 1'
_cell_length_a   5.46887818
_cell_length_b   5.36573065
_cell_length_c   6.87192092
_cell_angle_alpha   96.62202686
_cell_angle_beta   99.21716966
_cell_angle_gamma   96.08758907
_symmetry_Int_Tables_number   1
_chemical_formula_structural   Li3Ti2I4O4F3
_chemical_formula_sum   'Li3 Ti2 I4 O4 F3'
_cell_volume   196.12071659
_cell_formula_units_Z   1
loop_
 _symmetry_equiv_pos_site_id
 _symmetry_equiv_pos_as_xyz
  1  'x, y, z'
loop_
 _atom_site_type_symbol
 _atom_site_label
 _atom_site_symmetry_multiplicity
 _atom_site_fract_x
 _atom_site_fract_y
 _atom_site_fract_z
 _atom_site_occupancy
  I  I0  1  0.00000000  0.00000000  0.00000000  1
  I  I1  1  0.50000000  0.50000000  0.50000000  1
  I  I2  1  0.50000000  0.50000000  0.00000000  1
  I  I3  1  0.50000000  0.00000000  0.50000000  1
  Li  Li4  1  0.00000000  0.50000000  0.50000000  1
  Li  Li5  1  0.30601805  0.99514803  0.57739576  1
  Li  Li6  1  0.35897833  0.27691770  0.53980509  1
  F  F7  1  0.25931645  0.44403923  0.96572197  1
  F  F8  1  0.66151459  0.57812565  0.47286683  1
  F  F9  1  0.78910262  0.98040464  0.94713329  1
  Ti  Ti10  1  0.75785437  0.33210384  0.44723167  1
  Ti  Ti11  1  0.72596559  0.37386040  0.37340174  1
  O  O12  1  0.86454051  0.38543304  0.81788705  1
  O  O13  1  0.64062489  0.53900697  0.13672011  1
  O  O14  1  0.34652965  0.37913476  0.47938783  1
  O  O15  1  0.61542611  0.82628428  0.86032725  1
