# generated using pymatgen
data_Li2LuNi2As6O7
_symmetry_space_group_name_H-M   'P 1'
_cell_length_a   7.55521115
_cell_length_b   7.41876827
_cell_length_c   8.68638905
_cell_angle_alpha   92.51696436
_cell_angle_beta   92.35953481
_cell_angle_gamma   92.67883494
_symmetry_Int_Tables_number   1
_chemical_formula_structural   Li2LuNi2As6O7
_chemical_formula_sum   'Li2 Lu1 Ni2 As6 O7'
_cell_volume   485.41805562
_cell_formula_units_Z   1
loop_
 _symmetry_equiv_pos_site_id
 _symmetry_equiv_pos_as_xyz
  1  'x, y, z'
loop_
 _atom_site_type_symbol
 _atom_site_label
 _atom_site_symmetry_multiplicity
 _atom_site_fract_x
 _atom_site_fract_y
 _atom_site_fract_z
 _atom_site_occupancy
  Ni  Ni0  1  0.00000000  0.00000000  0.00000000  1
  Ni  Ni1  1  0.50000000  0.50000000  0.50000000  1
  O  O2  1  0.25000000  0.25000000  0.25000000  1
  O  O3  1  0.75000000  0.25000000  0.00000000  1
  O  O4  1  0.25000000  0.75000000  0.50000000  1
  O  O5  1  0.86189014  0.26778751  0.14694282  1
  O  O6  1  0.12371232  0.44204558  0.19874672  1
  O  O7  1  0.06212021  0.94547686  0.82487420  1
  O  O8  1  0.43213390  0.61124278  0.07395605  1
  Lu  Lu9  1  0.55487533  0.92231564  0.80522066  1
  As  As10  1  0.64587627  0.45554622  0.28176532  1
  As  As11  1  0.95976616  0.07508231  0.31636471  1
  As  As12  1  0.54095731  0.82164654  0.69619061  1
  As  As13  1  0.38840717  0.76515823  0.67627416  1
  As  As14  1  0.16031792  0.27945399  0.28579137  1
  As  As15  1  0.31191214  0.38988183  0.07169983  1
  Li  Li16  1  0.36874739  0.23630584  0.19048002  1
  Li  Li17  1  0.76565929  0.46622795  0.54753734  1
