# generated using pymatgen
data_Li2Ni2As6P5F2
_symmetry_space_group_name_H-M   'P 1'
_cell_length_a   7.28987450
_cell_length_b   6.98709255
_cell_length_c   8.05282311
_cell_angle_alpha   92.14833963
_cell_angle_beta   93.00673440
_cell_angle_gamma   92.18515806
_symmetry_Int_Tables_number   1
_chemical_formula_structural   Li2Ni2As6P5F2
_chemical_formula_sum   'Li2 Ni2 As6 P5 F2'
_cell_volume   408.98769401
_cell_formula_units_Z   1
loop_
 _symmetry_equiv_pos_site_id
 _symmetry_equiv_pos_as_xyz
  1  'x, y, z'
loop_
 _atom_site_type_symbol
 _atom_site_label
 _atom_site_symmetry_multiplicity
 _atom_site_fract_x
 _atom_site_fract_y
 _atom_site_fract_z
 _atom_site_occupancy
  P  P0  1  0.00000000  0.00000000  0.00000000  1
  P  P1  1  0.50000000  0.50000000  0.50000000  1
  P  P2  1  0.50000000  0.50000000  0.00000000  1
  P  P3  1  0.50000000  0.00000000  0.50000000  1
  P  P4  1  0.00000000  0.50000000  0.50000000  1
  Li  Li5  1  0.79689407  0.25114277  0.61955802  1
  Li  Li6  1  0.29242261  0.81196177  0.58108564  1
  F  F7  1  0.72930532  0.66950832  0.94550378  1
  F  F8  1  0.38027140  0.06990308  0.37534825  1
  Ni  Ni9  1  0.25515914  0.71271470  0.11038341  1
  Ni  Ni10  1  0.51237313  0.33019040  0.34220465  1
  As  As11  1  0.11141068  0.72879769  0.08046402  1
  As  As12  1  0.56235284  0.79515124  0.53464452  1
  As  As13  1  0.53318349  0.26079987  0.27782026  1
  As  As14  1  0.17588872  0.28597944  0.97657975  1
  As  As15  1  0.94053449  0.05946320  0.37224027  1
  As  As16  1  0.64453534  0.78882356  0.12422313  1
