# generated using pymatgen
data_Li2TiP3S2
_symmetry_space_group_name_H-M   'P 1'
_cell_length_a   5.76901962
_cell_length_b   5.64427740
_cell_length_c   6.80963359
_cell_angle_alpha   96.62243308
_cell_angle_beta   99.56115791
_cell_angle_gamma   97.08285950
_symmetry_Int_Tables_number   1
_chemical_formula_structural   Li2TiP3S2
_chemical_formula_sum   'Li2 Ti1 P3 S2'
_cell_volume   214.88649765
_cell_formula_units_Z   1
loop_
 _symmetry_equiv_pos_site_id
 _symmetry_equiv_pos_as_xyz
  1  'x, y, z'
loop_
 _atom_site_type_symbol
 _atom_site_label
 _atom_site_symmetry_multiplicity
 _atom_site_fract_x
 _atom_site_fract_y
 _atom_site_fract_z
 _atom_site_occupancy
  P  P0  1  0.00000000  0.00000000  0.00000000  1
  P  P1  1  0.50000000  0.50000000  0.50000000  1
  P  P2  1  0.50000000  0.50000000  0.00000000  1
  Li  Li3  1  0.50000000  0.00000000  0.50000000  1
  Li  Li4  1  0.00000000  0.50000000  0.50000000  1
  S  S5  1  0.75629585  0.32482729  0.28037289  1
  S  S6  1  0.92927064  0.29531505  0.85012151  1
  Ti  Ti7  1  0.62633804  0.35822947  0.94321985  1
