# generated using pymatgen
data_Li3TiP3Cl2F3
_symmetry_space_group_name_H-M   'P 1'
_cell_length_a   6.30352789
_cell_length_b   6.01674088
_cell_length_c   6.83609188
_cell_angle_alpha   98.14664443
_cell_angle_beta   100.62630961
_cell_angle_gamma   97.62182655
_symmetry_Int_Tables_number   1
_chemical_formula_structural   Li3TiP3Cl2F3
_chemical_formula_sum   'Li3 Ti1 P3 Cl2 F3'
_cell_volume   248.87135166
_cell_formula_units_Z   1
loop_
 _symmetry_equiv_pos_site_id
 _symmetry_equiv_pos_as_xyz
  1  'x, y, z'
loop_
 _atom_site_type_symbol
 _atom_site_label
 _atom_site_symmetry_multiplicity
 _atom_site_fract_x
 _atom_site_fract_y
 _atom_site_fract_z
 _atom_site_occupancy
  P  P0  1  0.12500000  0.00000000  0.25000000  1
  P  P1  1  0.00000000  0.00000000  0.00000000  1
  P  P2  1  0.37500000  0.00000000  0.25000000  1
  Li  Li3  1  0.25000000  0.25000000  0.25000000  1
  Li  Li4  1  0.00000000  0.25000000  0.12500000  1
  Li  Li5  1  0.70718486  0.15664041  0.71244649  1
  F  F6  1  0.65233549  0.47580497  0.29361153  1
  F  F7  1  0.74490518  0.26888398  0.27415640  1
  F  F8  1  0.58780449  0.08651798  0.62423820  1
  Cl  Cl9  1  0.54191406  0.67465801  0.44272881  1
  Cl  Cl10  1  0.25786994  0.49062430  0.82066693  1
  Ti  Ti11  1  0.54281616  0.63530604  0.57935178  1
