# generated using pymatgen
data_Li2Sb4Mo2P3N
_symmetry_space_group_name_H-M   'P 1'
_cell_length_a   4.58686401
_cell_length_b   4.84596781
_cell_length_c   5.80109639
_cell_angle_alpha   99.60759107
_cell_angle_beta   94.86560175
_cell_angle_gamma   98.16156124
_symmetry_Int_Tables_number   1
_chemical_formula_structural   Li2Sb4Mo2P3N
_chemical_formula_sum   'Li2 Sb4 Mo2 P3 N1'
_cell_volume   125.06903931
_cell_formula_units_Z   1
loop_
 _symmetry_equiv_pos_site_id
 _symmetry_equiv_pos_as_xyz
  1  'x, y, z'
loop_
 _atom_site_type_symbol
 _atom_site_label
 _atom_site_symmetry_multiplicity
 _atom_site_fract_x
 _atom_site_fract_y
 _atom_site_fract_z
 _atom_site_occupancy
  N  N0  1  0.00000000  0.00000000  0.00000000  1
  Sb  Sb1  1  0.50000000  0.50000000  0.50000000  1
  Sb  Sb2  1  0.50000000  0.50000000  0.00000000  1
  Sb  Sb3  1  0.50000000  0.00000000  0.50000000  1
  Sb  Sb4  1  0.00000000  0.50000000  0.50000000  1
  P  P5  1  0.92379032  0.32613613  0.72573238  1
  P  P6  1  0.99712645  0.17111757  0.78567242  1
  P  P7  1  0.18924612  0.27247068  0.08159817  1
  Mo  Mo8  1  0.00361617  0.15528088  0.51147583  1
  Mo  Mo9  1  0.73724904  0.26795720  0.97827716  1
  Li  Li10  1  0.90773319  0.30593592  0.36247875  1
  Li  Li11  1  0.72919290  0.71151846  0.74390448  1
