# generated using pymatgen
data_LiCuSO
_symmetry_space_group_name_H-M   'P 1'
_cell_length_a   5.59226275
_cell_length_b   5.38006174
_cell_length_c   6.98648831
_cell_angle_alpha   99.52259966
_cell_angle_beta   103.00588345
_cell_angle_gamma   99.75960402
_symmetry_Int_Tables_number   1
_chemical_formula_structural   LiCuSO
_chemical_formula_sum   'Li2 Cu2 S2 O2'
_cell_volume   197.25555061
_cell_formula_units_Z   2
loop_
 _symmetry_equiv_pos_site_id
 _symmetry_equiv_pos_as_xyz
  1  'x, y, z'
loop_
 _atom_site_type_symbol
 _atom_site_label
 _atom_site_symmetry_multiplicity
 _atom_site_fract_x
 _atom_site_fract_y
 _atom_site_fract_z
 _atom_site_occupancy
  Li  Li0  1  0.00000000  0.00000000  0.00000000  1
  Li  Li1  1  0.50000000  0.50000000  0.50000000  1
  Cu  Cu2  1  0.50000000  0.50000000  0.00000000  1
  Cu  Cu3  1  0.50000000  0.00000000  0.50000000  1
  S  S4  1  0.00000000  0.50000000  0.50000000  1
  S  S5  1  0.94472312  0.16180637  0.32915547  1
  O  O6  1  0.98401039  0.87192439  0.25584823  1
  O  O7  1  0.40690996  0.71807572  0.83638829  1
