# generated using pymatgen
data_Li2TiI4F3
_symmetry_space_group_name_H-M   'P 1'
_cell_length_a   7.53376320
_cell_length_b   7.33507121
_cell_length_c   7.35120475
_cell_angle_alpha   93.75917545
_cell_angle_beta   94.93868217
_cell_angle_gamma   93.62470216
_symmetry_Int_Tables_number   1
_chemical_formula_structural   Li2TiI4F3
_chemical_formula_sum   'Li2 Ti1 I4 F3'
_cell_volume   402.88357665
_cell_formula_units_Z   1
loop_
 _symmetry_equiv_pos_site_id
 _symmetry_equiv_pos_as_xyz
  1  'x, y, z'
loop_
 _atom_site_type_symbol
 _atom_site_label
 _atom_site_symmetry_multiplicity
 _atom_site_fract_x
 _atom_site_fract_y
 _atom_site_fract_z
 _atom_site_occupancy
  I  I0  1  0.12500000  0.00000000  0.25000000  1
  I  I1  1  0.00000000  0.00000000  0.00000000  1
  I  I2  1  0.37500000  0.00000000  0.25000000  1
  I  I3  1  0.25000000  0.25000000  0.25000000  1
  Li  Li4  1  0.00000000  0.25000000  0.12500000  1
  Li  Li5  1  0.08418054  0.13763449  0.46965214  1
  F  F6  1  0.78236352  0.56487515  0.56833865  1
  F  F7  1  0.45218422  0.37460271  0.26425942  1
  F  F8  1  0.50106402  0.64298173  0.94280461  1
  Ti  Ti9  1  0.12714304  0.26211810  0.83359818  1
