# generated using pymatgen
data_Li3Cu2Ni2As6O7
_symmetry_space_group_name_H-M   'P 1'
_cell_length_a   7.67451914
_cell_length_b   7.48138852
_cell_length_c   8.68542944
_cell_angle_alpha   91.67099656
_cell_angle_beta   91.19331272
_cell_angle_gamma   91.93588099
_symmetry_Int_Tables_number   1
_chemical_formula_structural   Li3Cu2Ni2As6O7
_chemical_formula_sum   'Li3 Cu2 Ni2 As6 O7'
_cell_volume   498.06782175
_cell_formula_units_Z   1
loop_
 _symmetry_equiv_pos_site_id
 _symmetry_equiv_pos_as_xyz
  1  'x, y, z'
loop_
 _atom_site_type_symbol
 _atom_site_label
 _atom_site_symmetry_multiplicity
 _atom_site_fract_x
 _atom_site_fract_y
 _atom_site_fract_z
 _atom_site_occupancy
  Li  Li0  1  0.12500000  0.00000000  0.25000000  1
  Li  Li1  1  0.00000000  0.00000000  0.00000000  1
  Li  Li2  1  0.37500000  0.00000000  0.25000000  1
  Cu  Cu3  1  0.25000000  0.25000000  0.25000000  1
  Cu  Cu4  1  0.00000000  0.25000000  0.12500000  1
  Ni  Ni5  1  0.91136283  0.64425991  0.74330472  1
  Ni  Ni6  1  0.12833236  0.46810416  0.99268934  1
  As  As7  1  0.36027814  0.32554905  0.43906145  1
  As  As8  1  0.17878757  0.38982659  0.10015366  1
  As  As9  1  0.04829484  0.85049663  0.72311723  1
  As  As10  1  0.88145160  0.33118831  0.32344073  1
  As  As11  1  0.38006584  0.08609654  0.83757756  1
  As  As12  1  0.78491507  0.74245727  0.17254072  1
  O  O13  1  0.30445964  0.56117230  0.14801822  1
  O  O14  1  0.42070408  0.61140027  0.96659285  1
  O  O15  1  0.57617596  0.47275436  0.18065345  1
  O  O16  1  0.16698190  0.76047545  0.71982397  1
  O  O17  1  0.06247697  0.81575736  0.04677521  1
  O  O18  1  0.54334458  0.10640772  0.24238376  1
  O  O19  1  0.64944302  0.88783011  0.34319120  1
