# generated using pymatgen
data_Li3TiI4O3
_symmetry_space_group_name_H-M   'P 1'
_cell_length_a   7.52715724
_cell_length_b   7.58443747
_cell_length_c   7.29300075
_cell_angle_alpha   94.27447714
_cell_angle_beta   95.67987029
_cell_angle_gamma   95.01201838
_symmetry_Int_Tables_number   1
_chemical_formula_structural   Li3TiI4O3
_chemical_formula_sum   'Li3 Ti1 I4 O3'
_cell_volume   411.26808175
_cell_formula_units_Z   1
loop_
 _symmetry_equiv_pos_site_id
 _symmetry_equiv_pos_as_xyz
  1  'x, y, z'
loop_
 _atom_site_type_symbol
 _atom_site_label
 _atom_site_symmetry_multiplicity
 _atom_site_fract_x
 _atom_site_fract_y
 _atom_site_fract_z
 _atom_site_occupancy
  I  I0  1  0.00000000  0.00000000  0.00000000  1
  I  I1  1  0.50000000  0.50000000  0.50000000  1
  I  I2  1  0.25000000  0.25000000  0.25000000  1
  I  I3  1  0.75000000  0.25000000  0.00000000  1
  Li  Li4  1  0.25000000  0.75000000  0.50000000  1
  Li  Li5  1  0.82982290  0.89584774  0.50828945  1
  Li  Li6  1  0.66501457  0.57640590  0.48365236  1
  Ti  Ti7  1  0.46758394  0.01309320  0.15410944  1
  O  O8  1  0.52616641  0.20681650  0.41880881  1
  O  O9  1  0.58153176  0.76967537  0.36819031  1
  O  O10  1  0.74610616  0.46526877  0.36589591  1
