# generated using pymatgen
data_Li4SeI4Cl2O5
_symmetry_space_group_name_H-M   'P 1'
_cell_length_a   6.29629576
_cell_length_b   6.19974862
_cell_length_c   7.43253320
_cell_angle_alpha   100.61288035
_cell_angle_beta   103.55021067
_cell_angle_gamma   99.98370511
_symmetry_Int_Tables_number   1
_chemical_formula_structural   Li4SeI4Cl2O5
_chemical_formula_sum   'Li4 Se1 I4 Cl2 O5'
_cell_volume   270.02054623
_cell_formula_units_Z   1
loop_
 _symmetry_equiv_pos_site_id
 _symmetry_equiv_pos_as_xyz
  1  'x, y, z'
loop_
 _atom_site_type_symbol
 _atom_site_label
 _atom_site_symmetry_multiplicity
 _atom_site_fract_x
 _atom_site_fract_y
 _atom_site_fract_z
 _atom_site_occupancy
  I  I0  1  0.00000000  0.00000000  0.00000000  1
  I  I1  1  0.50000000  0.50000000  0.50000000  1
  I  I2  1  0.25000000  0.25000000  0.25000000  1
  I  I3  1  0.75000000  0.25000000  0.00000000  1
  Li  Li4  1  0.25000000  0.75000000  0.50000000  1
  Li  Li5  1  0.71359624  0.87613399  0.81136952  1
  Li  Li6  1  0.61456329  0.70763514  0.88109118  1
  Li  Li7  1  0.35385442  0.70520624  0.40836401  1
  Se  Se8  1  0.41348885  0.85109301  0.64140825  1
  Cl  Cl9  1  0.68698312  0.47596840  0.15603784  1
  Cl  Cl10  1  0.50726609  0.59704451  0.62957958  1
  O  O11  1  0.63874872  0.78689053  0.46380359  1
  O  O12  1  0.52236749  0.43134130  0.01282179  1
  O  O13  1  0.68478910  0.19417158  0.43497910  1
  O  O14  1  0.81486232  0.87258286  0.32599099  1
  O  O15  1  0.96990328  0.75758087  0.00534691  1
