# generated using pymatgen
data_Li2LuNi2(As3O2)2
_symmetry_space_group_name_H-M   'P 1'
_cell_length_a   7.72539894
_cell_length_b   7.66300614
_cell_length_c   8.00456623
_cell_angle_alpha   93.00447141
_cell_angle_beta   93.46076089
_cell_angle_gamma   92.96766444
_symmetry_Int_Tables_number   1
_chemical_formula_structural   Li2LuNi2(As3O2)2
_chemical_formula_sum   'Li2 Lu1 Ni2 As6 O4'
_cell_volume   471.63632126
_cell_formula_units_Z   1
loop_
 _symmetry_equiv_pos_site_id
 _symmetry_equiv_pos_as_xyz
  1  'x, y, z'
loop_
 _atom_site_type_symbol
 _atom_site_label
 _atom_site_symmetry_multiplicity
 _atom_site_fract_x
 _atom_site_fract_y
 _atom_site_fract_z
 _atom_site_occupancy
  Lu  Lu0  1  0.00000000  0.00000000  0.00000000  1
  Li  Li1  1  0.50000000  0.50000000  0.50000000  1
  Li  Li2  1  0.50000000  0.50000000  0.00000000  1
  Ni  Ni3  1  0.50000000  0.00000000  0.50000000  1
  Ni  Ni4  1  0.00000000  0.50000000  0.50000000  1
  As  As5  1  0.19902910  0.70105932  0.38302198  1
  As  As6  1  0.62900531  0.83171739  0.40518769  1
  As  As7  1  0.97698475  0.09601992  0.41072199  1
  As  As8  1  0.63568048  0.53931691  0.80348034  1
  As  As9  1  0.79870156  0.76742758  0.48023192  1
  As  As10  1  0.81270248  0.58368195  0.34278438  1
  O  O11  1  0.63588765  0.69647790  0.60523024  1
  O  O12  1  0.22780670  0.88864222  0.06568153  1
  O  O13  1  0.60235533  0.60994361  0.50741550  1
  O  O14  1  0.43164266  0.25958673  0.80796438  1
