# generated using pymatgen
data_Li2LuP4(IO)4
_symmetry_space_group_name_H-M   'P 1'
_cell_length_a   8.17402175
_cell_length_b   8.11287848
_cell_length_c   7.51916541
_cell_angle_alpha   92.08489928
_cell_angle_beta   92.59274224
_cell_angle_gamma   91.99619467
_symmetry_Int_Tables_number   1
_chemical_formula_structural   Li2LuP4(IO)4
_chemical_formula_sum   'Li2 Lu1 P4 I4 O4'
_cell_volume   497.45965814
_cell_formula_units_Z   1
loop_
 _symmetry_equiv_pos_site_id
 _symmetry_equiv_pos_as_xyz
  1  'x, y, z'
loop_
 _atom_site_type_symbol
 _atom_site_label
 _atom_site_symmetry_multiplicity
 _atom_site_fract_x
 _atom_site_fract_y
 _atom_site_fract_z
 _atom_site_occupancy
  Li  Li0  1  0.12500000  0.00000000  0.25000000  1
  Li  Li1  1  0.00000000  0.00000000  0.00000000  1
  I  I2  1  0.37500000  0.00000000  0.25000000  1
  I  I3  1  0.25000000  0.25000000  0.25000000  1
  I  I4  1  0.00000000  0.25000000  0.12500000  1
  I  I5  1  0.77045783  0.74059073  0.04881030  1
  P  P6  1  0.90398089  0.24389662  0.63242554  1
  P  P7  1  0.82712877  0.18473847  0.06739882  1
  P  P8  1  0.92400794  0.08394375  0.20262337  1
  P  P9  1  0.06574311  0.26857788  0.66005406  1
  Lu  Lu10  1  0.80141845  0.74187843  0.65895722  1
  O  O11  1  0.52586093  0.67639148  0.02298839  1
  O  O12  1  0.29850597  0.84572469  0.31551919  1
  O  O13  1  0.67020256  0.21438365  0.17874197  1
  O  O14  1  0.19682885  0.52287311  0.78761136  1
