# generated using pymatgen
data_Li2LuCu2(As3P2)2
_symmetry_space_group_name_H-M   'P 1'
_cell_length_a   7.58288147
_cell_length_b   7.39538009
_cell_length_c   8.06999086
_cell_angle_alpha   91.64479186
_cell_angle_beta   91.87713163
_cell_angle_gamma   91.76876330
_symmetry_Int_Tables_number   1
_chemical_formula_structural   Li2LuCu2(As3P2)2
_chemical_formula_sum   'Li2 Lu1 Cu2 As6 P4'
_cell_volume   451.89289909
_cell_formula_units_Z   1
loop_
 _symmetry_equiv_pos_site_id
 _symmetry_equiv_pos_as_xyz
  1  'x, y, z'
loop_
 _atom_site_type_symbol
 _atom_site_label
 _atom_site_symmetry_multiplicity
 _atom_site_fract_x
 _atom_site_fract_y
 _atom_site_fract_z
 _atom_site_occupancy
  P  P0  1  0.00000000  0.00000000  0.00000000  1
  P  P1  1  0.50000000  0.50000000  0.50000000  1
  P  P2  1  0.50000000  0.50000000  0.00000000  1
  P  P3  1  0.50000000  0.00000000  0.50000000  1
  Lu  Lu4  1  0.00000000  0.50000000  0.50000000  1
  Li  Li5  1  0.19273674  0.75922837  0.32061719  1
  Li  Li6  1  0.93589822  0.40232810  0.92700063  1
  Cu  Cu7  1  0.66480050  0.21537487  0.39736662  1
  Cu  Cu8  1  0.18625374  0.63184542  0.52442900  1
  As  As9  1  0.62721698  0.22287274  0.91862020  1
  As  As10  1  0.28236072  0.49137141  0.92341956  1
  As  As11  1  0.28458385  0.07798531  0.32077053  1
  As  As12  1  0.75584525  0.11817950  0.59781720  1
  As  As13  1  0.77454614  0.57872403  0.16580163  1
  As  As14  1  0.81078314  0.78407836  0.89129665  1
