# generated using pymatgen
data_Li2LuO3
_symmetry_space_group_name_H-M   'P 1'
_cell_length_a   6.48225636
_cell_length_b   6.40934124
_cell_length_c   7.41134276
_cell_angle_alpha   97.79118815
_cell_angle_beta   100.04338835
_cell_angle_gamma   97.38600585
_symmetry_Int_Tables_number   1
_chemical_formula_structural   Li2LuO3
_chemical_formula_sum   'Li2 Lu1 O3'
_cell_volume   296.72355091
_cell_formula_units_Z   1
loop_
 _symmetry_equiv_pos_site_id
 _symmetry_equiv_pos_as_xyz
  1  'x, y, z'
loop_
 _atom_site_type_symbol
 _atom_site_label
 _atom_site_symmetry_multiplicity
 _atom_site_fract_x
 _atom_site_fract_y
 _atom_site_fract_z
 _atom_site_occupancy
  Lu  Lu0  1  0.00000000  0.00000000  0.00000000  1
  Li  Li1  1  0.33300000  0.66700000  0.25000000  1
  Li  Li2  1  0.66700000  0.33300000  0.50000000  1
  O  O3  1  0.00000000  0.00000000  0.75000000  1
  O  O4  1  0.17462869  0.54778203  0.87341801  1
  O  O5  1  0.83310329  0.70073289  0.02693620  1
