# generated using pymatgen
data_Li2LuCu2(As3P2)2
_symmetry_space_group_name_H-M   'P 1'
_cell_length_a   7.18247977
_cell_length_b   7.13648025
_cell_length_c   7.87215410
_cell_angle_alpha   94.14039170
_cell_angle_beta   95.16541178
_cell_angle_gamma   94.03473701
_symmetry_Int_Tables_number   1
_chemical_formula_structural   Li2LuCu2(As3P2)2
_chemical_formula_sum   'Li2 Lu1 Cu2 As6 P4'
_cell_volume   399.61872804
_cell_formula_units_Z   1
loop_
 _symmetry_equiv_pos_site_id
 _symmetry_equiv_pos_as_xyz
  1  'x, y, z'
loop_
 _atom_site_type_symbol
 _atom_site_label
 _atom_site_symmetry_multiplicity
 _atom_site_fract_x
 _atom_site_fract_y
 _atom_site_fract_z
 _atom_site_occupancy
  P  P0  1  0.00000000  0.00000000  0.00000000  1
  P  P1  1  0.50000000  0.50000000  0.50000000  1
  P  P2  1  0.50000000  0.50000000  0.00000000  1
  P  P3  1  0.50000000  0.00000000  0.50000000  1
  Lu  Lu4  1  0.00000000  0.50000000  0.50000000  1
  Li  Li5  1  0.89318476  0.01795154  0.33910052  1
  Li  Li6  1  0.12008505  0.35762913  0.99869502  1
  Cu  Cu7  1  0.66862170  0.12011886  0.51470173  1
  Cu  Cu8  1  0.82752849  0.77208170  0.36708985  1
  As  As9  1  0.81106685  0.21641975  0.38045699  1
  As  As10  1  0.94749493  0.63038546  0.67576654  1
  As  As11  1  0.47703104  0.65600744  0.16330814  1
  As  As12  1  0.56683003  0.30952000  0.49034694  1
  As  As13  1  0.32510120  0.34781246  0.79330091  1
  As  As14  1  0.37527986  0.36705431  0.88048102  1
