# generated using pymatgen
data_Li2Lu(CuAs3)2
_symmetry_space_group_name_H-M   'P 1'
_cell_length_a   7.42482564
_cell_length_b   7.36002793
_cell_length_c   8.13400535
_cell_angle_alpha   91.32060198
_cell_angle_beta   91.98166193
_cell_angle_gamma   91.43737510
_symmetry_Int_Tables_number   1
_chemical_formula_structural   Li2Lu(CuAs3)2
_chemical_formula_sum   'Li2 Lu1 Cu2 As6'
_cell_volume   443.96552024
_cell_formula_units_Z   1
loop_
 _symmetry_equiv_pos_site_id
 _symmetry_equiv_pos_as_xyz
  1  'x, y, z'
loop_
 _atom_site_type_symbol
 _atom_site_label
 _atom_site_symmetry_multiplicity
 _atom_site_fract_x
 _atom_site_fract_y
 _atom_site_fract_z
 _atom_site_occupancy
  Lu  Lu0  1  0.12500000  0.12500000  0.12500000  1
  As  As1  1  0.50000000  0.50000000  0.50000000  1
  As  As2  1  0.25000000  0.25000000  0.25000000  1
  As  As3  1  0.75000000  0.75000000  0.75000000  1
  As  As4  1  0.53575975  0.85677511  0.70949606  1
  As  As5  1  0.72219054  0.86984098  0.46942761  1
  As  As6  1  0.00733079  0.20693902  0.29599524  1
  Li  Li7  1  0.08067376  0.28170326  0.25329605  1
  Li  Li8  1  0.70748828  0.49850182  0.83810226  1
  Cu  Cu9  1  0.44269443  0.95279047  0.26146877  1
  Cu  Cu10  1  0.47181823  0.28348374  0.02150389  1
