# generated using pymatgen
data_Li2Lu(CuP2)2
_symmetry_space_group_name_H-M   'P 1'
_cell_length_a   7.17332110
_cell_length_b   7.30255974
_cell_length_c   8.11123447
_cell_angle_alpha   93.27069786
_cell_angle_beta   94.94745935
_cell_angle_gamma   93.17807731
_symmetry_Int_Tables_number   1
_chemical_formula_structural   Li2Lu(CuP2)2
_chemical_formula_sum   'Li2 Lu1 Cu2 P4'
_cell_volume   421.84421626
_cell_formula_units_Z   1
loop_
 _symmetry_equiv_pos_site_id
 _symmetry_equiv_pos_as_xyz
  1  'x, y, z'
loop_
 _atom_site_type_symbol
 _atom_site_label
 _atom_site_symmetry_multiplicity
 _atom_site_fract_x
 _atom_site_fract_y
 _atom_site_fract_z
 _atom_site_occupancy
  P  P0  1  0.12500000  0.12500000  0.12500000  1
  P  P1  1  0.50000000  0.50000000  0.50000000  1
  P  P2  1  0.25000000  0.25000000  0.25000000  1
  P  P3  1  0.75000000  0.75000000  0.75000000  1
  Lu  Lu4  1  0.11926714  0.11941866  0.90018377  1
  Li  Li5  1  0.99864379  0.71611706  0.23652037  1
  Li  Li6  1  0.32166824  0.91791074  0.74881810  1
  Cu  Cu7  1  0.68144605  0.42723382  0.55965960  1
  Cu  Cu8  1  0.61803586  0.80235586  0.68550194  1
