# generated using pymatgen
data_LiCuNiAs3
_symmetry_space_group_name_H-M   'P 1'
_cell_length_a   7.63845848
_cell_length_b   7.61147535
_cell_length_c   8.80164636
_cell_angle_alpha   91.17228365
_cell_angle_beta   91.53886787
_cell_angle_gamma   91.35546597
_symmetry_Int_Tables_number   1
_chemical_formula_structural   LiCuNiAs3
_chemical_formula_sum   'Li2 Cu2 Ni2 As6'
_cell_volume   511.28554156
_cell_formula_units_Z   2
loop_
 _symmetry_equiv_pos_site_id
 _symmetry_equiv_pos_as_xyz
  1  'x, y, z'
loop_
 _atom_site_type_symbol
 _atom_site_label
 _atom_site_symmetry_multiplicity
 _atom_site_fract_x
 _atom_site_fract_y
 _atom_site_fract_z
 _atom_site_occupancy
  Ni  Ni0  1  0.00000000  0.00000000  0.00000000  1
  Ni  Ni1  1  0.33300000  0.66700000  0.25000000  1
  As  As2  1  0.66700000  0.33300000  0.50000000  1
  As  As3  1  0.00000000  0.00000000  0.75000000  1
  As  As4  1  0.31135115  0.89742568  0.72856421  1
  As  As5  1  0.63413707  0.82228812  0.31907740  1
  As  As6  1  0.44712829  0.16076768  0.78354337  1
  As  As7  1  0.52518773  0.98482150  0.15610873  1
  Li  Li8  1  0.17513535  0.77730460  0.51653211  1
  Li  Li9  1  0.31875318  0.99754812  0.39950574  1
  Cu  Cu10  1  0.40955929  0.43949589  0.10489123  1
  Cu  Cu11  1  0.08489650  0.78344331  0.00348387  1
