# generated using pymatgen
data_LiTiZn(IO)2
_symmetry_space_group_name_H-M   'P 1'
_cell_length_a   7.79628034
_cell_length_b   7.85827371
_cell_length_c   7.25134685
_cell_angle_alpha   91.22419599
_cell_angle_beta   92.18690514
_cell_angle_gamma   91.15753341
_symmetry_Int_Tables_number   1
_chemical_formula_structural   LiTiZn(IO)2
_chemical_formula_sum   'Li2 Ti2 Zn2 I4 O4'
_cell_volume   443.73286189
_cell_formula_units_Z   2
loop_
 _symmetry_equiv_pos_site_id
 _symmetry_equiv_pos_as_xyz
  1  'x, y, z'
loop_
 _atom_site_type_symbol
 _atom_site_label
 _atom_site_symmetry_multiplicity
 _atom_site_fract_x
 _atom_site_fract_y
 _atom_site_fract_z
 _atom_site_occupancy
  I  I0  1  0.00000000  0.00000000  0.00000000  1
  I  I1  1  0.50000000  0.50000000  0.50000000  1
  I  I2  1  0.50000000  0.50000000  0.00000000  1
  I  I3  1  0.50000000  0.00000000  0.50000000  1
  Li  Li4  1  0.00000000  0.50000000  0.50000000  1
  Li  Li5  1  0.59921214  0.58689054  0.58422180  1
  Zn  Zn6  1  0.71806500  0.18280854  0.54182612  1
  Zn  Zn7  1  0.48748840  0.00167836  0.37506975  1
  Ti  Ti8  1  0.40393347  0.19539638  0.25889602  1
  Ti  Ti9  1  0.17763585  0.26654122  0.08734673  1
  O  O10  1  0.77932318  0.13106785  0.51415997  1
  O  O11  1  0.66029691  0.73305562  0.22956504  1
  O  O12  1  0.83682480  0.73418119  0.41225252  1
  O  O13  1  0.95539385  0.34589154  0.57449420  1
