# generated using pymatgen
data_Li2TiCu2P4F2
_symmetry_space_group_name_H-M   'P 1'
_cell_length_a   6.86352142
_cell_length_b   6.68582276
_cell_length_c   7.19074439
_cell_angle_alpha   91.50449528
_cell_angle_beta   93.05775306
_cell_angle_gamma   91.01546050
_symmetry_Int_Tables_number   1
_chemical_formula_structural   Li2TiCu2P4F2
_chemical_formula_sum   'Li2 Ti1 Cu2 P4 F2'
_cell_volume   329.32712551
_cell_formula_units_Z   1
loop_
 _symmetry_equiv_pos_site_id
 _symmetry_equiv_pos_as_xyz
  1  'x, y, z'
loop_
 _atom_site_type_symbol
 _atom_site_label
 _atom_site_symmetry_multiplicity
 _atom_site_fract_x
 _atom_site_fract_y
 _atom_site_fract_z
 _atom_site_occupancy
  P  P0  1  0.00000000  0.00000000  0.00000000  1
  P  P1  1  0.50000000  0.50000000  0.50000000  1
  P  P2  1  0.25000000  0.25000000  0.25000000  1
  P  P3  1  0.75000000  0.25000000  0.00000000  1
  Li  Li4  1  0.25000000  0.75000000  0.50000000  1
  Li  Li5  1  0.31257092  0.74494386  0.97088865  1
  Cu  Cu6  1  0.93632841  0.35714218  0.37963784  1
  Cu  Cu7  1  0.63092211  0.65492543  0.77780136  1
  F  F8  1  0.78544554  0.87062546  0.38088818  1
  F  F9  1  0.40102239  0.90198050  0.64733766  1
  Ti  Ti10  1  0.03795669  0.15537879  0.30397483  1
