# generated using pymatgen
data_Li2LuCu2(As3P2)2
_symmetry_space_group_name_H-M   'P 1'
_cell_length_a   7.26103788
_cell_length_b   7.19008221
_cell_length_c   7.89736092
_cell_angle_alpha   93.63546738
_cell_angle_beta   94.54141337
_cell_angle_gamma   93.56803162
_symmetry_Int_Tables_number   1
_chemical_formula_structural   Li2LuCu2(As3P2)2
_chemical_formula_sum   'Li2 Lu1 Cu2 As6 P4'
_cell_volume   409.24124662
_cell_formula_units_Z   1
loop_
 _symmetry_equiv_pos_site_id
 _symmetry_equiv_pos_as_xyz
  1  'x, y, z'
loop_
 _atom_site_type_symbol
 _atom_site_label
 _atom_site_symmetry_multiplicity
 _atom_site_fract_x
 _atom_site_fract_y
 _atom_site_fract_z
 _atom_site_occupancy
  P  P0  1  0.12500000  0.00000000  0.25000000  1
  P  P1  1  0.00000000  0.00000000  0.00000000  1
  P  P2  1  0.37500000  0.00000000  0.25000000  1
  P  P3  1  0.25000000  0.25000000  0.25000000  1
  Lu  Lu4  1  0.00000000  0.25000000  0.12500000  1
  As  As5  1  0.17971945  0.47668770  0.38078569  1
  As  As6  1  0.42061135  0.12384699  0.13053094  1
  As  As7  1  0.31349264  0.69870643  0.07086847  1
  As  As8  1  0.92593469  0.41016252  0.25359955  1
  As  As9  1  0.73273314  0.68875619  0.17550108  1
  As  As10  1  0.32437632  0.48791126  0.14956816  1
  Li  Li11  1  0.58238443  0.74102276  0.78652592  1
  Li  Li12  1  0.13338107  0.46612207  0.76568534  1
  Cu  Cu13  1  0.71401032  0.09665076  0.69324102  1
  Cu  Cu14  1  0.82848916  0.10531108  0.46015448  1
