# generated using pymatgen
data_Li3Ti2Mn2SeF6
_symmetry_space_group_name_H-M   'P 1'
_cell_length_a   5.03976748
_cell_length_b   4.58913416
_cell_length_c   7.06140046
_cell_angle_alpha   102.07705898
_cell_angle_beta   104.40393496
_cell_angle_gamma   101.13005663
_symmetry_Int_Tables_number   1
_chemical_formula_structural   Li3Ti2Mn2SeF6
_chemical_formula_sum   'Li3 Ti2 Mn2 Se1 F6'
_cell_volume   149.41408378
_cell_formula_units_Z   1
loop_
 _symmetry_equiv_pos_site_id
 _symmetry_equiv_pos_as_xyz
  1  'x, y, z'
loop_
 _atom_site_type_symbol
 _atom_site_label
 _atom_site_symmetry_multiplicity
 _atom_site_fract_x
 _atom_site_fract_y
 _atom_site_fract_z
 _atom_site_occupancy
  Li  Li0  1  0.00000000  0.00000000  0.00000000  1
  Li  Li1  1  0.50000000  0.50000000  0.50000000  1
  Li  Li2  1  0.25000000  0.25000000  0.25000000  1
  F  F3  1  0.75000000  0.25000000  0.00000000  1
  F  F4  1  0.25000000  0.75000000  0.50000000  1
  F  F5  1  0.69491526  0.14725390  0.66129670  1
  F  F6  1  0.12035105  0.25982165  0.07093777  1
  F  F7  1  0.17047379  0.13251350  0.03866777  1
  F  F8  1  0.35366641  0.05450271  0.88614497  1
  Se  Se9  1  0.68057560  0.57681054  0.32496797  1
  Ti  Ti10  1  0.11657608  0.28041847  0.52341734  1
  Ti  Ti11  1  0.44162372  0.83057421  0.55038310  1
  Mn  Mn12  1  0.34172863  0.19060755  0.96404799  1
  Mn  Mn13  1  0.82667785  0.89555924  0.08829942  1
