# generated using pymatgen
data_Li3Ni2As6O7
_symmetry_space_group_name_H-M   'P 1'
_cell_length_a   7.74863574
_cell_length_b   7.57455129
_cell_length_c   9.04696371
_cell_angle_alpha   91.62993816
_cell_angle_beta   91.03337545
_cell_angle_gamma   91.88880674
_symmetry_Int_Tables_number   1
_chemical_formula_structural   Li3Ni2As6O7
_chemical_formula_sum   'Li3 Ni2 As6 O7'
_cell_volume   530.38947357
_cell_formula_units_Z   1
loop_
 _symmetry_equiv_pos_site_id
 _symmetry_equiv_pos_as_xyz
  1  'x, y, z'
loop_
 _atom_site_type_symbol
 _atom_site_label
 _atom_site_symmetry_multiplicity
 _atom_site_fract_x
 _atom_site_fract_y
 _atom_site_fract_z
 _atom_site_occupancy
  Li  Li0  1  0.12500000  0.12500000  0.12500000  1
  Li  Li1  1  0.50000000  0.50000000  0.50000000  1
  Li  Li2  1  0.25000000  0.25000000  0.25000000  1
  Ni  Ni3  1  0.75000000  0.75000000  0.75000000  1
  Ni  Ni4  1  0.11187117  0.49431929  0.89313063  1
  As  As5  1  0.08442189  0.08766908  0.11905338  1
  As  As6  1  0.86937636  0.13631832  0.90600112  1
  As  As7  1  0.63648271  0.25673943  0.84687086  1
  As  As8  1  0.55926432  0.44816304  0.29645717  1
  As  As9  1  0.80175699  0.57975430  0.86657855  1
  As  As10  1  0.67419723  0.12397130  0.58268551  1
  O  O11  1  0.17126978  0.23745642  0.19895699  1
  O  O12  1  0.08220802  0.15011433  0.94319284  1
  O  O13  1  0.33897989  0.31768378  0.04341655  1
  O  O14  1  0.07993316  0.20316248  0.26934699  1
  O  O15  1  0.22241641  0.40991696  0.02689002  1
  O  O16  1  0.70665715  0.84543187  0.71237170  1
  O  O17  1  0.49655866  0.41445380  0.41778905  1
