# generated using pymatgen
data_Li2LuP4I4O3
_symmetry_space_group_name_H-M   'P 1'
_cell_length_a   7.72475978
_cell_length_b   7.59847712
_cell_length_c   7.61114397
_cell_angle_alpha   91.70139939
_cell_angle_beta   92.76761534
_cell_angle_gamma   91.71249808
_symmetry_Int_Tables_number   1
_chemical_formula_structural   Li2LuP4I4O3
_chemical_formula_sum   'Li2 Lu1 P4 I4 O3'
_cell_volume   445.80952099
_cell_formula_units_Z   1
loop_
 _symmetry_equiv_pos_site_id
 _symmetry_equiv_pos_as_xyz
  1  'x, y, z'
loop_
 _atom_site_type_symbol
 _atom_site_label
 _atom_site_symmetry_multiplicity
 _atom_site_fract_x
 _atom_site_fract_y
 _atom_site_fract_z
 _atom_site_occupancy
  I  I0  1  0.00000000  0.00000000  0.00000000  1
  I  I1  1  0.50000000  0.50000000  0.50000000  1
  I  I2  1  0.50000000  0.50000000  0.00000000  1
  I  I3  1  0.50000000  0.00000000  0.50000000  1
  O  O4  1  0.00000000  0.50000000  0.50000000  1
  O  O5  1  0.68938248  0.44086363  0.85208542  1
  O  O6  1  0.67416897  0.27652078  0.04869054  1
  P  P7  1  0.85388387  0.94906679  0.08810309  1
  P  P8  1  0.88025783  0.89504505  0.16670228  1
  P  P9  1  0.18161767  0.67299172  0.88651590  1
  P  P10  1  0.26410006  0.53823750  0.16121591  1
  Li  Li11  1  0.09714600  0.92423208  0.38437603  1
  Li  Li12  1  0.65711060  0.46963548  0.64618041  1
  Lu  Lu13  1  0.84537679  0.60805709  0.29473131  1
