# generated using pymatgen
data_Li3LuNi2As6N5
_symmetry_space_group_name_H-M   'P 1'
_cell_length_a   7.57359340
_cell_length_b   7.37076208
_cell_length_c   8.43985143
_cell_angle_alpha   92.05977426
_cell_angle_beta   91.65039575
_cell_angle_gamma   92.31580986
_symmetry_Int_Tables_number   1
_chemical_formula_structural   Li3LuNi2As6N5
_chemical_formula_sum   'Li3 Lu1 Ni2 As6 N5'
_cell_volume   470.23420928
_cell_formula_units_Z   1
loop_
 _symmetry_equiv_pos_site_id
 _symmetry_equiv_pos_as_xyz
  1  'x, y, z'
loop_
 _atom_site_type_symbol
 _atom_site_label
 _atom_site_symmetry_multiplicity
 _atom_site_fract_x
 _atom_site_fract_y
 _atom_site_fract_z
 _atom_site_occupancy
  Lu  Lu0  1  0.12500000  0.00000000  0.25000000  1
  Li  Li1  1  0.00000000  0.00000000  0.00000000  1
  Li  Li2  1  0.37500000  0.00000000  0.25000000  1
  Li  Li3  1  0.25000000  0.25000000  0.25000000  1
  Ni  Ni4  1  0.00000000  0.25000000  0.12500000  1
  Ni  Ni5  1  0.73336487  0.08482645  0.37091875  1
  As  As6  1  0.91105648  0.04923026  0.58844161  1
  As  As7  1  0.84161025  0.42671909  0.53254228  1
  As  As8  1  0.21217895  0.21164403  0.78379435  1
  As  As9  1  0.25220511  0.92361858  0.26535384  1
  As  As10  1  0.81264943  0.71089183  0.04178458  1
  As  As11  1  0.01040223  0.43019529  0.69249374  1
  N  N12  1  0.94732306  0.17244232  0.21735138  1
  N  N13  1  0.72234368  0.59176449  0.08600032  1
  N  N14  1  0.34156010  0.57717898  0.56281039  1
  N  N15  1  0.26052888  0.00827587  0.99391478  1
  N  N16  1  0.59319302  0.08223629  0.91175863  1
