# generated using pymatgen
data_LiTi2Cu2(I2F)2
_symmetry_space_group_name_H-M   'P 1'
_cell_length_a   6.97251505
_cell_length_b   6.71934783
_cell_length_c   7.52990567
_cell_angle_alpha   92.38732802
_cell_angle_beta   94.55668806
_cell_angle_gamma   92.45675633
_symmetry_Int_Tables_number   1
_chemical_formula_structural   LiTi2Cu2(I2F)2
_chemical_formula_sum   'Li1 Ti2 Cu2 I4 F2'
_cell_volume   350.98366271
_cell_formula_units_Z   1
loop_
 _symmetry_equiv_pos_site_id
 _symmetry_equiv_pos_as_xyz
  1  'x, y, z'
loop_
 _atom_site_type_symbol
 _atom_site_label
 _atom_site_symmetry_multiplicity
 _atom_site_fract_x
 _atom_site_fract_y
 _atom_site_fract_z
 _atom_site_occupancy
  I  I0  1  0.12500000  0.00000000  0.25000000  1
  I  I1  1  0.00000000  0.00000000  0.00000000  1
  I  I2  1  0.37500000  0.00000000  0.25000000  1
  I  I3  1  0.25000000  0.25000000  0.25000000  1
  Li  Li4  1  0.00000000  0.25000000  0.12500000  1
  Cu  Cu5  1  0.54409138  0.04473359  0.67588082  1
  Cu  Cu6  1  0.03933288  0.14245617  0.45746890  1
  F  F7  1  0.05600432  0.59256218  0.64978346  1
  F  F8  1  0.42973746  0.03062300  0.70167630  1
  Ti  Ti9  1  0.70484317  0.87429077  0.13300042  1
  Ti  Ti10  1  0.55844451  0.42727813  0.13573816  1
