# generated using pymatgen
data_Li2As6I4O4F3
_symmetry_space_group_name_H-M   'P 1'
_cell_length_a   7.25045318
_cell_length_b   6.94242816
_cell_length_c   7.60408701
_cell_angle_alpha   92.82576929
_cell_angle_beta   93.57456992
_cell_angle_gamma   92.71104671
_symmetry_Int_Tables_number   1
_chemical_formula_structural   Li2As6I4O4F3
_chemical_formula_sum   'Li2 As6 I4 O4 F3'
_cell_volume   381.06081183
_cell_formula_units_Z   1
loop_
 _symmetry_equiv_pos_site_id
 _symmetry_equiv_pos_as_xyz
  1  'x, y, z'
loop_
 _atom_site_type_symbol
 _atom_site_label
 _atom_site_symmetry_multiplicity
 _atom_site_fract_x
 _atom_site_fract_y
 _atom_site_fract_z
 _atom_site_occupancy
  I  I0  1  0.00000000  0.00000000  0.00000000  1
  I  I1  1  0.50000000  0.50000000  0.50000000  1
  I  I2  1  0.25000000  0.25000000  0.25000000  1
  I  I3  1  0.75000000  0.25000000  0.00000000  1
  Li  Li4  1  0.25000000  0.75000000  0.50000000  1
  Li  Li5  1  0.77290019  0.63230842  0.23308649  1
  F  F6  1  0.69653221  0.61014614  0.94018107  1
  F  F7  1  0.34306878  0.32061784  0.80599759  1
  F  F8  1  0.02199702  0.01530595  0.06233718  1
  As  As9  1  0.30915510  0.91360360  0.26832833  1
  As  As10  1  0.26506974  0.01510451  0.05011724  1
  As  As11  1  0.43983373  0.28504899  0.73047094  1
  As  As12  1  0.13817716  0.57276601  0.72344493  1
  As  As13  1  0.66618448  0.22839508  0.17566641  1
  As  As14  1  0.36243323  0.51266789  0.53244986  1
  O  O15  1  0.49701559  0.80366910  0.36382600  1
  O  O16  1  0.10265569  0.80758912  0.13958345  1
  O  O17  1  0.38235059  0.96258752  0.47683163  1
  O  O18  1  0.11943536  0.47917267  0.70194111  1
