# generated using pymatgen
data_Li3Ti2Se2O
_symmetry_space_group_name_H-M   'P 1'
_cell_length_a   4.64664287
_cell_length_b   4.15860281
_cell_length_c   6.77436681
_cell_angle_alpha   100.07894143
_cell_angle_beta   101.71418362
_cell_angle_gamma   99.11148409
_symmetry_Int_Tables_number   1
_chemical_formula_structural   Li3Ti2Se2O
_chemical_formula_sum   'Li3 Ti2 Se2 O1'
_cell_volume   123.62168321
_cell_formula_units_Z   1
loop_
 _symmetry_equiv_pos_site_id
 _symmetry_equiv_pos_as_xyz
  1  'x, y, z'
loop_
 _atom_site_type_symbol
 _atom_site_label
 _atom_site_symmetry_multiplicity
 _atom_site_fract_x
 _atom_site_fract_y
 _atom_site_fract_z
 _atom_site_occupancy
  Se  Se0  1  0.12500000  0.12500000  0.12500000  1
  Se  Se1  1  0.50000000  0.50000000  0.50000000  1
  Ti  Ti2  1  0.25000000  0.25000000  0.25000000  1
  Ti  Ti3  1  0.75000000  0.75000000  0.75000000  1
  O  O4  1  0.47674124  0.66430743  0.93250381  1
  Li  Li5  1  0.02392172  0.89978159  0.41453812  1
  Li  Li6  1  0.24574893  0.60099476  0.50746135  1
  Li  Li7  1  0.61614396  0.74911662  0.37694738  1
