# generated using pymatgen
data_Li2TiCu2P4N5
_symmetry_space_group_name_H-M   'P 1'
_cell_length_a   7.17547076
_cell_length_b   6.98823751
_cell_length_c   7.95214800
_cell_angle_alpha   92.82947803
_cell_angle_beta   93.10423112
_cell_angle_gamma   92.78416795
_symmetry_Int_Tables_number   1
_chemical_formula_structural   Li2TiCu2P4N5
_chemical_formula_sum   'Li2 Ti1 Cu2 P4 N5'
_cell_volume   397.15578394
_cell_formula_units_Z   1
loop_
 _symmetry_equiv_pos_site_id
 _symmetry_equiv_pos_as_xyz
  1  'x, y, z'
loop_
 _atom_site_type_symbol
 _atom_site_label
 _atom_site_symmetry_multiplicity
 _atom_site_fract_x
 _atom_site_fract_y
 _atom_site_fract_z
 _atom_site_occupancy
  P  P0  1  0.12500000  0.00000000  0.25000000  1
  P  P1  1  0.00000000  0.00000000  0.00000000  1
  P  P2  1  0.37500000  0.00000000  0.25000000  1
  P  P3  1  0.25000000  0.25000000  0.25000000  1
  Li  Li4  1  0.00000000  0.25000000  0.12500000  1
  Li  Li5  1  0.84272858  0.35059587  0.64639839  1
  Cu  Cu6  1  0.91442763  0.01782390  0.18945361  1
  Cu  Cu7  1  0.74597801  0.58707862  0.37165506  1
  Ti  Ti8  1  0.48528727  0.27403542  0.37821868  1
  N  N9  1  0.45262283  0.12261779  0.87371239  1
  N  N10  1  0.51982072  0.14869408  0.63686557  1
  N  N11  1  0.80428205  0.12282274  0.74980311  1
  N  N12  1  0.19906441  0.36617409  0.81230620  1
  N  N13  1  0.59879992  0.03848393  0.84706469  1
