# generated using pymatgen
data_LiTi2Cu2O2F3
_symmetry_space_group_name_H-M   'P 1'
_cell_length_a   5.47377826
_cell_length_b   5.45507647
_cell_length_c   6.98001244
_cell_angle_alpha   94.15903243
_cell_angle_beta   100.71055889
_cell_angle_gamma   95.14889218
_symmetry_Int_Tables_number   1
_chemical_formula_structural   LiTi2Cu2O2F3
_chemical_formula_sum   'Li1 Ti2 Cu2 O2 F3'
_cell_volume   203.11581492
_cell_formula_units_Z   1
loop_
 _symmetry_equiv_pos_site_id
 _symmetry_equiv_pos_as_xyz
  1  'x, y, z'
loop_
 _atom_site_type_symbol
 _atom_site_label
 _atom_site_symmetry_multiplicity
 _atom_site_fract_x
 _atom_site_fract_y
 _atom_site_fract_z
 _atom_site_occupancy
  Li  Li0  1  0.00000000  0.00000000  0.00000000  1
  Cu  Cu1  1  0.50000000  0.50000000  0.50000000  1
  Cu  Cu2  1  0.25000000  0.25000000  0.25000000  1
  F  F3  1  0.75000000  0.25000000  0.00000000  1
  F  F4  1  0.25000000  0.75000000  0.50000000  1
  F  F5  1  0.58441602  0.85861126  0.29566111  1
  Ti  Ti6  1  0.87537491  0.74814643  0.23127728  1
  Ti  Ti7  1  0.50976474  0.03048413  0.92526267  1
  O  O8  1  0.41877183  0.74337149  0.63393730  1
  O  O9  1  0.46726080  0.63375592  0.76346681  1
