# generated using pymatgen
data_Li3Cr2(PO)3
_symmetry_space_group_name_H-M   'P 1'
_cell_length_a   8.57107269
_cell_length_b   8.21671288
_cell_length_c   7.64639963
_cell_angle_alpha   90.00000000
_cell_angle_beta   90.00000000
_cell_angle_gamma   90.00000000
_symmetry_Int_Tables_number   1
_chemical_formula_structural   Li3Cr2(PO)3
_chemical_formula_sum   'Li3 Cr2 P3 O3'
_cell_volume   538.50567226
_cell_formula_units_Z   1
loop_
 _symmetry_equiv_pos_site_id
 _symmetry_equiv_pos_as_xyz
  1  'x, y, z'
loop_
 _atom_site_type_symbol
 _atom_site_label
 _atom_site_symmetry_multiplicity
 _atom_site_fract_x
 _atom_site_fract_y
 _atom_site_fract_z
 _atom_site_occupancy
  P  P0  1  0.00000000  0.00000000  0.00000000  1
  P  P1  1  0.50000000  0.50000000  0.50000000  1
  P  P2  1  0.50000000  0.50000000  0.00000000  1
  Li  Li3  1  0.50000000  0.00000000  0.50000000  1
  Li  Li4  1  0.00000000  0.50000000  0.50000000  1
  Li  Li5  1  0.30311681  0.90741975  0.28735378  1
  O  O6  1  0.36102564  0.18555834  0.23766917  1
  O  O7  1  0.47889460  0.95979918  0.32836355  1
  O  O8  1  0.63347712  0.34875004  0.61948058  1
  Cr  Cr9  1  0.73159326  0.04203669  0.00800722  1
  Cr  Cr10  1  0.41523490  0.95178137  0.42274087  1
