# generated using pymatgen
data_Li2LuP4I4N5
_symmetry_space_group_name_H-M   'P 1'
_cell_length_a   7.28893933
_cell_length_b   7.04773941
_cell_length_c   7.89234409
_cell_angle_alpha   93.22578035
_cell_angle_beta   93.11204202
_cell_angle_gamma   93.20590770
_symmetry_Int_Tables_number   1
_chemical_formula_structural   Li2LuP4I4N5
_chemical_formula_sum   'Li2 Lu1 P4 I4 N5'
_cell_volume   403.48672697
_cell_formula_units_Z   1
loop_
 _symmetry_equiv_pos_site_id
 _symmetry_equiv_pos_as_xyz
  1  'x, y, z'
loop_
 _atom_site_type_symbol
 _atom_site_label
 _atom_site_symmetry_multiplicity
 _atom_site_fract_x
 _atom_site_fract_y
 _atom_site_fract_z
 _atom_site_occupancy
  P  P0  1  0.00000000  0.00000000  0.00000000  1
  P  P1  1  0.50000000  0.50000000  0.50000000  1
  P  P2  1  0.50000000  0.50000000  0.00000000  1
  P  P3  1  0.50000000  0.00000000  0.50000000  1
  I  I4  1  0.00000000  0.50000000  0.50000000  1
  I  I5  1  0.10902629  0.03623361  0.47180465  1
  I  I6  1  0.37132703  0.44460555  0.99066779  1
  I  I7  1  0.68708803  0.39037622  0.20004079  1
  Lu  Lu8  1  0.93811956  0.20275104  0.10006315  1
  Li  Li9  1  0.56320405  0.86703383  0.19120393  1
  Li  Li10  1  0.00456422  0.71881393  0.04698584  1
  N  N11  1  0.04629265  0.55119739  0.82635138  1
  N  N12  1  0.05923167  0.54042938  0.31875845  1
  N  N13  1  0.85957483  0.05162629  0.96700125  1
  N  N14  1  0.46538516  0.10316870  0.26763340  1
  N  N15  1  0.11016297  0.25471628  0.82167950  1
