# generated using pymatgen
data_Li2LuCu2P4N5
_symmetry_space_group_name_H-M   'P 1'
_cell_length_a   7.21442185
_cell_length_b   7.10421127
_cell_length_c   8.08214535
_cell_angle_alpha   94.12732500
_cell_angle_beta   94.43085206
_cell_angle_gamma   94.17844684
_symmetry_Int_Tables_number   1
_chemical_formula_structural   Li2LuCu2P4N5
_chemical_formula_sum   'Li2 Lu1 Cu2 P4 N5'
_cell_volume   410.64035462
_cell_formula_units_Z   1
loop_
 _symmetry_equiv_pos_site_id
 _symmetry_equiv_pos_as_xyz
  1  'x, y, z'
loop_
 _atom_site_type_symbol
 _atom_site_label
 _atom_site_symmetry_multiplicity
 _atom_site_fract_x
 _atom_site_fract_y
 _atom_site_fract_z
 _atom_site_occupancy
  P  P0  1  0.00000000  0.00000000  0.00000000  1
  P  P1  1  0.50000000  0.50000000  0.50000000  1
  P  P2  1  0.50000000  0.50000000  0.00000000  1
  P  P3  1  0.50000000  0.00000000  0.50000000  1
  Lu  Lu4  1  0.00000000  0.50000000  0.50000000  1
  Li  Li5  1  0.36786993  0.09778915  0.26895524  1
  Li  Li6  1  0.79008217  0.76718208  0.22919650  1
  N  N7  1  0.72639235  0.76780527  0.21584878  1
  N  N8  1  0.57171526  0.23569582  0.38971588  1
  N  N9  1  0.40339720  0.47158335  0.80051851  1
  N  N10  1  0.68331769  0.65625125  0.56859362  1
  N  N11  1  0.74802501  0.78602970  0.78115830  1
  Cu  Cu12  1  0.45804129  0.86669009  0.32814104  1
  Cu  Cu13  1  0.29736979  0.13081694  0.15157504  1
