# generated using pymatgen
data_Li2TiCu2(PI)4
_symmetry_space_group_name_H-M   'P 1'
_cell_length_a   8.12447075
_cell_length_b   7.96495780
_cell_length_c   7.75867891
_cell_angle_alpha   90.76028245
_cell_angle_beta   90.96809203
_cell_angle_gamma   90.82460074
_symmetry_Int_Tables_number   1
_chemical_formula_structural   Li2TiCu2(PI)4
_chemical_formula_sum   'Li2 Ti1 Cu2 P4 I4'
_cell_volume   501.90288565
_cell_formula_units_Z   1
loop_
 _symmetry_equiv_pos_site_id
 _symmetry_equiv_pos_as_xyz
  1  'x, y, z'
loop_
 _atom_site_type_symbol
 _atom_site_label
 _atom_site_symmetry_multiplicity
 _atom_site_fract_x
 _atom_site_fract_y
 _atom_site_fract_z
 _atom_site_occupancy
  I  I0  1  0.00000000  0.00000000  0.00000000  1
  I  I1  1  0.50000000  0.50000000  0.50000000  1
  I  I2  1  0.50000000  0.50000000  0.00000000  1
  I  I3  1  0.50000000  0.00000000  0.50000000  1
  P  P4  1  0.00000000  0.50000000  0.50000000  1
  P  P5  1  0.12551259  0.23588428  0.59496381  1
  P  P6  1  0.75788023  0.32150010  0.73063705  1
  P  P7  1  0.50090072  0.80508445  0.32868530  1
  Li  Li8  1  0.74612713  0.68025410  0.71875198  1
  Li  Li9  1  0.03725575  0.41809276  0.74063296  1
  Cu  Cu10  1  0.72301669  0.17503719  0.75375215  1
  Cu  Cu11  1  0.61188541  0.11562740  0.04831207  1
  Ti  Ti12  1  0.98549720  0.70803799  0.69474826  1
