# generated using pymatgen
data_LiTiI4O3F2
_symmetry_space_group_name_H-M   'P 1'
_cell_length_a   7.41269422
_cell_length_b   7.30705750
_cell_length_c   7.43531004
_cell_angle_alpha   91.77571957
_cell_angle_beta   93.57278976
_cell_angle_gamma   92.13455961
_symmetry_Int_Tables_number   1
_chemical_formula_structural   LiTiI4O3F2
_chemical_formula_sum   'Li1 Ti1 I4 O3 F2'
_cell_volume   401.44773540
_cell_formula_units_Z   1
loop_
 _symmetry_equiv_pos_site_id
 _symmetry_equiv_pos_as_xyz
  1  'x, y, z'
loop_
 _atom_site_type_symbol
 _atom_site_label
 _atom_site_symmetry_multiplicity
 _atom_site_fract_x
 _atom_site_fract_y
 _atom_site_fract_z
 _atom_site_occupancy
  I  I0  1  0.00000000  0.00000000  0.00000000  1
  I  I1  1  0.50000000  0.50000000  0.50000000  1
  I  I2  1  0.50000000  0.50000000  0.00000000  1
  I  I3  1  0.50000000  0.00000000  0.50000000  1
  Li  Li4  1  0.00000000  0.50000000  0.50000000  1
  F  F5  1  0.88751030  0.13596589  0.75341641  1
  F  F6  1  0.90481650  0.30990615  0.60417270  1
  Ti  Ti7  1  0.50265590  0.06490487  0.75973934  1
  O  O8  1  0.20781207  0.47357369  0.20609885  1
  O  O9  1  0.04126257  0.12534684  0.80789033  1
  O  O10  1  0.13101104  0.88760532  0.50063633  1
