# generated using pymatgen
data_Li2Sb2As6S3F2
_symmetry_space_group_name_H-M   'P 1'
_cell_length_a   6.76171087
_cell_length_b   6.66666394
_cell_length_c   7.81717781
_cell_angle_alpha   93.09689546
_cell_angle_beta   96.92977276
_cell_angle_gamma   93.03536937
_symmetry_Int_Tables_number   1
_chemical_formula_structural   Li2Sb2As6S3F2
_chemical_formula_sum   'Li2 Sb2 As6 S3 F2'
_cell_volume   348.66884917
_cell_formula_units_Z   1
loop_
 _symmetry_equiv_pos_site_id
 _symmetry_equiv_pos_as_xyz
  1  'x, y, z'
loop_
 _atom_site_type_symbol
 _atom_site_label
 _atom_site_symmetry_multiplicity
 _atom_site_fract_x
 _atom_site_fract_y
 _atom_site_fract_z
 _atom_site_occupancy
  Li  Li0  1  0.00000000  0.00000000  0.00000000  1
  Li  Li1  1  0.50000000  0.50000000  0.50000000  1
  Sb  Sb2  1  0.50000000  0.50000000  0.00000000  1
  Sb  Sb3  1  0.50000000  0.00000000  0.50000000  1
  F  F4  1  0.00000000  0.50000000  0.50000000  1
  F  F5  1  0.47214853  0.73206293  0.86205299  1
  S  S6  1  0.86077928  0.17502685  0.22895522  1
  S  S7  1  0.06858942  0.50793301  0.67526062  1
  S  S8  1  0.09907513  0.81104702  0.90611200  1
  As  As9  1  0.07758775  0.95280980  0.90208829  1
  As  As10  1  0.03669547  0.05378021  0.72274363  1
  As  As11  1  0.73918155  0.78820065  0.16288215  1
  As  As12  1  0.74349973  0.13403827  0.99494086  1
  As  As13  1  0.33326522  0.73088169  0.94297231  1
  As  As14  1  0.27527460  0.07843663  0.90436128  1
