# generated using pymatgen
data_LiTi2Nb2(OF)3
_symmetry_space_group_name_H-M   'P 1'
_cell_length_a   7.22686316
_cell_length_b   7.02225466
_cell_length_c   7.54323609
_cell_angle_alpha   90.62467244
_cell_angle_beta   92.97200178
_cell_angle_gamma   90.71416741
_symmetry_Int_Tables_number   1
_chemical_formula_structural   LiTi2Nb2(OF)3
_chemical_formula_sum   'Li1 Ti2 Nb2 O3 F3'
_cell_volume   382.24058722
_cell_formula_units_Z   1
loop_
 _symmetry_equiv_pos_site_id
 _symmetry_equiv_pos_as_xyz
  1  'x, y, z'
loop_
 _atom_site_type_symbol
 _atom_site_label
 _atom_site_symmetry_multiplicity
 _atom_site_fract_x
 _atom_site_fract_y
 _atom_site_fract_z
 _atom_site_occupancy
  Li  Li0  1  0.12500000  0.00000000  0.25000000  1
  Nb  Nb1  1  0.00000000  0.00000000  0.00000000  1
  Nb  Nb2  1  0.37500000  0.00000000  0.25000000  1
  F  F3  1  0.25000000  0.25000000  0.25000000  1
  F  F4  1  0.00000000  0.25000000  0.12500000  1
  F  F5  1  0.72550188  0.40291701  0.66050592  1
  Ti  Ti6  1  0.82272084  0.77785429  0.88900113  1
  Ti  Ti7  1  0.22721887  0.40477312  0.27306783  1
  O  O8  1  0.18209903  0.34155303  0.96670140  1
  O  O9  1  0.36574180  0.78941610  0.68134547  1
  O  O10  1  0.10386583  0.64805167  0.84320294  1
