# generated using pymatgen
data_Li5TiP2O3
_symmetry_space_group_name_H-M   'P 1'
_cell_length_a   8.16569399
_cell_length_b   7.79047973
_cell_length_c   8.35450630
_cell_angle_alpha   90.00000000
_cell_angle_beta   90.00000000
_cell_angle_gamma   90.00000000
_symmetry_Int_Tables_number   1
_chemical_formula_structural   Li5TiP2O3
_chemical_formula_sum   'Li5 Ti1 P2 O3'
_cell_volume   531.46919025
_cell_formula_units_Z   1
loop_
 _symmetry_equiv_pos_site_id
 _symmetry_equiv_pos_as_xyz
  1  'x, y, z'
loop_
 _atom_site_type_symbol
 _atom_site_label
 _atom_site_symmetry_multiplicity
 _atom_site_fract_x
 _atom_site_fract_y
 _atom_site_fract_z
 _atom_site_occupancy
  P  P0  1  0.00000000  0.00000000  0.00000000  1
  P  P1  1  0.50000000  0.50000000  0.50000000  1
  Li  Li2  1  0.25000000  0.25000000  0.25000000  1
  Li  Li3  1  0.75000000  0.25000000  0.00000000  1
  Li  Li4  1  0.25000000  0.75000000  0.50000000  1
  Li  Li5  1  0.83729836  0.72603250  0.43435122  1
  Li  Li6  1  0.88364163  0.79425596  0.12926409  1
  Ti  Ti7  1  0.24523969  0.71613713  0.06716776  1
  O  O8  1  0.68044939  0.49912167  0.67729714  1
  O  O9  1  0.93434723  0.80509246  0.12664323  1
  O  O10  1  0.80254419  0.29183990  0.63759431  1
