# generated using pymatgen
data_Li2LuTiP3Cl2
_symmetry_space_group_name_H-M   'P 1'
_cell_length_a   7.12614492
_cell_length_b   6.84870780
_cell_length_c   7.40194894
_cell_angle_alpha   95.13874719
_cell_angle_beta   96.55883042
_cell_angle_gamma   94.92488897
_symmetry_Int_Tables_number   1
_chemical_formula_structural   Li2LuTiP3Cl2
_chemical_formula_sum   'Li2 Lu1 Ti1 P3 Cl2'
_cell_volume   355.75525335
_cell_formula_units_Z   1
loop_
 _symmetry_equiv_pos_site_id
 _symmetry_equiv_pos_as_xyz
  1  'x, y, z'
loop_
 _atom_site_type_symbol
 _atom_site_label
 _atom_site_symmetry_multiplicity
 _atom_site_fract_x
 _atom_site_fract_y
 _atom_site_fract_z
 _atom_site_occupancy
  P  P0  1  0.12500000  0.00000000  0.25000000  1
  P  P1  1  0.00000000  0.00000000  0.00000000  1
  P  P2  1  0.37500000  0.00000000  0.25000000  1
  Lu  Lu3  1  0.25000000  0.25000000  0.25000000  1
  Li  Li4  1  0.00000000  0.25000000  0.12500000  1
  Li  Li5  1  0.43785622  0.19821188  0.94822340  1
  Cl  Cl6  1  0.14412885  0.07401998  0.83380091  1
  Cl  Cl7  1  0.01909157  0.25537674  0.76038343  1
  Ti  Ti8  1  0.75684111  0.75104115  0.41146082  1
