# generated using pymatgen
data_Li2I4(OF)3
_symmetry_space_group_name_H-M   'P 1'
_cell_length_a   6.79299458
_cell_length_b   6.41863597
_cell_length_c   7.10418271
_cell_angle_alpha   93.38153875
_cell_angle_beta   95.04334958
_cell_angle_gamma   93.13102673
_symmetry_Int_Tables_number   1
_chemical_formula_structural   Li2I4(OF)3
_chemical_formula_sum   'Li2 I4 O3 F3'
_cell_volume   307.46084468
_cell_formula_units_Z   1
loop_
 _symmetry_equiv_pos_site_id
 _symmetry_equiv_pos_as_xyz
  1  'x, y, z'
loop_
 _atom_site_type_symbol
 _atom_site_label
 _atom_site_symmetry_multiplicity
 _atom_site_fract_x
 _atom_site_fract_y
 _atom_site_fract_z
 _atom_site_occupancy
  I  I0  1  0.00000000  0.00000000  0.00000000  1
  I  I1  1  0.50000000  0.50000000  0.50000000  1
  I  I2  1  0.50000000  0.50000000  0.00000000  1
  I  I3  1  0.50000000  0.00000000  0.50000000  1
  Li  Li4  1  0.00000000  0.50000000  0.50000000  1
  Li  Li5  1  0.39125541  0.42701653  0.63675504  1
  F  F6  1  0.57796309  0.24285513  0.80357552  1
  F  F7  1  0.57952481  0.96596301  0.61378244  1
  F  F8  1  0.00600826  0.33175261  0.64057709  1
  O  O9  1  0.46682089  0.67737451  0.84739459  1
  O  O10  1  0.56651105  0.17181328  0.79558436  1
  O  O11  1  0.21101171  0.54623194  0.10970042  1
