# generated using pymatgen
data_Li2TiCu2P4F2
_symmetry_space_group_name_H-M   'P 1'
_cell_length_a   7.60642473
_cell_length_b   7.45007394
_cell_length_c   7.26821166
_cell_angle_alpha   90.93705824
_cell_angle_beta   91.90448767
_cell_angle_gamma   90.63246834
_symmetry_Int_Tables_number   1
_chemical_formula_structural   Li2TiCu2P4F2
_chemical_formula_sum   'Li2 Ti1 Cu2 P4 F2'
_cell_volume   411.56790724
_cell_formula_units_Z   1
loop_
 _symmetry_equiv_pos_site_id
 _symmetry_equiv_pos_as_xyz
  1  'x, y, z'
loop_
 _atom_site_type_symbol
 _atom_site_label
 _atom_site_symmetry_multiplicity
 _atom_site_fract_x
 _atom_site_fract_y
 _atom_site_fract_z
 _atom_site_occupancy
  P  P0  1  0.12500000  0.00000000  0.25000000  1
  P  P1  1  0.00000000  0.00000000  0.00000000  1
  P  P2  1  0.37500000  0.00000000  0.25000000  1
  P  P3  1  0.25000000  0.25000000  0.25000000  1
  Li  Li4  1  0.00000000  0.25000000  0.12500000  1
  Li  Li5  1  0.96284110  0.49915892  0.17695223  1
  Cu  Cu6  1  0.21535618  0.31178061  0.92298983  1
  Cu  Cu7  1  0.52629397  0.33870112  0.35524425  1
  F  F8  1  0.37047647  0.81447913  0.26782628  1
  F  F9  1  0.38127039  0.96372300  0.55977310  1
  Ti  Ti10  1  0.05985579  0.32177310  0.87971880  1
