# generated using pymatgen
data_Li3LuTiAs6N5
_symmetry_space_group_name_H-M   'P 1'
_cell_length_a   8.29308633
_cell_length_b   8.14155788
_cell_length_c   7.79771807
_cell_angle_alpha   91.09702224
_cell_angle_beta   90.92910720
_cell_angle_gamma   91.18847627
_symmetry_Int_Tables_number   1
_chemical_formula_structural   Li3LuTiAs6N5
_chemical_formula_sum   'Li3 Lu1 Ti1 As6 N5'
_cell_volume   526.20891420
_cell_formula_units_Z   1
loop_
 _symmetry_equiv_pos_site_id
 _symmetry_equiv_pos_as_xyz
  1  'x, y, z'
loop_
 _atom_site_type_symbol
 _atom_site_label
 _atom_site_symmetry_multiplicity
 _atom_site_fract_x
 _atom_site_fract_y
 _atom_site_fract_z
 _atom_site_occupancy
  Lu  Lu0  1  0.12500000  0.00000000  0.25000000  1
  Li  Li1  1  0.00000000  0.00000000  0.00000000  1
  Li  Li2  1  0.37500000  0.00000000  0.25000000  1
  Li  Li3  1  0.25000000  0.25000000  0.25000000  1
  Ti  Ti4  1  0.00000000  0.25000000  0.12500000  1
  As  As5  1  0.72273179  0.02156519  0.14704197  1
  As  As6  1  0.92610531  0.00740445  0.04352617  1
  As  As7  1  0.63499067  0.74699796  0.32586284  1
  As  As8  1  0.64308276  0.68647011  0.67422698  1
  As  As9  1  0.99107554  0.91273434  0.31970611  1
  As  As10  1  0.69476442  0.07303543  0.50128183  1
  N  N11  1  0.57550421  0.10094053  0.40684179  1
  N  N12  1  0.57163369  0.98853451  0.06249947  1
  N  N13  1  0.26072267  0.96023542  0.02045877  1
  N  N14  1  0.81104143  0.59632528  0.76841139  1
  N  N15  1  0.17493080  0.07091641  0.68596682  1
