# generated using pymatgen
data_Li3Cu2P3Se
_symmetry_space_group_name_H-M   'P 1'
_cell_length_a   6.95507688
_cell_length_b   6.63779909
_cell_length_c   7.23429271
_cell_angle_alpha   96.38980211
_cell_angle_beta   97.90420770
_cell_angle_gamma   96.13996450
_symmetry_Int_Tables_number   1
_chemical_formula_structural   Li3Cu2P3Se
_chemical_formula_sum   'Li3 Cu2 P3 Se1'
_cell_volume   326.20743685
_cell_formula_units_Z   1
loop_
 _symmetry_equiv_pos_site_id
 _symmetry_equiv_pos_as_xyz
  1  'x, y, z'
loop_
 _atom_site_type_symbol
 _atom_site_label
 _atom_site_symmetry_multiplicity
 _atom_site_fract_x
 _atom_site_fract_y
 _atom_site_fract_z
 _atom_site_occupancy
  P  P0  1  0.12500000  0.12500000  0.12500000  1
  P  P1  1  0.50000000  0.50000000  0.50000000  1
  P  P2  1  0.25000000  0.25000000  0.25000000  1
  Li  Li3  1  0.75000000  0.75000000  0.75000000  1
  Li  Li4  1  0.61343194  0.62045682  0.68949378  1
  Li  Li5  1  0.33547088  0.38279959  0.14627462  1
  Cu  Cu6  1  0.04385122  0.33845259  0.36099507  1
  Cu  Cu7  1  0.56032707  0.03644349  0.39415066  1
  Se  Se8  1  0.17848798  0.87942893  0.87261433  1
