# generated using pymatgen
data_Li3LuCu2(As3P2)2
_symmetry_space_group_name_H-M   'P 1'
_cell_length_a   7.41202558
_cell_length_b   7.22321371
_cell_length_c   8.59984194
_cell_angle_alpha   92.86840631
_cell_angle_beta   92.13884511
_cell_angle_gamma   93.19488981
_symmetry_Int_Tables_number   1
_chemical_formula_structural   Li3LuCu2(As3P2)2
_chemical_formula_sum   'Li3 Lu1 Cu2 As6 P4'
_cell_volume   458.76073352
_cell_formula_units_Z   1
loop_
 _symmetry_equiv_pos_site_id
 _symmetry_equiv_pos_as_xyz
  1  'x, y, z'
loop_
 _atom_site_type_symbol
 _atom_site_label
 _atom_site_symmetry_multiplicity
 _atom_site_fract_x
 _atom_site_fract_y
 _atom_site_fract_z
 _atom_site_occupancy
  P  P0  1  0.00000000  0.00000000  0.00000000  1
  P  P1  1  0.50000000  0.50000000  0.50000000  1
  P  P2  1  0.25000000  0.25000000  0.25000000  1
  P  P3  1  0.75000000  0.25000000  0.00000000  1
  Lu  Lu4  1  0.25000000  0.75000000  0.50000000  1
  Li  Li5  1  0.47426367  0.18965158  0.75406910  1
  Li  Li6  1  0.55930541  0.41742646  0.70209571  1
  Li  Li7  1  0.38122992  0.64701131  0.22789308  1
  Cu  Cu8  1  0.76995149  0.22634760  0.88452947  1
  Cu  Cu9  1  0.70114907  0.30185590  0.36552570  1
  As  As10  1  0.43794521  0.89135781  0.49414009  1
  As  As11  1  0.20953084  0.18974300  0.88590291  1
  As  As12  1  0.38733676  0.56323751  0.23262123  1
  As  As13  1  0.03734676  0.27406303  0.94889332  1
  As  As14  1  0.69141781  0.98193846  0.05965220  1
  As  As15  1  0.23474356  0.18041831  0.85710470  1
