# generated using pymatgen
data_Li2Zn2I4(OF)3
_symmetry_space_group_name_H-M   'P 1'
_cell_length_a   7.17314482
_cell_length_b   7.08729695
_cell_length_c   7.05245505
_cell_angle_alpha   92.87993314
_cell_angle_beta   94.00856609
_cell_angle_gamma   92.64750504
_symmetry_Int_Tables_number   1
_chemical_formula_structural   Li2Zn2I4(OF)3
_chemical_formula_sum   'Li2 Zn2 I4 O3 F3'
_cell_volume   356.76054990
_cell_formula_units_Z   1
loop_
 _symmetry_equiv_pos_site_id
 _symmetry_equiv_pos_as_xyz
  1  'x, y, z'
loop_
 _atom_site_type_symbol
 _atom_site_label
 _atom_site_symmetry_multiplicity
 _atom_site_fract_x
 _atom_site_fract_y
 _atom_site_fract_z
 _atom_site_occupancy
  I  I0  1  0.00000000  0.00000000  0.00000000  1
  I  I1  1  0.50000000  0.50000000  0.50000000  1
  I  I2  1  0.50000000  0.50000000  0.00000000  1
  I  I3  1  0.50000000  0.00000000  0.50000000  1
  Li  Li4  1  0.00000000  0.50000000  0.50000000  1
  Li  Li5  1  0.72341340  0.46075464  0.17158234  1
  Zn  Zn6  1  0.60308437  0.21622991  0.36551673  1
  Zn  Zn7  1  0.33976010  0.50872457  0.70200782  1
  F  F8  1  0.41118356  0.98529850  0.27654907  1
  F  F9  1  0.25802922  0.76506407  0.19952139  1
  F  F10  1  0.96446023  0.72050543  0.56696617  1
  O  O11  1  0.91933965  0.86496004  0.28847610  1
  O  O12  1  0.92362422  0.46645930  0.52946322  1
  O  O13  1  0.60884095  0.03663082  0.77272091  1
