# generated using pymatgen
data_Li3TiI4(OF)3
_symmetry_space_group_name_H-M   'P 1'
_cell_length_a   6.87120620
_cell_length_b   6.66446748
_cell_length_c   7.08700605
_cell_angle_alpha   96.77256711
_cell_angle_beta   98.98730908
_cell_angle_gamma   96.36691861
_symmetry_Int_Tables_number   1
_chemical_formula_structural   Li3TiI4(OF)3
_chemical_formula_sum   'Li3 Ti1 I4 O3 F3'
_cell_volume   315.53491646
_cell_formula_units_Z   1
loop_
 _symmetry_equiv_pos_site_id
 _symmetry_equiv_pos_as_xyz
  1  'x, y, z'
loop_
 _atom_site_type_symbol
 _atom_site_label
 _atom_site_symmetry_multiplicity
 _atom_site_fract_x
 _atom_site_fract_y
 _atom_site_fract_z
 _atom_site_occupancy
  I  I0  1  0.12500000  0.00000000  0.25000000  1
  I  I1  1  0.00000000  0.00000000  0.00000000  1
  I  I2  1  0.37500000  0.00000000  0.25000000  1
  I  I3  1  0.25000000  0.25000000  0.25000000  1
  Li  Li4  1  0.00000000  0.25000000  0.12500000  1
  Li  Li5  1  0.65401383  0.44585211  0.41041986  1
  Li  Li6  1  0.39451153  0.47912886  0.62126000  1
  F  F7  1  0.61005297  0.43293250  0.91646849  1
  F  F8  1  0.40764107  0.33693212  0.62543861  1
  F  F9  1  0.35212708  0.68711651  0.33416227  1
  Ti  Ti10  1  0.56870392  0.14541743  0.03279538  1
  O  O11  1  0.25774923  0.32742797  0.28323310  1
  O  O12  1  0.85182681  0.44016357  0.95850548  1
  O  O13  1  0.97320628  0.13480981  0.06949737  1
