# generated using pymatgen
data_Li2LuCu2(NiP2)2
_symmetry_space_group_name_H-M   'P 1'
_cell_length_a   7.57063934
_cell_length_b   7.35756342
_cell_length_c   8.02815815
_cell_angle_alpha   91.58759367
_cell_angle_beta   91.54012608
_cell_angle_gamma   91.80512344
_symmetry_Int_Tables_number   1
_chemical_formula_structural   Li2LuCu2(NiP2)2
_chemical_formula_sum   'Li2 Lu1 Cu2 Ni2 P4'
_cell_volume   446.61427816
_cell_formula_units_Z   1
loop_
 _symmetry_equiv_pos_site_id
 _symmetry_equiv_pos_as_xyz
  1  'x, y, z'
loop_
 _atom_site_type_symbol
 _atom_site_label
 _atom_site_symmetry_multiplicity
 _atom_site_fract_x
 _atom_site_fract_y
 _atom_site_fract_z
 _atom_site_occupancy
  P  P0  1  0.00000000  0.00000000  0.00000000  1
  P  P1  1  0.50000000  0.50000000  0.50000000  1
  P  P2  1  0.50000000  0.50000000  0.00000000  1
  P  P3  1  0.50000000  0.00000000  0.50000000  1
  Lu  Lu4  1  0.00000000  0.50000000  0.50000000  1
  Li  Li5  1  0.35485419  0.38376744  0.51109631  1
  Li  Li6  1  0.03507539  0.86350934  0.85876506  1
  Cu  Cu7  1  0.33784044  0.03238630  0.01765937  1
  Cu  Cu8  1  0.08725608  0.90063279  0.04679297  1
  Ni  Ni9  1  0.01617092  0.20212616  0.73693197  1
  Ni  Ni10  1  0.90211902  0.54951415  0.99481174  1
