# generated using pymatgen
data_Li3LuTiP3N5
_symmetry_space_group_name_H-M   'P 1'
_cell_length_a   8.08844305
_cell_length_b   7.89827798
_cell_length_c   7.30604993
_cell_angle_alpha   92.22723164
_cell_angle_beta   92.71939305
_cell_angle_gamma   92.18196148
_symmetry_Int_Tables_number   1
_chemical_formula_structural   Li3LuTiP3N5
_chemical_formula_sum   'Li3 Lu1 Ti1 P3 N5'
_cell_volume   465.49481670
_cell_formula_units_Z   1
loop_
 _symmetry_equiv_pos_site_id
 _symmetry_equiv_pos_as_xyz
  1  'x, y, z'
loop_
 _atom_site_type_symbol
 _atom_site_label
 _atom_site_symmetry_multiplicity
 _atom_site_fract_x
 _atom_site_fract_y
 _atom_site_fract_z
 _atom_site_occupancy
  P  P0  1  0.00000000  0.00000000  0.00000000  1
  P  P1  1  0.50000000  0.50000000  0.50000000  1
  P  P2  1  0.25000000  0.25000000  0.25000000  1
  Lu  Lu3  1  0.75000000  0.25000000  0.00000000  1
  Li  Li4  1  0.25000000  0.75000000  0.50000000  1
  Li  Li5  1  0.87639497  0.24658149  0.01435629  1
  Li  Li6  1  0.66200509  0.39351219  0.00263147  1
  Ti  Ti7  1  0.42061048  0.09218828  0.27609255  1
  N  N8  1  0.04149923  0.60495371  0.52323517  1
  N  N9  1  0.62290821  0.12984962  0.58474423  1
  N  N10  1  0.34588958  0.28430770  0.22838372  1
  N  N11  1  0.52673350  0.75464708  0.13673419  1
  N  N12  1  0.20652719  0.49935970  0.27783270  1
