# generated using pymatgen
data_LiMo2P3
_symmetry_space_group_name_H-M   'P 1'
_cell_length_a   6.44511210
_cell_length_b   6.87412756
_cell_length_c   6.76723493
_cell_angle_alpha   93.05937483
_cell_angle_beta   89.85291575
_cell_angle_gamma   92.76021718
_symmetry_Int_Tables_number   1
_chemical_formula_structural   LiMo2P3
_chemical_formula_sum   'Li1 Mo2 P3'
_cell_volume   299.04445059
_cell_formula_units_Z   1
loop_
 _symmetry_equiv_pos_site_id
 _symmetry_equiv_pos_as_xyz
  1  'x, y, z'
loop_
 _atom_site_type_symbol
 _atom_site_label
 _atom_site_symmetry_multiplicity
 _atom_site_fract_x
 _atom_site_fract_y
 _atom_site_fract_z
 _atom_site_occupancy
  P  P0  1  0.00000000  0.00000000  0.00000000  1
  P  P1  1  0.33300000  0.66700000  0.25000000  1
  P  P2  1  0.66700000  0.33300000  0.50000000  1
  Mo  Mo3  1  0.00000000  0.00000000  0.75000000  1
  Mo  Mo4  1  0.82024811  0.94369793  0.24053929  1
  Li  Li5  1  0.66540174  0.55686389  0.88270012  1
