# generated using pymatgen
data_Li3P4O4F3
_symmetry_space_group_name_H-M   'P 1'
_cell_length_a   5.84539702
_cell_length_b   5.73855523
_cell_length_c   7.31865955
_cell_angle_alpha   100.74352314
_cell_angle_beta   103.69581943
_cell_angle_gamma   100.14993589
_symmetry_Int_Tables_number   1
_chemical_formula_structural   Li3P4O4F3
_chemical_formula_sum   'Li3 P4 O4 F3'
_cell_volume   228.00686794
_cell_formula_units_Z   1
loop_
 _symmetry_equiv_pos_site_id
 _symmetry_equiv_pos_as_xyz
  1  'x, y, z'
loop_
 _atom_site_type_symbol
 _atom_site_label
 _atom_site_symmetry_multiplicity
 _atom_site_fract_x
 _atom_site_fract_y
 _atom_site_fract_z
 _atom_site_occupancy
  P  P0  1  0.00000000  0.00000000  0.00000000  1
  P  P1  1  0.50000000  0.50000000  0.50000000  1
  P  P2  1  0.25000000  0.25000000  0.25000000  1
  P  P3  1  0.75000000  0.25000000  0.00000000  1
  Li  Li4  1  0.25000000  0.75000000  0.50000000  1
  Li  Li5  1  0.92270978  0.34432710  0.32492144  1
  Li  Li6  1  0.92825855  0.25591627  0.23857729  1
  F  F7  1  0.08242030  0.20107276  0.40928929  1
  F  F8  1  0.67618244  0.88652464  0.45546476  1
  F  F9  1  0.67073803  0.21340129  0.41687280  1
  O  O10  1  0.14136800  0.19095669  0.58744892  1
  O  O11  1  0.60027569  0.60082959  0.07636810  1
  O  O12  1  0.62818953  0.17807161  0.91197144  1
  O  O13  1  0.83165263  0.08125277  0.92520751  1
