# generated using pymatgen
data_Li2Lu(CuI2)2
_symmetry_space_group_name_H-M   'P 1'
_cell_length_a   7.84176236
_cell_length_b   7.66791933
_cell_length_c   7.72564694
_cell_angle_alpha   90.76143172
_cell_angle_beta   91.56443859
_cell_angle_gamma   90.83586377
_symmetry_Int_Tables_number   1
_chemical_formula_structural   Li2Lu(CuI2)2
_chemical_formula_sum   'Li2 Lu1 Cu2 I4'
_cell_volume   464.27705017
_cell_formula_units_Z   1
loop_
 _symmetry_equiv_pos_site_id
 _symmetry_equiv_pos_as_xyz
  1  'x, y, z'
loop_
 _atom_site_type_symbol
 _atom_site_label
 _atom_site_symmetry_multiplicity
 _atom_site_fract_x
 _atom_site_fract_y
 _atom_site_fract_z
 _atom_site_occupancy
  I  I0  1  0.00000000  0.00000000  0.00000000  1
  I  I1  1  0.50000000  0.50000000  0.50000000  1
  I  I2  1  0.25000000  0.25000000  0.25000000  1
  I  I3  1  0.75000000  0.25000000  0.00000000  1
  Lu  Lu4  1  0.25000000  0.75000000  0.50000000  1
  Li  Li5  1  0.74137921  0.96260221  0.93996192  1
  Li  Li6  1  0.64266867  0.12576851  0.99020408  1
  Cu  Cu7  1  0.32473290  0.73301595  0.58436649  1
  Cu  Cu8  1  0.11849263  0.36869103  0.44933222  1
