# generated using pymatgen
data_Li2TiCu2(As3I2)2
_symmetry_space_group_name_H-M   'P 1'
_cell_length_a   7.90023282
_cell_length_b   7.99551003
_cell_length_c   8.10670372
_cell_angle_alpha   90.33146323
_cell_angle_beta   91.57700138
_cell_angle_gamma   90.37895098
_symmetry_Int_Tables_number   1
_chemical_formula_structural   Li2TiCu2(As3I2)2
_chemical_formula_sum   'Li2 Ti1 Cu2 As6 I4'
_cell_volume   511.85694786
_cell_formula_units_Z   1
loop_
 _symmetry_equiv_pos_site_id
 _symmetry_equiv_pos_as_xyz
  1  'x, y, z'
loop_
 _atom_site_type_symbol
 _atom_site_label
 _atom_site_symmetry_multiplicity
 _atom_site_fract_x
 _atom_site_fract_y
 _atom_site_fract_z
 _atom_site_occupancy
  Li  Li0  1  0.00000000  0.00000000  0.00000000  1
  Li  Li1  1  0.50000000  0.50000000  0.50000000  1
  Ti  Ti2  1  0.25000000  0.25000000  0.25000000  1
  I  I3  1  0.75000000  0.25000000  0.00000000  1
  I  I4  1  0.25000000  0.75000000  0.50000000  1
  I  I5  1  0.58532273  0.36041211  0.26696713  1
  I  I6  1  0.61257906  0.83133278  0.91512764  1
  As  As7  1  0.99593010  0.06680350  0.06786036  1
  As  As8  1  0.25857698  0.10987790  0.40400664  1
  As  As9  1  0.25308462  0.94368214  0.36738959  1
  As  As10  1  0.18935829  0.84252420  0.90260580  1
  As  As11  1  0.66042105  0.59302837  0.21766629  1
  As  As12  1  0.00641681  0.27429810  0.74140656  1
  Cu  Cu13  1  0.04697794  0.64574813  0.47495877  1
  Cu  Cu14  1  0.39874473  0.82978797  0.08972745  1
