# generated using pymatgen
data_Li2LuCu2As6F3
_symmetry_space_group_name_H-M   'P 1'
_cell_length_a   7.50209400
_cell_length_b   7.41050202
_cell_length_c   8.46295232
_cell_angle_alpha   91.61067129
_cell_angle_beta   92.48611866
_cell_angle_gamma   91.75037230
_symmetry_Int_Tables_number   1
_chemical_formula_structural   Li2LuCu2As6F3
_chemical_formula_sum   'Li2 Lu1 Cu2 As6 F3'
_cell_volume   469.62546754
_cell_formula_units_Z   1
loop_
 _symmetry_equiv_pos_site_id
 _symmetry_equiv_pos_as_xyz
  1  'x, y, z'
loop_
 _atom_site_type_symbol
 _atom_site_label
 _atom_site_symmetry_multiplicity
 _atom_site_fract_x
 _atom_site_fract_y
 _atom_site_fract_z
 _atom_site_occupancy
  Lu  Lu0  1  0.00000000  0.00000000  0.00000000  1
  Li  Li1  1  0.50000000  0.50000000  0.50000000  1
  Li  Li2  1  0.25000000  0.25000000  0.25000000  1
  Cu  Cu3  1  0.75000000  0.25000000  0.00000000  1
  Cu  Cu4  1  0.25000000  0.75000000  0.50000000  1
  F  F5  1  0.05556482  0.20108371  0.28220266  1
  F  F6  1  0.76445774  0.68169127  0.17162409  1
  F  F7  1  0.90605555  0.12847526  0.53437410  1
  As  As8  1  0.83565377  0.12245564  0.25119809  1
  As  As9  1  0.32322445  0.69919241  0.44898330  1
  As  As10  1  0.71370278  0.38183882  0.60898641  1
  As  As11  1  0.96150345  0.13054538  0.38272505  1
  As  As12  1  0.71284418  0.49689001  0.44046317  1
  As  As13  1  0.85202704  0.31023892  0.61633346  1
