# generated using pymatgen
data_Li2Cu2As6O7F3
_symmetry_space_group_name_H-M   'P 1'
_cell_length_a   7.56684048
_cell_length_b   7.51090499
_cell_length_c   8.50287112
_cell_angle_alpha   90.85241557
_cell_angle_beta   92.19221331
_cell_angle_gamma   90.97181651
_symmetry_Int_Tables_number   1
_chemical_formula_structural   Li2Cu2As6O7F3
_chemical_formula_sum   'Li2 Cu2 As6 O7 F3'
_cell_volume   482.76920839
_cell_formula_units_Z   1
loop_
 _symmetry_equiv_pos_site_id
 _symmetry_equiv_pos_as_xyz
  1  'x, y, z'
loop_
 _atom_site_type_symbol
 _atom_site_label
 _atom_site_symmetry_multiplicity
 _atom_site_fract_x
 _atom_site_fract_y
 _atom_site_fract_z
 _atom_site_occupancy
  Li  Li0  1  0.12500000  0.00000000  0.25000000  1
  Li  Li1  1  0.00000000  0.00000000  0.00000000  1
  Cu  Cu2  1  0.37500000  0.00000000  0.25000000  1
  Cu  Cu3  1  0.25000000  0.25000000  0.25000000  1
  F  F4  1  0.00000000  0.25000000  0.12500000  1
  F  F5  1  0.90673296  0.08095299  0.73149425  1
  F  F6  1  0.14237782  0.49164586  0.58653959  1
  As  As7  1  0.46012155  0.47865093  0.45160549  1
  As  As8  1  0.70995008  0.79640200  0.26015787  1
  As  As9  1  0.58562657  0.15834098  0.62940718  1
  As  As10  1  0.13975380  0.24366227  0.92339797  1
  As  As11  1  0.42579274  0.45653595  0.22336204  1
  As  As12  1  0.71634078  0.36138091  0.04393402  1
  O  O13  1  0.06734569  0.56593935  0.98163031  1
  O  O14  1  0.34320600  0.77680413  0.77510916  1
  O  O15  1  0.58094966  0.83950773  0.10480433  1
  O  O16  1  0.40836875  0.70702059  0.95472828  1
  O  O17  1  0.01508624  0.14268355  0.51417674  1
  O  O18  1  0.13018673  0.58773362  0.31195731  1
  O  O19  1  0.27225391  0.81137662  0.76630081  1
