# generated using pymatgen
data_Li2LuCu2(As3P2)2
_symmetry_space_group_name_H-M   'P 1'
_cell_length_a   7.37832233
_cell_length_b   7.17366046
_cell_length_c   8.13166884
_cell_angle_alpha   92.51706567
_cell_angle_beta   92.33896580
_cell_angle_gamma   92.68497694
_symmetry_Int_Tables_number   1
_chemical_formula_structural   Li2LuCu2(As3P2)2
_chemical_formula_sum   'Li2 Lu1 Cu2 As6 P4'
_cell_volume   429.12201908
_cell_formula_units_Z   1
loop_
 _symmetry_equiv_pos_site_id
 _symmetry_equiv_pos_as_xyz
  1  'x, y, z'
loop_
 _atom_site_type_symbol
 _atom_site_label
 _atom_site_symmetry_multiplicity
 _atom_site_fract_x
 _atom_site_fract_y
 _atom_site_fract_z
 _atom_site_occupancy
  P  P0  1  0.00000000  0.00000000  0.00000000  1
  P  P1  1  0.50000000  0.50000000  0.50000000  1
  P  P2  1  0.25000000  0.25000000  0.25000000  1
  P  P3  1  0.75000000  0.25000000  0.00000000  1
  Lu  Lu4  1  0.25000000  0.75000000  0.50000000  1
  Li  Li5  1  0.48444453  0.95938680  0.90807880  1
  Li  Li6  1  0.16934326  0.63692533  0.87547130  1
  Cu  Cu7  1  0.31554619  0.68539968  0.02694334  1
  Cu  Cu8  1  0.64394143  0.15928363  0.08582766  1
  As  As9  1  0.00982362  0.43742018  0.81038047  1
  As  As10  1  0.18286261  0.49054322  0.39098200  1
  As  As11  1  0.24615871  0.68444611  0.32712499  1
  As  As12  1  0.53190029  0.28103203  0.92519023  1
  As  As13  1  0.02129479  0.53272070  0.40172202  1
  As  As14  1  0.58865818  0.49655473  0.43132795  1
