# generated using pymatgen
data_Li2LuTe6(PI)4
_symmetry_space_group_name_H-M   'P 1'
_cell_length_a   7.74331783
_cell_length_b   7.92153370
_cell_length_c   7.60276230
_cell_angle_alpha   92.60714392
_cell_angle_beta   93.08932609
_cell_angle_gamma   92.57385471
_symmetry_Int_Tables_number   1
_chemical_formula_structural   Li2LuTe6(PI)4
_chemical_formula_sum   'Li2 Lu1 Te6 P4 I4'
_cell_volume   464.66117607
_cell_formula_units_Z   1
loop_
 _symmetry_equiv_pos_site_id
 _symmetry_equiv_pos_as_xyz
  1  'x, y, z'
loop_
 _atom_site_type_symbol
 _atom_site_label
 _atom_site_symmetry_multiplicity
 _atom_site_fract_x
 _atom_site_fract_y
 _atom_site_fract_z
 _atom_site_occupancy
  P  P0  1  0.00000000  0.00000000  0.00000000  1
  P  P1  1  0.50000000  0.50000000  0.50000000  1
  P  P2  1  0.25000000  0.25000000  0.25000000  1
  P  P3  1  0.75000000  0.25000000  0.00000000  1
  I  I4  1  0.25000000  0.75000000  0.50000000  1
  I  I5  1  0.97661407  0.73615869  0.10483313  1
  I  I6  1  0.62003104  0.77814917  0.79859166  1
  I  I7  1  0.23709828  0.83514061  0.78792089  1
  Lu  Lu8  1  0.51243466  0.02147513  0.92450010  1
  Li  Li9  1  0.51283086  0.89620439  0.69252676  1
  Li  Li10  1  0.75411073  0.15611025  0.17297653  1
  Te  Te11  1  0.59084208  0.45668132  0.65187346  1
  Te  Te12  1  0.51397143  0.09731787  0.19091162  1
  Te  Te13  1  0.07705028  0.64370106  0.45609612  1
  Te  Te14  1  0.53069525  0.64176201  0.14432445  1
  Te  Te15  1  0.80386228  0.16496428  0.75206977  1
  Te  Te16  1  0.26452141  0.51512709  0.09405587  1
