# generated using pymatgen
data_Li2LuAs6P3S2
_symmetry_space_group_name_H-M   'P 1'
_cell_length_a   6.81994443
_cell_length_b   6.65582625
_cell_length_c   7.61794545
_cell_angle_alpha   94.25199199
_cell_angle_beta   95.50984978
_cell_angle_gamma   94.16771054
_symmetry_Int_Tables_number   1
_chemical_formula_structural   Li2LuAs6P3S2
_chemical_formula_sum   'Li2 Lu1 As6 P3 S2'
_cell_volume   342.14066112
_cell_formula_units_Z   1
loop_
 _symmetry_equiv_pos_site_id
 _symmetry_equiv_pos_as_xyz
  1  'x, y, z'
loop_
 _atom_site_type_symbol
 _atom_site_label
 _atom_site_symmetry_multiplicity
 _atom_site_fract_x
 _atom_site_fract_y
 _atom_site_fract_z
 _atom_site_occupancy
  P  P0  1  0.12500000  0.00000000  0.25000000  1
  P  P1  1  0.00000000  0.00000000  0.00000000  1
  P  P2  1  0.37500000  0.00000000  0.25000000  1
  Lu  Lu3  1  0.25000000  0.25000000  0.25000000  1
  Li  Li4  1  0.00000000  0.25000000  0.12500000  1
  Li  Li5  1  0.32040815  0.37180192  0.46410344  1
  S  S6  1  0.71765576  0.57597369  0.14900961  1
  S  S7  1  0.26758860  0.56218639  0.70199635  1
  As  As8  1  0.74794189  0.62041733  0.60238166  1
  As  As9  1  0.28820604  0.01574225  0.07406467  1
  As  As10  1  0.48560327  0.67199384  0.25508745  1
  As  As11  1  0.06566981  0.12237765  0.66874178  1
  As  As12  1  0.69929035  0.74719514  0.26345941  1
  As  As13  1  0.83238419  0.75549811  0.00610296  1
