# generated using pymatgen
data_Li2I4N5
_symmetry_space_group_name_H-M   'P 1'
_cell_length_a   7.22443414
_cell_length_b   7.03958847
_cell_length_c   8.03414669
_cell_angle_alpha   93.17575902
_cell_angle_beta   93.57420373
_cell_angle_gamma   93.12272007
_symmetry_Int_Tables_number   1
_chemical_formula_structural   Li2I4N5
_chemical_formula_sum   'Li2 I4 N5'
_cell_volume   406.48339953
_cell_formula_units_Z   1
loop_
 _symmetry_equiv_pos_site_id
 _symmetry_equiv_pos_as_xyz
  1  'x, y, z'
loop_
 _atom_site_type_symbol
 _atom_site_label
 _atom_site_symmetry_multiplicity
 _atom_site_fract_x
 _atom_site_fract_y
 _atom_site_fract_z
 _atom_site_occupancy
  I  I0  1  0.00000000  0.00000000  0.00000000  1
  I  I1  1  0.50000000  0.50000000  0.50000000  1
  I  I2  1  0.25000000  0.25000000  0.25000000  1
  I  I3  1  0.75000000  0.25000000  0.00000000  1
  Li  Li4  1  0.25000000  0.75000000  0.50000000  1
  Li  Li5  1  0.00446262  0.09982622  0.35251051  1
  N  N6  1  0.63282000  0.98440073  0.31023984  1
  N  N7  1  0.30135183  0.32291951  0.48666983  1
  N  N8  1  0.31195452  0.86369955  0.87086930  1
  N  N9  1  0.18235970  0.07300848  0.62382584  1
  N  N10  1  0.54847955  0.09428163  0.39676795  1
