# generated using pymatgen
data_LiP2(IO)2
_symmetry_space_group_name_H-M   'P 1'
_cell_length_a   8.21622648
_cell_length_b   8.15124485
_cell_length_c   7.51128910
_cell_angle_alpha   91.95142021
_cell_angle_beta   92.42675014
_cell_angle_gamma   91.86839463
_symmetry_Int_Tables_number   1
_chemical_formula_structural   LiP2(IO)2
_chemical_formula_sum   'Li2 P4 I4 O4'
_cell_volume   502.01492369
_cell_formula_units_Z   2
loop_
 _symmetry_equiv_pos_site_id
 _symmetry_equiv_pos_as_xyz
  1  'x, y, z'
loop_
 _atom_site_type_symbol
 _atom_site_label
 _atom_site_symmetry_multiplicity
 _atom_site_fract_x
 _atom_site_fract_y
 _atom_site_fract_z
 _atom_site_occupancy
  O  O0  1  0.12500000  0.00000000  0.25000000  1
  O  O1  1  0.00000000  0.00000000  0.00000000  1
  O  O2  1  0.37500000  0.00000000  0.25000000  1
  O  O3  1  0.25000000  0.25000000  0.25000000  1
  P  P4  1  0.00000000  0.25000000  0.12500000  1
  P  P5  1  0.05611278  0.30669170  0.04758581  1
  P  P6  1  0.23127453  0.40044690  0.75411701  1
  P  P7  1  0.13172273  0.17724739  0.83798760  1
  I  I8  1  0.60470471  0.58531025  0.84059481  1
  I  I9  1  0.55284019  0.30727060  0.57351050  1
  I  I10  1  0.88579785  0.84663759  0.62934471  1
  I  I11  1  0.53661830  0.16563143  0.37224700  1
  Li  Li12  1  0.52535942  0.82324695  0.78625350  1
  Li  Li13  1  0.43602261  0.49549380  0.08979873  1
