# generated using pymatgen
data_Li3Zr2Ti2SeCl2
_symmetry_space_group_name_H-M   'P 1'
_cell_length_a   6.85910810
_cell_length_b   6.50985291
_cell_length_c   8.54877198
_cell_angle_alpha   100.88517865
_cell_angle_beta   105.44596713
_cell_angle_gamma   100.14767359
_symmetry_Int_Tables_number   1
_chemical_formula_structural   Li3Zr2Ti2SeCl2
_chemical_formula_sum   'Li3 Zr2 Ti2 Se1 Cl2'
_cell_volume   350.81598507
_cell_formula_units_Z   1
loop_
 _symmetry_equiv_pos_site_id
 _symmetry_equiv_pos_as_xyz
  1  'x, y, z'
loop_
 _atom_site_type_symbol
 _atom_site_label
 _atom_site_symmetry_multiplicity
 _atom_site_fract_x
 _atom_site_fract_y
 _atom_site_fract_z
 _atom_site_occupancy
  Li  Li0  1  0.00000000  0.00000000  0.00000000  1
  Li  Li1  1  0.50000000  0.50000000  0.50000000  1
  Li  Li2  1  0.50000000  0.50000000  0.00000000  1
  Se  Se3  1  0.50000000  0.00000000  0.50000000  1
  Cl  Cl4  1  0.00000000  0.50000000  0.50000000  1
  Cl  Cl5  1  0.03556745  0.77416078  0.24455969  1
  Ti  Ti6  1  0.17417165  0.12264990  0.83192574  1
  Ti  Ti7  1  0.78105261  0.06514762  0.56064599  1
  Zr  Zr8  1  0.94409505  0.64247702  0.67137928  1
  Zr  Zr9  1  0.82893395  0.13866411  0.63119627  1
