# generated using pymatgen
data_Li2Cu2As6F3
_symmetry_space_group_name_H-M   'P 1'
_cell_length_a   7.53584718
_cell_length_b   7.55046429
_cell_length_c   8.51489346
_cell_angle_alpha   90.45132850
_cell_angle_beta   92.62415727
_cell_angle_gamma   90.49979639
_symmetry_Int_Tables_number   1
_chemical_formula_structural   Li2Cu2As6F3
_chemical_formula_sum   'Li2 Cu2 As6 F3'
_cell_volume   483.94707439
_cell_formula_units_Z   1
loop_
 _symmetry_equiv_pos_site_id
 _symmetry_equiv_pos_as_xyz
  1  'x, y, z'
loop_
 _atom_site_type_symbol
 _atom_site_label
 _atom_site_symmetry_multiplicity
 _atom_site_fract_x
 _atom_site_fract_y
 _atom_site_fract_z
 _atom_site_occupancy
  Li  Li0  1  0.12500000  0.12500000  0.12500000  1
  Li  Li1  1  0.50000000  0.50000000  0.50000000  1
  Cu  Cu2  1  0.25000000  0.25000000  0.25000000  1
  Cu  Cu3  1  0.75000000  0.75000000  0.75000000  1
  F  F4  1  0.79267138  0.99585444  0.02598021  1
  F  F5  1  0.17592422  0.28547868  0.93175976  1
  F  F6  1  0.49842201  0.70837181  0.56550552  1
  As  As7  1  0.84332603  0.65632832  0.47639011  1
  As  As8  1  0.38665127  0.51785284  0.75693129  1
  As  As9  1  0.60710346  0.53649680  0.21711061  1
  As  As10  1  0.29158869  0.83742657  0.78632493  1
  As  As11  1  0.66282319  0.21931322  0.71046546  1
  As  As12  1  0.52974375  0.57569232  0.88630567  1
