# generated using pymatgen
data_Li2LuCu2(As3P2)2
_symmetry_space_group_name_H-M   'P 1'
_cell_length_a   7.08628455
_cell_length_b   7.07084411
_cell_length_c   7.84128809
_cell_angle_alpha   94.75867674
_cell_angle_beta   95.92950429
_cell_angle_gamma   94.60622258
_symmetry_Int_Tables_number   1
_chemical_formula_structural   Li2LuCu2(As3P2)2
_chemical_formula_sum   'Li2 Lu1 Cu2 As6 P4'
_cell_volume   387.87783485
_cell_formula_units_Z   1
loop_
 _symmetry_equiv_pos_site_id
 _symmetry_equiv_pos_as_xyz
  1  'x, y, z'
loop_
 _atom_site_type_symbol
 _atom_site_label
 _atom_site_symmetry_multiplicity
 _atom_site_fract_x
 _atom_site_fract_y
 _atom_site_fract_z
 _atom_site_occupancy
  P  P0  1  0.00000000  0.00000000  0.00000000  1
  P  P1  1  0.50000000  0.50000000  0.50000000  1
  P  P2  1  0.25000000  0.25000000  0.25000000  1
  P  P3  1  0.75000000  0.25000000  0.00000000  1
  Lu  Lu4  1  0.25000000  0.75000000  0.50000000  1
  As  As5  1  0.44225435  0.63117887  0.99134344  1
  As  As6  1  0.06600519  0.87850160  0.36583941  1
  As  As7  1  0.95941992  0.54382374  0.88694254  1
  As  As8  1  0.08874397  0.12317296  0.07342763  1
  As  As9  1  0.54653448  0.96165720  0.25259877  1
  As  As10  1  0.17793627  0.78289161  0.57462996  1
  Li  Li11  1  0.63507861  0.44995778  0.01726978  1
  Li  Li12  1  0.81350124  0.39437142  0.46705624  1
  Cu  Cu13  1  0.59434535  0.83807607  0.91400483  1
  Cu  Cu14  1  0.03035073  0.19157373  0.50861746  1
