# generated using pymatgen
data_LiCu2(I2F)2
_symmetry_space_group_name_H-M   'P 1'
_cell_length_a   7.04981061
_cell_length_b   7.04787678
_cell_length_c   7.97026703
_cell_angle_alpha   92.10191817
_cell_angle_beta   94.53022523
_cell_angle_gamma   92.51707573
_symmetry_Int_Tables_number   1
_chemical_formula_structural   LiCu2(I2F)2
_chemical_formula_sum   'Li1 Cu2 I4 F2'
_cell_volume   394.07358124
_cell_formula_units_Z   1
loop_
 _symmetry_equiv_pos_site_id
 _symmetry_equiv_pos_as_xyz
  1  'x, y, z'
loop_
 _atom_site_type_symbol
 _atom_site_label
 _atom_site_symmetry_multiplicity
 _atom_site_fract_x
 _atom_site_fract_y
 _atom_site_fract_z
 _atom_site_occupancy
  I  I0  1  0.00000000  0.00000000  0.00000000  1
  I  I1  1  0.33300000  0.66700000  0.25000000  1
  I  I2  1  0.66700000  0.33300000  0.50000000  1
  I  I3  1  0.00000000  0.00000000  0.75000000  1
  Li  Li4  1  0.08287375  0.71444600  0.62425501  1
  Cu  Cu5  1  0.01646922  0.90207656  0.41491274  1
  Cu  Cu6  1  0.98425590  0.40627423  0.26255414  1
  F  F7  1  0.99950055  0.51418918  0.68407026  1
  F  F8  1  0.49863597  0.50606418  0.95837478  1
