# generated using pymatgen
data_Li2Lu(CuP2)2
_symmetry_space_group_name_H-M   'P 1'
_cell_length_a   7.22646387
_cell_length_b   7.12928470
_cell_length_c   8.15803810
_cell_angle_alpha   94.14261323
_cell_angle_beta   94.48324430
_cell_angle_gamma   94.17854911
_symmetry_Int_Tables_number   1
_chemical_formula_structural   Li2Lu(CuP2)2
_chemical_formula_sum   'Li2 Lu1 Cu2 P4'
_cell_volume   416.61265012
_cell_formula_units_Z   1
loop_
 _symmetry_equiv_pos_site_id
 _symmetry_equiv_pos_as_xyz
  1  'x, y, z'
loop_
 _atom_site_type_symbol
 _atom_site_label
 _atom_site_symmetry_multiplicity
 _atom_site_fract_x
 _atom_site_fract_y
 _atom_site_fract_z
 _atom_site_occupancy
  P  P0  1  0.12500000  0.00000000  0.25000000  1
  P  P1  1  0.00000000  0.00000000  0.00000000  1
  P  P2  1  0.37500000  0.00000000  0.25000000  1
  P  P3  1  0.25000000  0.25000000  0.25000000  1
  Lu  Lu4  1  0.00000000  0.25000000  0.12500000  1
  Li  Li5  1  0.12938587  0.18261543  0.90961219  1
  Li  Li6  1  0.36361689  0.73340370  0.72925691  1
  Cu  Cu7  1  0.00933980  0.04535582  0.07876426  1
  Cu  Cu8  1  0.60374842  0.52547357  0.01939685  1
