# generated using pymatgen
data_Li3Ti(PO)3
_symmetry_space_group_name_H-M   'P 1'
_cell_length_a   8.38640373
_cell_length_b   8.06701523
_cell_length_c   6.95663738
_cell_angle_alpha   90.00000000
_cell_angle_beta   90.00000000
_cell_angle_gamma   90.00000000
_symmetry_Int_Tables_number   1
_chemical_formula_structural   Li3Ti(PO)3
_chemical_formula_sum   'Li3 Ti1 P3 O3'
_cell_volume   470.63910462
_cell_formula_units_Z   1
loop_
 _symmetry_equiv_pos_site_id
 _symmetry_equiv_pos_as_xyz
  1  'x, y, z'
loop_
 _atom_site_type_symbol
 _atom_site_label
 _atom_site_symmetry_multiplicity
 _atom_site_fract_x
 _atom_site_fract_y
 _atom_site_fract_z
 _atom_site_occupancy
  P  P0  1  0.00000000  0.00000000  0.00000000  1
  P  P1  1  0.50000000  0.50000000  0.50000000  1
  P  P2  1  0.50000000  0.50000000  0.00000000  1
  Li  Li3  1  0.50000000  0.00000000  0.50000000  1
  Li  Li4  1  0.00000000  0.50000000  0.50000000  1
  Li  Li5  1  0.53093457  0.63128243  0.35173396  1
  Ti  Ti6  1  0.34404581  0.32530067  0.04102835  1
  O  O7  1  0.28627371  0.54239817  0.11012932  1
  O  O8  1  0.31916101  0.27097319  0.02889758  1
  O  O9  1  0.01682685  0.68139440  0.36920470  1
