# generated using pymatgen
data_Li2TiP8(IO)4
_symmetry_space_group_name_H-M   'P 1'
_cell_length_a   8.39147640
_cell_length_b   8.18060432
_cell_length_c   8.22703887
_cell_angle_alpha   90.00000000
_cell_angle_beta   90.00000000
_cell_angle_gamma   90.00000000
_symmetry_Int_Tables_number   1
_chemical_formula_structural   Li2TiP8(IO)4
_chemical_formula_sum   'Li2 Ti1 P8 I4 O4'
_cell_volume   564.76440148
_cell_formula_units_Z   1
loop_
 _symmetry_equiv_pos_site_id
 _symmetry_equiv_pos_as_xyz
  1  'x, y, z'
loop_
 _atom_site_type_symbol
 _atom_site_label
 _atom_site_symmetry_multiplicity
 _atom_site_fract_x
 _atom_site_fract_y
 _atom_site_fract_z
 _atom_site_occupancy
  I  I0  1  0.00000000  0.00000000  0.00000000  1
  I  I1  1  0.50000000  0.50000000  0.50000000  1
  I  I2  1  0.50000000  0.50000000  0.00000000  1
  I  I3  1  0.50000000  0.00000000  0.50000000  1
  P  P4  1  0.00000000  0.50000000  0.50000000  1
  P  P5  1  0.94400046  0.52176706  0.61034988  1
  P  P6  1  0.33526075  0.93903681  0.87932358  1
  P  P7  1  0.33386006  0.60793815  0.36396577  1
  P  P8  1  0.45910260  0.22793166  0.50293143  1
  P  P9  1  0.65218489  0.71949291  0.07076312  1
  P  P10  1  0.10100607  0.83096689  0.23833963  1
  P  P11  1  0.25051463  0.68850314  0.36241806  1
  Li  Li12  1  0.41187458  0.04133891  0.05082456  1
  Li  Li13  1  0.13227798  0.05976433  0.17923496  1
  Ti  Ti14  1  0.92850831  0.25480941  0.21246709  1
  O  O15  1  0.96119407  0.35073577  0.85096962  1
  O  O16  1  0.98732640  0.88385399  0.25584066  1
  O  O17  1  0.11318932  0.66770205  0.02135808  1
  O  O18  1  0.70844677  0.79079043  0.27630251  1
