# generated using pymatgen
data_Li2Ti2P3I4O3
_symmetry_space_group_name_H-M   'P 1'
_cell_length_a   8.00365015
_cell_length_b   8.53861517
_cell_length_c   7.74591918
_cell_angle_alpha   90.00000000
_cell_angle_beta   90.00000000
_cell_angle_gamma   90.00000000
_symmetry_Int_Tables_number   1
_chemical_formula_structural   Li2Ti2P3I4O3
_chemical_formula_sum   'Li2 Ti2 P3 I4 O3'
_cell_volume   529.35680380
_cell_formula_units_Z   1
loop_
 _symmetry_equiv_pos_site_id
 _symmetry_equiv_pos_as_xyz
  1  'x, y, z'
loop_
 _atom_site_type_symbol
 _atom_site_label
 _atom_site_symmetry_multiplicity
 _atom_site_fract_x
 _atom_site_fract_y
 _atom_site_fract_z
 _atom_site_occupancy
  P  P0  1  0.12500000  0.00000000  0.25000000  1
  P  P1  1  0.00000000  0.00000000  0.00000000  1
  P  P2  1  0.37500000  0.00000000  0.25000000  1
  I  I3  1  0.25000000  0.25000000  0.25000000  1
  I  I4  1  0.00000000  0.25000000  0.12500000  1
  I  I5  1  0.55275282  0.68527721  0.65137156  1
  I  I6  1  0.80437202  0.46559453  0.52138937  1
  Li  Li7  1  0.10016217  0.11048035  0.07134350  1
  Li  Li8  1  0.52081235  0.39432494  0.42503352  1
  Ti  Ti9  1  0.91709200  0.30122304  0.37481686  1
  Ti  Ti10  1  0.32147083  0.52909496  0.31330270  1
  O  O11  1  0.67854384  0.96781776  0.21501502  1
  O  O12  1  0.71755140  0.86620805  0.23256365  1
  O  O13  1  0.57719770  0.78980358  0.53038534  1
