# generated using pymatgen
data_Li2MnSb4P3
_symmetry_space_group_name_H-M   'P 1'
_cell_length_a   4.73344525
_cell_length_b   5.10552149
_cell_length_c   7.18862152
_cell_angle_alpha   97.47781254
_cell_angle_beta   98.85815989
_cell_angle_gamma   98.51067395
_symmetry_Int_Tables_number   1
_chemical_formula_structural   Li2MnSb4P3
_chemical_formula_sum   'Li2 Mn1 Sb4 P3'
_cell_volume   167.67116346
_cell_formula_units_Z   1
loop_
 _symmetry_equiv_pos_site_id
 _symmetry_equiv_pos_as_xyz
  1  'x, y, z'
loop_
 _atom_site_type_symbol
 _atom_site_label
 _atom_site_symmetry_multiplicity
 _atom_site_fract_x
 _atom_site_fract_y
 _atom_site_fract_z
 _atom_site_occupancy
  Mn  Mn0  1  0.00000000  0.00000000  0.00000000  1
  Sb  Sb1  1  0.50000000  0.50000000  0.50000000  1
  Sb  Sb2  1  0.25000000  0.25000000  0.25000000  1
  Sb  Sb3  1  0.75000000  0.25000000  0.00000000  1
  Sb  Sb4  1  0.25000000  0.75000000  0.50000000  1
  P  P5  1  0.83894590  0.48047968  0.50650959  1
  P  P6  1  0.24725731  0.32363385  0.28206621  1
  P  P7  1  0.69212403  0.57379902  0.86798532  1
  Li  Li8  1  0.53758730  0.30074621  0.92018574  1
  Li  Li9  1  0.77812724  0.10203514  0.83713289  1
