# generated using pymatgen
data_LiTiAs6
_symmetry_space_group_name_H-M   'P 1'
_cell_length_a   6.96389393
_cell_length_b   6.88702791
_cell_length_c   7.98189633
_cell_angle_alpha   93.09235852
_cell_angle_beta   94.58923771
_cell_angle_gamma   93.70864771
_symmetry_Int_Tables_number   1
_chemical_formula_structural   LiTiAs6
_chemical_formula_sum   'Li1 Ti1 As6'
_cell_volume   380.11637595
_cell_formula_units_Z   1
loop_
 _symmetry_equiv_pos_site_id
 _symmetry_equiv_pos_as_xyz
  1  'x, y, z'
loop_
 _atom_site_type_symbol
 _atom_site_label
 _atom_site_symmetry_multiplicity
 _atom_site_fract_x
 _atom_site_fract_y
 _atom_site_fract_z
 _atom_site_occupancy
  Li  Li0  1  0.12500000  0.00000000  0.25000000  1
  Ti  Ti1  1  0.00000000  0.00000000  0.00000000  1
  As  As2  1  0.37500000  0.00000000  0.25000000  1
  As  As3  1  0.25000000  0.25000000  0.25000000  1
  As  As4  1  0.00000000  0.25000000  0.12500000  1
  As  As5  1  0.44036010  0.87611020  0.12430757  1
  As  As6  1  0.30742953  0.32728937  0.37654161  1
  As  As7  1  0.40707765  0.09987123  0.80710039  1
