# generated using pymatgen
data_LiZnCuI2
_symmetry_space_group_name_H-M   'P 1'
_cell_length_a   7.89429540
_cell_length_b   8.19985567
_cell_length_c   7.98399357
_cell_angle_alpha   90.30163987
_cell_angle_beta   91.43511090
_cell_angle_gamma   90.34485492
_symmetry_Int_Tables_number   1
_chemical_formula_structural   LiZnCuI2
_chemical_formula_sum   'Li2 Zn2 Cu2 I4'
_cell_volume   516.64148358
_cell_formula_units_Z   2
loop_
 _symmetry_equiv_pos_site_id
 _symmetry_equiv_pos_as_xyz
  1  'x, y, z'
loop_
 _atom_site_type_symbol
 _atom_site_label
 _atom_site_symmetry_multiplicity
 _atom_site_fract_x
 _atom_site_fract_y
 _atom_site_fract_z
 _atom_site_occupancy
  I  I0  1  0.00000000  0.00000000  0.00000000  1
  I  I1  1  0.33300000  0.66700000  0.25000000  1
  I  I2  1  0.66700000  0.33300000  0.50000000  1
  I  I3  1  0.00000000  0.00000000  0.75000000  1
  Li  Li4  1  0.45469955  0.09865329  0.47099838  1
  Li  Li5  1  0.40525928  0.72809861  0.77130451  1
  Cu  Cu6  1  0.08373055  0.37290456  0.89664656  1
  Cu  Cu7  1  0.00652379  0.20703740  0.61353364  1
  Zn  Zn8  1  0.45252690  0.34756516  0.90443566  1
  Zn  Zn9  1  0.38728836  0.63237525  0.03472580  1
