# generated using pymatgen
data_Li3TiI4(OF)3
_symmetry_space_group_name_H-M   'P 1'
_cell_length_a   6.80026477
_cell_length_b   6.57436177
_cell_length_c   7.20886815
_cell_angle_alpha   96.00245520
_cell_angle_beta   98.47521262
_cell_angle_gamma   95.67312649
_symmetry_Int_Tables_number   1
_chemical_formula_structural   Li3TiI4(OF)3
_chemical_formula_sum   'Li3 Ti1 I4 O3 F3'
_cell_volume   314.87637300
_cell_formula_units_Z   1
loop_
 _symmetry_equiv_pos_site_id
 _symmetry_equiv_pos_as_xyz
  1  'x, y, z'
loop_
 _atom_site_type_symbol
 _atom_site_label
 _atom_site_symmetry_multiplicity
 _atom_site_fract_x
 _atom_site_fract_y
 _atom_site_fract_z
 _atom_site_occupancy
  I  I0  1  0.00000000  0.00000000  0.00000000  1
  I  I1  1  0.50000000  0.50000000  0.50000000  1
  I  I2  1  0.50000000  0.50000000  0.00000000  1
  I  I3  1  0.50000000  0.00000000  0.50000000  1
  Li  Li4  1  0.00000000  0.50000000  0.50000000  1
  Li  Li5  1  0.02944083  0.76987906  0.95375576  1
  Li  Li6  1  0.70824597  0.81311097  0.16418165  1
  F  F7  1  0.21763580  0.55221415  0.08045012  1
  F  F8  1  0.86240943  0.98107823  0.36300271  1
  F  F9  1  0.09061263  0.14997480  0.35232290  1
  Ti  Ti10  1  0.64104936  0.85274059  0.32182881  1
  O  O11  1  0.16451701  0.19190551  0.77733697  1
  O  O12  1  0.63159616  0.71535713  0.30301522  1
  O  O13  1  0.88559574  0.92608673  0.58990018  1
