# generated using pymatgen
data_Li3Ni2I4O5
_symmetry_space_group_name_H-M   'P 1'
_cell_length_a   8.49865851
_cell_length_b   8.36102146
_cell_length_c   7.82376095
_cell_angle_alpha   90.54639657
_cell_angle_beta   90.34641363
_cell_angle_gamma   90.63317587
_symmetry_Int_Tables_number   1
_chemical_formula_structural   Li3Ni2I4O5
_chemical_formula_sum   'Li3 Ni2 I4 O5'
_cell_volume   555.86688608
_cell_formula_units_Z   1
loop_
 _symmetry_equiv_pos_site_id
 _symmetry_equiv_pos_as_xyz
  1  'x, y, z'
loop_
 _atom_site_type_symbol
 _atom_site_label
 _atom_site_symmetry_multiplicity
 _atom_site_fract_x
 _atom_site_fract_y
 _atom_site_fract_z
 _atom_site_occupancy
  I  I0  1  0.00000000  0.00000000  0.00000000  1
  I  I1  1  0.33300000  0.66700000  0.25000000  1
  I  I2  1  0.66700000  0.33300000  0.50000000  1
  I  I3  1  0.00000000  0.00000000  0.75000000  1
  Li  Li4  1  0.15244842  0.00313348  0.63354526  1
  Li  Li5  1  0.27277370  0.90111173  0.21292192  1
  Li  Li6  1  0.34605616  0.85450726  0.12767656  1
  Ni  Ni7  1  0.23728171  0.88035937  0.32672756  1
  Ni  Ni8  1  0.99486446  0.09485760  0.71130299  1
  O  O9  1  0.02328574  0.84377921  0.51471725  1
  O  O10  1  0.96174400  0.30613853  0.19874889  1
  O  O11  1  0.21071433  0.93374008  0.22586222  1
  O  O12  1  0.49521353  0.78193567  0.17023702  1
  O  O13  1  0.04010011  0.75923078  0.24698896  1
