# generated using pymatgen
data_Li3Ti2Te6I4O3
_symmetry_space_group_name_H-M   'P 1'
_cell_length_a   8.37270885
_cell_length_b   8.74332362
_cell_length_c   7.87805295
_cell_angle_alpha   90.00000000
_cell_angle_beta   90.00000000
_cell_angle_gamma   90.00000000
_symmetry_Int_Tables_number   1
_chemical_formula_structural   Li3Ti2Te6I4O3
_chemical_formula_sum   'Li3 Ti2 Te6 I4 O3'
_cell_volume   576.71525371
_cell_formula_units_Z   1
loop_
 _symmetry_equiv_pos_site_id
 _symmetry_equiv_pos_as_xyz
  1  'x, y, z'
loop_
 _atom_site_type_symbol
 _atom_site_label
 _atom_site_symmetry_multiplicity
 _atom_site_fract_x
 _atom_site_fract_y
 _atom_site_fract_z
 _atom_site_occupancy
  I  I0  1  0.12500000  0.00000000  0.25000000  1
  I  I1  1  0.00000000  0.00000000  0.00000000  1
  I  I2  1  0.37500000  0.00000000  0.25000000  1
  I  I3  1  0.25000000  0.25000000  0.25000000  1
  Li  Li4  1  0.00000000  0.25000000  0.12500000  1
  Li  Li5  1  0.89637528  0.40558679  0.36962539  1
  Li  Li6  1  0.96771738  0.81137153  0.92780959  1
  Ti  Ti7  1  0.27533906  0.68707182  0.78750248  1
  Ti  Ti8  1  0.11881854  0.84922584  0.93057270  1
  Te  Te9  1  0.53701198  0.99207357  0.69894563  1
  Te  Te10  1  0.91988274  0.40457197  0.33589200  1
  Te  Te11  1  0.46610159  0.20226444  0.97060952  1
  Te  Te12  1  0.72065384  0.03030726  0.00504832  1
  Te  Te13  1  0.55571636  0.48943389  0.16998225  1
  Te  Te14  1  0.71561412  0.25747317  0.17546567  1
  O  O15  1  0.48071292  0.59847169  0.52659602  1
  O  O16  1  0.69852563  0.73496961  0.77934162  1
  O  O17  1  0.09325314  0.89484123  0.80547089  1
