# generated using pymatgen
data_Li2Zn2I4O3
_symmetry_space_group_name_H-M   'P 1'
_cell_length_a   7.73636357
_cell_length_b   7.87874121
_cell_length_c   7.12671181
_cell_angle_alpha   91.73848595
_cell_angle_beta   92.41979084
_cell_angle_gamma   91.59817957
_symmetry_Int_Tables_number   1
_chemical_formula_structural   Li2Zn2I4O3
_chemical_formula_sum   'Li2 Zn2 I4 O3'
_cell_volume   433.62086125
_cell_formula_units_Z   1
loop_
 _symmetry_equiv_pos_site_id
 _symmetry_equiv_pos_as_xyz
  1  'x, y, z'
loop_
 _atom_site_type_symbol
 _atom_site_label
 _atom_site_symmetry_multiplicity
 _atom_site_fract_x
 _atom_site_fract_y
 _atom_site_fract_z
 _atom_site_occupancy
  I  I0  1  0.12500000  0.12500000  0.12500000  1
  I  I1  1  0.50000000  0.50000000  0.50000000  1
  I  I2  1  0.25000000  0.25000000  0.25000000  1
  I  I3  1  0.75000000  0.75000000  0.75000000  1
  Li  Li4  1  0.85828561  0.20351574  0.55902869  1
  Li  Li5  1  0.80301248  0.90352895  0.93044161  1
  Zn  Zn6  1  0.88703349  0.94095579  0.65720678  1
  Zn  Zn7  1  0.20939502  0.61689349  0.85786856  1
  O  O8  1  0.85364562  0.76739452  0.34085324  1
  O  O9  1  0.45222134  0.70206893  0.75140664  1
  O  O10  1  0.96907669  0.47272863  0.23720622  1
