# generated using pymatgen
data_LiCu2(I2F)2
_symmetry_space_group_name_H-M   'P 1'
_cell_length_a   7.04981061
_cell_length_b   7.04787678
_cell_length_c   7.97026703
_cell_angle_alpha   92.10191817
_cell_angle_beta   94.53022523
_cell_angle_gamma   92.51707573
_symmetry_Int_Tables_number   1
_chemical_formula_structural   LiCu2(I2F)2
_chemical_formula_sum   'Li1 Cu2 I4 F2'
_cell_volume   394.07358124
_cell_formula_units_Z   1
loop_
 _symmetry_equiv_pos_site_id
 _symmetry_equiv_pos_as_xyz
  1  'x, y, z'
loop_
 _atom_site_type_symbol
 _atom_site_label
 _atom_site_symmetry_multiplicity
 _atom_site_fract_x
 _atom_site_fract_y
 _atom_site_fract_z
 _atom_site_occupancy
  I  I0  1  0.12500000  0.00000000  0.25000000  1
  I  I1  1  0.00000000  0.00000000  0.00000000  1
  I  I2  1  0.37500000  0.00000000  0.25000000  1
  I  I3  1  0.25000000  0.25000000  0.25000000  1
  Li  Li4  1  0.00000000  0.25000000  0.12500000  1
  Cu  Cu5  1  0.33180894  0.03315698  0.64441697  1
  Cu  Cu6  1  0.38135501  0.92881878  0.13197002  1
  F  F7  1  0.11809238  0.20038290  0.93972813  1
  F  F8  1  0.07835837  0.05955665  0.17226394  1
