# generated using pymatgen
data_Li2MnSb4Mo2P3
_symmetry_space_group_name_H-M   'P 1'
_cell_length_a   4.19723166
_cell_length_b   4.37044896
_cell_length_c   6.10263584
_cell_angle_alpha   104.13543307
_cell_angle_beta   93.39702184
_cell_angle_gamma   104.22901835
_symmetry_Int_Tables_number   1
_chemical_formula_structural   Li2MnSb4Mo2P3
_chemical_formula_sum   'Li2 Mn1 Sb4 Mo2 P3'
_cell_volume   104.37479621
_cell_formula_units_Z   1
loop_
 _symmetry_equiv_pos_site_id
 _symmetry_equiv_pos_as_xyz
  1  'x, y, z'
loop_
 _atom_site_type_symbol
 _atom_site_label
 _atom_site_symmetry_multiplicity
 _atom_site_fract_x
 _atom_site_fract_y
 _atom_site_fract_z
 _atom_site_occupancy
  Mn  Mn0  1  0.00000000  0.00000000  0.00000000  1
  Sb  Sb1  1  0.50000000  0.50000000  0.50000000  1
  Sb  Sb2  1  0.50000000  0.50000000  0.00000000  1
  Sb  Sb3  1  0.50000000  0.00000000  0.50000000  1
  Sb  Sb4  1  0.00000000  0.50000000  0.50000000  1
  P  P5  1  0.99182999  0.05259431  0.12109512  1
  P  P6  1  0.76783673  0.85720144  0.38910625  1
  P  P7  1  0.70601233  0.52033178  0.54499032  1
  Mo  Mo8  1  0.03012666  0.12144754  0.14903361  1
  Mo  Mo9  1  0.65680378  0.44932789  0.04132438  1
  Li  Li10  1  0.10594060  0.22479957  0.58232174  1
  Li  Li11  1  0.95934861  0.71027496  0.04040393  1
