# generated using pymatgen
data_Li3LuSeF3
_symmetry_space_group_name_H-M   'P 1'
_cell_length_a   6.21189408
_cell_length_b   6.06210068
_cell_length_c   7.47205810
_cell_angle_alpha   98.73743907
_cell_angle_beta   100.96031687
_cell_angle_gamma   98.34514907
_symmetry_Int_Tables_number   1
_chemical_formula_structural   Li3LuSeF3
_chemical_formula_sum   'Li3 Lu1 Se1 F3'
_cell_volume   268.61150393
_cell_formula_units_Z   1
loop_
 _symmetry_equiv_pos_site_id
 _symmetry_equiv_pos_as_xyz
  1  'x, y, z'
loop_
 _atom_site_type_symbol
 _atom_site_label
 _atom_site_symmetry_multiplicity
 _atom_site_fract_x
 _atom_site_fract_y
 _atom_site_fract_z
 _atom_site_occupancy
  Se  Se0  1  0.00000000  0.00000000  0.00000000  1
  F  F1  1  0.50000000  0.50000000  0.50000000  1
  F  F2  1  0.50000000  0.50000000  0.00000000  1
  F  F3  1  0.50000000  0.00000000  0.50000000  1
  Lu  Lu4  1  0.00000000  0.50000000  0.50000000  1
  Li  Li5  1  0.17384799  0.54493114  0.83171123  1
  Li  Li6  1  0.80796538  0.66374633  0.71436647  1
  Li  Li7  1  0.35413769  0.72601860  0.49209312  1
