# generated using pymatgen
data_LiTiI4O3F2
_symmetry_space_group_name_H-M   'P 1'
_cell_length_a   6.45360446
_cell_length_b   6.34100169
_cell_length_c   7.48417540
_cell_angle_alpha   92.73563413
_cell_angle_beta   95.79873392
_cell_angle_gamma   93.28214514
_symmetry_Int_Tables_number   1
_chemical_formula_structural   LiTiI4O3F2
_chemical_formula_sum   'Li1 Ti1 I4 O3 F2'
_cell_volume   303.76098415
_cell_formula_units_Z   1
loop_
 _symmetry_equiv_pos_site_id
 _symmetry_equiv_pos_as_xyz
  1  'x, y, z'
loop_
 _atom_site_type_symbol
 _atom_site_label
 _atom_site_symmetry_multiplicity
 _atom_site_fract_x
 _atom_site_fract_y
 _atom_site_fract_z
 _atom_site_occupancy
  I  I0  1  0.00000000  0.00000000  0.00000000  1
  I  I1  1  0.50000000  0.50000000  0.50000000  1
  I  I2  1  0.50000000  0.50000000  0.00000000  1
  I  I3  1  0.50000000  0.00000000  0.50000000  1
  Li  Li4  1  0.00000000  0.50000000  0.50000000  1
  F  F5  1  0.83572524  0.08646407  0.90732064  1
  F  F6  1  0.52904814  0.26658122  0.11533484  1
  Ti  Ti7  1  0.11795646  0.68326354  0.38234743  1
  O  O8  1  0.30577912  0.74705880  0.24836442  1
  O  O9  1  0.78782990  0.82701828  0.38884321  1
  O  O10  1  0.88532609  0.32340467  0.15092041  1
