# generated using pymatgen
data_Li2Lu(CuP2)2
_symmetry_space_group_name_H-M   'P 1'
_cell_length_a   7.27998257
_cell_length_b   7.34129426
_cell_length_c   8.12750034
_cell_angle_alpha   92.67420103
_cell_angle_beta   93.95979560
_cell_angle_gamma   92.67460202
_symmetry_Int_Tables_number   1
_chemical_formula_structural   Li2Lu(CuP2)2
_chemical_formula_sum   'Li2 Lu1 Cu2 P4'
_cell_volume   432.31858437
_cell_formula_units_Z   1
loop_
 _symmetry_equiv_pos_site_id
 _symmetry_equiv_pos_as_xyz
  1  'x, y, z'
loop_
 _atom_site_type_symbol
 _atom_site_label
 _atom_site_symmetry_multiplicity
 _atom_site_fract_x
 _atom_site_fract_y
 _atom_site_fract_z
 _atom_site_occupancy
  P  P0  1  0.00000000  0.00000000  0.00000000  1
  P  P1  1  0.33300000  0.66700000  0.25000000  1
  P  P2  1  0.66700000  0.33300000  0.50000000  1
  P  P3  1  0.00000000  0.00000000  0.75000000  1
  Lu  Lu4  1  0.06024757  0.39661543  0.29741796  1
  Li  Li5  1  0.88202351  0.30736328  0.73810415  1
  Li  Li6  1  0.03757901  0.29640220  0.25710861  1
  Cu  Cu7  1  0.32504393  0.71071999  0.47485953  1
  Cu  Cu8  1  0.31034141  0.43618302  0.04851205  1
