# generated using pymatgen
data_Li2TiI4O3
_symmetry_space_group_name_H-M   'P 1'
_cell_length_a   8.41699792
_cell_length_b   8.27408062
_cell_length_c   7.35622236
_cell_angle_alpha   90.16901367
_cell_angle_beta   90.80411571
_cell_angle_gamma   90.19322775
_symmetry_Int_Tables_number   1
_chemical_formula_structural   Li2TiI4O3
_chemical_formula_sum   'Li2 Ti1 I4 O3'
_cell_volume   512.25313297
_cell_formula_units_Z   1
loop_
 _symmetry_equiv_pos_site_id
 _symmetry_equiv_pos_as_xyz
  1  'x, y, z'
loop_
 _atom_site_type_symbol
 _atom_site_label
 _atom_site_symmetry_multiplicity
 _atom_site_fract_x
 _atom_site_fract_y
 _atom_site_fract_z
 _atom_site_occupancy
  I  I0  1  0.00000000  0.00000000  0.00000000  1
  I  I1  1  0.50000000  0.50000000  0.50000000  1
  I  I2  1  0.25000000  0.25000000  0.25000000  1
  I  I3  1  0.75000000  0.25000000  0.00000000  1
  Li  Li4  1  0.25000000  0.75000000  0.50000000  1
  Li  Li5  1  0.87081093  0.73889519  0.67931886  1
  Ti  Ti6  1  0.03122405  0.52655431  0.83613852  1
  O  O7  1  0.64961852  0.40739135  0.87008834  1
  O  O8  1  0.14912304  0.19879977  0.80011180  1
  O  O9  1  0.23287081  0.85986741  0.73132153  1
