# generated using pymatgen
data_Li2Cu2As6N5
_symmetry_space_group_name_H-M   'P 1'
_cell_length_a   7.42735217
_cell_length_b   7.47879213
_cell_length_c   8.41244914
_cell_angle_alpha   91.62440681
_cell_angle_beta   92.60664817
_cell_angle_gamma   91.74312796
_symmetry_Int_Tables_number   1
_chemical_formula_structural   Li2Cu2As6N5
_chemical_formula_sum   'Li2 Cu2 As6 N5'
_cell_volume   466.38514832
_cell_formula_units_Z   1
loop_
 _symmetry_equiv_pos_site_id
 _symmetry_equiv_pos_as_xyz
  1  'x, y, z'
loop_
 _atom_site_type_symbol
 _atom_site_label
 _atom_site_symmetry_multiplicity
 _atom_site_fract_x
 _atom_site_fract_y
 _atom_site_fract_z
 _atom_site_occupancy
  Li  Li0  1  0.00000000  0.00000000  0.00000000  1
  Li  Li1  1  0.50000000  0.50000000  0.50000000  1
  Cu  Cu2  1  0.25000000  0.25000000  0.25000000  1
  Cu  Cu3  1  0.75000000  0.25000000  0.00000000  1
  As  As4  1  0.25000000  0.75000000  0.50000000  1
  As  As5  1  0.38844076  0.54909475  0.83263873  1
  As  As6  1  0.52257265  0.11584486  0.40325301  1
  As  As7  1  0.94839795  0.61584777  0.13294669  1
  As  As8  1  0.47654321  0.67018990  0.58304805  1
  As  As9  1  0.92202318  0.22838674  0.45780793  1
  N  N10  1  0.36551821  0.58387173  0.13451939  1
  N  N11  1  0.02482389  0.77329411  0.67093488  1
  N  N12  1  0.62237308  0.98373962  0.68865070  1
  N  N13  1  0.47263172  0.26600971  0.46965558  1
  N  N14  1  0.76952376  0.18243360  0.65690338  1
