# generated using pymatgen
data_Li2Ni2As6O7
_symmetry_space_group_name_H-M   'P 1'
_cell_length_a   7.30782873
_cell_length_b   7.21306171
_cell_length_c   8.18207425
_cell_angle_alpha   93.59370246
_cell_angle_beta   93.98836523
_cell_angle_gamma   93.63985936
_symmetry_Int_Tables_number   1
_chemical_formula_structural   Li2Ni2As6O7
_chemical_formula_sum   'Li2 Ni2 As6 O7'
_cell_volume   428.40336603
_cell_formula_units_Z   1
loop_
 _symmetry_equiv_pos_site_id
 _symmetry_equiv_pos_as_xyz
  1  'x, y, z'
loop_
 _atom_site_type_symbol
 _atom_site_label
 _atom_site_symmetry_multiplicity
 _atom_site_fract_x
 _atom_site_fract_y
 _atom_site_fract_z
 _atom_site_occupancy
  Li  Li0  1  0.12500000  0.00000000  0.25000000  1
  Li  Li1  1  0.00000000  0.00000000  0.00000000  1
  Ni  Ni2  1  0.37500000  0.00000000  0.25000000  1
  Ni  Ni3  1  0.25000000  0.25000000  0.25000000  1
  As  As4  1  0.00000000  0.25000000  0.12500000  1
  As  As5  1  0.66916403  0.63477788  0.38707935  1
  As  As6  1  0.75500290  0.24116895  0.20154811  1
  As  As7  1  0.39574197  0.32198141  0.11199938  1
  As  As8  1  0.63869620  0.11322098  0.94907071  1
  As  As9  1  0.98195374  0.63542834  0.72896758  1
  O  O10  1  0.67376790  0.62151853  0.94985708  1
  O  O11  1  0.25174379  0.59380681  0.99829638  1
  O  O12  1  0.72939424  0.50698305  0.82745363  1
  O  O13  1  0.35643230  0.70635009  0.37976571  1
  O  O14  1  0.72736623  0.91152504  0.68490731  1
  O  O15  1  0.49859618  0.55095437  0.27975314  1
  O  O16  1  0.80052054  0.68793761  0.70848634  1
