# generated using pymatgen
data_Li3LuTi2SeO4
_symmetry_space_group_name_H-M   'P 1'
_cell_length_a   5.37939482
_cell_length_b   5.19568201
_cell_length_c   7.11148675
_cell_angle_alpha   102.81664213
_cell_angle_beta   106.42924119
_cell_angle_gamma   102.07163516
_symmetry_Int_Tables_number   1
_chemical_formula_structural   Li3LuTi2SeO4
_chemical_formula_sum   'Li3 Lu1 Ti2 Se1 O4'
_cell_volume   177.87018969
_cell_formula_units_Z   1
loop_
 _symmetry_equiv_pos_site_id
 _symmetry_equiv_pos_as_xyz
  1  'x, y, z'
loop_
 _atom_site_type_symbol
 _atom_site_label
 _atom_site_symmetry_multiplicity
 _atom_site_fract_x
 _atom_site_fract_y
 _atom_site_fract_z
 _atom_site_occupancy
  Se  Se0  1  0.00000000  0.00000000  0.00000000  1
  Ti  Ti1  1  0.50000000  0.50000000  0.50000000  1
  Ti  Ti2  1  0.50000000  0.50000000  0.00000000  1
  O  O3  1  0.50000000  0.00000000  0.50000000  1
  O  O4  1  0.00000000  0.50000000  0.50000000  1
  O  O5  1  0.26248196  0.86846142  0.99938878  1
  O  O6  1  0.29456736  0.11106100  0.04081568  1
  Lu  Lu7  1  0.54772130  0.59592413  0.91805539  1
  Li  Li8  1  0.97749437  0.18318530  0.74062293  1
  Li  Li9  1  0.98211357  0.16314429  0.49761510  1
  Li  Li10  1  0.02710728  0.60489514  0.46912016  1
