# generated using pymatgen
data_Li2LuCu2P4N5
_symmetry_space_group_name_H-M   'P 1'
_cell_length_a   7.23280272
_cell_length_b   7.11143678
_cell_length_c   8.12227873
_cell_angle_alpha   94.05201829
_cell_angle_beta   94.25469305
_cell_angle_gamma   94.12372868
_symmetry_Int_Tables_number   1
_chemical_formula_structural   Li2LuCu2P4N5
_chemical_formula_sum   'Li2 Lu1 Cu2 P4 N5'
_cell_volume   414.32980350
_cell_formula_units_Z   1
loop_
 _symmetry_equiv_pos_site_id
 _symmetry_equiv_pos_as_xyz
  1  'x, y, z'
loop_
 _atom_site_type_symbol
 _atom_site_label
 _atom_site_symmetry_multiplicity
 _atom_site_fract_x
 _atom_site_fract_y
 _atom_site_fract_z
 _atom_site_occupancy
  P  P0  1  0.12500000  0.00000000  0.25000000  1
  P  P1  1  0.00000000  0.00000000  0.00000000  1
  P  P2  1  0.37500000  0.00000000  0.25000000  1
  P  P3  1  0.25000000  0.25000000  0.25000000  1
  Lu  Lu4  1  0.00000000  0.25000000  0.12500000  1
  Li  Li5  1  0.65085653  0.03481958  0.99995033  1
  Li  Li6  1  0.37455094  0.29662133  0.90662393  1
  Cu  Cu7  1  0.42963659  0.35615948  0.23161813  1
  Cu  Cu8  1  0.88766542  0.94787782  0.45108470  1
  N  N9  1  0.86993766  0.40239302  0.92686087  1
  N  N10  1  0.83446600  0.01308819  0.40602351  1
  N  N11  1  0.00767066  0.05847319  0.88290199  1
  N  N12  1  0.12313803  0.74215160  0.04731356  1
  N  N13  1  0.13759433  0.76443838  0.14531045  1
