# generated using pymatgen
data_Li2As6I4O4F3
_symmetry_space_group_name_H-M   'P 1'
_cell_length_a   7.25045318
_cell_length_b   6.94242816
_cell_length_c   7.60408701
_cell_angle_alpha   92.82576929
_cell_angle_beta   93.57456992
_cell_angle_gamma   92.71104671
_symmetry_Int_Tables_number   1
_chemical_formula_structural   Li2As6I4O4F3
_chemical_formula_sum   'Li2 As6 I4 O4 F3'
_cell_volume   381.06081183
_cell_formula_units_Z   1
loop_
 _symmetry_equiv_pos_site_id
 _symmetry_equiv_pos_as_xyz
  1  'x, y, z'
loop_
 _atom_site_type_symbol
 _atom_site_label
 _atom_site_symmetry_multiplicity
 _atom_site_fract_x
 _atom_site_fract_y
 _atom_site_fract_z
 _atom_site_occupancy
  I  I0  1  0.12500000  0.00000000  0.25000000  1
  I  I1  1  0.00000000  0.00000000  0.00000000  1
  I  I2  1  0.37500000  0.00000000  0.25000000  1
  I  I3  1  0.25000000  0.25000000  0.25000000  1
  Li  Li4  1  0.00000000  0.25000000  0.12500000  1
  Li  Li5  1  0.43018635  0.46009453  0.38330664  1
  F  F6  1  0.85357330  0.72673841  0.87440468  1
  F  F7  1  0.92039528  0.67955941  0.10976551  1
  F  F8  1  0.05129647  0.06448696  0.05976093  1
  As  As9  1  0.63128766  0.44508103  0.21085201  1
  As  As10  1  0.06794916  0.59675107  0.10129997  1
  As  As11  1  0.50610247  0.25126507  0.60646746  1
  As  As12  1  0.26073295  0.46116888  0.26233157  1
  As  As13  1  0.43491295  0.37479151  0.14400262  1
  As  As14  1  0.63719743  0.86624897  0.45404068  1
  O  O15  1  0.84660985  0.19364653  0.35266060  1
  O  O16  1  0.05526143  0.52145559  0.58413872  1
  O  O17  1  0.85413879  0.55925083  0.01675839  1
  O  O18  1  0.84418947  0.02202832  0.03382952  1
