# generated using pymatgen
data_LiCu2P5N5F2
_symmetry_space_group_name_H-M   'P 1'
_cell_length_a   7.20181070
_cell_length_b   7.10338957
_cell_length_c   8.17686215
_cell_angle_alpha   92.84562940
_cell_angle_beta   93.82165919
_cell_angle_gamma   93.15347314
_symmetry_Int_Tables_number   1
_chemical_formula_structural   LiCu2P5N5F2
_chemical_formula_sum   'Li1 Cu2 P5 N5 F2'
_cell_volume   416.14664894
_cell_formula_units_Z   1
loop_
 _symmetry_equiv_pos_site_id
 _symmetry_equiv_pos_as_xyz
  1  'x, y, z'
loop_
 _atom_site_type_symbol
 _atom_site_label
 _atom_site_symmetry_multiplicity
 _atom_site_fract_x
 _atom_site_fract_y
 _atom_site_fract_z
 _atom_site_occupancy
  P  P0  1  0.00000000  0.00000000  0.00000000  1
  P  P1  1  0.50000000  0.50000000  0.50000000  1
  P  P2  1  0.50000000  0.50000000  0.00000000  1
  P  P3  1  0.50000000  0.00000000  0.50000000  1
  P  P4  1  0.00000000  0.50000000  0.50000000  1
  Li  Li5  1  0.38122232  0.19870743  0.23287498  1
  Cu  Cu6  1  0.97546059  0.60077806  0.43791215  1
  Cu  Cu7  1  0.13507442  0.47156540  0.15806562  1
  F  F8  1  0.97002287  0.67820799  0.66467398  1
  F  F9  1  0.52522700  0.12961845  0.89490918  1
  N  N10  1  0.94959969  0.39448770  0.71094756  1
  N  N11  1  0.96945147  0.57788701  0.38615882  1
  N  N12  1  0.40312702  0.17238530  0.41863898  1
  N  N13  1  0.78877842  0.03031784  0.35843332  1
  N  N14  1  0.35590501  0.69671911  0.74797189  1
