# generated using pymatgen
data_Li2Ni2As6O7F2
_symmetry_space_group_name_H-M   'P 1'
_cell_length_a   7.48423397
_cell_length_b   7.23597619
_cell_length_c   8.47400219
_cell_angle_alpha   91.92871290
_cell_angle_beta   92.17069822
_cell_angle_gamma   92.05960542
_symmetry_Int_Tables_number   1
_chemical_formula_structural   Li2Ni2As6O7F2
_chemical_formula_sum   'Li2 Ni2 As6 O7 F2'
_cell_volume   458.00844888
_cell_formula_units_Z   1
loop_
 _symmetry_equiv_pos_site_id
 _symmetry_equiv_pos_as_xyz
  1  'x, y, z'
loop_
 _atom_site_type_symbol
 _atom_site_label
 _atom_site_symmetry_multiplicity
 _atom_site_fract_x
 _atom_site_fract_y
 _atom_site_fract_z
 _atom_site_occupancy
  Li  Li0  1  0.00000000  0.00000000  0.00000000  1
  Li  Li1  1  0.50000000  0.50000000  0.50000000  1
  F  F2  1  0.50000000  0.50000000  0.00000000  1
  F  F3  1  0.50000000  0.00000000  0.50000000  1
  Ni  Ni4  1  0.00000000  0.50000000  0.50000000  1
  Ni  Ni5  1  0.34076321  0.71812078  0.16934691  1
  As  As6  1  0.73304777  0.83659778  0.28009611  1
  As  As7  1  0.70535571  0.42242223  0.20579234  1
  As  As8  1  0.28507773  0.95484818  0.43569578  1
  As  As9  1  0.79736027  0.24629135  0.84194091  1
  As  As10  1  0.94316292  0.12916416  0.00052649  1
  As  As11  1  0.83873397  0.14674268  0.72725476  1
  O  O12  1  0.29270761  0.50561743  0.61350117  1
  O  O13  1  0.98737582  0.56452049  0.62289827  1
  O  O14  1  0.79347338  0.55616149  0.72242782  1
  O  O15  1  0.50685944  0.04915395  0.79628939  1
  O  O16  1  0.79835835  0.12917890  0.23309434  1
  O  O17  1  0.12099209  0.52652378  0.28721109  1
  O  O18  1  0.30775573  0.49758253  0.47007136  1
