# generated using pymatgen
data_LiAs3I2O2F
_symmetry_space_group_name_H-M   'P 1'
_cell_length_a   6.47834183
_cell_length_b   6.45386159
_cell_length_c   7.78507998
_cell_angle_alpha   95.62904170
_cell_angle_beta   98.54228436
_cell_angle_gamma   95.51454233
_symmetry_Int_Tables_number   1
_chemical_formula_structural   LiAs3I2O2F
_chemical_formula_sum   'Li2 As6 I4 O4 F2'
_cell_volume   318.30178493
_cell_formula_units_Z   2
loop_
 _symmetry_equiv_pos_site_id
 _symmetry_equiv_pos_as_xyz
  1  'x, y, z'
loop_
 _atom_site_type_symbol
 _atom_site_label
 _atom_site_symmetry_multiplicity
 _atom_site_fract_x
 _atom_site_fract_y
 _atom_site_fract_z
 _atom_site_occupancy
  I  I0  1  0.00000000  0.00000000  0.00000000  1
  I  I1  1  0.50000000  0.50000000  0.50000000  1
  I  I2  1  0.25000000  0.25000000  0.25000000  1
  I  I3  1  0.75000000  0.25000000  0.00000000  1
  Li  Li4  1  0.25000000  0.75000000  0.50000000  1
  Li  Li5  1  0.34919173  0.23371010  0.97734300  1
  F  F6  1  0.59235566  0.95466413  0.54509468  1
  F  F7  1  0.71785733  0.71574931  0.50964961  1
  As  As8  1  0.61869882  0.71399165  0.24540677  1
  As  As9  1  0.74745238  0.37468944  0.36332412  1
  As  As10  1  0.87755925  0.06996289  0.00738387  1
  As  As11  1  0.47538103  0.39809878  0.27198097  1
  As  As12  1  0.36224663  0.77563813  0.19961215  1
  As  As13  1  0.84313646  0.35567086  0.52639322  1
  O  O14  1  0.27627529  0.52561569  0.40577880  1
  O  O15  1  0.11145805  0.02627768  0.89490556  1
  O  O16  1  0.97235067  0.37021769  0.11426017  1
  O  O17  1  0.74105908  0.33277545  0.50725633  1
