# generated using pymatgen
data_Li2Ti(PO)4
_symmetry_space_group_name_H-M   'P 1'
_cell_length_a   7.80576712
_cell_length_b   7.65514458
_cell_length_c   7.28899836
_cell_angle_alpha   90.78479852
_cell_angle_beta   91.59503330
_cell_angle_gamma   90.52970049
_symmetry_Int_Tables_number   1
_chemical_formula_structural   Li2Ti(PO)4
_chemical_formula_sum   'Li2 Ti1 P4 O4'
_cell_volume   435.31902634
_cell_formula_units_Z   1
loop_
 _symmetry_equiv_pos_site_id
 _symmetry_equiv_pos_as_xyz
  1  'x, y, z'
loop_
 _atom_site_type_symbol
 _atom_site_label
 _atom_site_symmetry_multiplicity
 _atom_site_fract_x
 _atom_site_fract_y
 _atom_site_fract_z
 _atom_site_occupancy
  P  P0  1  0.00000000  0.00000000  0.00000000  1
  P  P1  1  0.50000000  0.50000000  0.50000000  1
  P  P2  1  0.50000000  0.50000000  0.00000000  1
  P  P3  1  0.50000000  0.00000000  0.50000000  1
  Li  Li4  1  0.00000000  0.50000000  0.50000000  1
  Li  Li5  1  0.71570977  0.50198045  0.85116669  1
  Ti  Ti6  1  0.48957227  0.08482822  0.55107482  1
  O  O7  1  0.23801655  0.32471976  0.63369385  1
  O  O8  1  0.80503428  0.14622425  0.38194333  1
  O  O9  1  0.64722590  0.15629752  0.59524136  1
  O  O10  1  0.94037993  0.20068358  0.86140461  1
