# generated using pymatgen
data_Li2As6I4(OF)3
_symmetry_space_group_name_H-M   'P 1'
_cell_length_a   7.51106104
_cell_length_b   7.25188187
_cell_length_c   7.56360244
_cell_angle_alpha   91.97867289
_cell_angle_beta   92.87248653
_cell_angle_gamma   91.91779205
_symmetry_Int_Tables_number   1
_chemical_formula_structural   Li2As6I4(OF)3
_chemical_formula_sum   'Li2 As6 I4 O3 F3'
_cell_volume   410.96563170
_cell_formula_units_Z   1
loop_
 _symmetry_equiv_pos_site_id
 _symmetry_equiv_pos_as_xyz
  1  'x, y, z'
loop_
 _atom_site_type_symbol
 _atom_site_label
 _atom_site_symmetry_multiplicity
 _atom_site_fract_x
 _atom_site_fract_y
 _atom_site_fract_z
 _atom_site_occupancy
  I  I0  1  0.00000000  0.00000000  0.00000000  1
  I  I1  1  0.50000000  0.50000000  0.50000000  1
  I  I2  1  0.50000000  0.50000000  0.00000000  1
  I  I3  1  0.50000000  0.00000000  0.50000000  1
  Li  Li4  1  0.00000000  0.50000000  0.50000000  1
  Li  Li5  1  0.08915864  0.30699976  0.95616414  1
  F  F6  1  0.95996732  0.26599948  0.17456194  1
  F  F7  1  0.39527834  0.90838882  0.62155395  1
  F  F8  1  0.32449237  0.87259301  0.89652845  1
  As  As9  1  0.39443696  0.16496952  0.10254296  1
  As  As10  1  0.53552366  0.75510329  0.97277781  1
  As  As11  1  0.97728851  0.54994363  0.77652252  1
  As  As12  1  0.85923707  0.92935581  0.95396418  1
  As  As13  1  0.36141893  0.99605557  0.29881987  1
  As  As14  1  0.01087616  0.38163045  0.38685976  1
  O  O15  1  0.74667490  0.76845963  0.82695200  1
  O  O16  1  0.07347621  0.74780504  0.86304423  1
  O  O17  1  0.37368997  0.98588642  0.12867453  1
