# generated using pymatgen
data_LiTi2P5S3F2
_symmetry_space_group_name_H-M   'P 1'
_cell_length_a   6.27932209
_cell_length_b   6.10084165
_cell_length_c   7.27552861
_cell_angle_alpha   92.04679688
_cell_angle_beta   96.38994015
_cell_angle_gamma   92.11724030
_symmetry_Int_Tables_number   1
_chemical_formula_structural   LiTi2P5S3F2
_chemical_formula_sum   'Li1 Ti2 P5 S3 F2'
_cell_volume   276.57599162
_cell_formula_units_Z   1
loop_
 _symmetry_equiv_pos_site_id
 _symmetry_equiv_pos_as_xyz
  1  'x, y, z'
loop_
 _atom_site_type_symbol
 _atom_site_label
 _atom_site_symmetry_multiplicity
 _atom_site_fract_x
 _atom_site_fract_y
 _atom_site_fract_z
 _atom_site_occupancy
  P  P0  1  0.00000000  0.00000000  0.00000000  1
  P  P1  1  0.50000000  0.50000000  0.50000000  1
  P  P2  1  0.50000000  0.50000000  0.00000000  1
  P  P3  1  0.50000000  0.00000000  0.50000000  1
  P  P4  1  0.00000000  0.50000000  0.50000000  1
  Li  Li5  1  0.32350854  0.44734656  0.04202528  1
  F  F6  1  0.37881336  0.27664821  0.36918274  1
  F  F7  1  0.12657344  0.31405481  0.69858813  1
  S  S8  1  0.00654831  0.33173284  0.16990679  1
  S  S9  1  0.35330576  0.51353588  0.59951937  1
  S  S10  1  0.47349901  0.03115140  0.86100092  1
  Ti  Ti11  1  0.59482637  0.55269855  0.78958097  1
  Ti  Ti12  1  0.26641515  0.56040150  0.13635461  1
