# generated using pymatgen
data_Li2Lu(PI)4
_symmetry_space_group_name_H-M   'P 1'
_cell_length_a   7.65954512
_cell_length_b   7.54132143
_cell_length_c   7.63891286
_cell_angle_alpha   92.00454964
_cell_angle_beta   93.04616305
_cell_angle_gamma   92.00825445
_symmetry_Int_Tables_number   1
_chemical_formula_structural   Li2Lu(PI)4
_chemical_formula_sum   'Li2 Lu1 P4 I4'
_cell_volume   440.05297005
_cell_formula_units_Z   1
loop_
 _symmetry_equiv_pos_site_id
 _symmetry_equiv_pos_as_xyz
  1  'x, y, z'
loop_
 _atom_site_type_symbol
 _atom_site_label
 _atom_site_symmetry_multiplicity
 _atom_site_fract_x
 _atom_site_fract_y
 _atom_site_fract_z
 _atom_site_occupancy
  I  I0  1  0.00000000  0.00000000  0.00000000  1
  I  I1  1  0.50000000  0.50000000  0.50000000  1
  I  I2  1  0.25000000  0.25000000  0.25000000  1
  I  I3  1  0.75000000  0.25000000  0.00000000  1
  P  P4  1  0.25000000  0.75000000  0.50000000  1
  P  P5  1  0.40341648  0.33381141  0.08996413  1
  P  P6  1  0.15944153  0.40827366  0.41227021  1
  P  P7  1  0.98979815  0.00569070  0.79677895  1
  Li  Li8  1  0.20818595  0.84662804  0.01032119  1
  Li  Li9  1  0.06224643  0.83570058  0.24803490  1
  Lu  Lu10  1  0.46698959  0.94625981  0.67906458  1
