# generated using pymatgen
data_Li2LuP4(IO)4
_symmetry_space_group_name_H-M   'P 1'
_cell_length_a   7.46790736
_cell_length_b   7.47098251
_cell_length_c   7.65094145
_cell_angle_alpha   94.31809688
_cell_angle_beta   95.36990553
_cell_angle_gamma   94.13437811
_symmetry_Int_Tables_number   1
_chemical_formula_structural   Li2LuP4(IO)4
_chemical_formula_sum   'Li2 Lu1 P4 I4 O4'
_cell_volume   422.43746905
_cell_formula_units_Z   1
loop_
 _symmetry_equiv_pos_site_id
 _symmetry_equiv_pos_as_xyz
  1  'x, y, z'
loop_
 _atom_site_type_symbol
 _atom_site_label
 _atom_site_symmetry_multiplicity
 _atom_site_fract_x
 _atom_site_fract_y
 _atom_site_fract_z
 _atom_site_occupancy
  Li  Li0  1  0.00000000  0.00000000  0.00000000  1
  Li  Li1  1  0.50000000  0.50000000  0.50000000  1
  I  I2  1  0.50000000  0.50000000  0.00000000  1
  I  I3  1  0.50000000  0.00000000  0.50000000  1
  I  I4  1  0.00000000  0.50000000  0.50000000  1
  I  I5  1  0.68214676  0.32187098  0.38829104  1
  P  P6  1  0.41042654  0.66108344  0.15123771  1
  P  P7  1  0.36316285  0.07810459  0.76798560  1
  P  P8  1  0.01901397  0.66245938  0.22842646  1
  P  P9  1  0.26638902  0.57304998  0.85218493  1
  Lu  Lu10  1  0.97854708  0.98365269  0.35695507  1
  O  O11  1  0.91357005  0.71742947  0.15047969  1
  O  O12  1  0.35294339  0.82779120  0.72622473  1
  O  O13  1  0.61525554  0.97635220  0.72755489  1
  O  O14  1  0.01738945  0.15899258  0.97212884  1
