# generated using pymatgen
data_Li2Cu2As6I4F3
_symmetry_space_group_name_H-M   'P 1'
_cell_length_a   7.78184060
_cell_length_b   7.70673273
_cell_length_c   7.99465006
_cell_angle_alpha   90.38187802
_cell_angle_beta   92.05307039
_cell_angle_gamma   90.42856784
_symmetry_Int_Tables_number   1
_chemical_formula_structural   Li2Cu2As6I4F3
_chemical_formula_sum   'Li2 Cu2 As6 I4 F3'
_cell_volume   479.12696252
_cell_formula_units_Z   1
loop_
 _symmetry_equiv_pos_site_id
 _symmetry_equiv_pos_as_xyz
  1  'x, y, z'
loop_
 _atom_site_type_symbol
 _atom_site_label
 _atom_site_symmetry_multiplicity
 _atom_site_fract_x
 _atom_site_fract_y
 _atom_site_fract_z
 _atom_site_occupancy
  I  I0  1  0.00000000  0.00000000  0.00000000  1
  I  I1  1  0.50000000  0.50000000  0.50000000  1
  I  I2  1  0.50000000  0.50000000  0.00000000  1
  I  I3  1  0.50000000  0.00000000  0.50000000  1
  Li  Li4  1  0.00000000  0.50000000  0.50000000  1
  Li  Li5  1  0.28048446  0.70464432  0.92142777  1
  Cu  Cu6  1  0.30914160  0.60225230  0.46731693  1
  Cu  Cu7  1  0.42256285  0.36590126  0.64843211  1
  F  F8  1  0.85275285  0.86602420  0.66844819  1
  F  F9  1  0.02193298  0.93480554  0.15609611  1
  F  F10  1  0.61931963  0.45169102  0.06751284  1
  As  As11  1  0.52167235  0.33486457  0.58928078  1
  As  As12  1  0.28942238  0.16222233  0.02823021  1
  As  As13  1  0.44707381  0.81352161  0.25523301  1
  As  As14  1  0.30084385  0.24445182  0.66227565  1
  As  As15  1  0.43524694  0.91453877  0.43119140  1
  As  As16  1  0.73651182  0.48307405  0.24769833  1
