# generated using pymatgen
data_LiCu2P8(I2F)2
_symmetry_space_group_name_H-M   'P 1'
_cell_length_a   6.48335463
_cell_length_b   6.35001811
_cell_length_c   7.74854716
_cell_angle_alpha   96.29590118
_cell_angle_beta   99.26882842
_cell_angle_gamma   96.28231527
_symmetry_Int_Tables_number   1
_chemical_formula_structural   LiCu2P8(I2F)2
_chemical_formula_sum   'Li1 Cu2 P8 I4 F2'
_cell_volume   310.30196021
_cell_formula_units_Z   1
loop_
 _symmetry_equiv_pos_site_id
 _symmetry_equiv_pos_as_xyz
  1  'x, y, z'
loop_
 _atom_site_type_symbol
 _atom_site_label
 _atom_site_symmetry_multiplicity
 _atom_site_fract_x
 _atom_site_fract_y
 _atom_site_fract_z
 _atom_site_occupancy
  F  F0  1  0.12500000  0.00000000  0.25000000  1
  F  F1  1  0.00000000  0.00000000  0.00000000  1
  I  I2  1  0.37500000  0.00000000  0.25000000  1
  I  I3  1  0.25000000  0.25000000  0.25000000  1
  I  I4  1  0.00000000  0.25000000  0.12500000  1
  I  I5  1  0.59550658  0.43425285  0.56985558  1
  P  P6  1  0.22356291  0.08318526  0.66281417  1
  P  P7  1  0.70478827  0.64973897  0.12052060  1
  P  P8  1  0.88693027  0.16778825  0.73894322  1
  P  P9  1  0.85839644  0.87306621  0.02393737  1
  P  P10  1  0.37891875  0.49421446  0.57764914  1
  P  P11  1  0.32868832  0.55293497  0.23657686  1
  P  P12  1  0.94548584  0.83823742  0.58778668  1
  P  P13  1  0.09601168  0.23791481  0.99009175  1
  Li  Li14  1  0.70385152  0.56118678  0.67150415  1
  Cu  Cu15  1  0.68630728  0.86958668  0.37641212  1
  Cu  Cu16  1  0.82875503  0.54168636  0.62432319  1
