# generated using pymatgen
data_Li4Ti2P2I4O3
_symmetry_space_group_name_H-M   'P 1'
_cell_length_a   7.78272058
_cell_length_b   7.56911720
_cell_length_c   6.83608178
_cell_angle_alpha   91.37222836
_cell_angle_beta   91.85861125
_cell_angle_gamma   91.76593273
_symmetry_Int_Tables_number   1
_chemical_formula_structural   Li4Ti2P2I4O3
_chemical_formula_sum   'Li4 Ti2 P2 I4 O3'
_cell_volume   402.17364584
_cell_formula_units_Z   1
loop_
 _symmetry_equiv_pos_site_id
 _symmetry_equiv_pos_as_xyz
  1  'x, y, z'
loop_
 _atom_site_type_symbol
 _atom_site_label
 _atom_site_symmetry_multiplicity
 _atom_site_fract_x
 _atom_site_fract_y
 _atom_site_fract_z
 _atom_site_occupancy
  P  P0  1  0.12500000  0.00000000  0.25000000  1
  P  P1  1  0.00000000  0.00000000  0.00000000  1
  I  I2  1  0.37500000  0.00000000  0.25000000  1
  I  I3  1  0.25000000  0.25000000  0.25000000  1
  I  I4  1  0.00000000  0.25000000  0.12500000  1
  I  I5  1  0.86696993  0.04144200  0.75318441  1
  Li  Li6  1  0.39174141  0.20486413  0.18279826  1
  Li  Li7  1  0.13594565  0.48940845  0.86087072  1
  Li  Li8  1  0.56661827  0.71489107  0.45573353  1
  Li  Li9  1  0.46880374  0.36890660  0.44631043  1
  Ti  Ti10  1  0.23510300  0.57779107  0.71803900  1
  Ti  Ti11  1  0.38490615  0.65322445  0.94476333  1
  O  O12  1  0.84850504  0.87523715  0.43520552  1
  O  O13  1  0.39872610  0.01264533  0.20876333  1
  O  O14  1  0.17603208  0.30480726  0.15502029  1
