# generated using pymatgen
data_Li2LuCu2(As3P2)2
_symmetry_space_group_name_H-M   'P 1'
_cell_length_a   7.54983084
_cell_length_b   7.55121802
_cell_length_c   8.22046849
_cell_angle_alpha   90.89513389
_cell_angle_beta   91.97069283
_cell_angle_gamma   90.98485071
_symmetry_Int_Tables_number   1
_chemical_formula_structural   Li2LuCu2(As3P2)2
_chemical_formula_sum   'Li2 Lu1 Cu2 As6 P4'
_cell_volume   468.24432574
_cell_formula_units_Z   1
loop_
 _symmetry_equiv_pos_site_id
 _symmetry_equiv_pos_as_xyz
  1  'x, y, z'
loop_
 _atom_site_type_symbol
 _atom_site_label
 _atom_site_symmetry_multiplicity
 _atom_site_fract_x
 _atom_site_fract_y
 _atom_site_fract_z
 _atom_site_occupancy
  P  P0  1  0.12500000  0.00000000  0.25000000  1
  P  P1  1  0.00000000  0.00000000  0.00000000  1
  P  P2  1  0.37500000  0.00000000  0.25000000  1
  P  P3  1  0.25000000  0.25000000  0.25000000  1
  Lu  Lu4  1  0.00000000  0.25000000  0.12500000  1
  As  As5  1  0.30174708  0.62879996  0.78645476  1
  As  As6  1  0.78734805  0.06232511  0.71494253  1
  As  As7  1  0.65246237  0.99824584  0.60888769  1
  As  As8  1  0.74233325  0.74275814  0.97730677  1
  As  As9  1  0.37306663  0.37172284  0.68240174  1
  As  As10  1  0.20729270  0.88317128  0.91900865  1
  Li  Li11  1  0.21508932  0.75942184  0.35549276  1
  Li  Li12  1  0.35308993  0.61203572  0.49672421  1
  Cu  Cu13  1  0.45513741  0.42731990  0.63869431  1
  Cu  Cu14  1  0.59562394  0.18956878  0.47369525  1
