# generated using pymatgen
data_Li3Ti2P4O4F3
_symmetry_space_group_name_H-M   'P 1'
_cell_length_a   6.00612258
_cell_length_b   5.92579382
_cell_length_c   7.39011407
_cell_angle_alpha   100.02849821
_cell_angle_beta   102.75305410
_cell_angle_gamma   99.48713608
_symmetry_Int_Tables_number   1
_chemical_formula_structural   Li3Ti2P4O4F3
_chemical_formula_sum   'Li3 Ti2 P4 O4 F3'
_cell_volume   246.89137423
_cell_formula_units_Z   1
loop_
 _symmetry_equiv_pos_site_id
 _symmetry_equiv_pos_as_xyz
  1  'x, y, z'
loop_
 _atom_site_type_symbol
 _atom_site_label
 _atom_site_symmetry_multiplicity
 _atom_site_fract_x
 _atom_site_fract_y
 _atom_site_fract_z
 _atom_site_occupancy
  P  P0  1  0.12500000  0.00000000  0.25000000  1
  P  P1  1  0.00000000  0.00000000  0.00000000  1
  P  P2  1  0.37500000  0.00000000  0.25000000  1
  P  P3  1  0.25000000  0.25000000  0.25000000  1
  Li  Li4  1  0.00000000  0.25000000  0.12500000  1
  Li  Li5  1  0.57669424  0.19307484  0.78570588  1
  Li  Li6  1  0.16880680  0.75751100  0.03666533  1
  F  F7  1  0.57360169  0.46601796  0.47904162  1
  F  F8  1  0.93377639  0.15455448  0.44082762  1
  F  F9  1  0.72132223  0.90058557  0.99919146  1
  Ti  Ti10  1  0.19952415  0.74303483  0.66690627  1
  Ti  Ti11  1  0.69284038  0.28967470  0.16178076  1
  O  O12  1  0.60035822  0.70124968  0.48267418  1
  O  O13  1  0.97653327  0.32803906  0.93329964  1
  O  O14  1  0.38889251  0.23201106  0.49486980  1
  O  O15  1  0.61223723  0.33815712  0.68137346  1
