# generated using pymatgen
data_Li3Cu2N5O4
_symmetry_space_group_name_H-M   'P 1'
_cell_length_a   8.27426486
_cell_length_b   8.12622924
_cell_length_c   7.76637038
_cell_angle_alpha   91.34602017
_cell_angle_beta   91.17978078
_cell_angle_gamma   91.42257870
_symmetry_Int_Tables_number   1
_chemical_formula_structural   Li3Cu2N5O4
_chemical_formula_sum   'Li3 Cu2 N5 O4'
_cell_volume   521.77753431
_cell_formula_units_Z   1
loop_
 _symmetry_equiv_pos_site_id
 _symmetry_equiv_pos_as_xyz
  1  'x, y, z'
loop_
 _atom_site_type_symbol
 _atom_site_label
 _atom_site_symmetry_multiplicity
 _atom_site_fract_x
 _atom_site_fract_y
 _atom_site_fract_z
 _atom_site_occupancy
  Li  Li0  1  0.12500000  0.00000000  0.25000000  1
  Li  Li1  1  0.00000000  0.00000000  0.00000000  1
  Li  Li2  1  0.37500000  0.00000000  0.25000000  1
  Cu  Cu3  1  0.25000000  0.25000000  0.25000000  1
  Cu  Cu4  1  0.00000000  0.25000000  0.12500000  1
  O  O5  1  0.67965741  0.25956139  0.79403631  1
  O  O6  1  0.14668126  0.89773708  0.71331354  1
  O  O7  1  0.82319462  0.73136945  0.96015044  1
  O  O8  1  0.66386697  0.33656568  0.11377187  1
  N  N9  1  0.95713116  0.14298755  0.02188766  1
  N  N10  1  0.91103931  0.18234733  0.53367904  1
  N  N11  1  0.39930519  0.01811879  0.39724489  1
  N  N12  1  0.20126183  0.23064562  0.99892740  1
  N  N13  1  0.38075896  0.19434264  0.37029045  1
