# generated using pymatgen
data_LiTiCu2(OF)2
_symmetry_space_group_name_H-M   'P 1'
_cell_length_a   6.70569022
_cell_length_b   6.65516970
_cell_length_c   7.52690126
_cell_angle_alpha   93.09710140
_cell_angle_beta   95.50374132
_cell_angle_gamma   93.68464457
_symmetry_Int_Tables_number   1
_chemical_formula_structural   LiTiCu2(OF)2
_chemical_formula_sum   'Li1 Ti1 Cu2 O2 F2'
_cell_volume   333.05396723
_cell_formula_units_Z   1
loop_
 _symmetry_equiv_pos_site_id
 _symmetry_equiv_pos_as_xyz
  1  'x, y, z'
loop_
 _atom_site_type_symbol
 _atom_site_label
 _atom_site_symmetry_multiplicity
 _atom_site_fract_x
 _atom_site_fract_y
 _atom_site_fract_z
 _atom_site_occupancy
  Li  Li0  1  0.12500000  0.00000000  0.25000000  1
  Cu  Cu1  1  0.00000000  0.00000000  0.00000000  1
  Cu  Cu2  1  0.37500000  0.00000000  0.25000000  1
  F  F3  1  0.25000000  0.25000000  0.25000000  1
  F  F4  1  0.00000000  0.25000000  0.12500000  1
  Ti  Ti5  1  0.78710369  0.25711886  0.43926728  1
  O  O6  1  0.43779592  0.64452368  0.74693459  1
  O  O7  1  0.37243267  0.77393554  0.08523734  1
