# generated using pymatgen
data_Li2Mn(SbP)2
_symmetry_space_group_name_H-M   'P 1'
_cell_length_a   4.66995527
_cell_length_b   4.93468366
_cell_length_c   6.13014134
_cell_angle_alpha   101.89818619
_cell_angle_beta   95.04635834
_cell_angle_gamma   100.27515618
_symmetry_Int_Tables_number   1
_chemical_formula_structural   Li2Mn(SbP)2
_chemical_formula_sum   'Li2 Mn1 Sb2 P2'
_cell_volume   134.86931892
_cell_formula_units_Z   1
loop_
 _symmetry_equiv_pos_site_id
 _symmetry_equiv_pos_as_xyz
  1  'x, y, z'
loop_
 _atom_site_type_symbol
 _atom_site_label
 _atom_site_symmetry_multiplicity
 _atom_site_fract_x
 _atom_site_fract_y
 _atom_site_fract_z
 _atom_site_occupancy
  Mn  Mn0  1  0.00000000  0.00000000  0.00000000  1
  Sb  Sb1  1  0.50000000  0.50000000  0.50000000  1
  Sb  Sb2  1  0.25000000  0.25000000  0.25000000  1
  P  P3  1  0.75000000  0.25000000  0.00000000  1
  P  P4  1  0.25000000  0.75000000  0.50000000  1
  Li  Li5  1  0.43759222  0.52874392  0.88652231  1
  Li  Li6  1  0.11447717  0.52783973  0.33842938  1
