# generated using pymatgen
data_Li2LuTi2Cu2P5
_symmetry_space_group_name_H-M   'P 1'
_cell_length_a   7.17963360
_cell_length_b   6.90173894
_cell_length_c   7.93060759
_cell_angle_alpha   93.16483165
_cell_angle_beta   93.70985878
_cell_angle_gamma   93.23032783
_symmetry_Int_Tables_number   1
_chemical_formula_structural   Li2LuTi2Cu2P5
_chemical_formula_sum   'Li2 Lu1 Ti2 Cu2 P5'
_cell_volume   390.84681462
_cell_formula_units_Z   1
loop_
 _symmetry_equiv_pos_site_id
 _symmetry_equiv_pos_as_xyz
  1  'x, y, z'
loop_
 _atom_site_type_symbol
 _atom_site_label
 _atom_site_symmetry_multiplicity
 _atom_site_fract_x
 _atom_site_fract_y
 _atom_site_fract_z
 _atom_site_occupancy
  P  P0  1  0.00000000  0.00000000  0.00000000  1
  P  P1  1  0.50000000  0.50000000  0.50000000  1
  P  P2  1  0.25000000  0.25000000  0.25000000  1
  P  P3  1  0.75000000  0.25000000  0.00000000  1
  P  P4  1  0.25000000  0.75000000  0.50000000  1
  Lu  Lu5  1  0.87943247  0.41742335  0.04482287  1
  Li  Li6  1  0.55564002  0.30446052  0.15038049  1
  Li  Li7  1  0.19671320  0.16851008  0.85565859  1
  Cu  Cu8  1  0.70628985  0.20101056  0.31271883  1
  Cu  Cu9  1  0.17125147  0.55751239  0.65015036  1
  Ti  Ti10  1  0.28303049  0.48489100  0.46422341  1
  Ti  Ti11  1  0.48831623  0.13429469  0.99831691  1
