# generated using pymatgen
data_Li2Mn2Sb4P3
_symmetry_space_group_name_H-M   'P 1'
_cell_length_a   5.29596580
_cell_length_b   5.69069571
_cell_length_c   6.87770278
_cell_angle_alpha   97.67057963
_cell_angle_beta   94.79650354
_cell_angle_gamma   98.13262480
_symmetry_Int_Tables_number   1
_chemical_formula_structural   Li2Mn2Sb4P3
_chemical_formula_sum   'Li2 Mn2 Sb4 P3'
_cell_volume   202.24482004
_cell_formula_units_Z   1
loop_
 _symmetry_equiv_pos_site_id
 _symmetry_equiv_pos_as_xyz
  1  'x, y, z'
loop_
 _atom_site_type_symbol
 _atom_site_label
 _atom_site_symmetry_multiplicity
 _atom_site_fract_x
 _atom_site_fract_y
 _atom_site_fract_z
 _atom_site_occupancy
  Mn  Mn0  1  0.00000000  0.00000000  0.00000000  1
  Mn  Mn1  1  0.50000000  0.50000000  0.50000000  1
  Sb  Sb2  1  0.25000000  0.25000000  0.25000000  1
  Sb  Sb3  1  0.75000000  0.25000000  0.00000000  1
  Sb  Sb4  1  0.25000000  0.75000000  0.50000000  1
  Sb  Sb5  1  0.82604496  0.12770563  0.97811937  1
  P  P6  1  0.05910490  0.36448232  0.79794142  1
  P  P7  1  0.74770788  0.20273232  0.53399875  1
  P  P8  1  0.63261379  0.00155793  0.31782826  1
  Li  Li9  1  0.10839229  0.44348511  0.20158574  1
  Li  Li10  1  0.55473905  0.72514137  0.35052664  1
