# generated using pymatgen
data_Li2TiI4(OF)3
_symmetry_space_group_name_H-M   'P 1'
_cell_length_a   7.05212492
_cell_length_b   6.69130430
_cell_length_c   7.07633143
_cell_angle_alpha   93.27982361
_cell_angle_beta   94.56517186
_cell_angle_gamma   93.01512192
_symmetry_Int_Tables_number   1
_chemical_formula_structural   Li2TiI4(OF)3
_chemical_formula_sum   'Li2 Ti1 I4 O3 F3'
_cell_volume   331.76427809
_cell_formula_units_Z   1
loop_
 _symmetry_equiv_pos_site_id
 _symmetry_equiv_pos_as_xyz
  1  'x, y, z'
loop_
 _atom_site_type_symbol
 _atom_site_label
 _atom_site_symmetry_multiplicity
 _atom_site_fract_x
 _atom_site_fract_y
 _atom_site_fract_z
 _atom_site_occupancy
  I  I0  1  0.00000000  0.00000000  0.00000000  1
  I  I1  1  0.50000000  0.50000000  0.50000000  1
  I  I2  1  0.25000000  0.25000000  0.25000000  1
  I  I3  1  0.75000000  0.25000000  0.00000000  1
  Li  Li4  1  0.25000000  0.75000000  0.50000000  1
  Li  Li5  1  0.69396820  0.30290668  0.25210633  1
  F  F6  1  0.16352345  0.08602315  0.95917433  1
  F  F7  1  0.09385796  0.17620063  0.15853403  1
  F  F8  1  0.16745324  0.51197503  0.13644381  1
  Ti  Ti9  1  0.51871590  0.24996707  0.02827647  1
  O  O10  1  0.11023937  0.31137704  0.50154563  1
  O  O11  1  0.45218714  0.65584873  0.92111976  1
  O  O12  1  0.12236824  0.93177136  0.77763787  1
