# generated using pymatgen
data_Li3Cu2Ni2As6O5
_symmetry_space_group_name_H-M   'P 1'
_cell_length_a   8.16285803
_cell_length_b   7.99545433
_cell_length_c   7.99965234
_cell_angle_alpha   90.94565103
_cell_angle_beta   90.71721501
_cell_angle_gamma   91.09539651
_symmetry_Int_Tables_number   1
_chemical_formula_structural   Li3Cu2Ni2As6O5
_chemical_formula_sum   'Li3 Cu2 Ni2 As6 O5'
_cell_volume   521.89386079
_cell_formula_units_Z   1
loop_
 _symmetry_equiv_pos_site_id
 _symmetry_equiv_pos_as_xyz
  1  'x, y, z'
loop_
 _atom_site_type_symbol
 _atom_site_label
 _atom_site_symmetry_multiplicity
 _atom_site_fract_x
 _atom_site_fract_y
 _atom_site_fract_z
 _atom_site_occupancy
  Li  Li0  1  0.12500000  0.00000000  0.25000000  1
  Li  Li1  1  0.00000000  0.00000000  0.00000000  1
  Li  Li2  1  0.37500000  0.00000000  0.25000000  1
  Cu  Cu3  1  0.25000000  0.25000000  0.25000000  1
  Cu  Cu4  1  0.00000000  0.25000000  0.12500000  1
  Ni  Ni5  1  0.72322972  0.22290328  0.15367799  1
  Ni  Ni6  1  0.22845644  0.77937698  0.75836589  1
  As  As7  1  0.67789194  0.94218066  0.87829049  1
  As  As8  1  0.55163706  0.86215842  0.03813668  1
  As  As9  1  0.05875574  0.01523976  0.93298563  1
  As  As10  1  0.75978659  0.89502915  0.72466391  1
  As  As11  1  0.13588049  0.21426733  0.59682251  1
  As  As12  1  0.85165251  0.49769630  0.59514703  1
  O  O13  1  0.10982607  0.54158632  0.98647958  1
  O  O14  1  0.98542362  0.23328529  0.33326388  1
  O  O15  1  0.78669512  0.91564691  0.41581396  1
  O  O16  1  0.77510650  0.88608512  0.71433363  1
  O  O17  1  0.18407106  0.92609612  0.84006329  1
