# generated using pymatgen
data_Li2LuCu2(As3P2)2
_symmetry_space_group_name_H-M   'P 1'
_cell_length_a   7.57814112
_cell_length_b   7.39053648
_cell_length_c   8.07627317
_cell_angle_alpha   91.68402872
_cell_angle_beta   91.90265338
_cell_angle_gamma   91.80961232
_symmetry_Int_Tables_number   1
_chemical_formula_structural   Li2LuCu2(As3P2)2
_chemical_formula_sum   'Li2 Lu1 Cu2 As6 P4'
_cell_volume   451.63941213
_cell_formula_units_Z   1
loop_
 _symmetry_equiv_pos_site_id
 _symmetry_equiv_pos_as_xyz
  1  'x, y, z'
loop_
 _atom_site_type_symbol
 _atom_site_label
 _atom_site_symmetry_multiplicity
 _atom_site_fract_x
 _atom_site_fract_y
 _atom_site_fract_z
 _atom_site_occupancy
  P  P0  1  0.12500000  0.00000000  0.25000000  1
  P  P1  1  0.00000000  0.00000000  0.00000000  1
  P  P2  1  0.37500000  0.00000000  0.25000000  1
  P  P3  1  0.25000000  0.25000000  0.25000000  1
  Lu  Lu4  1  0.00000000  0.25000000  0.12500000  1
  Li  Li5  1  0.39641523  0.85998283  0.74629020  1
  Li  Li6  1  0.67201494  0.82548890  0.81985837  1
  Cu  Cu7  1  0.83547771  0.04990004  0.01055718  1
  Cu  Cu8  1  0.26486018  0.32697182  0.61987497  1
  As  As9  1  0.80589368  0.65433559  0.40032017  1
  As  As10  1  0.70192090  0.22154615  0.53765007  1
  As  As11  1  0.56312796  0.02724364  0.92730781  1
  As  As12  1  0.32324384  0.31838939  0.51769940  1
  As  As13  1  0.73183468  0.38843406  0.57068202  1
  As  As14  1  0.01032244  0.91466373  0.90015445  1
