# generated using pymatgen
data_LiMnSb4Mo2P3
_symmetry_space_group_name_H-M   'P 1'
_cell_length_a   5.74571289
_cell_length_b   6.16192918
_cell_length_c   6.76248646
_cell_angle_alpha   93.65078857
_cell_angle_beta   93.62231224
_cell_angle_gamma   93.84424570
_symmetry_Int_Tables_number   1
_chemical_formula_structural   LiMnSb4Mo2P3
_chemical_formula_sum   'Li1 Mn1 Sb4 Mo2 P3'
_cell_volume   237.85259382
_cell_formula_units_Z   1
loop_
 _symmetry_equiv_pos_site_id
 _symmetry_equiv_pos_as_xyz
  1  'x, y, z'
loop_
 _atom_site_type_symbol
 _atom_site_label
 _atom_site_symmetry_multiplicity
 _atom_site_fract_x
 _atom_site_fract_y
 _atom_site_fract_z
 _atom_site_occupancy
  Mn  Mn0  1  0.00000000  0.00000000  0.00000000  1
  Sb  Sb1  1  0.50000000  0.50000000  0.50000000  1
  Sb  Sb2  1  0.25000000  0.25000000  0.25000000  1
  Sb  Sb3  1  0.75000000  0.25000000  0.00000000  1
  Sb  Sb4  1  0.25000000  0.75000000  0.50000000  1
  P  P5  1  0.80437859  0.16898184  0.05667309  1
  P  P6  1  0.05205866  0.26787032  0.25889693  1
  P  P7  1  0.07617507  0.69257221  0.71129891  1
  Mo  Mo8  1  0.91588957  0.66887987  0.58778966  1
  Mo  Mo9  1  0.88209142  0.12803505  0.06661226  1
  Li  Li10  1  0.13751057  0.03889463  0.34899596  1
