# generated using pymatgen
data_Li2Mn2Sb4Mo2P3
_symmetry_space_group_name_H-M   'P 1'
_cell_length_a   5.11373588
_cell_length_b   5.42821199
_cell_length_c   6.41768181
_cell_angle_alpha   100.74668150
_cell_angle_beta   91.77663720
_cell_angle_gamma   100.70558452
_symmetry_Int_Tables_number   1
_chemical_formula_structural   Li2Mn2Sb4Mo2P3
_chemical_formula_sum   'Li2 Mn2 Sb4 Mo2 P3'
_cell_volume   171.57608918
_cell_formula_units_Z   1
loop_
 _symmetry_equiv_pos_site_id
 _symmetry_equiv_pos_as_xyz
  1  'x, y, z'
loop_
 _atom_site_type_symbol
 _atom_site_label
 _atom_site_symmetry_multiplicity
 _atom_site_fract_x
 _atom_site_fract_y
 _atom_site_fract_z
 _atom_site_occupancy
  Mn  Mn0  1  0.00000000  0.00000000  0.00000000  1
  Mn  Mn1  1  0.50000000  0.50000000  0.50000000  1
  Sb  Sb2  1  0.25000000  0.25000000  0.25000000  1
  Sb  Sb3  1  0.75000000  0.25000000  0.00000000  1
  Sb  Sb4  1  0.25000000  0.75000000  0.50000000  1
  Sb  Sb5  1  0.08934607  0.95532770  0.64712991  1
  P  P6  1  0.86229086  0.29574719  0.59246534  1
  P  P7  1  0.79476816  0.94955396  0.11753533  1
  P  P8  1  0.55572192  0.79116345  0.84861076  1
  Mo  Mo9  1  0.38217841  0.75893369  0.15902164  1
  Mo  Mo10  1  0.17773898  0.09935490  0.04632714  1
  Li  Li11  1  0.64181643  0.21392483  0.02283284  1
  Li  Li12  1  0.00216818  0.06433984  0.64172265  1
