# generated using pymatgen
data_Li3TiTe6I4O3
_symmetry_space_group_name_H-M   'P 1'
_cell_length_a   7.21332589
_cell_length_b   7.31196850
_cell_length_c   7.08545471
_cell_angle_alpha   95.20599137
_cell_angle_beta   96.90843704
_cell_angle_gamma   94.89417422
_symmetry_Int_Tables_number   1
_chemical_formula_structural   Li3TiTe6I4O3
_chemical_formula_sum   'Li3 Ti1 Te6 I4 O3'
_cell_volume   367.71442510
_cell_formula_units_Z   1
loop_
 _symmetry_equiv_pos_site_id
 _symmetry_equiv_pos_as_xyz
  1  'x, y, z'
loop_
 _atom_site_type_symbol
 _atom_site_label
 _atom_site_symmetry_multiplicity
 _atom_site_fract_x
 _atom_site_fract_y
 _atom_site_fract_z
 _atom_site_occupancy
  I  I0  1  0.12500000  0.00000000  0.25000000  1
  I  I1  1  0.00000000  0.00000000  0.00000000  1
  I  I2  1  0.37500000  0.00000000  0.25000000  1
  I  I3  1  0.25000000  0.25000000  0.25000000  1
  Li  Li4  1  0.00000000  0.25000000  0.12500000  1
  Li  Li5  1  0.52957175  0.03355008  0.43014810  1
  Li  Li6  1  0.38590380  0.27632649  0.01273549  1
  Te  Te7  1  0.31843845  0.78319386  0.95813927  1
  Te  Te8  1  0.53461880  0.02031152  0.57584480  1
  Te  Te9  1  0.50975552  0.86200269  0.51220232  1
  Te  Te10  1  0.82589847  0.05665933  0.65459222  1
  Te  Te11  1  0.94240466  0.83459306  0.65985198  1
  Te  Te12  1  0.59999676  0.85993122  0.08699527  1
  Ti  Ti13  1  0.36888479  0.42735163  0.06279772  1
  O  O14  1  0.79169043  0.95239458  0.32787843  1
  O  O15  1  0.42488417  0.22037955  0.06770368  1
  O  O16  1  0.68751859  0.14303283  0.50214151  1
