# generated using pymatgen
data_Li4Ti2P2I4O3
_symmetry_space_group_name_H-M   'P 1'
_cell_length_a   7.75760728
_cell_length_b   7.56249902
_cell_length_c   6.83857281
_cell_angle_alpha   91.48424119
_cell_angle_beta   92.01032675
_cell_angle_gamma   91.91008302
_symmetry_Int_Tables_number   1
_chemical_formula_structural   Li4Ti2P2I4O3
_chemical_formula_sum   'Li4 Ti2 P2 I4 O3'
_cell_volume   400.58092983
_cell_formula_units_Z   1
loop_
 _symmetry_equiv_pos_site_id
 _symmetry_equiv_pos_as_xyz
  1  'x, y, z'
loop_
 _atom_site_type_symbol
 _atom_site_label
 _atom_site_symmetry_multiplicity
 _atom_site_fract_x
 _atom_site_fract_y
 _atom_site_fract_z
 _atom_site_occupancy
  P  P0  1  0.00000000  0.00000000  0.00000000  1
  P  P1  1  0.50000000  0.50000000  0.50000000  1
  I  I2  1  0.50000000  0.50000000  0.00000000  1
  I  I3  1  0.50000000  0.00000000  0.50000000  1
  I  I4  1  0.00000000  0.50000000  0.50000000  1
  I  I5  1  0.60971625  0.73370231  0.67351292  1
  Li  Li6  1  0.26339956  0.19188638  0.49396416  1
  Li  Li7  1  0.98189400  0.55876185  0.00215841  1
  Li  Li8  1  0.03159936  0.87871749  0.92570655  1
  Li  Li9  1  0.60086546  0.55560455  0.08428493  1
  Ti  Ti10  1  0.45678454  0.54767644  0.51366765  1
  Ti  Ti11  1  0.15106637  0.65472144  0.69463579  1
  O  O12  1  0.22522889  0.77766887  0.17772298  1
  O  O13  1  0.94245922  0.91215349  0.83826145  1
  O  O14  1  0.89742469  0.95647326  0.85678421  1
