# generated using pymatgen
data_Li2TiAs6(NO)5
_symmetry_space_group_name_H-M   'P 1'
_cell_length_a   7.79086988
_cell_length_b   7.62501523
_cell_length_c   8.12542847
_cell_angle_alpha   91.72499609
_cell_angle_beta   91.64413864
_cell_angle_gamma   91.79113536
_symmetry_Int_Tables_number   1
_chemical_formula_structural   Li2TiAs6(NO)5
_chemical_formula_sum   'Li2 Ti1 As6 N5 O5'
_cell_volume   482.02850160
_cell_formula_units_Z   1
loop_
 _symmetry_equiv_pos_site_id
 _symmetry_equiv_pos_as_xyz
  1  'x, y, z'
loop_
 _atom_site_type_symbol
 _atom_site_label
 _atom_site_symmetry_multiplicity
 _atom_site_fract_x
 _atom_site_fract_y
 _atom_site_fract_z
 _atom_site_occupancy
  Li  Li0  1  0.00000000  0.00000000  0.00000000  1
  Li  Li1  1  0.50000000  0.50000000  0.50000000  1
  Ti  Ti2  1  0.25000000  0.25000000  0.25000000  1
  As  As3  1  0.75000000  0.25000000  0.00000000  1
  As  As4  1  0.25000000  0.75000000  0.50000000  1
  As  As5  1  0.50612565  0.97874053  0.85595781  1
  As  As6  1  0.72309664  0.71453566  0.41025509  1
  As  As7  1  0.64847659  0.75658800  0.82458061  1
  As  As8  1  0.87589653  0.95545175  0.68332608  1
  O  O9  1  0.37584165  0.76032651  0.27682187  1
  O  O10  1  0.82932688  0.40482409  0.71488405  1
  O  O11  1  0.48757926  0.72600038  0.92044818  1
  O  O12  1  0.35773359  0.95830848  0.82818814  1
  O  O13  1  0.24796907  0.73628795  0.84932930  1
  N  N14  1  0.96594843  0.44518172  0.96656715  1
  N  N15  1  0.95753049  0.39725724  0.29123895  1
  N  N16  1  0.36617312  0.16630497  0.57427754  1
  N  N17  1  0.16820779  0.39441254  0.60102722  1
  N  N18  1  0.19115639  0.67088251  0.19049552  1
