# generated using pymatgen
data_LiSb4P3
_symmetry_space_group_name_H-M   'P 1'
_cell_length_a   5.14678647
_cell_length_b   5.37161785
_cell_length_c   6.21653508
_cell_angle_alpha   97.87171128
_cell_angle_beta   91.23960855
_cell_angle_gamma   97.60734067
_symmetry_Int_Tables_number   1
_chemical_formula_structural   LiSb4P3
_chemical_formula_sum   'Li1 Sb4 P3'
_cell_volume   168.60956288
_cell_formula_units_Z   1
loop_
 _symmetry_equiv_pos_site_id
 _symmetry_equiv_pos_as_xyz
  1  'x, y, z'
loop_
 _atom_site_type_symbol
 _atom_site_label
 _atom_site_symmetry_multiplicity
 _atom_site_fract_x
 _atom_site_fract_y
 _atom_site_fract_z
 _atom_site_occupancy
  Sb  Sb0  1  0.00000000  0.00000000  0.00000000  1
  Sb  Sb1  1  0.33300000  0.66700000  0.25000000  1
  Sb  Sb2  1  0.66700000  0.33300000  0.50000000  1
  Sb  Sb3  1  0.00000000  0.00000000  0.75000000  1
  P  P4  1  0.24877921  0.36933351  0.26969468  1
  P  P5  1  0.99795266  0.86997814  0.63256067  1
  P  P6  1  0.17185815  0.20900158  0.19820919  1
  Li  Li7  1  0.34256574  0.77108777  0.38981594  1
