# generated using pymatgen
data_Li2MnSb4Mo2P3
_symmetry_space_group_name_H-M   'P 1'
_cell_length_a   5.47475826
_cell_length_b   5.90511324
_cell_length_c   7.15859209
_cell_angle_alpha   96.50833529
_cell_angle_beta   95.19572445
_cell_angle_gamma   97.05718037
_symmetry_Int_Tables_number   1
_chemical_formula_structural   Li2MnSb4Mo2P3
_chemical_formula_sum   'Li2 Mn1 Sb4 Mo2 P3'
_cell_volume   226.91233936
_cell_formula_units_Z   1
loop_
 _symmetry_equiv_pos_site_id
 _symmetry_equiv_pos_as_xyz
  1  'x, y, z'
loop_
 _atom_site_type_symbol
 _atom_site_label
 _atom_site_symmetry_multiplicity
 _atom_site_fract_x
 _atom_site_fract_y
 _atom_site_fract_z
 _atom_site_occupancy
  Mn  Mn0  1  0.00000000  0.00000000  0.00000000  1
  Sb  Sb1  1  0.50000000  0.50000000  0.50000000  1
  Sb  Sb2  1  0.25000000  0.25000000  0.25000000  1
  Sb  Sb3  1  0.75000000  0.25000000  0.00000000  1
  Sb  Sb4  1  0.25000000  0.75000000  0.50000000  1
  P  P5  1  0.87503068  0.89591752  0.17791790  1
  P  P6  1  0.28395679  0.92418062  0.81149468  1
  P  P7  1  0.50975532  0.52487586  0.63016369  1
  Mo  Mo8  1  0.95517636  0.53743825  0.79085868  1
  Mo  Mo9  1  0.45443566  0.03132575  0.28457941  1
  Li  Li10  1  0.29346144  0.58314407  0.85753174  1
  Li  Li11  1  0.99159306  0.24700122  0.93035521  1
