# generated using pymatgen
data_Li2TiAs6(PI)4
_symmetry_space_group_name_H-M   'P 1'
_cell_length_a   7.87085463
_cell_length_b   7.67566333
_cell_length_c   7.85516981
_cell_angle_alpha   91.09943995
_cell_angle_beta   91.36523033
_cell_angle_gamma   91.23079515
_symmetry_Int_Tables_number   1
_chemical_formula_structural   Li2TiAs6(PI)4
_chemical_formula_sum   'Li2 Ti1 As6 P4 I4'
_cell_volume   474.22615758
_cell_formula_units_Z   1
loop_
 _symmetry_equiv_pos_site_id
 _symmetry_equiv_pos_as_xyz
  1  'x, y, z'
loop_
 _atom_site_type_symbol
 _atom_site_label
 _atom_site_symmetry_multiplicity
 _atom_site_fract_x
 _atom_site_fract_y
 _atom_site_fract_z
 _atom_site_occupancy
  P  P0  1  0.00000000  0.00000000  0.00000000  1
  P  P1  1  0.50000000  0.50000000  0.50000000  1
  P  P2  1  0.25000000  0.25000000  0.25000000  1
  P  P3  1  0.75000000  0.25000000  0.00000000  1
  I  I4  1  0.25000000  0.75000000  0.50000000  1
  I  I5  1  0.99592081  0.06492958  0.81402637  1
  I  I6  1  0.08458892  0.05213505  0.86234984  1
  I  I7  1  0.71559384  0.49199530  0.73042348  1
  Li  Li8  1  0.97526517  0.45498252  0.12407483  1
  Li  Li9  1  0.86810004  0.58473105  0.47145676  1
  Ti  Ti10  1  0.26510040  0.18349413  0.54679682  1
  As  As11  1  0.44417038  0.94402642  0.76678861  1
  As  As12  1  0.90547407  0.54896782  0.16816335  1
  As  As13  1  0.97541118  0.94459384  0.33602304  1
  As  As14  1  0.71037265  0.69232110  0.52980221  1
  As  As15  1  0.21176793  0.79145241  0.44439883  1
  As  As16  1  0.75115761  0.43046744  0.15352862  1
