# generated using pymatgen
data_Li2Lu(CuP2)2
_symmetry_space_group_name_H-M   'P 1'
_cell_length_a   7.31410905
_cell_length_b   7.21041084
_cell_length_c   7.92580516
_cell_angle_alpha   93.27333074
_cell_angle_beta   93.92314066
_cell_angle_gamma   93.28046753
_symmetry_Int_Tables_number   1
_chemical_formula_structural   Li2Lu(CuP2)2
_chemical_formula_sum   'Li2 Lu1 Cu2 P4'
_cell_volume   415.54432136
_cell_formula_units_Z   1
loop_
 _symmetry_equiv_pos_site_id
 _symmetry_equiv_pos_as_xyz
  1  'x, y, z'
loop_
 _atom_site_type_symbol
 _atom_site_label
 _atom_site_symmetry_multiplicity
 _atom_site_fract_x
 _atom_site_fract_y
 _atom_site_fract_z
 _atom_site_occupancy
  P  P0  1  0.00000000  0.00000000  0.00000000  1
  P  P1  1  0.33300000  0.66700000  0.25000000  1
  P  P2  1  0.66700000  0.33300000  0.50000000  1
  P  P3  1  0.00000000  0.00000000  0.75000000  1
  Lu  Lu4  1  0.35401213  0.14165010  0.19220753  1
  Li  Li5  1  0.07492007  0.56107601  0.86915640  1
  Li  Li6  1  0.17585069  0.14948126  0.99625505  1
  Cu  Cu7  1  0.81150008  0.55367520  0.94601362  1
  Cu  Cu8  1  0.41393487  0.75978168  0.71744175  1
