# generated using pymatgen
data_Li2LuCu2F3
_symmetry_space_group_name_H-M   'P 1'
_cell_length_a   7.83502224
_cell_length_b   7.64677721
_cell_length_c   7.69952515
_cell_angle_alpha   90.87271089
_cell_angle_beta   91.48793490
_cell_angle_gamma   91.00779046
_symmetry_Int_Tables_number   1
_chemical_formula_structural   Li2LuCu2F3
_chemical_formula_sum   'Li2 Lu1 Cu2 F3'
_cell_volume   461.01543337
_cell_formula_units_Z   1
loop_
 _symmetry_equiv_pos_site_id
 _symmetry_equiv_pos_as_xyz
  1  'x, y, z'
loop_
 _atom_site_type_symbol
 _atom_site_label
 _atom_site_symmetry_multiplicity
 _atom_site_fract_x
 _atom_site_fract_y
 _atom_site_fract_z
 _atom_site_occupancy
  Lu  Lu0  1  0.00000000  0.00000000  0.00000000  1
  Li  Li1  1  0.50000000  0.50000000  0.50000000  1
  Li  Li2  1  0.50000000  0.50000000  0.00000000  1
  Cu  Cu3  1  0.50000000  0.00000000  0.50000000  1
  Cu  Cu4  1  0.00000000  0.50000000  0.50000000  1
  F  F5  1  0.64094816  0.28425968  0.18795753  1
  F  F6  1  0.34632673  0.48621115  0.04199157  1
  F  F7  1  0.00439138  0.40994281  0.52000740  1
