# generated using pymatgen
data_Li2As6P3Cl2F3
_symmetry_space_group_name_H-M   'P 1'
_cell_length_a   6.40040004
_cell_length_b   6.34966872
_cell_length_c   7.40576668
_cell_angle_alpha   94.90848697
_cell_angle_beta   97.19995827
_cell_angle_gamma   94.58713735
_symmetry_Int_Tables_number   1
_chemical_formula_structural   Li2As6P3Cl2F3
_chemical_formula_sum   'Li2 As6 P3 Cl2 F3'
_cell_volume   296.25011883
_cell_formula_units_Z   1
loop_
 _symmetry_equiv_pos_site_id
 _symmetry_equiv_pos_as_xyz
  1  'x, y, z'
loop_
 _atom_site_type_symbol
 _atom_site_label
 _atom_site_symmetry_multiplicity
 _atom_site_fract_x
 _atom_site_fract_y
 _atom_site_fract_z
 _atom_site_occupancy
  P  P0  1  0.00000000  0.00000000  0.00000000  1
  P  P1  1  0.50000000  0.50000000  0.50000000  1
  P  P2  1  0.50000000  0.50000000  0.00000000  1
  Li  Li3  1  0.50000000  0.00000000  0.50000000  1
  Li  Li4  1  0.00000000  0.50000000  0.50000000  1
  F  F5  1  0.46829325  0.97660974  0.52615181  1
  F  F6  1  0.39253986  0.24619271  0.79966919  1
  F  F7  1  0.97933573  0.89056768  0.89834331  1
  Cl  Cl8  1  0.64467278  0.06574805  0.83163174  1
  Cl  Cl9  1  0.10351303  0.58487901  0.77940748  1
  As  As10  1  0.85532092  0.06555268  0.49858575  1
  As  As11  1  0.04474427  0.14543085  0.68884581  1
  As  As12  1  0.67947647  0.77526516  0.49576767  1
  As  As13  1  0.22817501  0.50404630  0.54999449  1
  As  As14  1  0.63407294  0.42617278  0.13253457  1
  As  As15  1  0.21397222  0.99813024  0.42438815  1
