# generated using pymatgen
data_Li3Ni2P8Cl2O7
_symmetry_space_group_name_H-M   'P 1'
_cell_length_a   6.14602268
_cell_length_b   5.82370849
_cell_length_c   7.88256396
_cell_angle_alpha   100.35105845
_cell_angle_beta   102.86887290
_cell_angle_gamma   99.85516617
_symmetry_Int_Tables_number   1
_chemical_formula_structural   Li3Ni2P8Cl2O7
_chemical_formula_sum   'Li3 Ni2 P8 Cl2 O7'
_cell_volume   263.93340521
_cell_formula_units_Z   1
loop_
 _symmetry_equiv_pos_site_id
 _symmetry_equiv_pos_as_xyz
  1  'x, y, z'
loop_
 _atom_site_type_symbol
 _atom_site_label
 _atom_site_symmetry_multiplicity
 _atom_site_fract_x
 _atom_site_fract_y
 _atom_site_fract_z
 _atom_site_occupancy
  Cl  Cl0  1  0.00000000  0.00000000  0.00000000  1
  Cl  Cl1  1  0.50000000  0.50000000  0.50000000  1
  Ni  Ni2  1  0.25000000  0.25000000  0.25000000  1
  Ni  Ni3  1  0.75000000  0.25000000  0.00000000  1
  O  O4  1  0.25000000  0.75000000  0.50000000  1
  O  O5  1  0.58617318  0.64360259  0.53710802  1
  O  O6  1  0.97361218  0.27528984  0.60924481  1
  O  O7  1  0.20082329  0.37190087  0.74552960  1
  O  O8  1  0.26511565  0.27400744  0.37288539  1
  O  O9  1  0.65070015  0.83222745  0.16206562  1
  O  O10  1  0.78893221  0.23292038  0.06321285  1
  P  P11  1  0.13314479  0.84157245  0.75211067  1
  P  P12  1  0.18835200  0.86656731  0.61436014  1
  P  P13  1  0.55272414  0.60114180  0.24705232  1
  P  P14  1  0.34082240  0.92255996  0.42265524  1
  P  P15  1  0.43951314  0.68336819  0.34984551  1
  P  P16  1  0.84905699  0.15123731  0.55542540  1
  P  P17  1  0.14559044  0.99231221  0.99486373  1
  P  P18  1  0.20870558  0.50931413  0.34567038  1
  Li  Li19  1  0.02129713  0.88466865  0.83109236  1
  Li  Li20  1  0.63971262  0.70977207  0.44122179  1
  Li  Li21  1  0.95092798  0.43316486  0.46994506  1
