# generated using pymatgen
data_Li2LuCu2(As3P2)2
_symmetry_space_group_name_H-M   'P 1'
_cell_length_a   7.10925897
_cell_length_b   7.08652007
_cell_length_c   7.84865985
_cell_angle_alpha   94.61101095
_cell_angle_beta   95.74701512
_cell_angle_gamma   94.46973397
_symmetry_Int_Tables_number   1
_chemical_formula_structural   Li2LuCu2(As3P2)2
_chemical_formula_sum   'Li2 Lu1 Cu2 As6 P4'
_cell_volume   390.67736067
_cell_formula_units_Z   1
loop_
 _symmetry_equiv_pos_site_id
 _symmetry_equiv_pos_as_xyz
  1  'x, y, z'
loop_
 _atom_site_type_symbol
 _atom_site_label
 _atom_site_symmetry_multiplicity
 _atom_site_fract_x
 _atom_site_fract_y
 _atom_site_fract_z
 _atom_site_occupancy
  P  P0  1  0.00000000  0.00000000  0.00000000  1
  P  P1  1  0.50000000  0.50000000  0.50000000  1
  P  P2  1  0.50000000  0.50000000  0.00000000  1
  P  P3  1  0.50000000  0.00000000  0.50000000  1
  Lu  Lu4  1  0.00000000  0.50000000  0.50000000  1
  As  As5  1  0.81476215  0.72178529  0.18252173  1
  As  As6  1  0.74318360  0.72016447  0.38210636  1
  As  As7  1  0.12085054  0.66036405  0.32201759  1
  As  As8  1  0.88582297  0.41621776  0.36112142  1
  As  As9  1  0.00836371  0.28262585  0.88643500  1
  As  As10  1  0.05968073  0.32259034  0.62081941  1
  Li  Li11  1  0.01201914  0.76429134  0.08993060  1
  Li  Li12  1  0.08635368  0.82681153  0.09453964  1
  Cu  Cu13  1  0.52113557  0.22334615  0.53711018  1
  Cu  Cu14  1  0.45873265  0.48920211  0.91534936  1
