# generated using pymatgen
data_Li2LuCu2P4N5
_symmetry_space_group_name_H-M   'P 1'
_cell_length_a   7.48395156
_cell_length_b   7.29429511
_cell_length_c   8.20110126
_cell_angle_alpha   92.46365544
_cell_angle_beta   92.40976418
_cell_angle_gamma   92.62127233
_symmetry_Int_Tables_number   1
_chemical_formula_structural   Li2LuCu2P4N5
_chemical_formula_sum   'Li2 Lu1 Cu2 P4 N5'
_cell_volume   446.38285883
_cell_formula_units_Z   1
loop_
 _symmetry_equiv_pos_site_id
 _symmetry_equiv_pos_as_xyz
  1  'x, y, z'
loop_
 _atom_site_type_symbol
 _atom_site_label
 _atom_site_symmetry_multiplicity
 _atom_site_fract_x
 _atom_site_fract_y
 _atom_site_fract_z
 _atom_site_occupancy
  P  P0  1  0.00000000  0.00000000  0.00000000  1
  P  P1  1  0.50000000  0.50000000  0.50000000  1
  P  P2  1  0.25000000  0.25000000  0.25000000  1
  P  P3  1  0.75000000  0.25000000  0.00000000  1
  Lu  Lu4  1  0.25000000  0.75000000  0.50000000  1
  Li  Li5  1  0.06099827  0.24947747  0.59674941  1
  Li  Li6  1  0.97835169  0.60713391  0.96324540  1
  Cu  Cu7  1  0.94531689  0.71852439  0.77296464  1
  Cu  Cu8  1  0.24818905  0.78893423  0.24239328  1
  N  N9  1  0.75068820  0.22886507  0.44889704  1
  N  N10  1  0.97167921  0.20133515  0.50787368  1
  N  N11  1  0.35080442  0.94502834  0.87388465  1
  N  N12  1  0.07072041  0.28923307  0.11570607  1
  N  N13  1  0.33079744  0.42919415  0.16925691  1
