# generated using pymatgen
data_Li2Cu2As6F3
_symmetry_space_group_name_H-M   'P 1'
_cell_length_a   7.53584718
_cell_length_b   7.55046429
_cell_length_c   8.51489346
_cell_angle_alpha   90.45132850
_cell_angle_beta   92.62415727
_cell_angle_gamma   90.49979639
_symmetry_Int_Tables_number   1
_chemical_formula_structural   Li2Cu2As6F3
_chemical_formula_sum   'Li2 Cu2 As6 F3'
_cell_volume   483.94707439
_cell_formula_units_Z   1
loop_
 _symmetry_equiv_pos_site_id
 _symmetry_equiv_pos_as_xyz
  1  'x, y, z'
loop_
 _atom_site_type_symbol
 _atom_site_label
 _atom_site_symmetry_multiplicity
 _atom_site_fract_x
 _atom_site_fract_y
 _atom_site_fract_z
 _atom_site_occupancy
  Li  Li0  1  0.00000000  0.00000000  0.00000000  1
  Li  Li1  1  0.33300000  0.66700000  0.25000000  1
  Cu  Cu2  1  0.66700000  0.33300000  0.50000000  1
  Cu  Cu3  1  0.00000000  0.00000000  0.75000000  1
  F  F4  1  0.45656565  0.78137724  0.92616632  1
  F  F5  1  0.52055247  0.70963519  0.28618152  1
  F  F6  1  0.67181230  0.05740574  0.59775903  1
  As  As7  1  0.73172258  0.45311611  0.77942315  1
  As  As8  1  0.00851214  0.58278729  0.80537213  1
  As  As9  1  0.11836643  0.11039991  0.42376924  1
  As  As10  1  0.32400513  0.21659971  0.83433792  1
  As  As11  1  0.44822700  0.19719774  0.28340344  1
  As  As12  1  0.59715120  0.03221262  0.76086777  1
