# generated using pymatgen
data_Li2Lu(As3P2)2
_symmetry_space_group_name_H-M   'P 1'
_cell_length_a   7.20509319
_cell_length_b   7.10319050
_cell_length_c   7.89923246
_cell_angle_alpha   93.67067333
_cell_angle_beta   94.24555885
_cell_angle_gamma   93.67613380
_symmetry_Int_Tables_number   1
_chemical_formula_structural   Li2Lu(As3P2)2
_chemical_formula_sum   'Li2 Lu1 As6 P4'
_cell_volume   401.37540703
_cell_formula_units_Z   1
loop_
 _symmetry_equiv_pos_site_id
 _symmetry_equiv_pos_as_xyz
  1  'x, y, z'
loop_
 _atom_site_type_symbol
 _atom_site_label
 _atom_site_symmetry_multiplicity
 _atom_site_fract_x
 _atom_site_fract_y
 _atom_site_fract_z
 _atom_site_occupancy
  P  P0  1  0.12500000  0.00000000  0.25000000  1
  P  P1  1  0.00000000  0.00000000  0.00000000  1
  P  P2  1  0.37500000  0.00000000  0.25000000  1
  P  P3  1  0.25000000  0.25000000  0.25000000  1
  Lu  Lu4  1  0.00000000  0.25000000  0.12500000  1
  As  As5  1  0.58700902  0.95807871  0.66440819  1
  As  As6  1  0.34497925  0.47212383  0.52005983  1
  As  As7  1  0.03331856  0.14211347  0.76245266  1
  As  As8  1  0.95389119  0.38352790  0.13268322  1
  As  As9  1  0.82391523  0.50793619  0.79184437  1
  As  As10  1  0.41973146  0.09240366  0.96356590  1
  Li  Li11  1  0.09423310  0.79534796  0.13017475  1
  Li  Li12  1  0.40219770  0.55004287  0.42663076  1
