# generated using pymatgen
data_Li2TiAs6P3S2
_symmetry_space_group_name_H-M   'P 1'
_cell_length_a   7.09066647
_cell_length_b   6.80859956
_cell_length_c   7.28897752
_cell_angle_alpha   92.05885697
_cell_angle_beta   93.71977810
_cell_angle_gamma   92.00933779
_symmetry_Int_Tables_number   1
_chemical_formula_structural   Li2TiAs6P3S2
_chemical_formula_sum   'Li2 Ti1 As6 P3 S2'
_cell_volume   350.67886541
_cell_formula_units_Z   1
loop_
 _symmetry_equiv_pos_site_id
 _symmetry_equiv_pos_as_xyz
  1  'x, y, z'
loop_
 _atom_site_type_symbol
 _atom_site_label
 _atom_site_symmetry_multiplicity
 _atom_site_fract_x
 _atom_site_fract_y
 _atom_site_fract_z
 _atom_site_occupancy
  P  P0  1  0.00000000  0.00000000  0.00000000  1
  P  P1  1  0.50000000  0.50000000  0.50000000  1
  P  P2  1  0.50000000  0.50000000  0.00000000  1
  Li  Li3  1  0.50000000  0.00000000  0.50000000  1
  Li  Li4  1  0.00000000  0.50000000  0.50000000  1
  S  S5  1  0.42908648  0.88752709  0.61002839  1
  S  S6  1  0.92865265  0.64949023  0.51666223  1
  Ti  Ti7  1  0.91410958  0.93546251  0.99890171  1
  As  As8  1  0.34325448  0.34581018  0.15313632  1
  As  As9  1  0.43954785  0.02564574  0.81370063  1
  As  As10  1  0.74841290  0.59448112  0.55728319  1
  As  As11  1  0.54187916  0.64962030  0.58822113  1
  As  As12  1  0.17126857  0.42285576  0.24515489  1
  As  As13  1  0.31211803  0.90635889  0.42252721  1
