# generated using pymatgen
data_Li2LuCu2As6F3
_symmetry_space_group_name_H-M   'P 1'
_cell_length_a   7.53866603
_cell_length_b   7.42871865
_cell_length_c   8.26821931
_cell_angle_alpha   91.11717384
_cell_angle_beta   92.03554758
_cell_angle_gamma   91.28261415
_symmetry_Int_Tables_number   1
_chemical_formula_structural   Li2LuCu2As6F3
_chemical_formula_sum   'Li2 Lu1 Cu2 As6 F3'
_cell_volume   462.53845868
_cell_formula_units_Z   1
loop_
 _symmetry_equiv_pos_site_id
 _symmetry_equiv_pos_as_xyz
  1  'x, y, z'
loop_
 _atom_site_type_symbol
 _atom_site_label
 _atom_site_symmetry_multiplicity
 _atom_site_fract_x
 _atom_site_fract_y
 _atom_site_fract_z
 _atom_site_occupancy
  Lu  Lu0  1  0.12500000  0.00000000  0.25000000  1
  Li  Li1  1  0.00000000  0.00000000  0.00000000  1
  Li  Li2  1  0.37500000  0.00000000  0.25000000  1
  Cu  Cu3  1  0.25000000  0.25000000  0.25000000  1
  Cu  Cu4  1  0.00000000  0.25000000  0.12500000  1
  F  F5  1  0.32026886  0.71648159  0.36026328  1
  F  F6  1  0.03514154  0.39385833  0.11657295  1
  F  F7  1  0.68467091  0.04160197  0.46381637  1
  As  As8  1  0.22659596  0.26029498  0.02466739  1
  As  As9  1  0.78520028  0.89716344  0.69399764  1
  As  As10  1  0.25867329  0.11998991  0.73238313  1
  As  As11  1  0.86077948  0.25948185  0.55125432  1
  As  As12  1  0.41251017  0.62688042  0.54915129  1
  As  As13  1  0.07869701  0.61815515  0.20732863  1
