# generated using pymatgen
data_Li2TiCu2(I2F)2
_symmetry_space_group_name_H-M   'P 1'
_cell_length_a   7.57294168
_cell_length_b   7.38092481
_cell_length_c   7.51071934
_cell_angle_alpha   91.17420259
_cell_angle_beta   91.92475933
_cell_angle_gamma   91.06233013
_symmetry_Int_Tables_number   1
_chemical_formula_structural   Li2TiCu2(I2F)2
_chemical_formula_sum   'Li2 Ti1 Cu2 I4 F2'
_cell_volume   419.41136549
_cell_formula_units_Z   1
loop_
 _symmetry_equiv_pos_site_id
 _symmetry_equiv_pos_as_xyz
  1  'x, y, z'
loop_
 _atom_site_type_symbol
 _atom_site_label
 _atom_site_symmetry_multiplicity
 _atom_site_fract_x
 _atom_site_fract_y
 _atom_site_fract_z
 _atom_site_occupancy
  I  I0  1  0.00000000  0.00000000  0.00000000  1
  I  I1  1  0.50000000  0.50000000  0.50000000  1
  I  I2  1  0.50000000  0.50000000  0.00000000  1
  I  I3  1  0.50000000  0.00000000  0.50000000  1
  Li  Li4  1  0.00000000  0.50000000  0.50000000  1
  Li  Li5  1  0.94960459  0.94365848  0.67454655  1
  Cu  Cu6  1  0.28215237  0.02359894  0.10769802  1
  Cu  Cu7  1  0.09336584  0.25759892  0.17996359  1
  F  F8  1  0.50003009  0.20390245  0.00040363  1
  F  F9  1  0.85650770  0.34885748  0.36124549  1
  Ti  Ti10  1  0.18208016  0.05037431  0.16118549  1
