# generated using pymatgen
data_Li2Ti(ClO)2
_symmetry_space_group_name_H-M   'P 1'
_cell_length_a   5.76790661
_cell_length_b   5.64426546
_cell_length_c   6.80872961
_cell_angle_alpha   96.60984565
_cell_angle_beta   99.55614360
_cell_angle_gamma   97.08935872
_symmetry_Int_Tables_number   1
_chemical_formula_structural   Li2Ti(ClO)2
_chemical_formula_sum   'Li2 Ti1 Cl2 O2'
_cell_volume   214.82272788
_cell_formula_units_Z   1
loop_
 _symmetry_equiv_pos_site_id
 _symmetry_equiv_pos_as_xyz
  1  'x, y, z'
loop_
 _atom_site_type_symbol
 _atom_site_label
 _atom_site_symmetry_multiplicity
 _atom_site_fract_x
 _atom_site_fract_y
 _atom_site_fract_z
 _atom_site_occupancy
  Li  Li0  1  0.00000000  0.00000000  0.00000000  1
  Li  Li1  1  0.50000000  0.50000000  0.50000000  1
  Cl  Cl2  1  0.25000000  0.25000000  0.25000000  1
  Cl  Cl3  1  0.75000000  0.25000000  0.00000000  1
  Ti  Ti4  1  0.25000000  0.75000000  0.50000000  1
  O  O5  1  0.81319328  0.40385832  0.68764523  1
  O  O6  1  0.14834004  0.96510652  0.80264188  1
