# generated using pymatgen
data_Li2TiI4(OF)3
_symmetry_space_group_name_H-M   'P 1'
_cell_length_a   7.81511821
_cell_length_b   7.55698989
_cell_length_c   7.21333050
_cell_angle_alpha   91.87481872
_cell_angle_beta   92.60955182
_cell_angle_gamma   91.72350946
_symmetry_Int_Tables_number   1
_chemical_formula_structural   Li2TiI4(OF)3
_chemical_formula_sum   'Li2 Ti1 I4 O3 F3'
_cell_volume   425.12820823
_cell_formula_units_Z   1
loop_
 _symmetry_equiv_pos_site_id
 _symmetry_equiv_pos_as_xyz
  1  'x, y, z'
loop_
 _atom_site_type_symbol
 _atom_site_label
 _atom_site_symmetry_multiplicity
 _atom_site_fract_x
 _atom_site_fract_y
 _atom_site_fract_z
 _atom_site_occupancy
  I  I0  1  0.00000000  0.00000000  0.00000000  1
  I  I1  1  0.50000000  0.50000000  0.50000000  1
  I  I2  1  0.25000000  0.25000000  0.25000000  1
  I  I3  1  0.75000000  0.25000000  0.00000000  1
  Li  Li4  1  0.25000000  0.75000000  0.50000000  1
  Li  Li5  1  0.89896662  0.67144154  0.02477784  1
  F  F6  1  0.45931677  0.88036077  0.10385878  1
  F  F7  1  0.08675517  0.56150182  0.65551573  1
  F  F8  1  0.42687011  0.77941276  0.62725849  1
  Ti  Ti9  1  0.55514946  0.06587782  0.22047775  1
  O  O10  1  0.60642476  0.56239787  0.09813145  1
  O  O11  1  0.18262256  0.47661051  0.41702079  1
  O  O12  1  0.23614640  0.32239101  0.57309322  1
