# generated using pymatgen
data_Li2TiCu2P4F2
_symmetry_space_group_name_H-M   'P 1'
_cell_length_a   6.85593940
_cell_length_b   6.82817952
_cell_length_c   7.55492313
_cell_angle_alpha   94.51995430
_cell_angle_beta   96.05635515
_cell_angle_gamma   94.17170947
_symmetry_Int_Tables_number   1
_chemical_formula_structural   Li2TiCu2P4F2
_chemical_formula_sum   'Li2 Ti1 Cu2 P4 F2'
_cell_volume   349.43115766
_cell_formula_units_Z   1
loop_
 _symmetry_equiv_pos_site_id
 _symmetry_equiv_pos_as_xyz
  1  'x, y, z'
loop_
 _atom_site_type_symbol
 _atom_site_label
 _atom_site_symmetry_multiplicity
 _atom_site_fract_x
 _atom_site_fract_y
 _atom_site_fract_z
 _atom_site_occupancy
  F  F0  1  0.00000000  0.00000000  0.00000000  1
  F  F1  1  0.50000000  0.50000000  0.50000000  1
  Ti  Ti2  1  0.25000000  0.25000000  0.25000000  1
  P  P3  1  0.75000000  0.25000000  0.00000000  1
  P  P4  1  0.25000000  0.75000000  0.50000000  1
  P  P5  1  0.43839581  0.33442487  0.83107320  1
  P  P6  1  0.73661251  0.74645355  0.62711491  1
  Li  Li7  1  0.27193171  0.58872871  0.89181943  1
  Li  Li8  1  0.16905533  0.00987392  0.54517589  1
  Cu  Cu9  1  0.76896542  0.33548494  0.81003839  1
  Cu  Cu10  1  0.30337098  0.77516352  0.52127203  1
