# generated using pymatgen
data_LiCuNiAs3P2
_symmetry_space_group_name_H-M   'P 1'
_cell_length_a   7.51444156
_cell_length_b   7.45209833
_cell_length_c   8.19088949
_cell_angle_alpha   91.25130729
_cell_angle_beta   91.80115774
_cell_angle_gamma   91.44623988
_symmetry_Int_Tables_number   1
_chemical_formula_structural   LiCuNiAs3P2
_chemical_formula_sum   'Li2 Cu2 Ni2 As6 P4'
_cell_volume   458.18612758
_cell_formula_units_Z   2
loop_
 _symmetry_equiv_pos_site_id
 _symmetry_equiv_pos_as_xyz
  1  'x, y, z'
loop_
 _atom_site_type_symbol
 _atom_site_label
 _atom_site_symmetry_multiplicity
 _atom_site_fract_x
 _atom_site_fract_y
 _atom_site_fract_z
 _atom_site_occupancy
  P  P0  1  0.00000000  0.00000000  0.00000000  1
  P  P1  1  0.50000000  0.50000000  0.50000000  1
  P  P2  1  0.25000000  0.25000000  0.25000000  1
  P  P3  1  0.75000000  0.25000000  0.00000000  1
  Li  Li4  1  0.25000000  0.75000000  0.50000000  1
  Li  Li5  1  0.31294786  0.76180406  0.36623486  1
  Cu  Cu6  1  0.10722419  0.41976446  0.89074155  1
  Cu  Cu7  1  0.08993031  0.00222865  0.15325310  1
  Ni  Ni8  1  0.43185522  0.35350297  0.88044721  1
  Ni  Ni9  1  0.39235354  0.04827189  0.71410684  1
  As  As10  1  0.58625973  0.39679052  0.76647961  1
  As  As11  1  0.18399282  0.64269937  0.40391253  1
  As  As12  1  0.89790791  0.87782098  0.25568504  1
  As  As13  1  0.45753126  0.99019124  0.37174892  1
  As  As14  1  0.94076619  0.14710674  0.02306544  1
  As  As15  1  0.89557596  0.87775745  0.66603614  1
