# generated using pymatgen
data_Li3Zn2I4O3
_symmetry_space_group_name_H-M   'P 1'
_cell_length_a   8.04139492
_cell_length_b   8.41727518
_cell_length_c   7.10068338
_cell_angle_alpha   91.56547372
_cell_angle_beta   92.12035194
_cell_angle_gamma   92.01462187
_symmetry_Int_Tables_number   1
_chemical_formula_structural   Li3Zn2I4O3
_chemical_formula_sum   'Li3 Zn2 I4 O3'
_cell_volume   479.79827144
_cell_formula_units_Z   1
loop_
 _symmetry_equiv_pos_site_id
 _symmetry_equiv_pos_as_xyz
  1  'x, y, z'
loop_
 _atom_site_type_symbol
 _atom_site_label
 _atom_site_symmetry_multiplicity
 _atom_site_fract_x
 _atom_site_fract_y
 _atom_site_fract_z
 _atom_site_occupancy
  I  I0  1  0.00000000  0.00000000  0.00000000  1
  I  I1  1  0.50000000  0.50000000  0.50000000  1
  I  I2  1  0.25000000  0.25000000  0.25000000  1
  I  I3  1  0.75000000  0.25000000  0.00000000  1
  Li  Li4  1  0.25000000  0.75000000  0.50000000  1
  Li  Li5  1  0.64709856  0.01253822  0.38932834  1
  Li  Li6  1  0.13022172  0.47622850  0.76454609  1
  Zn  Zn7  1  0.03343226  0.93770798  0.77934742  1
  Zn  Zn8  1  0.92925825  0.29525457  0.09068460  1
  O  O9  1  0.10700604  0.54296408  0.27433028  1
  O  O10  1  0.47967518  0.66022712  0.25454156  1
  O  O11  1  0.82660165  0.70340137  0.89210044  1
