# generated using pymatgen
data_Li2Cu2As6P4F3
_symmetry_space_group_name_H-M   'P 1'
_cell_length_a   7.53824039
_cell_length_b   7.44710207
_cell_length_c   7.55978675
_cell_angle_alpha   91.01663214
_cell_angle_beta   92.12442681
_cell_angle_gamma   91.16440979
_symmetry_Int_Tables_number   1
_chemical_formula_structural   Li2Cu2As6P4F3
_chemical_formula_sum   'Li2 Cu2 As6 P4 F3'
_cell_volume   423.93971987
_cell_formula_units_Z   1
loop_
 _symmetry_equiv_pos_site_id
 _symmetry_equiv_pos_as_xyz
  1  'x, y, z'
loop_
 _atom_site_type_symbol
 _atom_site_label
 _atom_site_symmetry_multiplicity
 _atom_site_fract_x
 _atom_site_fract_y
 _atom_site_fract_z
 _atom_site_occupancy
  P  P0  1  0.00000000  0.00000000  0.00000000  1
  P  P1  1  0.50000000  0.50000000  0.50000000  1
  P  P2  1  0.25000000  0.25000000  0.25000000  1
  P  P3  1  0.75000000  0.25000000  0.00000000  1
  Li  Li4  1  0.25000000  0.75000000  0.50000000  1
  Li  Li5  1  0.71508750  0.53349279  0.49714336  1
  Cu  Cu6  1  0.37358472  0.91810933  0.08063284  1
  Cu  Cu7  1  0.36370528  0.17325490  0.03694857  1
  F  F8  1  0.31274268  0.84847256  0.66063561  1
  F  F9  1  0.20032101  0.30157177  0.93806712  1
  F  F10  1  0.84760845  0.58522355  0.08905991  1
  As  As11  1  0.73328087  0.73940652  0.67630444  1
  As  As12  1  0.76428951  0.77319776  0.26008208  1
  As  As13  1  0.14126529  0.01101758  0.12698073  1
  As  As14  1  0.51524379  0.60926845  0.28171288  1
  As  As15  1  0.20454926  0.81125292  0.85175968  1
  As  As16  1  0.58226856  0.34518442  0.69670732  1
