# generated using pymatgen
data_Li2LuNi2As6O7
_symmetry_space_group_name_H-M   'P 1'
_cell_length_a   7.31193270
_cell_length_b   7.25137736
_cell_length_c   8.42337554
_cell_angle_alpha   93.88747063
_cell_angle_beta   94.32447806
_cell_angle_gamma   93.89051417
_symmetry_Int_Tables_number   1
_chemical_formula_structural   Li2LuNi2As6O7
_chemical_formula_sum   'Li2 Lu1 Ni2 As6 O7'
_cell_volume   443.12794318
_cell_formula_units_Z   1
loop_
 _symmetry_equiv_pos_site_id
 _symmetry_equiv_pos_as_xyz
  1  'x, y, z'
loop_
 _atom_site_type_symbol
 _atom_site_label
 _atom_site_symmetry_multiplicity
 _atom_site_fract_x
 _atom_site_fract_y
 _atom_site_fract_z
 _atom_site_occupancy
  Ni  Ni0  1  0.12500000  0.00000000  0.25000000  1
  Ni  Ni1  1  0.00000000  0.00000000  0.00000000  1
  O  O2  1  0.37500000  0.00000000  0.25000000  1
  O  O3  1  0.25000000  0.25000000  0.25000000  1
  O  O4  1  0.00000000  0.25000000  0.12500000  1
  O  O5  1  0.85407985  0.32467946  0.40752942  1
  O  O6  1  0.99587929  0.69375463  0.96155088  1
  O  O7  1  0.42063284  0.67942002  0.56262675  1
  O  O8  1  0.44005726  0.17862881  0.01588845  1
  Lu  Lu9  1  0.79358695  0.94411210  0.11489352  1
  As  As10  1  0.09402302  0.03322342  0.36074015  1
  As  As11  1  0.66877914  0.23407664  0.72154057  1
  As  As12  1  0.87777533  0.31367853  0.50502889  1
  As  As13  1  0.68624479  0.00870793  0.24959926  1
  As  As14  1  0.74775125  0.24668897  0.30552069  1
  As  As15  1  0.63418284  0.89104908  0.51024169  1
  Li  Li16  1  0.31678143  0.64498259  0.98821289  1
  Li  Li17  1  0.32212398  0.68922100  0.96254476  1
