# generated using pymatgen
data_Li4Ni2As6O7
_symmetry_space_group_name_H-M   'P 1'
_cell_length_a   8.31382661
_cell_length_b   8.17082894
_cell_length_c   9.64881384
_cell_angle_alpha   90.00000000
_cell_angle_beta   90.00000000
_cell_angle_gamma   90.00000000
_symmetry_Int_Tables_number   1
_chemical_formula_structural   Li4Ni2As6O7
_chemical_formula_sum   'Li4 Ni2 As6 O7'
_cell_volume   655.45217486
_cell_formula_units_Z   1
loop_
 _symmetry_equiv_pos_site_id
 _symmetry_equiv_pos_as_xyz
  1  'x, y, z'
loop_
 _atom_site_type_symbol
 _atom_site_label
 _atom_site_symmetry_multiplicity
 _atom_site_fract_x
 _atom_site_fract_y
 _atom_site_fract_z
 _atom_site_occupancy
  Li  Li0  1  0.12500000  0.00000000  0.25000000  1
  Li  Li1  1  0.00000000  0.00000000  0.00000000  1
  Li  Li2  1  0.37500000  0.00000000  0.25000000  1
  Li  Li3  1  0.25000000  0.25000000  0.25000000  1
  Ni  Ni4  1  0.00000000  0.25000000  0.12500000  1
  Ni  Ni5  1  0.06523805  0.98957401  0.04750077  1
  As  As6  1  0.51185714  0.05757124  0.55357523  1
  As  As7  1  0.24750558  0.78163663  0.64933794  1
  As  As8  1  0.13737644  0.47522287  0.45124632  1
  As  As9  1  0.03825406  0.19621836  0.76495098  1
  As  As10  1  0.67384843  0.79668374  0.66702943  1
  As  As11  1  0.30321742  0.02180638  0.72217027  1
  O  O12  1  0.58724308  0.31173858  0.51934974  1
  O  O13  1  0.61904855  0.67203580  0.92688383  1
  O  O14  1  0.98642295  0.07116747  0.99580858  1
  O  O15  1  0.48043961  0.56820658  0.71063073  1
  O  O16  1  0.42810628  0.43771876  0.95136948  1
  O  O17  1  0.12349281  0.51111030  0.37781629  1
  O  O18  1  0.07036404  0.88474993  0.16611898  1
