# generated using pymatgen
data_Li2LuTi(As2P)3
_symmetry_space_group_name_H-M   'P 1'
_cell_length_a   7.04377933
_cell_length_b   6.75927728
_cell_length_c   7.42086919
_cell_angle_alpha   95.11725362
_cell_angle_beta   96.27272695
_cell_angle_gamma   94.94542469
_symmetry_Int_Tables_number   1
_chemical_formula_structural   Li2LuTi(As2P)3
_chemical_formula_sum   'Li2 Lu1 Ti1 As6 P3'
_cell_volume   348.15222136
_cell_formula_units_Z   1
loop_
 _symmetry_equiv_pos_site_id
 _symmetry_equiv_pos_as_xyz
  1  'x, y, z'
loop_
 _atom_site_type_symbol
 _atom_site_label
 _atom_site_symmetry_multiplicity
 _atom_site_fract_x
 _atom_site_fract_y
 _atom_site_fract_z
 _atom_site_occupancy
  P  P0  1  0.00000000  0.00000000  0.00000000  1
  P  P1  1  0.50000000  0.50000000  0.50000000  1
  P  P2  1  0.50000000  0.50000000  0.00000000  1
  Lu  Lu3  1  0.50000000  0.00000000  0.50000000  1
  Li  Li4  1  0.00000000  0.50000000  0.50000000  1
  Li  Li5  1  0.17354061  0.55867553  0.13845905  1
  Ti  Ti6  1  0.88955608  0.78823069  0.91813098  1
  As  As7  1  0.87933410  0.90330748  0.71673102  1
  As  As8  1  0.34422116  0.63150896  0.51429189  1
  As  As9  1  0.02810593  0.00919330  0.55063223  1
  As  As10  1  0.15194472  0.42207576  0.35561485  1
  As  As11  1  0.55452700  0.32879036  0.38520682  1
  As  As12  1  0.50914869  0.84255172  0.11401271  1
