# generated using pymatgen
data_Li3TiVN5O4
_symmetry_space_group_name_H-M   'P 1'
_cell_length_a   7.84929352
_cell_length_b   7.49544363
_cell_length_c   7.26462974
_cell_angle_alpha   93.34248604
_cell_angle_beta   91.18170917
_cell_angle_gamma   93.87687917
_symmetry_Int_Tables_number   1
_chemical_formula_structural   Li3TiVN5O4
_chemical_formula_sum   'Li3 Ti1 V1 N5 O4'
_cell_volume   425.57379758
_cell_formula_units_Z   1
loop_
 _symmetry_equiv_pos_site_id
 _symmetry_equiv_pos_as_xyz
  1  'x, y, z'
loop_
 _atom_site_type_symbol
 _atom_site_label
 _atom_site_symmetry_multiplicity
 _atom_site_fract_x
 _atom_site_fract_y
 _atom_site_fract_z
 _atom_site_occupancy
  Li  Li0  1  0.00000000  0.00000000  0.00000000  1
  Li  Li1  1  0.50000000  0.50000000  0.50000000  1
  Li  Li2  1  0.50000000  0.50000000  0.00000000  1
  Ti  Ti3  1  0.50000000  0.00000000  0.50000000  1
  V  V4  1  0.00000000  0.50000000  0.50000000  1
  O  O5  1  0.94361873  0.30813878  0.36285073  1
  O  O6  1  0.59492533  0.51583423  0.32244279  1
  O  O7  1  0.76723732  0.44606792  0.19229604  1
  O  O8  1  0.85325928  0.27312209  0.54665147  1
  N  N9  1  0.78303359  0.62287226  0.39865169  1
  N  N10  1  0.53215055  0.24669633  0.61807553  1
  N  N11  1  0.30443448  0.36538909  0.64237130  1
  N  N12  1  0.15821518  0.67471485  0.31723511  1
  N  N13  1  0.68286122  0.51432993  0.89356163  1
