# generated using pymatgen
data_Li2As6F3
_symmetry_space_group_name_H-M   'P 1'
_cell_length_a   6.43389677
_cell_length_b   6.43541410
_cell_length_c   7.71425803
_cell_angle_alpha   97.08846979
_cell_angle_beta   99.60841136
_cell_angle_gamma   96.73213610
_symmetry_Int_Tables_number   1
_chemical_formula_structural   Li2As6F3
_chemical_formula_sum   'Li2 As6 F3'
_cell_volume   309.40330248
_cell_formula_units_Z   1
loop_
 _symmetry_equiv_pos_site_id
 _symmetry_equiv_pos_as_xyz
  1  'x, y, z'
loop_
 _atom_site_type_symbol
 _atom_site_label
 _atom_site_symmetry_multiplicity
 _atom_site_fract_x
 _atom_site_fract_y
 _atom_site_fract_z
 _atom_site_occupancy
  F  F0  1  0.00000000  0.00000000  0.00000000  1
  F  F1  1  0.33300000  0.66700000  0.25000000  1
  F  F2  1  0.66700000  0.33300000  0.50000000  1
  As  As3  1  0.00000000  0.00000000  0.75000000  1
  As  As4  1  0.87661436  0.78982106  0.21298515  1
  As  As5  1  0.15819539  0.80986960  0.22987339  1
  As  As6  1  0.18256357  0.68399773  0.47602149  1
  As  As7  1  0.36432178  0.28386854  0.29131632  1
  As  As8  1  0.17979463  0.25971647  0.29113652  1
  Li  Li9  1  0.49204037  0.82359756  0.55316252  1
  Li  Li10  1  0.04731988  0.61040662  0.76149151  1
