# generated using pymatgen
data_Li3LuCu2(NiP2)2
_symmetry_space_group_name_H-M   'P 1'
_cell_length_a   7.29434976
_cell_length_b   7.17603023
_cell_length_c   8.10365961
_cell_angle_alpha   92.66932589
_cell_angle_beta   93.14024167
_cell_angle_gamma   93.18305205
_symmetry_Int_Tables_number   1
_chemical_formula_structural   Li3LuCu2(NiP2)2
_chemical_formula_sum   'Li3 Lu1 Cu2 Ni2 P4'
_cell_volume   422.36746112
_cell_formula_units_Z   1
loop_
 _symmetry_equiv_pos_site_id
 _symmetry_equiv_pos_as_xyz
  1  'x, y, z'
loop_
 _atom_site_type_symbol
 _atom_site_label
 _atom_site_symmetry_multiplicity
 _atom_site_fract_x
 _atom_site_fract_y
 _atom_site_fract_z
 _atom_site_occupancy
  P  P0  1  0.00000000  0.00000000  0.00000000  1
  P  P1  1  0.50000000  0.50000000  0.50000000  1
  P  P2  1  0.50000000  0.50000000  0.00000000  1
  P  P3  1  0.50000000  0.00000000  0.50000000  1
  Lu  Lu4  1  0.00000000  0.50000000  0.50000000  1
  Li  Li5  1  0.97991801  0.86205580  0.67874386  1
  Li  Li6  1  0.42878438  0.75858353  0.49413011  1
  Li  Li7  1  0.33904641  0.28742003  0.34795105  1
  Cu  Cu8  1  0.61273278  0.07853404  0.55647613  1
  Cu  Cu9  1  0.35852434  0.44888435  0.77210238  1
  Ni  Ni10  1  0.89492700  0.92683084  0.37278058  1
  Ni  Ni11  1  0.73193122  0.78965514  0.80088793  1
