# generated using pymatgen
data_Li3Cu2Te6(IO)4
_symmetry_space_group_name_H-M   'P 1'
_cell_length_a   7.99300325
_cell_length_b   8.07338592
_cell_length_c   7.69426392
_cell_angle_alpha   90.99626098
_cell_angle_beta   90.84549302
_cell_angle_gamma   91.15368156
_symmetry_Int_Tables_number   1
_chemical_formula_structural   Li3Cu2Te6(IO)4
_chemical_formula_sum   'Li3 Cu2 Te6 I4 O4'
_cell_volume   496.28309918
_cell_formula_units_Z   1
loop_
 _symmetry_equiv_pos_site_id
 _symmetry_equiv_pos_as_xyz
  1  'x, y, z'
loop_
 _atom_site_type_symbol
 _atom_site_label
 _atom_site_symmetry_multiplicity
 _atom_site_fract_x
 _atom_site_fract_y
 _atom_site_fract_z
 _atom_site_occupancy
  I  I0  1  0.12500000  0.00000000  0.25000000  1
  I  I1  1  0.00000000  0.00000000  0.00000000  1
  I  I2  1  0.37500000  0.00000000  0.25000000  1
  I  I3  1  0.25000000  0.25000000  0.25000000  1
  Li  Li4  1  0.00000000  0.25000000  0.12500000  1
  Li  Li5  1  0.86266204  0.78450871  0.77511930  1
  Li  Li6  1  0.69432320  0.70245551  0.26246416  1
  Cu  Cu7  1  0.71941660  0.31411432  0.71363803  1
  Cu  Cu8  1  0.15687534  0.46687855  0.02965180  1
  Te  Te9  1  0.67592508  0.06951930  0.16340532  1
  Te  Te10  1  0.27690338  0.05493216  0.56994190  1
  Te  Te11  1  0.62732858  0.34391202  0.79927374  1
  Te  Te12  1  0.93307635  0.51326508  0.12202020  1
  Te  Te13  1  0.50055904  0.83410699  0.10245621  1
  Te  Te14  1  0.75396337  0.85879487  0.27687274  1
  O  O15  1  0.02654499  0.71035751  0.83588147  1
  O  O16  1  0.35643522  0.34279377  0.52566461  1
  O  O17  1  0.57984351  0.15045044  0.05587472  1
  O  O18  1  0.69651596  0.76349718  0.75764415  1
