# generated using pymatgen
data_Li2LuTi2O4F3
_symmetry_space_group_name_H-M   'P 1'
_cell_length_a   6.42073805
_cell_length_b   6.42930671
_cell_length_c   7.48740322
_cell_angle_alpha   96.37791969
_cell_angle_beta   98.23747527
_cell_angle_gamma   96.02782909
_symmetry_Int_Tables_number   1
_chemical_formula_structural   Li2LuTi2O4F3
_chemical_formula_sum   'Li2 Lu1 Ti2 O4 F3'
_cell_volume   301.69801980
_cell_formula_units_Z   1
loop_
 _symmetry_equiv_pos_site_id
 _symmetry_equiv_pos_as_xyz
  1  'x, y, z'
loop_
 _atom_site_type_symbol
 _atom_site_label
 _atom_site_symmetry_multiplicity
 _atom_site_fract_x
 _atom_site_fract_y
 _atom_site_fract_z
 _atom_site_occupancy
  Lu  Lu0  1  0.12500000  0.00000000  0.25000000  1
  Li  Li1  1  0.00000000  0.00000000  0.00000000  1
  Li  Li2  1  0.37500000  0.00000000  0.25000000  1
  F  F3  1  0.25000000  0.25000000  0.25000000  1
  F  F4  1  0.00000000  0.25000000  0.12500000  1
  F  F5  1  0.10002736  0.06790616  0.69842542  1
  Ti  Ti6  1  0.92745382  0.15754947  0.22135900  1
  Ti  Ti7  1  0.33968732  0.49268885  0.10645800  1
  O  O8  1  0.91114592  0.53936581  0.95269660  1
  O  O9  1  0.69457720  0.00979102  0.83398321  1
  O  O10  1  0.83371936  0.61972589  0.04013375  1
  O  O11  1  0.59214495  0.55245268  0.45737067  1
