# generated using pymatgen
data_LiTiP3(ClF)2
_symmetry_space_group_name_H-M   'P 1'
_cell_length_a   6.38085814
_cell_length_b   6.28049066
_cell_length_c   7.36110217
_cell_angle_alpha   94.93187813
_cell_angle_beta   97.42435369
_cell_angle_gamma   94.82989298
_symmetry_Int_Tables_number   1
_chemical_formula_structural   LiTiP3(ClF)2
_chemical_formula_sum   'Li1 Ti1 P3 Cl2 F2'
_cell_volume   290.08010956
_cell_formula_units_Z   1
loop_
 _symmetry_equiv_pos_site_id
 _symmetry_equiv_pos_as_xyz
  1  'x, y, z'
loop_
 _atom_site_type_symbol
 _atom_site_label
 _atom_site_symmetry_multiplicity
 _atom_site_fract_x
 _atom_site_fract_y
 _atom_site_fract_z
 _atom_site_occupancy
  P  P0  1  0.12500000  0.00000000  0.25000000  1
  P  P1  1  0.00000000  0.00000000  0.00000000  1
  P  P2  1  0.37500000  0.00000000  0.25000000  1
  Li  Li3  1  0.25000000  0.25000000  0.25000000  1
  F  F4  1  0.00000000  0.25000000  0.12500000  1
  F  F5  1  0.24022409  0.50344468  0.67357953  1
  Cl  Cl6  1  0.29174095  0.47116566  0.78602223  1
  Cl  Cl7  1  0.42279177  0.32663477  0.11043985  1
  Ti  Ti8  1  0.56954600  0.04600612  0.72738106  1
