# generated using pymatgen
data_Li2Ti(CuI2)2
_symmetry_space_group_name_H-M   'P 1'
_cell_length_a   8.00536126
_cell_length_b   8.11638304
_cell_length_c   7.61961115
_cell_angle_alpha   91.57661381
_cell_angle_beta   91.97471496
_cell_angle_gamma   91.50168134
_symmetry_Int_Tables_number   1
_chemical_formula_structural   Li2Ti(CuI2)2
_chemical_formula_sum   'Li2 Ti1 Cu2 I4'
_cell_volume   494.41695830
_cell_formula_units_Z   1
loop_
 _symmetry_equiv_pos_site_id
 _symmetry_equiv_pos_as_xyz
  1  'x, y, z'
loop_
 _atom_site_type_symbol
 _atom_site_label
 _atom_site_symmetry_multiplicity
 _atom_site_fract_x
 _atom_site_fract_y
 _atom_site_fract_z
 _atom_site_occupancy
  I  I0  1  0.00000000  0.00000000  0.00000000  1
  I  I1  1  0.50000000  0.50000000  0.50000000  1
  I  I2  1  0.25000000  0.25000000  0.25000000  1
  I  I3  1  0.75000000  0.25000000  0.00000000  1
  Li  Li4  1  0.25000000  0.75000000  0.50000000  1
  Li  Li5  1  0.29097473  0.13446646  0.61495588  1
  Cu  Cu6  1  0.92288199  0.38352015  0.78650006  1
  Cu  Cu7  1  0.17987581  0.24335236  0.47025504  1
  Ti  Ti8  1  0.89809509  0.46336524  0.81237014  1
