# generated using pymatgen
data_Li4Lu(P2S)2
_symmetry_space_group_name_H-M   'P 1'
_cell_length_a   4.03350537
_cell_length_b   3.41129961
_cell_length_c   6.96248698
_cell_angle_alpha   103.48006694
_cell_angle_beta   102.36775733
_cell_angle_gamma   102.97043842
_symmetry_Int_Tables_number   1
_chemical_formula_structural   Li4Lu(P2S)2
_chemical_formula_sum   'Li4 Lu1 P4 S2'
_cell_volume   87.12014560
_cell_formula_units_Z   1
loop_
 _symmetry_equiv_pos_site_id
 _symmetry_equiv_pos_as_xyz
  1  'x, y, z'
loop_
 _atom_site_type_symbol
 _atom_site_label
 _atom_site_symmetry_multiplicity
 _atom_site_fract_x
 _atom_site_fract_y
 _atom_site_fract_z
 _atom_site_occupancy
  S  S0  1  0.12500000  0.12500000  0.12500000  1
  S  S1  1  0.50000000  0.50000000  0.50000000  1
  P  P2  1  0.25000000  0.25000000  0.25000000  1
  P  P3  1  0.75000000  0.75000000  0.75000000  1
  P  P4  1  0.39394548  0.12277665  0.58380684  1
  P  P5  1  0.11164803  0.32306718  0.86694207  1
  Lu  Lu6  1  0.07128662  0.39651898  0.42807112  1
  Li  Li7  1  0.98469967  0.55296252  0.95243002  1
  Li  Li8  1  0.54129290  0.26646799  0.09846461  1
  Li  Li9  1  0.36595240  0.97398063  0.84814587  1
  Li  Li10  1  0.18256877  0.30499333  0.00533866  1
