# generated using pymatgen
data_Li2Cu2Ni2As6O7
_symmetry_space_group_name_H-M   'P 1'
_cell_length_a   7.62491535
_cell_length_b   7.61601411
_cell_length_c   8.77149164
_cell_angle_alpha   91.11602819
_cell_angle_beta   91.60100363
_cell_angle_gamma   91.28990706
_symmetry_Int_Tables_number   1
_chemical_formula_structural   Li2Cu2Ni2As6O7
_chemical_formula_sum   'Li2 Cu2 Ni2 As6 O7'
_cell_volume   508.94244070
_cell_formula_units_Z   1
loop_
 _symmetry_equiv_pos_site_id
 _symmetry_equiv_pos_as_xyz
  1  'x, y, z'
loop_
 _atom_site_type_symbol
 _atom_site_label
 _atom_site_symmetry_multiplicity
 _atom_site_fract_x
 _atom_site_fract_y
 _atom_site_fract_z
 _atom_site_occupancy
  Ni  Ni0  1  0.00000000  0.00000000  0.00000000  1
  Ni  Ni1  1  0.50000000  0.50000000  0.50000000  1
  O  O2  1  0.25000000  0.25000000  0.25000000  1
  O  O3  1  0.75000000  0.25000000  0.00000000  1
  O  O4  1  0.25000000  0.75000000  0.50000000  1
  O  O5  1  0.46533009  0.36845033  0.30153422  1
  O  O6  1  0.19536705  0.11552194  0.92722631  1
  O  O7  1  0.47956220  0.48964349  0.73643143  1
  O  O8  1  0.25224303  0.09463549  0.89315006  1
  As  As9  1  0.40132765  0.52588185  0.47836228  1
  As  As10  1  0.53358141  0.30758130  0.10130984  1
  As  As11  1  0.39882939  0.59729147  0.52248323  1
  As  As12  1  0.11918231  0.02966471  0.74945331  1
  As  As13  1  0.77352412  0.14565431  0.21052974  1
  As  As14  1  0.17918007  0.67315629  0.78243310  1
  Li  Li15  1  0.80347660  0.04506507  0.20415907  1
  Li  Li16  1  0.01785505  0.54059771  0.45024687  1
  Cu  Cu17  1  0.77861227  0.18614850  0.78536101  1
  Cu  Cu18  1  0.69663170  0.78252203  0.43112788  1
