# generated using pymatgen
data_Li2LuP4(IO)4
_symmetry_space_group_name_H-M   'P 1'
_cell_length_a   7.63055280
_cell_length_b   7.61883596
_cell_length_c   7.62058833
_cell_angle_alpha   93.80370515
_cell_angle_beta   94.73021747
_cell_angle_gamma   93.64187181
_symmetry_Int_Tables_number   1
_chemical_formula_structural   Li2LuP4(IO)4
_chemical_formula_sum   'Li2 Lu1 P4 I4 O4'
_cell_volume   439.48689725
_cell_formula_units_Z   1
loop_
 _symmetry_equiv_pos_site_id
 _symmetry_equiv_pos_as_xyz
  1  'x, y, z'
loop_
 _atom_site_type_symbol
 _atom_site_label
 _atom_site_symmetry_multiplicity
 _atom_site_fract_x
 _atom_site_fract_y
 _atom_site_fract_z
 _atom_site_occupancy
  Li  Li0  1  0.12500000  0.00000000  0.25000000  1
  Li  Li1  1  0.00000000  0.00000000  0.00000000  1
  I  I2  1  0.37500000  0.00000000  0.25000000  1
  I  I3  1  0.25000000  0.25000000  0.25000000  1
  I  I4  1  0.00000000  0.25000000  0.12500000  1
  I  I5  1  0.32549533  0.40851341  0.51683220  1
  P  P6  1  0.60170679  0.18975407  0.40391876  1
  P  P7  1  0.02254110  0.16661512  0.58366359  1
  P  P8  1  0.53210243  0.24575407  0.35461070  1
  P  P9  1  0.76015328  0.41489151  0.75858990  1
  Lu  Lu10  1  0.91889409  0.17190795  0.01130931  1
  O  O11  1  0.40075937  0.56681143  0.86404761  1
  O  O12  1  0.42309301  0.43864365  0.27917489  1
  O  O13  1  0.45352755  0.23181400  0.10963849  1
  O  O14  1  0.94338273  0.34110763  0.50551924  1
