# generated using pymatgen
data_Li2TiI4(OF)3
_symmetry_space_group_name_H-M   'P 1'
_cell_length_a   8.43485457
_cell_length_b   8.29306177
_cell_length_c   7.43937016
_cell_angle_alpha   90.15430374
_cell_angle_beta   90.73413032
_cell_angle_gamma   90.17641037
_symmetry_Int_Tables_number   1
_chemical_formula_structural   Li2TiI4(OF)3
_chemical_formula_sum   'Li2 Ti1 I4 O3 F3'
_cell_volume   520.34254469
_cell_formula_units_Z   1
loop_
 _symmetry_equiv_pos_site_id
 _symmetry_equiv_pos_as_xyz
  1  'x, y, z'
loop_
 _atom_site_type_symbol
 _atom_site_label
 _atom_site_symmetry_multiplicity
 _atom_site_fract_x
 _atom_site_fract_y
 _atom_site_fract_z
 _atom_site_occupancy
  I  I0  1  0.00000000  0.00000000  0.00000000  1
  I  I1  1  0.50000000  0.50000000  0.50000000  1
  I  I2  1  0.25000000  0.25000000  0.25000000  1
  I  I3  1  0.75000000  0.25000000  0.00000000  1
  Li  Li4  1  0.25000000  0.75000000  0.50000000  1
  Li  Li5  1  0.95858528  0.23696806  0.15416233  1
  F  F6  1  0.03665323  0.24629197  0.90510366  1
  F  F7  1  0.12972254  0.16944216  0.02969677  1
  F  F8  1  0.39759039  0.42235036  0.01173395  1
  Ti  Ti9  1  0.27939821  0.21437614  0.19240395  1
  O  O10  1  0.78733046  0.62986744  0.46954341  1
  O  O11  1  0.53541749  0.62183746  0.16982793  1
  O  O12  1  0.66718434  0.58600803  0.89412086  1
