# generated using pymatgen
data_Li2LuP3Cl2F3
_symmetry_space_group_name_H-M   'P 1'
_cell_length_a   6.21299575
_cell_length_b   6.12193660
_cell_length_c   7.19929015
_cell_angle_alpha   96.89578329
_cell_angle_beta   99.05737542
_cell_angle_gamma   96.46483609
_symmetry_Int_Tables_number   1
_chemical_formula_structural   Li2LuP3Cl2F3
_chemical_formula_sum   'Li2 Lu1 P3 Cl2 F3'
_cell_volume   266.03295231
_cell_formula_units_Z   1
loop_
 _symmetry_equiv_pos_site_id
 _symmetry_equiv_pos_as_xyz
  1  'x, y, z'
loop_
 _atom_site_type_symbol
 _atom_site_label
 _atom_site_symmetry_multiplicity
 _atom_site_fract_x
 _atom_site_fract_y
 _atom_site_fract_z
 _atom_site_occupancy
  F  F0  1  0.00000000  0.00000000  0.00000000  1
  F  F1  1  0.50000000  0.50000000  0.50000000  1
  F  F2  1  0.50000000  0.50000000  0.00000000  1
  Cl  Cl3  1  0.50000000  0.00000000  0.50000000  1
  Cl  Cl4  1  0.00000000  0.50000000  0.50000000  1
  P  P5  1  0.95669041  0.41745190  0.06465186  1
  P  P6  1  0.24006392  0.86256884  0.41716867  1
  P  P7  1  0.01179111  0.18507742  0.79384741  1
  Lu  Lu8  1  0.39156904  0.52031577  0.03037201  1
  Li  Li9  1  0.80005894  0.20772085  0.17295763  1
  Li  Li10  1  0.35699939  0.91172477  0.27871889  1
