# generated using pymatgen
data_Li2LuTiI4
_symmetry_space_group_name_H-M   'P 1'
_cell_length_a   8.23538732
_cell_length_b   8.16866308
_cell_length_c   7.50771328
_cell_angle_alpha   91.89082104
_cell_angle_beta   92.35139012
_cell_angle_gamma   91.81037372
_symmetry_Int_Tables_number   1
_chemical_formula_structural   Li2LuTiI4
_chemical_formula_sum   'Li2 Lu1 Ti1 I4'
_cell_volume   504.08509246
_cell_formula_units_Z   1
loop_
 _symmetry_equiv_pos_site_id
 _symmetry_equiv_pos_as_xyz
  1  'x, y, z'
loop_
 _atom_site_type_symbol
 _atom_site_label
 _atom_site_symmetry_multiplicity
 _atom_site_fract_x
 _atom_site_fract_y
 _atom_site_fract_z
 _atom_site_occupancy
  Li  Li0  1  0.00000000  0.00000000  0.00000000  1
  Li  Li1  1  0.50000000  0.50000000  0.50000000  1
  Ti  Ti2  1  0.50000000  0.50000000  0.00000000  1
  I  I3  1  0.50000000  0.00000000  0.50000000  1
  I  I4  1  0.00000000  0.50000000  0.50000000  1
  I  I5  1  0.94809224  0.80037623  0.60146640  1
  I  I6  1  0.67941113  0.08545882  0.42976006  1
  Lu  Lu7  1  0.10095768  0.55883561  0.76987811  1
