# generated using pymatgen
data_Li3TiPBr4O3
_symmetry_space_group_name_H-M   'P 1'
_cell_length_a   8.49066590
_cell_length_b   8.25202163
_cell_length_c   8.69545114
_cell_angle_alpha   90.00000000
_cell_angle_beta   90.00000000
_cell_angle_gamma   90.00000000
_symmetry_Int_Tables_number   1
_chemical_formula_structural   Li3TiPBr4O3
_chemical_formula_sum   'Li3 Ti1 P1 Br4 O3'
_cell_volume   609.24816358
_cell_formula_units_Z   1
loop_
 _symmetry_equiv_pos_site_id
 _symmetry_equiv_pos_as_xyz
  1  'x, y, z'
loop_
 _atom_site_type_symbol
 _atom_site_label
 _atom_site_symmetry_multiplicity
 _atom_site_fract_x
 _atom_site_fract_y
 _atom_site_fract_z
 _atom_site_occupancy
  P  P0  1  0.00000000  0.00000000  0.00000000  1
  Li  Li1  1  0.50000000  0.50000000  0.50000000  1
  Li  Li2  1  0.50000000  0.50000000  0.00000000  1
  Li  Li3  1  0.50000000  0.00000000  0.50000000  1
  Br  Br4  1  0.00000000  0.50000000  0.50000000  1
  Br  Br5  1  0.81455013  0.70854997  0.17236176  1
  Br  Br6  1  0.35969693  0.25394241  0.01608718  1
  Br  Br7  1  0.05496755  0.71309752  0.52551311  1
  Ti  Ti8  1  0.00752587  0.31668613  0.04857019  1
  O  O9  1  0.99599561  0.28479615  0.65454734  1
  O  O10  1  0.17578931  0.86197738  0.25061359  1
  O  O11  1  0.87729245  0.08433195  0.88986929  1
