# generated using pymatgen
data_Li2As6O5
_symmetry_space_group_name_H-M   'P 1'
_cell_length_a   7.01565646
_cell_length_b   6.82727273
_cell_length_c   8.14816434
_cell_angle_alpha   95.49831116
_cell_angle_beta   96.81867293
_cell_angle_gamma   95.33901522
_symmetry_Int_Tables_number   1
_chemical_formula_structural   Li2As6O5
_chemical_formula_sum   'Li2 As6 O5'
_cell_volume   383.57667881
_cell_formula_units_Z   1
loop_
 _symmetry_equiv_pos_site_id
 _symmetry_equiv_pos_as_xyz
  1  'x, y, z'
loop_
 _atom_site_type_symbol
 _atom_site_label
 _atom_site_symmetry_multiplicity
 _atom_site_fract_x
 _atom_site_fract_y
 _atom_site_fract_z
 _atom_site_occupancy
  Li  Li0  1  0.12500000  0.12500000  0.12500000  1
  Li  Li1  1  0.50000000  0.50000000  0.50000000  1
  As  As2  1  0.25000000  0.25000000  0.25000000  1
  As  As3  1  0.75000000  0.75000000  0.75000000  1
  As  As4  1  0.43013199  0.63381242  0.14512693  1
  As  As5  1  0.08181073  0.56163837  0.30726885  1
  As  As6  1  0.70858300  0.58238766  0.32476429  1
  As  As7  1  0.57763875  0.88300833  0.50464836  1
  O  O8  1  0.02512670  0.76820043  0.39757202  1
  O  O9  1  0.73787125  0.16427704  0.24318515  1
  O  O10  1  0.68832274  0.91339541  0.73416846  1
  O  O11  1  0.64821277  0.65663602  0.33358825  1
  O  O12  1  0.05770134  0.79776743  0.32881708  1
