# generated using pymatgen
data_Li2TiCu2(NiP2)2
_symmetry_space_group_name_H-M   'P 1'
_cell_length_a   7.43928133
_cell_length_b   7.28223632
_cell_length_c   7.83869119
_cell_angle_alpha   91.27090446
_cell_angle_beta   91.64977155
_cell_angle_gamma   91.23964420
_symmetry_Int_Tables_number   1
_chemical_formula_structural   Li2TiCu2(NiP2)2
_chemical_formula_sum   'Li2 Ti1 Cu2 Ni2 P4'
_cell_volume   424.27213243
_cell_formula_units_Z   1
loop_
 _symmetry_equiv_pos_site_id
 _symmetry_equiv_pos_as_xyz
  1  'x, y, z'
loop_
 _atom_site_type_symbol
 _atom_site_label
 _atom_site_symmetry_multiplicity
 _atom_site_fract_x
 _atom_site_fract_y
 _atom_site_fract_z
 _atom_site_occupancy
  P  P0  1  0.00000000  0.00000000  0.00000000  1
  P  P1  1  0.50000000  0.50000000  0.50000000  1
  P  P2  1  0.25000000  0.25000000  0.25000000  1
  P  P3  1  0.75000000  0.25000000  0.00000000  1
  Li  Li4  1  0.25000000  0.75000000  0.50000000  1
  Li  Li5  1  0.42661032  0.87037814  0.38264911  1
  Cu  Cu6  1  0.45097001  0.28242300  0.84598439  1
  Cu  Cu7  1  0.98877544  0.89489411  0.39640089  1
  Ni  Ni8  1  0.85794147  0.89075673  0.43511339  1
  Ni  Ni9  1  0.01885497  0.60750426  0.27174579  1
  Ti  Ti10  1  0.69581889  0.81160152  0.10043506  1
