# generated using pymatgen
data_Li2LuCu2(NiP2)2
_symmetry_space_group_name_H-M   'P 1'
_cell_length_a   7.29010054
_cell_length_b   7.12729153
_cell_length_c   8.06796176
_cell_angle_alpha   92.62267943
_cell_angle_beta   92.52785253
_cell_angle_gamma   92.65743203
_symmetry_Int_Tables_number   1
_chemical_formula_structural   Li2LuCu2(NiP2)2
_chemical_formula_sum   'Li2 Lu1 Cu2 Ni2 P4'
_cell_volume   417.86205426
_cell_formula_units_Z   1
loop_
 _symmetry_equiv_pos_site_id
 _symmetry_equiv_pos_as_xyz
  1  'x, y, z'
loop_
 _atom_site_type_symbol
 _atom_site_label
 _atom_site_symmetry_multiplicity
 _atom_site_fract_x
 _atom_site_fract_y
 _atom_site_fract_z
 _atom_site_occupancy
  P  P0  1  0.12500000  0.00000000  0.25000000  1
  P  P1  1  0.00000000  0.00000000  0.00000000  1
  P  P2  1  0.37500000  0.00000000  0.25000000  1
  P  P3  1  0.25000000  0.25000000  0.25000000  1
  Lu  Lu4  1  0.00000000  0.25000000  0.12500000  1
  Li  Li5  1  0.84812201  0.78296652  0.66964258  1
  Li  Li6  1  0.35924451  0.68147925  0.69980169  1
  Cu  Cu7  1  0.15133559  0.37719191  0.73981276  1
  Cu  Cu8  1  0.86358008  0.04628404  0.28708645  1
  Ni  Ni9  1  0.92180296  0.05572106  0.84313176  1
  Ni  Ni10  1  0.28347529  0.03473867  0.78014680  1
