# generated using pymatgen
data_Li3TiI4O4F3
_symmetry_space_group_name_H-M   'P 1'
_cell_length_a   7.59969284
_cell_length_b   7.48647255
_cell_length_c   7.08138680
_cell_angle_alpha   92.48166942
_cell_angle_beta   93.45422461
_cell_angle_gamma   92.28138363
_symmetry_Int_Tables_number   1
_chemical_formula_structural   Li3TiI4O4F3
_chemical_formula_sum   'Li3 Ti1 I4 O4 F3'
_cell_volume   401.42200762
_cell_formula_units_Z   1
loop_
 _symmetry_equiv_pos_site_id
 _symmetry_equiv_pos_as_xyz
  1  'x, y, z'
loop_
 _atom_site_type_symbol
 _atom_site_label
 _atom_site_symmetry_multiplicity
 _atom_site_fract_x
 _atom_site_fract_y
 _atom_site_fract_z
 _atom_site_occupancy
  I  I0  1  0.00000000  0.00000000  0.00000000  1
  I  I1  1  0.50000000  0.50000000  0.50000000  1
  I  I2  1  0.25000000  0.25000000  0.25000000  1
  I  I3  1  0.75000000  0.25000000  0.00000000  1
  Li  Li4  1  0.25000000  0.75000000  0.50000000  1
  Li  Li5  1  0.03503306  0.92453146  0.90367010  1
  Li  Li6  1  0.69567515  0.05740264  0.52277818  1
  F  F7  1  0.40929691  0.47696047  0.17498834  1
  F  F8  1  0.88655996  0.60383204  0.84393112  1
  F  F9  1  0.78982457  0.18431490  0.88389645  1
  Ti  Ti10  1  0.62914795  0.38093862  0.05830842  1
  O  O11  1  0.28061089  0.10228803  0.19153926  1
  O  O12  1  0.29069632  0.57738852  0.86372574  1
  O  O13  1  0.76779723  0.48192387  0.82151144  1
  O  O14  1  0.07001304  0.03752406  0.97566361  1
