# generated using pymatgen
data_Li2LuTi(PI)4
_symmetry_space_group_name_H-M   'P 1'
_cell_length_a   7.71223386
_cell_length_b   7.69555623
_cell_length_c   7.90395455
_cell_angle_alpha   93.60400998
_cell_angle_beta   94.48188025
_cell_angle_gamma   93.45067292
_symmetry_Int_Tables_number   1
_chemical_formula_structural   Li2LuTi(PI)4
_chemical_formula_sum   'Li2 Lu1 Ti1 P4 I4'
_cell_volume   465.73963700
_cell_formula_units_Z   1
loop_
 _symmetry_equiv_pos_site_id
 _symmetry_equiv_pos_as_xyz
  1  'x, y, z'
loop_
 _atom_site_type_symbol
 _atom_site_label
 _atom_site_symmetry_multiplicity
 _atom_site_fract_x
 _atom_site_fract_y
 _atom_site_fract_z
 _atom_site_occupancy
  P  P0  1  0.00000000  0.00000000  0.00000000  1
  P  P1  1  0.50000000  0.50000000  0.50000000  1
  P  P2  1  0.50000000  0.50000000  0.00000000  1
  P  P3  1  0.50000000  0.00000000  0.50000000  1
  Ti  Ti4  1  0.00000000  0.50000000  0.50000000  1
  Lu  Lu5  1  0.06393096  0.25153100  0.28900233  1
  I  I6  1  0.85457930  0.15853905  0.92996742  1
  I  I7  1  0.48933311  0.02833436  0.13056173  1
  I  I8  1  0.92782195  0.39766723  0.40861810  1
  I  I9  1  0.69280723  0.44807016  0.94933505  1
  Li  Li10  1  0.53086489  0.72497186  0.04055075  1
  Li  Li11  1  0.30301829  0.95255840  0.97088676  1
