# generated using pymatgen
data_Li2MnP2
_symmetry_space_group_name_H-M   'P 1'
_cell_length_a   5.91715096
_cell_length_b   6.41626935
_cell_length_c   7.11416233
_cell_angle_alpha   97.53699505
_cell_angle_beta   94.32336571
_cell_angle_gamma   96.12249894
_symmetry_Int_Tables_number   1
_chemical_formula_structural   Li2MnP2
_chemical_formula_sum   'Li2 Mn1 P2'
_cell_volume   265.13906633
_cell_formula_units_Z   1
loop_
 _symmetry_equiv_pos_site_id
 _symmetry_equiv_pos_as_xyz
  1  'x, y, z'
loop_
 _atom_site_type_symbol
 _atom_site_label
 _atom_site_symmetry_multiplicity
 _atom_site_fract_x
 _atom_site_fract_y
 _atom_site_fract_z
 _atom_site_occupancy
  Mn  Mn0  1  0.00000000  0.00000000  0.00000000  1
  P  P1  1  0.33300000  0.66700000  0.25000000  1
  P  P2  1  0.66700000  0.33300000  0.50000000  1
  Li  Li3  1  0.00000000  0.00000000  0.75000000  1
  Li  Li4  1  0.74688493  0.44498602  0.19817201  1
