# generated using pymatgen
data_Li3TiP3SeF3
_symmetry_space_group_name_H-M   'P 1'
_cell_length_a   5.28340957
_cell_length_b   5.03867457
_cell_length_c   6.78392180
_cell_angle_alpha   101.01485111
_cell_angle_beta   104.49162055
_cell_angle_gamma   100.28217065
_symmetry_Int_Tables_number   1
_chemical_formula_structural   Li3TiP3SeF3
_chemical_formula_sum   'Li3 Ti1 P3 Se1 F3'
_cell_volume   166.69307236
_cell_formula_units_Z   1
loop_
 _symmetry_equiv_pos_site_id
 _symmetry_equiv_pos_as_xyz
  1  'x, y, z'
loop_
 _atom_site_type_symbol
 _atom_site_label
 _atom_site_symmetry_multiplicity
 _atom_site_fract_x
 _atom_site_fract_y
 _atom_site_fract_z
 _atom_site_occupancy
  P  P0  1  0.12500000  0.00000000  0.25000000  1
  P  P1  1  0.00000000  0.00000000  0.00000000  1
  P  P2  1  0.37500000  0.00000000  0.25000000  1
  Li  Li3  1  0.25000000  0.25000000  0.25000000  1
  Li  Li4  1  0.00000000  0.25000000  0.12500000  1
  Li  Li5  1  0.85424208  0.73123747  0.57941633  1
  Se  Se6  1  0.77659435  0.88968196  0.66474692  1
  F  F7  1  0.29599135  0.69863194  0.75326641  1
  F  F8  1  0.61706516  0.32766911  0.83545882  1
  F  F9  1  0.12036847  0.70991162  0.63596555  1
  Ti  Ti10  1  0.34954395  0.57849945  0.71171554  1
