# generated using pymatgen
data_Li2LuAs6P4O7
_symmetry_space_group_name_H-M   'P 1'
_cell_length_a   7.32510638
_cell_length_b   7.23344325
_cell_length_c   8.25743662
_cell_angle_alpha   93.57220224
_cell_angle_beta   93.93718111
_cell_angle_gamma   93.61868057
_symmetry_Int_Tables_number   1
_chemical_formula_structural   Li2LuAs6P4O7
_chemical_formula_sum   'Li2 Lu1 As6 P4 O7'
_cell_volume   434.64668598
_cell_formula_units_Z   1
loop_
 _symmetry_equiv_pos_site_id
 _symmetry_equiv_pos_as_xyz
  1  'x, y, z'
loop_
 _atom_site_type_symbol
 _atom_site_label
 _atom_site_symmetry_multiplicity
 _atom_site_fract_x
 _atom_site_fract_y
 _atom_site_fract_z
 _atom_site_occupancy
  O  O0  1  0.00000000  0.00000000  0.00000000  1
  O  O1  1  0.50000000  0.50000000  0.50000000  1
  O  O2  1  0.50000000  0.50000000  0.00000000  1
  O  O3  1  0.50000000  0.00000000  0.50000000  1
  O  O4  1  0.00000000  0.50000000  0.50000000  1
  O  O5  1  0.91323707  0.18165886  0.44222415  1
  O  O6  1  0.43348433  0.28446675  0.51871141  1
  P  P7  1  0.50886921  0.16820380  0.20041511  1
  P  P8  1  0.96976966  0.22848355  0.13551183  1
  P  P9  1  0.13613512  0.20358750  0.24316792  1
  P  P10  1  0.95149032  0.78173878  0.81236722  1
  Lu  Lu11  1  0.50427959  0.47476778  0.33825472  1
  As  As12  1  0.64506446  0.73455328  0.00036643  1
  As  As13  1  0.75712596  0.25433061  0.75682417  1
  As  As14  1  0.11753444  0.86339883  0.49778201  1
  As  As15  1  0.22299873  0.72734897  0.68544431  1
  As  As16  1  0.74965213  0.93405593  0.86597801  1
  As  As17  1  0.12603956  0.04063112  0.47587811  1
  Li  Li18  1  0.31456531  0.74217101  0.84999620  1
  Li  Li19  1  0.06455000  0.43231215  0.74319345  1
