# generated using pymatgen
data_Li2LuAs6P4O7
_symmetry_space_group_name_H-M   'P 1'
_cell_length_a   7.46130338
_cell_length_b   7.15532763
_cell_length_c   8.51132981
_cell_angle_alpha   92.94761617
_cell_angle_beta   93.00338607
_cell_angle_gamma   93.06239417
_symmetry_Int_Tables_number   1
_chemical_formula_structural   Li2LuAs6P4O7
_chemical_formula_sum   'Li2 Lu1 As6 P4 O7'
_cell_volume   452.46095236
_cell_formula_units_Z   1
loop_
 _symmetry_equiv_pos_site_id
 _symmetry_equiv_pos_as_xyz
  1  'x, y, z'
loop_
 _atom_site_type_symbol
 _atom_site_label
 _atom_site_symmetry_multiplicity
 _atom_site_fract_x
 _atom_site_fract_y
 _atom_site_fract_z
 _atom_site_occupancy
  O  O0  1  0.12500000  0.00000000  0.25000000  1
  O  O1  1  0.00000000  0.00000000  0.00000000  1
  O  O2  1  0.37500000  0.00000000  0.25000000  1
  O  O3  1  0.25000000  0.25000000  0.25000000  1
  O  O4  1  0.00000000  0.25000000  0.12500000  1
  O  O5  1  0.56192617  0.68938884  0.76720964  1
  O  O6  1  0.18703248  0.35432696  0.82572708  1
  P  P7  1  0.97387103  0.71779315  0.85877161  1
  P  P8  1  0.88429987  0.54138270  0.40450398  1
  P  P9  1  0.71134569  0.02238527  0.37733485  1
  P  P10  1  0.23550593  0.26805221  0.71919589  1
  Lu  Lu11  1  0.54474942  0.57952918  0.00238783  1
  As  As12  1  0.85722272  0.07926342  0.25421869  1
  As  As13  1  0.95322337  0.91446480  0.53710371  1
  As  As14  1  0.05292729  0.81840351  0.29472342  1
  As  As15  1  0.85664162  0.00655905  0.67742815  1
  As  As16  1  0.74372820  0.87586507  0.08475183  1
  As  As17  1  0.49714723  0.13932458  0.05254082  1
  Li  Li18  1  0.01191190  0.98026475  0.90838676  1
  Li  Li19  1  0.10443215  0.75829412  0.47078610  1
