# generated using pymatgen
data_Li3Zn2Te6(P2O)4
_symmetry_space_group_name_H-M   'P 1'
_cell_length_a   6.52275118
_cell_length_b   6.44681338
_cell_length_c   7.28196523
_cell_angle_alpha   99.37381667
_cell_angle_beta   101.96821095
_cell_angle_gamma   98.81809824
_symmetry_Int_Tables_number   1
_chemical_formula_structural   Li3Zn2Te6(P2O)4
_chemical_formula_sum   'Li3 Zn2 Te6 P8 O4'
_cell_volume   289.95280639
_cell_formula_units_Z   1
loop_
 _symmetry_equiv_pos_site_id
 _symmetry_equiv_pos_as_xyz
  1  'x, y, z'
loop_
 _atom_site_type_symbol
 _atom_site_label
 _atom_site_symmetry_multiplicity
 _atom_site_fract_x
 _atom_site_fract_y
 _atom_site_fract_z
 _atom_site_occupancy
  Te  Te0  1  0.00000000  0.00000000  0.00000000  1
  Te  Te1  1  0.50000000  0.50000000  0.50000000  1
  Te  Te2  1  0.25000000  0.25000000  0.25000000  1
  Te  Te3  1  0.75000000  0.25000000  0.00000000  1
  Te  Te4  1  0.25000000  0.75000000  0.50000000  1
  Te  Te5  1  0.39548067  0.16874579  0.97070632  1
  O  O6  1  0.82866674  0.10915856  0.49017771  1
  O  O7  1  0.12610259  0.80377527  0.77243125  1
  O  O8  1  0.05726690  0.62454341  0.65330518  1
  O  O9  1  0.05779639  0.95425664  0.44750689  1
  P  P10  1  0.19158538  0.31133392  0.74032662  1
  P  P11  1  0.82479572  0.08672166  0.99432916  1
  P  P12  1  0.57902436  0.56342701  0.99142967  1
  P  P13  1  0.73363191  0.58300338  0.07719069  1
  P  P14  1  0.57480415  0.16422168  0.45195803  1
  P  P15  1  0.56440649  0.95092261  0.96979078  1
  P  P16  1  0.17542891  0.06535387  0.19059013  1
  P  P17  1  0.54722645  0.92845766  0.86949446  1
  Li  Li18  1  0.75273555  0.15619061  0.04984631  1
  Li  Li19  1  0.06106659  0.27798824  0.95260333  1
  Li  Li20  1  0.66300108  0.13646564  0.95865144  1
  Zn  Zn21  1  0.64459071  0.22174333  0.40468870  1
  Zn  Zn22  1  0.34315794  0.57543252  0.52967583  1
