# generated using pymatgen
data_Li2TiCu2As6O5
_symmetry_space_group_name_H-M   'P 1'
_cell_length_a   7.86813594
_cell_length_b   7.88409544
_cell_length_c   8.33847028
_cell_angle_alpha   90.71188786
_cell_angle_beta   91.41284143
_cell_angle_gamma   90.82132400
_symmetry_Int_Tables_number   1
_chemical_formula_structural   Li2TiCu2As6O5
_chemical_formula_sum   'Li2 Ti1 Cu2 As6 O5'
_cell_volume   517.00882189
_cell_formula_units_Z   1
loop_
 _symmetry_equiv_pos_site_id
 _symmetry_equiv_pos_as_xyz
  1  'x, y, z'
loop_
 _atom_site_type_symbol
 _atom_site_label
 _atom_site_symmetry_multiplicity
 _atom_site_fract_x
 _atom_site_fract_y
 _atom_site_fract_z
 _atom_site_occupancy
  Ti  Ti0  1  0.12500000  0.00000000  0.25000000  1
  O  O1  1  0.00000000  0.00000000  0.00000000  1
  O  O2  1  0.37500000  0.00000000  0.25000000  1
  O  O3  1  0.25000000  0.25000000  0.25000000  1
  O  O4  1  0.00000000  0.25000000  0.12500000  1
  O  O5  1  0.33185560  0.53197605  0.85602553  1
  As  As6  1  0.66210569  0.48297875  0.54958421  1
  As  As7  1  0.10289734  0.37757847  0.57192872  1
  As  As8  1  0.07213530  0.02922322  0.46444279  1
  As  As9  1  0.77573066  0.24766067  0.23276911  1
  As  As10  1  0.07528978  0.83731641  0.49760021  1
  As  As11  1  0.33140151  0.85411146  0.03383209  1
  Li  Li12  1  0.14016520  0.85094498  0.98375270  1
  Li  Li13  1  0.52304641  0.54933858  0.80012324  1
  Cu  Cu14  1  0.28505245  0.03957240  0.80698499  1
  Cu  Cu15  1  0.62380995  0.81530268  0.28834806  1
