# generated using pymatgen
data_LiZnTe3I2
_symmetry_space_group_name_H-M   'P 1'
_cell_length_a   7.93705270
_cell_length_b   8.26456348
_cell_length_c   7.43821660
_cell_angle_alpha   92.36336998
_cell_angle_beta   92.93904325
_cell_angle_gamma   92.26281748
_symmetry_Int_Tables_number   1
_chemical_formula_structural   LiZnTe3I2
_chemical_formula_sum   'Li2 Zn2 Te6 I4'
_cell_volume   486.43980383
_cell_formula_units_Z   2
loop_
 _symmetry_equiv_pos_site_id
 _symmetry_equiv_pos_as_xyz
  1  'x, y, z'
loop_
 _atom_site_type_symbol
 _atom_site_label
 _atom_site_symmetry_multiplicity
 _atom_site_fract_x
 _atom_site_fract_y
 _atom_site_fract_z
 _atom_site_occupancy
  Te  Te0  1  0.12500000  0.12500000  0.12500000  1
  Te  Te1  1  0.50000000  0.50000000  0.50000000  1
  Te  Te2  1  0.25000000  0.25000000  0.25000000  1
  Te  Te3  1  0.75000000  0.75000000  0.75000000  1
  Te  Te4  1  0.73527089  0.94417097  0.04562461  1
  Te  Te5  1  0.10660564  0.74740462  0.03328948  1
  I  I6  1  0.94843459  0.65994366  0.99162592  1
  I  I7  1  0.48909522  0.47393706  0.36602785  1
  I  I8  1  0.57456249  0.35547054  0.81608576  1
  I  I9  1  0.39557456  0.62384263  0.96378469  1
  Li  Li10  1  0.65276332  0.55951850  0.56690238  1
  Li  Li11  1  0.11287400  0.00719113  0.48808988  1
  Zn  Zn12  1  0.93566887  0.67448724  0.03379534  1
  Zn  Zn13  1  0.78842207  0.64669575  0.85774728  1
