# generated using pymatgen
data_Li3Ti2P4N3
_symmetry_space_group_name_H-M   'P 1'
_cell_length_a   4.52825268
_cell_length_b   4.52369190
_cell_length_c   5.97168994
_cell_angle_alpha   95.00928648
_cell_angle_beta   106.78676072
_cell_angle_gamma   95.55283500
_symmetry_Int_Tables_number   1
_chemical_formula_structural   Li3Ti2P4N3
_chemical_formula_sum   'Li3 Ti2 P4 N3'
_cell_volume   115.70833134
_cell_formula_units_Z   1
loop_
 _symmetry_equiv_pos_site_id
 _symmetry_equiv_pos_as_xyz
  1  'x, y, z'
loop_
 _atom_site_type_symbol
 _atom_site_label
 _atom_site_symmetry_multiplicity
 _atom_site_fract_x
 _atom_site_fract_y
 _atom_site_fract_z
 _atom_site_occupancy
  P  P0  1  0.12500000  0.00000000  0.25000000  1
  P  P1  1  0.00000000  0.00000000  0.00000000  1
  P  P2  1  0.37500000  0.00000000  0.25000000  1
  P  P3  1  0.25000000  0.25000000  0.25000000  1
  Li  Li4  1  0.00000000  0.25000000  0.12500000  1
  Li  Li5  1  0.32308171  0.24545032  0.41296349  1
  Li  Li6  1  0.77374338  0.87855270  0.71579778  1
  Ti  Ti7  1  0.01119463  0.76250136  0.13896333  1
  Ti  Ti8  1  0.19141790  0.32011538  0.65381219  1
  N  N9  1  0.43451079  0.75440054  0.63552153  1
  N  N10  1  0.00257753  0.64929867  0.11771761  1
  N  N11  1  0.91695295  0.15863016  0.81377454  1
