# generated using pymatgen
data_Li3TiAs6I4O5
_symmetry_space_group_name_H-M   'P 1'
_cell_length_a   8.19706089
_cell_length_b   8.04476769
_cell_length_c   8.31563274
_cell_angle_alpha   90.98210810
_cell_angle_beta   90.62265331
_cell_angle_gamma   91.13808759
_symmetry_Int_Tables_number   1
_chemical_formula_structural   Li3TiAs6I4O5
_chemical_formula_sum   'Li3 Ti1 As6 I4 O5'
_cell_volume   548.13834804
_cell_formula_units_Z   1
loop_
 _symmetry_equiv_pos_site_id
 _symmetry_equiv_pos_as_xyz
  1  'x, y, z'
loop_
 _atom_site_type_symbol
 _atom_site_label
 _atom_site_symmetry_multiplicity
 _atom_site_fract_x
 _atom_site_fract_y
 _atom_site_fract_z
 _atom_site_occupancy
  I  I0  1  0.12500000  0.00000000  0.25000000  1
  I  I1  1  0.00000000  0.00000000  0.00000000  1
  I  I2  1  0.37500000  0.00000000  0.25000000  1
  I  I3  1  0.25000000  0.25000000  0.25000000  1
  Li  Li4  1  0.00000000  0.25000000  0.12500000  1
  Li  Li5  1  0.51120923  0.71074977  0.46640788  1
  Li  Li6  1  0.32636968  0.84526595  0.70199662  1
  Ti  Ti7  1  0.32253298  0.19329423  0.77506694  1
  As  As8  1  0.78686970  0.13671732  0.16417451  1
  As  As9  1  0.59884537  0.86578429  0.16557375  1
  As  As10  1  0.50594559  0.06242094  0.58855032  1
  As  As11  1  0.85312377  0.53983554  0.48113842  1
  As  As12  1  0.18306179  0.78504585  0.02625744  1
  As  As13  1  0.19036686  0.25408431  0.76998631  1
  O  O14  1  0.45885716  0.51235577  0.96840628  1
  O  O15  1  0.72194421  0.90905116  0.22837989  1
  O  O16  1  0.71958665  0.63706284  0.99052698  1
  O  O17  1  0.82712417  0.48927797  0.32381378  1
  O  O18  1  0.57556571  0.15070745  0.06989079  1
