# generated using pymatgen
data_Li2Ti2P5O7F2
_symmetry_space_group_name_H-M   'P 1'
_cell_length_a   7.42677711
_cell_length_b   7.16240081
_cell_length_c   8.34949256
_cell_angle_alpha   91.99363930
_cell_angle_beta   92.41784856
_cell_angle_gamma   92.09672149
_symmetry_Int_Tables_number   1
_chemical_formula_structural   Li2Ti2P5O7F2
_chemical_formula_sum   'Li2 Ti2 P5 O7 F2'
_cell_volume   443.15300465
_cell_formula_units_Z   1
loop_
 _symmetry_equiv_pos_site_id
 _symmetry_equiv_pos_as_xyz
  1  'x, y, z'
loop_
 _atom_site_type_symbol
 _atom_site_label
 _atom_site_symmetry_multiplicity
 _atom_site_fract_x
 _atom_site_fract_y
 _atom_site_fract_z
 _atom_site_occupancy
  P  P0  1  0.00000000  0.00000000  0.00000000  1
  P  P1  1  0.50000000  0.50000000  0.50000000  1
  P  P2  1  0.50000000  0.50000000  0.00000000  1
  P  P3  1  0.50000000  0.00000000  0.50000000  1
  P  P4  1  0.00000000  0.50000000  0.50000000  1
  Li  Li5  1  0.94001646  0.69036979  0.79419641  1
  Li  Li6  1  0.49899938  0.02481239  0.19662580  1
  F  F7  1  0.51267350  0.86348492  0.40805656  1
  F  F8  1  0.31600796  0.84361947  0.40983192  1
  Ti  Ti9  1  0.51114727  0.50081408  0.61451105  1
  Ti  Ti10  1  0.79050740  0.80662154  0.29349099  1
  O  O11  1  0.82402063  0.01334180  0.94569567  1
  O  O12  1  0.58041348  0.87386958  0.00234762  1
  O  O13  1  0.56953489  0.09275653  0.75286053  1
  O  O14  1  0.73496689  0.48286641  0.30347494  1
  O  O15  1  0.37610716  0.64845379  0.06113917  1
  O  O16  1  0.67443237  0.80378786  0.66134824  1
  O  O17  1  0.26866771  0.96371807  0.57618046  1
