# generated using pymatgen
data_Li2TiCu2P4F2
_symmetry_space_group_name_H-M   'P 1'
_cell_length_a   7.17582527
_cell_length_b   6.97524519
_cell_length_c   7.58007087
_cell_angle_alpha   91.61521036
_cell_angle_beta   92.33112791
_cell_angle_gamma   91.47853275
_symmetry_Int_Tables_number   1
_chemical_formula_structural   Li2TiCu2P4F2
_chemical_formula_sum   'Li2 Ti1 Cu2 P4 F2'
_cell_volume   378.80378365
_cell_formula_units_Z   1
loop_
 _symmetry_equiv_pos_site_id
 _symmetry_equiv_pos_as_xyz
  1  'x, y, z'
loop_
 _atom_site_type_symbol
 _atom_site_label
 _atom_site_symmetry_multiplicity
 _atom_site_fract_x
 _atom_site_fract_y
 _atom_site_fract_z
 _atom_site_occupancy
  P  P0  1  0.00000000  0.00000000  0.00000000  1
  P  P1  1  0.50000000  0.50000000  0.50000000  1
  P  P2  1  0.25000000  0.25000000  0.25000000  1
  P  P3  1  0.75000000  0.25000000  0.00000000  1
  Li  Li4  1  0.25000000  0.75000000  0.50000000  1
  Li  Li5  1  0.98282607  0.64775913  0.53141933  1
  Cu  Cu6  1  0.82626571  0.90534385  0.45594791  1
  Cu  Cu7  1  0.13877523  0.21559127  0.65876874  1
  F  F8  1  0.57403946  0.40348667  0.76104006  1
  F  F9  1  0.19560435  0.84212776  0.65539483  1
  Ti  Ti10  1  0.11366481  0.58039266  0.72920971  1
