# generated using pymatgen
data_Li3Ti2SeO4F3
_symmetry_space_group_name_H-M   'P 1'
_cell_length_a   5.07174295
_cell_length_b   4.87936613
_cell_length_c   6.79605283
_cell_angle_alpha   100.47807636
_cell_angle_beta   103.95697128
_cell_angle_gamma   99.74917867
_symmetry_Int_Tables_number   1
_chemical_formula_structural   Li3Ti2SeO4F3
_chemical_formula_sum   'Li3 Ti2 Se1 O4 F3'
_cell_volume   156.43773506
_cell_formula_units_Z   1
loop_
 _symmetry_equiv_pos_site_id
 _symmetry_equiv_pos_as_xyz
  1  'x, y, z'
loop_
 _atom_site_type_symbol
 _atom_site_label
 _atom_site_symmetry_multiplicity
 _atom_site_fract_x
 _atom_site_fract_y
 _atom_site_fract_z
 _atom_site_occupancy
  Li  Li0  1  0.00000000  0.00000000  0.00000000  1
  Li  Li1  1  0.50000000  0.50000000  0.50000000  1
  Li  Li2  1  0.50000000  0.50000000  0.00000000  1
  Se  Se3  1  0.50000000  0.00000000  0.50000000  1
  F  F4  1  0.00000000  0.50000000  0.50000000  1
  F  F5  1  0.23737015  0.73109887  0.27688487  1
  F  F6  1  0.12300587  0.84899711  0.85747311  1
  Ti  Ti7  1  0.75847971  0.45705304  0.47023175  1
  Ti  Ti8  1  0.19463159  0.58178454  0.99354299  1
  O  O9  1  0.32306174  0.69442117  0.26735544  1
  O  O10  1  0.26006639  0.61279888  0.27992825  1
  O  O11  1  0.43947230  0.45128680  0.55478988  1
  O  O12  1  0.03247032  0.56476064  0.97101299  1
