# generated using pymatgen
data_Li2TiI4(OF)3
_symmetry_space_group_name_H-M   'P 1'
_cell_length_a   8.46584809
_cell_length_b   8.32566534
_cell_length_c   7.43600700
_cell_angle_alpha   90.14229941
_cell_angle_beta   90.67701740
_cell_angle_gamma   90.16268623
_symmetry_Int_Tables_number   1
_chemical_formula_structural   Li2TiI4(OF)3
_chemical_formula_sum   'Li2 Ti1 I4 O3 F3'
_cell_volume   524.07780239
_cell_formula_units_Z   1
loop_
 _symmetry_equiv_pos_site_id
 _symmetry_equiv_pos_as_xyz
  1  'x, y, z'
loop_
 _atom_site_type_symbol
 _atom_site_label
 _atom_site_symmetry_multiplicity
 _atom_site_fract_x
 _atom_site_fract_y
 _atom_site_fract_z
 _atom_site_occupancy
  I  I0  1  0.00000000  0.00000000  0.00000000  1
  I  I1  1  0.50000000  0.50000000  0.50000000  1
  I  I2  1  0.25000000  0.25000000  0.25000000  1
  I  I3  1  0.75000000  0.25000000  0.00000000  1
  Li  Li4  1  0.25000000  0.75000000  0.50000000  1
  Li  Li5  1  0.93595329  0.83871808  0.22097978  1
  F  F6  1  0.04540552  0.47484030  0.84393386  1
  F  F7  1  0.15893742  0.69526968  0.09376012  1
  F  F8  1  0.70095534  0.52691302  0.18430997  1
  Ti  Ti9  1  0.98472680  0.02933349  0.08288669  1
  O  O10  1  0.89921023  0.55303581  0.45560022  1
  O  O11  1  0.28437166  0.46710522  0.30944027  1
  O  O12  1  0.77312212  0.30271421  0.70849417  1
