# generated using pymatgen
data_Li3LuI4
_symmetry_space_group_name_H-M   'P 1'
_cell_length_a   8.11951430
_cell_length_b   7.94859123
_cell_length_c   8.02251469
_cell_angle_alpha   91.00439642
_cell_angle_beta   90.76662892
_cell_angle_gamma   91.16342601
_symmetry_Int_Tables_number   1
_chemical_formula_structural   Li3LuI4
_chemical_formula_sum   'Li3 Lu1 I4'
_cell_volume   517.52753269
_cell_formula_units_Z   1
loop_
 _symmetry_equiv_pos_site_id
 _symmetry_equiv_pos_as_xyz
  1  'x, y, z'
loop_
 _atom_site_type_symbol
 _atom_site_label
 _atom_site_symmetry_multiplicity
 _atom_site_fract_x
 _atom_site_fract_y
 _atom_site_fract_z
 _atom_site_occupancy
  I  I0  1  0.00000000  0.00000000  0.00000000  1
  I  I1  1  0.33300000  0.66700000  0.25000000  1
  I  I2  1  0.66700000  0.33300000  0.50000000  1
  I  I3  1  0.00000000  0.00000000  0.75000000  1
  Lu  Lu4  1  0.58453138  0.21012279  0.55252543  1
  Li  Li5  1  0.07026689  0.47443571  0.12167298  1
  Li  Li6  1  0.01527633  0.68378274  0.93344574  1
  Li  Li7  1  0.42933566  0.17314088  0.65441462  1
