# generated using pymatgen
data_Li3LuP3SeCl2
_symmetry_space_group_name_H-M   'P 1'
_cell_length_a   6.74316443
_cell_length_b   6.57172502
_cell_length_c   7.25065348
_cell_angle_alpha   97.64029484
_cell_angle_beta   99.66033704
_cell_angle_gamma   97.23503788
_symmetry_Int_Tables_number   1
_chemical_formula_structural   Li3LuP3SeCl2
_chemical_formula_sum   'Li3 Lu1 P3 Se1 Cl2'
_cell_volume   310.30408359
_cell_formula_units_Z   1
loop_
 _symmetry_equiv_pos_site_id
 _symmetry_equiv_pos_as_xyz
  1  'x, y, z'
loop_
 _atom_site_type_symbol
 _atom_site_label
 _atom_site_symmetry_multiplicity
 _atom_site_fract_x
 _atom_site_fract_y
 _atom_site_fract_z
 _atom_site_occupancy
  P  P0  1  0.00000000  0.00000000  0.00000000  1
  P  P1  1  0.50000000  0.50000000  0.50000000  1
  P  P2  1  0.50000000  0.50000000  0.00000000  1
  Lu  Lu3  1  0.50000000  0.00000000  0.50000000  1
  Li  Li4  1  0.00000000  0.50000000  0.50000000  1
  Li  Li5  1  0.80920023  0.71435313  0.93756204  1
  Li  Li6  1  0.80658109  0.81046250  0.16945883  1
  Se  Se7  1  0.46333390  0.35740602  0.50146205  1
  Cl  Cl8  1  0.05778233  0.82487097  0.17179306  1
  Cl  Cl9  1  0.58570621  0.37785704  0.84594468  1
