# generated using pymatgen
data_LiTe3(PI)2
_symmetry_space_group_name_H-M   'P 1'
_cell_length_a   7.77072404
_cell_length_b   7.95898179
_cell_length_c   7.59107155
_cell_angle_alpha   92.52316761
_cell_angle_beta   92.98981865
_cell_angle_gamma   92.49095065
_symmetry_Int_Tables_number   1
_chemical_formula_structural   LiTe3(PI)2
_chemical_formula_sum   'Li2 Te6 P4 I4'
_cell_volume   467.89888481
_cell_formula_units_Z   2
loop_
 _symmetry_equiv_pos_site_id
 _symmetry_equiv_pos_as_xyz
  1  'x, y, z'
loop_
 _atom_site_type_symbol
 _atom_site_label
 _atom_site_symmetry_multiplicity
 _atom_site_fract_x
 _atom_site_fract_y
 _atom_site_fract_z
 _atom_site_occupancy
  P  P0  1  0.00000000  0.00000000  0.00000000  1
  P  P1  1  0.33300000  0.66700000  0.25000000  1
  P  P2  1  0.66700000  0.33300000  0.50000000  1
  P  P3  1  0.00000000  0.00000000  0.75000000  1
  I  I4  1  0.40541537  0.72237996  0.50269353  1
  I  I5  1  0.35297197  0.19726151  0.48765599  1
  I  I6  1  0.30841708  0.60437224  0.56626176  1
  I  I7  1  0.61774413  0.75950043  0.79487939  1
  Li  Li8  1  0.23008825  0.58888497  0.33637211  1
  Li  Li9  1  0.64640518  0.30365938  0.64505923  1
  Te  Te10  1  0.34212500  0.34658741  0.28573616  1
  Te  Te11  1  0.40036544  0.58305745  0.39752230  1
  Te  Te12  1  0.37929883  0.20158868  0.78402882  1
  Te  Te13  1  0.18871122  0.13344142  0.70019943  1
  Te  Te14  1  0.83516326  0.51983130  0.61656861  1
  Te  Te15  1  0.85204727  0.51643246  0.81106169  1
