# generated using pymatgen
data_Li2I4(OF)3
_symmetry_space_group_name_H-M   'P 1'
_cell_length_a   6.21726703
_cell_length_b   5.74408177
_cell_length_c   6.92642873
_cell_angle_alpha   94.81716267
_cell_angle_beta   96.70498725
_cell_angle_gamma   94.42838839
_symmetry_Int_Tables_number   1
_chemical_formula_structural   Li2I4(OF)3
_chemical_formula_sum   'Li2 I4 O3 F3'
_cell_volume   243.85228888
_cell_formula_units_Z   1
loop_
 _symmetry_equiv_pos_site_id
 _symmetry_equiv_pos_as_xyz
  1  'x, y, z'
loop_
 _atom_site_type_symbol
 _atom_site_label
 _atom_site_symmetry_multiplicity
 _atom_site_fract_x
 _atom_site_fract_y
 _atom_site_fract_z
 _atom_site_occupancy
  I  I0  1  0.00000000  0.00000000  0.00000000  1
  I  I1  1  0.33300000  0.66700000  0.25000000  1
  I  I2  1  0.66700000  0.33300000  0.50000000  1
  I  I3  1  0.00000000  0.00000000  0.75000000  1
  Li  Li4  1  0.55502869  0.90587535  0.25685551  1
  Li  Li5  1  0.45777481  0.62826454  0.76117459  1
  F  F6  1  0.08237097  0.70777841  0.44662272  1
  F  F7  1  0.24873039  0.85903673  0.91564235  1
  F  F8  1  0.08520766  0.66472861  0.20473938  1
  O  O9  1  0.03196175  0.45714111  0.84628587  1
  O  O10  1  0.65634485  0.32723557  0.65295837  1
  O  O11  1  0.55557051  0.92541470  0.79562786  1
