# generated using pymatgen
data_LiMn2P8O3
_symmetry_space_group_name_H-M   'P 1'
_cell_length_a   8.58088995
_cell_length_b   8.37901166
_cell_length_c   7.42093323
_cell_angle_alpha   90.00000000
_cell_angle_beta   90.00000000
_cell_angle_gamma   90.00000000
_symmetry_Int_Tables_number   1
_chemical_formula_structural   LiMn2P8O3
_chemical_formula_sum   'Li1 Mn2 P8 O3'
_cell_volume   533.56047537
_cell_formula_units_Z   1
loop_
 _symmetry_equiv_pos_site_id
 _symmetry_equiv_pos_as_xyz
  1  'x, y, z'
loop_
 _atom_site_type_symbol
 _atom_site_label
 _atom_site_symmetry_multiplicity
 _atom_site_fract_x
 _atom_site_fract_y
 _atom_site_fract_z
 _atom_site_occupancy
  P  P0  1  0.00000000  0.00000000  0.00000000  1
  P  P1  1  0.50000000  0.50000000  0.50000000  1
  P  P2  1  0.25000000  0.25000000  0.25000000  1
  P  P3  1  0.75000000  0.25000000  0.00000000  1
  P  P4  1  0.25000000  0.75000000  0.50000000  1
  P  P5  1  0.70249607  0.79740720  0.47351127  1
  P  P6  1  0.82565586  0.10594292  0.63945536  1
  P  P7  1  0.92448467  0.64101733  0.41851746  1
  Li  Li8  1  0.60169155  0.14092694  0.16082851  1
  Mn  Mn9  1  0.83358232  0.24802778  0.42719313  1
  Mn  Mn10  1  0.52159233  0.33725155  0.23016736  1
  O  O11  1  0.29362031  0.57253704  0.20169317  1
  O  O12  1  0.44096173  0.98909469  0.28717070  1
  O  O13  1  0.23514268  0.57246382  0.70675202  1
