# generated using pymatgen
data_Li2As6F3
_symmetry_space_group_name_H-M   'P 1'
_cell_length_a   7.83288076
_cell_length_b   7.65851567
_cell_length_c   7.73746893
_cell_angle_alpha   90.78333806
_cell_angle_beta   91.56795612
_cell_angle_gamma   90.85921289
_symmetry_Int_Tables_number   1
_chemical_formula_structural   Li2As6F3
_chemical_formula_sum   'Li2 As6 F3'
_cell_volume   463.88513612
_cell_formula_units_Z   1
loop_
 _symmetry_equiv_pos_site_id
 _symmetry_equiv_pos_as_xyz
  1  'x, y, z'
loop_
 _atom_site_type_symbol
 _atom_site_label
 _atom_site_symmetry_multiplicity
 _atom_site_fract_x
 _atom_site_fract_y
 _atom_site_fract_z
 _atom_site_occupancy
  Li  Li0  1  0.00000000  0.00000000  0.00000000  1
  Li  Li1  1  0.50000000  0.50000000  0.50000000  1
  F  F2  1  0.25000000  0.25000000  0.25000000  1
  F  F3  1  0.75000000  0.25000000  0.00000000  1
  F  F4  1  0.25000000  0.75000000  0.50000000  1
  As  As5  1  0.70303276  0.11896726  0.17540559  1
  As  As6  1  0.74511113  0.02465165  0.59448564  1
  As  As7  1  0.22001929  0.50888273  0.63714563  1
  As  As8  1  0.04581033  0.87429897  0.71144509  1
  As  As9  1  0.39225676  0.58489919  0.85320027  1
  As  As10  1  0.11161626  0.65366303  0.64415363  1
