# generated using pymatgen
data_Li3Te6As6I4O5
_symmetry_space_group_name_H-M   'P 1'
_cell_length_a   8.41766720
_cell_length_b   8.50912144
_cell_length_c   8.75652631
_cell_angle_alpha   90.00000000
_cell_angle_beta   90.00000000
_cell_angle_gamma   90.00000000
_symmetry_Int_Tables_number   1
_chemical_formula_structural   Li3Te6As6I4O5
_chemical_formula_sum   'Li3 Te6 As6 I4 O5'
_cell_volume   627.20329380
_cell_formula_units_Z   1
loop_
 _symmetry_equiv_pos_site_id
 _symmetry_equiv_pos_as_xyz
  1  'x, y, z'
loop_
 _atom_site_type_symbol
 _atom_site_label
 _atom_site_symmetry_multiplicity
 _atom_site_fract_x
 _atom_site_fract_y
 _atom_site_fract_z
 _atom_site_occupancy
  I  I0  1  0.00000000  0.00000000  0.00000000  1
  I  I1  1  0.50000000  0.50000000  0.50000000  1
  I  I2  1  0.25000000  0.25000000  0.25000000  1
  I  I3  1  0.75000000  0.25000000  0.00000000  1
  Li  Li4  1  0.25000000  0.75000000  0.50000000  1
  Li  Li5  1  0.34188924  0.17505679  0.58893545  1
  Li  Li6  1  0.08077698  0.91196998  0.69534276  1
  Te  Te7  1  0.34375177  0.56521904  0.04940431  1
  Te  Te8  1  0.38518461  0.91094380  0.50446702  1
  Te  Te9  1  0.54109940  0.93051719  0.66724657  1
  Te  Te10  1  0.16664196  0.08523573  0.19919558  1
  Te  Te11  1  0.66528903  0.09991092  0.24417634  1
  Te  Te12  1  0.77365381  0.85993164  0.17731140  1
  As  As13  1  0.31888924  0.24356465  0.45190272  1
  As  As14  1  0.03141800  0.54799623  0.83657316  1
  As  As15  1  0.56940176  0.90668164  0.43742220  1
  As  As16  1  0.60533349  0.57093776  0.23837569  1
  As  As17  1  0.00111962  0.79131178  0.07678821  1
  As  As18  1  0.83284727  0.44312465  0.53890575  1
  O  O19  1  0.50883710  0.03518560  0.86033564  1
  O  O20  1  0.91158202  0.46421817  0.05405197  1
  O  O21  1  0.11037509  0.82762895  0.88525221  1
  O  O22  1  0.70311611  0.95154115  0.57623756  1
  O  O23  1  0.01640840  0.27705312  0.72448848  1
