# generated using pymatgen
data_Li2Cu2As6O4F3
_symmetry_space_group_name_H-M   'P 1'
_cell_length_a   7.39876802
_cell_length_b   7.25841512
_cell_length_c   8.07741901
_cell_angle_alpha   91.59180920
_cell_angle_beta   93.08065519
_cell_angle_gamma   91.56189418
_symmetry_Int_Tables_number   1
_chemical_formula_structural   Li2Cu2As6O4F3
_chemical_formula_sum   'Li2 Cu2 As6 O4 F3'
_cell_volume   432.81062830
_cell_formula_units_Z   1
loop_
 _symmetry_equiv_pos_site_id
 _symmetry_equiv_pos_as_xyz
  1  'x, y, z'
loop_
 _atom_site_type_symbol
 _atom_site_label
 _atom_site_symmetry_multiplicity
 _atom_site_fract_x
 _atom_site_fract_y
 _atom_site_fract_z
 _atom_site_occupancy
  Li  Li0  1  0.00000000  0.00000000  0.00000000  1
  Li  Li1  1  0.50000000  0.50000000  0.50000000  1
  Cu  Cu2  1  0.50000000  0.50000000  0.00000000  1
  Cu  Cu3  1  0.50000000  0.00000000  0.50000000  1
  F  F4  1  0.00000000  0.50000000  0.50000000  1
  F  F5  1  0.91627890  0.22617521  0.02088497  1
  F  F6  1  0.43418164  0.08859721  0.17390151  1
  As  As7  1  0.35035922  0.63873769  0.20051926  1
  As  As8  1  0.88686028  0.01638189  0.96974301  1
  As  As9  1  0.30635651  0.00458798  0.30004316  1
  As  As10  1  0.19473396  0.80039241  0.60725707  1
  As  As11  1  0.26935599  0.06066008  0.07289996  1
  As  As12  1  0.25461468  0.18641879  0.38514470  1
  O  O13  1  0.50782614  0.52382167  0.34648197  1
  O  O14  1  0.20223005  0.33144220  0.88479778  1
  O  O15  1  0.31319861  0.63126807  0.85064204  1
  O  O16  1  0.11022626  0.84922172  0.79829380  1
