# generated using pymatgen
data_Li2TiCu2O3
_symmetry_space_group_name_H-M   'P 1'
_cell_length_a   7.27256129
_cell_length_b   7.16319883
_cell_length_c   7.08889966
_cell_angle_alpha   93.18812057
_cell_angle_beta   94.76509180
_cell_angle_gamma   93.65588115
_symmetry_Int_Tables_number   1
_chemical_formula_structural   Li2TiCu2O3
_chemical_formula_sum   'Li2 Ti1 Cu2 O3'
_cell_volume   366.58000181
_cell_formula_units_Z   1
loop_
 _symmetry_equiv_pos_site_id
 _symmetry_equiv_pos_as_xyz
  1  'x, y, z'
loop_
 _atom_site_type_symbol
 _atom_site_label
 _atom_site_symmetry_multiplicity
 _atom_site_fract_x
 _atom_site_fract_y
 _atom_site_fract_z
 _atom_site_occupancy
  Li  Li0  1  0.12500000  0.12500000  0.12500000  1
  Li  Li1  1  0.50000000  0.50000000  0.50000000  1
  Cu  Cu2  1  0.25000000  0.25000000  0.25000000  1
  Cu  Cu3  1  0.75000000  0.75000000  0.75000000  1
  Ti  Ti4  1  0.70703854  0.66987949  0.44621226  1
  O  O5  1  0.57361215  0.52074366  0.66896090  1
  O  O6  1  0.20290856  0.34456823  0.10073547  1
  O  O7  1  0.23085522  0.40501767  0.31166249  1
