# generated using pymatgen
data_Li2LuCu2(SO)2
_symmetry_space_group_name_H-M   'P 1'
_cell_length_a   6.37076427
_cell_length_b   6.23587133
_cell_length_c   7.40968087
_cell_angle_alpha   95.24210333
_cell_angle_beta   96.97177110
_cell_angle_gamma   95.88575260
_symmetry_Int_Tables_number   1
_chemical_formula_structural   Li2LuCu2(SO)2
_chemical_formula_sum   'Li2 Lu1 Cu2 S2 O2'
_cell_volume   289.03860756
_cell_formula_units_Z   1
loop_
 _symmetry_equiv_pos_site_id
 _symmetry_equiv_pos_as_xyz
  1  'x, y, z'
loop_
 _atom_site_type_symbol
 _atom_site_label
 _atom_site_symmetry_multiplicity
 _atom_site_fract_x
 _atom_site_fract_y
 _atom_site_fract_z
 _atom_site_occupancy
  Lu  Lu0  1  0.00000000  0.00000000  0.00000000  1
  Li  Li1  1  0.50000000  0.50000000  0.50000000  1
  Li  Li2  1  0.25000000  0.25000000  0.25000000  1
  Cu  Cu3  1  0.75000000  0.25000000  0.00000000  1
  Cu  Cu4  1  0.25000000  0.75000000  0.50000000  1
  S  S5  1  0.29026409  0.05396286  0.23559490  1
  S  S6  1  0.59666003  0.12867067  0.62167040  1
  O  O7  1  0.41472039  0.12780912  0.37250383  1
  O  O8  1  0.48753137  0.35566331  0.55354411  1
