# generated using pymatgen
data_Li2Ni2O5
_symmetry_space_group_name_H-M   'P 1'
_cell_length_a   6.93378811
_cell_length_b   6.60055088
_cell_length_c   7.91861827
_cell_angle_alpha   93.32587352
_cell_angle_beta   94.05126358
_cell_angle_gamma   93.24012865
_symmetry_Int_Tables_number   1
_chemical_formula_structural   Li2Ni2O5
_chemical_formula_sum   'Li2 Ni2 O5'
_cell_volume   360.22624341
_cell_formula_units_Z   1
loop_
 _symmetry_equiv_pos_site_id
 _symmetry_equiv_pos_as_xyz
  1  'x, y, z'
loop_
 _atom_site_type_symbol
 _atom_site_label
 _atom_site_symmetry_multiplicity
 _atom_site_fract_x
 _atom_site_fract_y
 _atom_site_fract_z
 _atom_site_occupancy
  Li  Li0  1  0.12500000  0.12500000  0.12500000  1
  Li  Li1  1  0.50000000  0.50000000  0.50000000  1
  Ni  Ni2  1  0.25000000  0.25000000  0.25000000  1
  Ni  Ni3  1  0.75000000  0.75000000  0.75000000  1
  O  O4  1  0.84014242  0.79242345  0.82809155  1
  O  O5  1  0.99969414  0.48927710  0.15593143  1
  O  O6  1  0.38836048  0.33627449  0.92171267  1
  O  O7  1  0.94691644  0.47062766  0.30823991  1
  O  O8  1  0.84783588  0.35733706  0.83545376  1
