# generated using pymatgen
data_Li2As6(OF)3
_symmetry_space_group_name_H-M   'P 1'
_cell_length_a   6.99335788
_cell_length_b   6.64423483
_cell_length_c   7.43546032
_cell_angle_alpha   93.32130234
_cell_angle_beta   94.35353466
_cell_angle_gamma   93.13838546
_symmetry_Int_Tables_number   1
_chemical_formula_structural   Li2As6(OF)3
_chemical_formula_sum   'Li2 As6 O3 F3'
_cell_volume   343.30936020
_cell_formula_units_Z   1
loop_
 _symmetry_equiv_pos_site_id
 _symmetry_equiv_pos_as_xyz
  1  'x, y, z'
loop_
 _atom_site_type_symbol
 _atom_site_label
 _atom_site_symmetry_multiplicity
 _atom_site_fract_x
 _atom_site_fract_y
 _atom_site_fract_z
 _atom_site_occupancy
  Li  Li0  1  0.00000000  0.00000000  0.00000000  1
  Li  Li1  1  0.50000000  0.50000000  0.50000000  1
  F  F2  1  0.50000000  0.50000000  0.00000000  1
  F  F3  1  0.50000000  0.00000000  0.50000000  1
  F  F4  1  0.00000000  0.50000000  0.50000000  1
  As  As5  1  0.00155146  0.92484950  0.34981697  1
  As  As6  1  0.86392959  0.63318975  0.86757623  1
  As  As7  1  0.10433735  0.89047378  0.43771543  1
  As  As8  1  0.31346207  0.48603127  0.68632944  1
  As  As9  1  0.67131490  0.00332244  0.68256512  1
  As  As10  1  0.89524249  0.08202613  0.18874005  1
  O  O11  1  0.84000624  0.28347975  0.00914703  1
  O  O12  1  0.26195360  0.35220550  0.17453080  1
  O  O13  1  0.47466549  0.06915643  0.33887890  1
