# generated using pymatgen
data_Li3TiAs6O7F3
_symmetry_space_group_name_H-M   'P 1'
_cell_length_a   7.04125959
_cell_length_b   6.86429996
_cell_length_c   8.24073657
_cell_angle_alpha   93.70802614
_cell_angle_beta   94.26801373
_cell_angle_gamma   93.67641936
_symmetry_Int_Tables_number   1
_chemical_formula_structural   Li3TiAs6O7F3
_chemical_formula_sum   'Li3 Ti1 As6 O7 F3'
_cell_volume   395.41394904
_cell_formula_units_Z   1
loop_
 _symmetry_equiv_pos_site_id
 _symmetry_equiv_pos_as_xyz
  1  'x, y, z'
loop_
 _atom_site_type_symbol
 _atom_site_label
 _atom_site_symmetry_multiplicity
 _atom_site_fract_x
 _atom_site_fract_y
 _atom_site_fract_z
 _atom_site_occupancy
  Li  Li0  1  0.12500000  0.00000000  0.25000000  1
  Li  Li1  1  0.00000000  0.00000000  0.00000000  1
  Li  Li2  1  0.37500000  0.00000000  0.25000000  1
  F  F3  1  0.25000000  0.25000000  0.25000000  1
  F  F4  1  0.00000000  0.25000000  0.12500000  1
  F  F5  1  0.07626831  0.27747468  0.98808197  1
  Ti  Ti6  1  0.74829688  0.69810711  0.15311712  1
  As  As7  1  0.65334220  0.50875302  0.13927469  1
  As  As8  1  0.03405790  0.03831156  0.71800544  1
  As  As9  1  0.66903697  0.29945923  0.84605968  1
  As  As10  1  0.86869068  0.73742319  0.56285258  1
  As  As11  1  0.17558510  0.12496908  0.97431548  1
  As  As12  1  0.79369000  0.24082530  0.71081312  1
  O  O13  1  0.79198645  0.45963905  0.79204986  1
  O  O14  1  0.72058389  0.13202628  0.79072317  1
  O  O15  1  0.02809010  0.62916040  0.57512547  1
  O  O16  1  0.28946528  0.65796405  0.43788626  1
  O  O17  1  0.80010268  0.09514787  0.43581418  1
  O  O18  1  0.68173792  0.16919613  0.08132646  1
  O  O19  1  0.72295256  0.48740921  0.26452504  1
