# generated using pymatgen
data_Li2Mn2Sb4P3
_symmetry_space_group_name_H-M   'P 1'
_cell_length_a   6.18247766
_cell_length_b   6.71296136
_cell_length_c   7.40324607
_cell_angle_alpha   93.66772735
_cell_angle_beta   94.34476194
_cell_angle_gamma   94.17432658
_symmetry_Int_Tables_number   1
_chemical_formula_structural   Li2Mn2Sb4P3
_chemical_formula_sum   'Li2 Mn2 Sb4 P3'
_cell_volume   304.81246937
_cell_formula_units_Z   1
loop_
 _symmetry_equiv_pos_site_id
 _symmetry_equiv_pos_as_xyz
  1  'x, y, z'
loop_
 _atom_site_type_symbol
 _atom_site_label
 _atom_site_symmetry_multiplicity
 _atom_site_fract_x
 _atom_site_fract_y
 _atom_site_fract_z
 _atom_site_occupancy
  Mn  Mn0  1  0.12500000  0.00000000  0.25000000  1
  Mn  Mn1  1  0.00000000  0.00000000  0.00000000  1
  Sb  Sb2  1  0.37500000  0.00000000  0.25000000  1
  Sb  Sb3  1  0.25000000  0.25000000  0.25000000  1
  Sb  Sb4  1  0.00000000  0.25000000  0.12500000  1
  Sb  Sb5  1  0.88647511  0.74238143  0.31128578  1
  P  P6  1  0.40352430  0.14882507  0.78483395  1
  P  P7  1  0.80063005  0.63735304  0.36902089  1
  P  P8  1  0.40938725  0.60700628  0.31301344  1
  Li  Li9  1  0.76358115  0.99969875  0.39110103  1
  Li  Li10  1  0.04361955  0.46148472  0.34929097  1
