# generated using pymatgen
data_Li2LuTiI4
_symmetry_space_group_name_H-M   'P 1'
_cell_length_a   7.60707856
_cell_length_b   7.49533849
_cell_length_c   7.66125351
_cell_angle_alpha   92.24844035
_cell_angle_beta   93.27026051
_cell_angle_gamma   92.24619662
_symmetry_Int_Tables_number   1
_chemical_formula_structural   Li2LuTiI4
_chemical_formula_sum   'Li2 Lu1 Ti1 I4'
_cell_volume   435.40341404
_cell_formula_units_Z   1
loop_
 _symmetry_equiv_pos_site_id
 _symmetry_equiv_pos_as_xyz
  1  'x, y, z'
loop_
 _atom_site_type_symbol
 _atom_site_label
 _atom_site_symmetry_multiplicity
 _atom_site_fract_x
 _atom_site_fract_y
 _atom_site_fract_z
 _atom_site_occupancy
  Ti  Ti0  1  0.00000000  0.00000000  0.00000000  1
  I  I1  1  0.33300000  0.66700000  0.25000000  1
  I  I2  1  0.66700000  0.33300000  0.50000000  1
  I  I3  1  0.00000000  0.00000000  0.75000000  1
  I  I4  1  0.63656978  0.84798922  0.71504049  1
  Li  Li5  1  0.57071720  0.69978825  0.85157220  1
  Li  Li6  1  0.70956406  0.94603897  0.44304575  1
  Lu  Lu7  1  0.02289956  0.80955550  0.68257801  1
