# generated using pymatgen
data_Li3TiI4O4F3
_symmetry_space_group_name_H-M   'P 1'
_cell_length_a   6.74209755
_cell_length_b   6.63293128
_cell_length_c   6.99708245
_cell_angle_alpha   94.14805134
_cell_angle_beta   95.77365417
_cell_angle_gamma   93.81327841
_symmetry_Int_Tables_number   1
_chemical_formula_structural   Li3TiI4O4F3
_chemical_formula_sum   'Li3 Ti1 I4 O4 F3'
_cell_volume   309.64625675
_cell_formula_units_Z   1
loop_
 _symmetry_equiv_pos_site_id
 _symmetry_equiv_pos_as_xyz
  1  'x, y, z'
loop_
 _atom_site_type_symbol
 _atom_site_label
 _atom_site_symmetry_multiplicity
 _atom_site_fract_x
 _atom_site_fract_y
 _atom_site_fract_z
 _atom_site_occupancy
  I  I0  1  0.12500000  0.00000000  0.25000000  1
  I  I1  1  0.00000000  0.00000000  0.00000000  1
  I  I2  1  0.37500000  0.00000000  0.25000000  1
  I  I3  1  0.25000000  0.25000000  0.25000000  1
  Li  Li4  1  0.00000000  0.25000000  0.12500000  1
  Li  Li5  1  0.92559188  0.26522823  0.60045903  1
  Li  Li6  1  0.52687315  0.39889959  0.94414551  1
  F  F7  1  0.84708136  0.58899740  0.59253694  1
  F  F8  1  0.52027142  0.75529541  0.58646415  1
  F  F9  1  0.71060477  0.14906254  0.61453098  1
  Ti  Ti10  1  0.25736269  0.63303747  0.03340467  1
  O  O11  1  0.61492619  0.93093877  0.16833244  1
  O  O12  1  0.59732971  0.93480379  0.86107033  1
  O  O13  1  0.46932662  0.92909989  0.54762297  1
  O  O14  1  0.91707747  0.10164414  0.08663410  1
