# generated using pymatgen
data_LiLuCu2(I2F)2
_symmetry_space_group_name_H-M   'P 1'
_cell_length_a   7.17039638
_cell_length_b   7.09191657
_cell_length_c   8.13416452
_cell_angle_alpha   92.69192436
_cell_angle_beta   93.96810067
_cell_angle_gamma   93.02194697
_symmetry_Int_Tables_number   1
_chemical_formula_structural   LiLuCu2(I2F)2
_chemical_formula_sum   'Li1 Lu1 Cu2 I4 F2'
_cell_volume   411.53974290
_cell_formula_units_Z   1
loop_
 _symmetry_equiv_pos_site_id
 _symmetry_equiv_pos_as_xyz
  1  'x, y, z'
loop_
 _atom_site_type_symbol
 _atom_site_label
 _atom_site_symmetry_multiplicity
 _atom_site_fract_x
 _atom_site_fract_y
 _atom_site_fract_z
 _atom_site_occupancy
  I  I0  1  0.12500000  0.00000000  0.25000000  1
  I  I1  1  0.00000000  0.00000000  0.00000000  1
  I  I2  1  0.37500000  0.00000000  0.25000000  1
  I  I3  1  0.25000000  0.25000000  0.25000000  1
  Lu  Lu4  1  0.00000000  0.25000000  0.12500000  1
  Li  Li5  1  0.23980531  0.03310308  0.72003395  1
  Cu  Cu6  1  0.63937596  0.31567718  0.29040886  1
  Cu  Cu7  1  0.96794305  0.56647009  0.66682548  1
  F  F8  1  0.42436870  0.96137497  0.59459081  1
  F  F9  1  0.09718071  0.46852607  0.52676881  1
