# generated using pymatgen
data_Li3LuTi2O4F3
_symmetry_space_group_name_H-M   'P 1'
_cell_length_a   6.37363901
_cell_length_b   6.11418105
_cell_length_c   7.52361233
_cell_angle_alpha   97.04301250
_cell_angle_beta   98.74891775
_cell_angle_gamma   96.77545747
_symmetry_Int_Tables_number   1
_chemical_formula_structural   Li3LuTi2O4F3
_chemical_formula_sum   'Li3 Lu1 Ti2 O4 F3'
_cell_volume   284.79048591
_cell_formula_units_Z   1
loop_
 _symmetry_equiv_pos_site_id
 _symmetry_equiv_pos_as_xyz
  1  'x, y, z'
loop_
 _atom_site_type_symbol
 _atom_site_label
 _atom_site_symmetry_multiplicity
 _atom_site_fract_x
 _atom_site_fract_y
 _atom_site_fract_z
 _atom_site_occupancy
  Lu  Lu0  1  0.00000000  0.00000000  0.00000000  1
  Li  Li1  1  0.50000000  0.50000000  0.50000000  1
  Li  Li2  1  0.50000000  0.50000000  0.00000000  1
  Li  Li3  1  0.50000000  0.00000000  0.50000000  1
  F  F4  1  0.00000000  0.50000000  0.50000000  1
  F  F5  1  0.70710460  0.90380659  0.39280816  1
  F  F6  1  0.54359466  0.94830453  0.77747582  1
  Ti  Ti7  1  0.74552373  0.16090580  0.02055322  1
  Ti  Ti8  1  0.51829484  0.98273315  0.07960655  1
  O  O9  1  0.97781128  0.53682803  0.19975682  1
  O  O10  1  0.08091071  0.50678267  0.61713435  1
  O  O11  1  0.29696617  0.42292301  0.97997446  1
  O  O12  1  0.01956523  0.83216087  0.33625757  1
