# generated using pymatgen
data_Li2TiCu2(SO)2
_symmetry_space_group_name_H-M   'P 1'
_cell_length_a   5.86894333
_cell_length_b   5.69931958
_cell_length_c   6.86697666
_cell_angle_alpha   98.00543766
_cell_angle_beta   101.16448090
_cell_angle_gamma   98.19295570
_symmetry_Int_Tables_number   1
_chemical_formula_structural   Li2TiCu2(SO)2
_chemical_formula_sum   'Li2 Ti1 Cu2 S2 O2'
_cell_volume   219.72902757
_cell_formula_units_Z   1
loop_
 _symmetry_equiv_pos_site_id
 _symmetry_equiv_pos_as_xyz
  1  'x, y, z'
loop_
 _atom_site_type_symbol
 _atom_site_label
 _atom_site_symmetry_multiplicity
 _atom_site_fract_x
 _atom_site_fract_y
 _atom_site_fract_z
 _atom_site_occupancy
  Li  Li0  1  0.00000000  0.00000000  0.00000000  1
  Li  Li1  1  0.50000000  0.50000000  0.50000000  1
  Cu  Cu2  1  0.25000000  0.25000000  0.25000000  1
  Cu  Cu3  1  0.75000000  0.25000000  0.00000000  1
  S  S4  1  0.25000000  0.75000000  0.50000000  1
  S  S5  1  0.99676563  0.07173445  0.37534320  1
  Ti  Ti6  1  0.81335685  0.95553834  0.32393758  1
  O  O7  1  0.89906668  0.74405433  0.61925138  1
  O  O8  1  0.35884189  0.30165780  0.84696399  1
