# generated using pymatgen
data_Li2Cu2As6O4F3
_symmetry_space_group_name_H-M   'P 1'
_cell_length_a   7.36018455
_cell_length_b   7.30034903
_cell_length_c   8.01320794
_cell_angle_alpha   91.66877713
_cell_angle_beta   92.94490421
_cell_angle_gamma   91.64492668
_symmetry_Int_Tables_number   1
_chemical_formula_structural   Li2Cu2As6O4F3
_chemical_formula_sum   'Li2 Cu2 As6 O4 F3'
_cell_volume   429.61728674
_cell_formula_units_Z   1
loop_
 _symmetry_equiv_pos_site_id
 _symmetry_equiv_pos_as_xyz
  1  'x, y, z'
loop_
 _atom_site_type_symbol
 _atom_site_label
 _atom_site_symmetry_multiplicity
 _atom_site_fract_x
 _atom_site_fract_y
 _atom_site_fract_z
 _atom_site_occupancy
  F  F0  1  0.00000000  0.00000000  0.00000000  1
  F  F1  1  0.50000000  0.50000000  0.50000000  1
  F  F2  1  0.25000000  0.25000000  0.25000000  1
  O  O3  1  0.75000000  0.25000000  0.00000000  1
  O  O4  1  0.25000000  0.75000000  0.50000000  1
  O  O5  1  0.31898415  0.95986293  0.22150409  1
  O  O6  1  0.01100758  0.37609814  0.37626418  1
  As  As7  1  0.91450262  0.61020884  0.33671291  1
  As  As8  1  0.37356201  0.72302472  0.72015518  1
  As  As9  1  0.38744241  0.72083892  0.32717910  1
  As  As10  1  0.41808014  0.57102142  0.67348231  1
  As  As11  1  0.79617778  0.82688755  0.33115085  1
  As  As12  1  0.89814421  0.91045932  0.83845526  1
  Li  Li13  1  0.72516997  0.56755466  0.15633658  1
  Li  Li14  1  0.42513326  0.94181594  0.99262555  1
  Cu  Cu15  1  0.44720740  0.70012154  0.02186407  1
  Cu  Cu16  1  0.57578282  0.87615480  0.41688492  1
