# generated using pymatgen
data_Li2Cu2Ni2As6O7
_symmetry_space_group_name_H-M   'P 1'
_cell_length_a   7.52154558
_cell_length_b   7.59357534
_cell_length_c   8.44627380
_cell_angle_alpha   90.85543698
_cell_angle_beta   91.98813851
_cell_angle_gamma   90.98584507
_symmetry_Int_Tables_number   1
_chemical_formula_structural   Li2Cu2Ni2As6O7
_chemical_formula_sum   'Li2 Cu2 Ni2 As6 O7'
_cell_volume   481.99254204
_cell_formula_units_Z   1
loop_
 _symmetry_equiv_pos_site_id
 _symmetry_equiv_pos_as_xyz
  1  'x, y, z'
loop_
 _atom_site_type_symbol
 _atom_site_label
 _atom_site_symmetry_multiplicity
 _atom_site_fract_x
 _atom_site_fract_y
 _atom_site_fract_z
 _atom_site_occupancy
  Li  Li0  1  0.12500000  0.00000000  0.25000000  1
  Li  Li1  1  0.00000000  0.00000000  0.00000000  1
  Cu  Cu2  1  0.37500000  0.00000000  0.25000000  1
  Cu  Cu3  1  0.25000000  0.25000000  0.25000000  1
  Ni  Ni4  1  0.00000000  0.25000000  0.12500000  1
  Ni  Ni5  1  0.06562429  0.74673721  0.17868493  1
  As  As6  1  0.25327620  0.45550741  0.54192138  1
  As  As7  1  0.79942698  0.79826865  0.35797261  1
  As  As8  1  0.76727805  0.57360817  0.37509322  1
  As  As9  1  0.91139102  0.58121885  0.75799711  1
  As  As10  1  0.82207499  0.56764094  0.40230821  1
  As  As11  1  0.00526305  0.28359477  0.25796263  1
  O  O12  1  0.62765010  0.95116984  0.64385471  1
  O  O13  1  0.84600076  0.49628522  0.47258704  1
  O  O14  1  0.02306099  0.34048996  0.83871997  1
  O  O15  1  0.16341214  0.32457549  0.77995871  1
  O  O16  1  0.71638076  0.12456676  0.23985700  1
  O  O17  1  0.31459072  0.87425686  0.54271839  1
  O  O18  1  0.73272668  0.83501877  0.24021094  1
