# generated using pymatgen
data_Li3Ti2P4SeO4
_symmetry_space_group_name_H-M   'P 1'
_cell_length_a   5.39404906
_cell_length_b   5.21275360
_cell_length_c   7.11800166
_cell_angle_alpha   102.75144934
_cell_angle_beta   106.34328404
_cell_angle_gamma   102.01120402
_symmetry_Int_Tables_number   1
_chemical_formula_structural   Li3Ti2P4SeO4
_chemical_formula_sum   'Li3 Ti2 P4 Se1 O4'
_cell_volume   179.34225220
_cell_formula_units_Z   1
loop_
 _symmetry_equiv_pos_site_id
 _symmetry_equiv_pos_as_xyz
  1  'x, y, z'
loop_
 _atom_site_type_symbol
 _atom_site_label
 _atom_site_symmetry_multiplicity
 _atom_site_fract_x
 _atom_site_fract_y
 _atom_site_fract_z
 _atom_site_occupancy
  P  P0  1  0.12500000  0.00000000  0.25000000  1
  P  P1  1  0.00000000  0.00000000  0.00000000  1
  P  P2  1  0.37500000  0.00000000  0.25000000  1
  P  P3  1  0.25000000  0.25000000  0.25000000  1
  Li  Li4  1  0.00000000  0.25000000  0.12500000  1
  Li  Li5  1  0.13802976  0.21510986  0.06150335  1
  Li  Li6  1  0.36064345  0.20276372  0.04749025  1
  Se  Se7  1  0.22631310  0.60878616  0.78835144  1
  Ti  Ti8  1  0.96851157  0.08183863  0.65678461  1
  Ti  Ti9  1  0.29354019  0.92845987  0.44445473  1
  O  O10  1  0.03823091  0.63666922  0.06363832  1
  O  O11  1  0.32762318  0.24510331  0.76451252  1
  O  O12  1  0.96525087  0.14260120  0.91373362  1
  O  O13  1  0.31023728  0.20047835  0.34396051  1
