# generated using pymatgen
data_Li2LuCu2(NiP2)2
_symmetry_space_group_name_H-M   'P 1'
_cell_length_a   7.59982295
_cell_length_b   7.40096525
_cell_length_c   8.02064018
_cell_angle_alpha   91.43111573
_cell_angle_beta   91.59924472
_cell_angle_gamma   91.59074296
_symmetry_Int_Tables_number   1
_chemical_formula_structural   Li2LuCu2(NiP2)2
_chemical_formula_sum   'Li2 Lu1 Cu2 Ni2 P4'
_cell_volume   450.62991658
_cell_formula_units_Z   1
loop_
 _symmetry_equiv_pos_site_id
 _symmetry_equiv_pos_as_xyz
  1  'x, y, z'
loop_
 _atom_site_type_symbol
 _atom_site_label
 _atom_site_symmetry_multiplicity
 _atom_site_fract_x
 _atom_site_fract_y
 _atom_site_fract_z
 _atom_site_occupancy
  P  P0  1  0.12500000  0.00000000  0.25000000  1
  P  P1  1  0.00000000  0.00000000  0.00000000  1
  P  P2  1  0.37500000  0.00000000  0.25000000  1
  P  P3  1  0.25000000  0.25000000  0.25000000  1
  Lu  Lu4  1  0.00000000  0.25000000  0.12500000  1
  Li  Li5  1  0.00822936  0.60756722  0.21690938  1
  Li  Li6  1  0.25793956  0.38637262  0.88115421  1
  Cu  Cu7  1  0.92387495  0.13093609  0.63925835  1
  Cu  Cu8  1  0.03544368  0.61817579  0.31240330  1
  Ni  Ni9  1  0.56991362  0.44292784  0.72386873  1
  Ni  Ni10  1  0.90964928  0.56917372  0.70045554  1
