# generated using pymatgen
data_Li2LuCu2P4F2
_symmetry_space_group_name_H-M   'P 1'
_cell_length_a   7.02848332
_cell_length_b   6.93304552
_cell_length_c   7.63236694
_cell_angle_alpha   93.46916818
_cell_angle_beta   94.55664917
_cell_angle_gamma   93.26057433
_symmetry_Int_Tables_number   1
_chemical_formula_structural   Li2LuCu2P4F2
_chemical_formula_sum   'Li2 Lu1 Cu2 P4 F2'
_cell_volume   369.34934372
_cell_formula_units_Z   1
loop_
 _symmetry_equiv_pos_site_id
 _symmetry_equiv_pos_as_xyz
  1  'x, y, z'
loop_
 _atom_site_type_symbol
 _atom_site_label
 _atom_site_symmetry_multiplicity
 _atom_site_fract_x
 _atom_site_fract_y
 _atom_site_fract_z
 _atom_site_occupancy
  P  P0  1  0.00000000  0.00000000  0.00000000  1
  P  P1  1  0.50000000  0.50000000  0.50000000  1
  P  P2  1  0.25000000  0.25000000  0.25000000  1
  P  P3  1  0.75000000  0.25000000  0.00000000  1
  Lu  Lu4  1  0.25000000  0.75000000  0.50000000  1
  Li  Li5  1  0.21732027  0.71620412  0.56496877  1
  Li  Li6  1  0.88319237  0.18735169  0.19945096  1
  Cu  Cu7  1  0.04789347  0.52360650  0.09516460  1
  Cu  Cu8  1  0.05512298  0.54064249  0.05670509  1
  F  F9  1  0.30992913  0.59969527  0.37822346  1
  F  F10  1  0.55760986  0.21609473  0.54836635  1
