# generated using pymatgen
data_Li2TiI4O3
_symmetry_space_group_name_H-M   'P 1'
_cell_length_a   8.54459585
_cell_length_b   8.40850389
_cell_length_c   7.42746196
_cell_angle_alpha   90.11179905
_cell_angle_beta   90.53190595
_cell_angle_gamma   90.12781617
_symmetry_Int_Tables_number   1
_chemical_formula_structural   Li2TiI4O3
_chemical_formula_sum   'Li2 Ti1 I4 O3'
_cell_volume   533.61748495
_cell_formula_units_Z   1
loop_
 _symmetry_equiv_pos_site_id
 _symmetry_equiv_pos_as_xyz
  1  'x, y, z'
loop_
 _atom_site_type_symbol
 _atom_site_label
 _atom_site_symmetry_multiplicity
 _atom_site_fract_x
 _atom_site_fract_y
 _atom_site_fract_z
 _atom_site_occupancy
  I  I0  1  0.12500000  0.00000000  0.25000000  1
  I  I1  1  0.00000000  0.00000000  0.00000000  1
  I  I2  1  0.37500000  0.00000000  0.25000000  1
  I  I3  1  0.25000000  0.25000000  0.25000000  1
  Li  Li4  1  0.00000000  0.25000000  0.12500000  1
  Li  Li5  1  0.48270377  0.14902513  0.54724011  1
  Ti  Ti6  1  0.43292828  0.37333881  0.17747406  1
  O  O7  1  0.44949976  0.85874784  0.65789330  1
  O  O8  1  0.28664832  0.19434713  0.91622632  1
  O  O9  1  0.07916266  0.47590790  0.89642185  1
