# generated using pymatgen
data_Li2LuCu2(As3P2)2
_symmetry_space_group_name_H-M   'P 1'
_cell_length_a   7.62501632
_cell_length_b   7.43843281
_cell_length_c   8.01415012
_cell_angle_alpha   91.29603281
_cell_angle_beta   91.65028014
_cell_angle_gamma   91.40567444
_symmetry_Int_Tables_number   1
_chemical_formula_structural   Li2LuCu2(As3P2)2
_chemical_formula_sum   'Li2 Lu1 Cu2 As6 P4'
_cell_volume   454.09892505
_cell_formula_units_Z   1
loop_
 _symmetry_equiv_pos_site_id
 _symmetry_equiv_pos_as_xyz
  1  'x, y, z'
loop_
 _atom_site_type_symbol
 _atom_site_label
 _atom_site_symmetry_multiplicity
 _atom_site_fract_x
 _atom_site_fract_y
 _atom_site_fract_z
 _atom_site_occupancy
  P  P0  1  0.00000000  0.00000000  0.00000000  1
  P  P1  1  0.50000000  0.50000000  0.50000000  1
  P  P2  1  0.25000000  0.25000000  0.25000000  1
  P  P3  1  0.75000000  0.25000000  0.00000000  1
  Lu  Lu4  1  0.25000000  0.75000000  0.50000000  1
  Li  Li5  1  0.88268738  0.63352709  0.24444388  1
  Li  Li6  1  0.79608306  0.09624096  0.79605897  1
  Cu  Cu7  1  0.48955803  0.35968227  0.66392665  1
  Cu  Cu8  1  0.95829422  0.94949775  0.85101293  1
  As  As9  1  0.97809463  0.29862971  0.27538967  1
  As  As10  1  0.99052298  0.24035459  0.81461594  1
  As  As11  1  0.10840940  0.22221186  0.33290613  1
  As  As12  1  0.31725603  0.06127524  0.12587809  1
  As  As13  1  0.87685901  0.94277696  0.95643817  1
  As  As14  1  0.37650428  0.29847710  0.18714671  1
