# generated using pymatgen
data_Li3TiSeO4F3
_symmetry_space_group_name_H-M   'P 1'
_cell_length_a   5.95937919
_cell_length_b   5.69053599
_cell_length_c   6.92337559
_cell_angle_alpha   101.14509475
_cell_angle_beta   104.39271556
_cell_angle_gamma   100.45403938
_symmetry_Int_Tables_number   1
_chemical_formula_structural   Li3TiSeO4F3
_chemical_formula_sum   'Li3 Ti1 Se1 O4 F3'
_cell_volume   216.52473571
_cell_formula_units_Z   1
loop_
 _symmetry_equiv_pos_site_id
 _symmetry_equiv_pos_as_xyz
  1  'x, y, z'
loop_
 _atom_site_type_symbol
 _atom_site_label
 _atom_site_symmetry_multiplicity
 _atom_site_fract_x
 _atom_site_fract_y
 _atom_site_fract_z
 _atom_site_occupancy
  Li  Li0  1  0.00000000  0.00000000  0.00000000  1
  Li  Li1  1  0.50000000  0.50000000  0.50000000  1
  Li  Li2  1  0.50000000  0.50000000  0.00000000  1
  Se  Se3  1  0.50000000  0.00000000  0.50000000  1
  F  F4  1  0.00000000  0.50000000  0.50000000  1
  F  F5  1  0.06478549  0.69297548  0.76907827  1
  F  F6  1  0.97536638  0.95945496  0.10922964  1
  Ti  Ti7  1  0.42660711  0.20631323  0.57904827  1
  O  O8  1  0.09728664  0.58178095  0.32371291  1
  O  O9  1  0.16813156  0.06785791  0.48223344  1
  O  O10  1  0.85288408  0.16022207  0.96642389  1
  O  O11  1  0.42659619  0.33347776  0.17772297  1
