# generated using pymatgen
data_Li2LuZn2(PI)4
_symmetry_space_group_name_H-M   'P 1'
_cell_length_a   8.07567014
_cell_length_b   8.37566266
_cell_length_c   7.46098971
_cell_angle_alpha   91.58877204
_cell_angle_beta   91.88260988
_cell_angle_gamma   91.56848587
_symmetry_Int_Tables_number   1
_chemical_formula_structural   Li2LuZn2(PI)4
_chemical_formula_sum   'Li2 Lu1 Zn2 P4 I4'
_cell_volume   503.98618258
_cell_formula_units_Z   1
loop_
 _symmetry_equiv_pos_site_id
 _symmetry_equiv_pos_as_xyz
  1  'x, y, z'
loop_
 _atom_site_type_symbol
 _atom_site_label
 _atom_site_symmetry_multiplicity
 _atom_site_fract_x
 _atom_site_fract_y
 _atom_site_fract_z
 _atom_site_occupancy
  P  P0  1  0.00000000  0.00000000  0.00000000  1
  P  P1  1  0.50000000  0.50000000  0.50000000  1
  P  P2  1  0.25000000  0.25000000  0.25000000  1
  P  P3  1  0.75000000  0.25000000  0.00000000  1
  I  I4  1  0.25000000  0.75000000  0.50000000  1
  I  I5  1  0.76854777  0.12741296  0.93660707  1
  I  I6  1  0.80990082  0.77301360  0.83932772  1
  I  I7  1  0.76346397  0.32838863  0.75538789  1
  Lu  Lu8  1  0.63341643  0.38055370  0.14658512  1
  Li  Li9  1  0.94298163  0.84424018  0.42205037  1
  Li  Li10  1  0.63876432  0.23035853  0.39255055  1
  Zn  Zn11  1  0.27426603  0.36398759  0.73909151  1
  Zn  Zn12  1  0.73449502  0.61209844  0.13074587  1
