# generated using pymatgen
data_Li2Cu2Ni2As6O7
_symmetry_space_group_name_H-M   'P 1'
_cell_length_a   7.16945807
_cell_length_b   7.12136154
_cell_length_c   8.05588741
_cell_angle_alpha   94.40452905
_cell_angle_beta   95.14246843
_cell_angle_gamma   94.35582356
_symmetry_Int_Tables_number   1
_chemical_formula_structural   Li2Cu2Ni2As6O7
_chemical_formula_sum   'Li2 Cu2 Ni2 As6 O7'
_cell_volume   407.01502045
_cell_formula_units_Z   1
loop_
 _symmetry_equiv_pos_site_id
 _symmetry_equiv_pos_as_xyz
  1  'x, y, z'
loop_
 _atom_site_type_symbol
 _atom_site_label
 _atom_site_symmetry_multiplicity
 _atom_site_fract_x
 _atom_site_fract_y
 _atom_site_fract_z
 _atom_site_occupancy
  Li  Li0  1  0.00000000  0.00000000  0.00000000  1
  Li  Li1  1  0.50000000  0.50000000  0.50000000  1
  Cu  Cu2  1  0.25000000  0.25000000  0.25000000  1
  Cu  Cu3  1  0.75000000  0.25000000  0.00000000  1
  Ni  Ni4  1  0.25000000  0.75000000  0.50000000  1
  Ni  Ni5  1  0.02508997  0.71495875  0.33092109  1
  As  As6  1  0.80155630  0.17372148  0.01440705  1
  As  As7  1  0.46408247  0.06007985  0.82243710  1
  As  As8  1  0.70524223  0.55358516  0.37359655  1
  As  As9  1  0.49276251  0.74304622  0.63192951  1
  As  As10  1  0.88098653  0.95145989  0.54638264  1
  As  As11  1  0.83053450  0.18609611  0.26415337  1
  O  O12  1  0.52999178  0.33197815  0.11905954  1
  O  O13  1  0.76226623  0.79194430  0.87349386  1
  O  O14  1  0.08277185  0.09730949  0.92973268  1
  O  O15  1  0.42605113  0.36136855  0.62769953  1
  O  O16  1  0.15677539  0.18859902  0.42124517  1
  O  O17  1  0.76848580  0.87976705  0.67850924  1
  O  O18  1  0.10767142  0.32908832  0.57055092  1
