# generated using pymatgen
data_Li2Ti(PI)4
_symmetry_space_group_name_H-M   'P 1'
_cell_length_a   8.08639550
_cell_length_b   7.99571776
_cell_length_c   7.60230554
_cell_angle_alpha   91.96963700
_cell_angle_beta   92.33391449
_cell_angle_gamma   91.94448777
_symmetry_Int_Tables_number   1
_chemical_formula_structural   Li2Ti(PI)4
_chemical_formula_sum   'Li2 Ti1 P4 I4'
_cell_volume   490.53350577
_cell_formula_units_Z   1
loop_
 _symmetry_equiv_pos_site_id
 _symmetry_equiv_pos_as_xyz
  1  'x, y, z'
loop_
 _atom_site_type_symbol
 _atom_site_label
 _atom_site_symmetry_multiplicity
 _atom_site_fract_x
 _atom_site_fract_y
 _atom_site_fract_z
 _atom_site_occupancy
  Li  Li0  1  0.00000000  0.00000000  0.00000000  1
  Li  Li1  1  0.50000000  0.50000000  0.50000000  1
  Ti  Ti2  1  0.25000000  0.25000000  0.25000000  1
  I  I3  1  0.75000000  0.25000000  0.00000000  1
  I  I4  1  0.25000000  0.75000000  0.50000000  1
  I  I5  1  0.94940082  0.16166717  0.70570087  1
  I  I6  1  0.17154883  0.28253550  0.27193462  1
  P  P7  1  0.87388559  0.19535750  0.00067588  1
  P  P8  1  0.87131086  0.64028503  0.24849191  1
  P  P9  1  0.52066994  0.75631238  0.17938053  1
  P  P10  1  0.07789147  0.89829502  0.64367907  1
