# generated using pymatgen
data_Li3TiI4(OF)3
_symmetry_space_group_name_H-M   'P 1'
_cell_length_a   6.00187425
_cell_length_b   5.75718984
_cell_length_c   6.95003627
_cell_angle_alpha   99.77332677
_cell_angle_beta   102.96936700
_cell_angle_gamma   99.18794529
_symmetry_Int_Tables_number   1
_chemical_formula_structural   Li3TiI4(OF)3
_chemical_formula_sum   'Li3 Ti1 I4 O3 F3'
_cell_volume   225.68501794
_cell_formula_units_Z   1
loop_
 _symmetry_equiv_pos_site_id
 _symmetry_equiv_pos_as_xyz
  1  'x, y, z'
loop_
 _atom_site_type_symbol
 _atom_site_label
 _atom_site_symmetry_multiplicity
 _atom_site_fract_x
 _atom_site_fract_y
 _atom_site_fract_z
 _atom_site_occupancy
  I  I0  1  0.00000000  0.00000000  0.00000000  1
  I  I1  1  0.50000000  0.50000000  0.50000000  1
  I  I2  1  0.25000000  0.25000000  0.25000000  1
  I  I3  1  0.75000000  0.25000000  0.00000000  1
  Li  Li4  1  0.25000000  0.75000000  0.50000000  1
  Li  Li5  1  0.82497885  0.68425743  0.02691483  1
  Li  Li6  1  0.09024726  0.32371812  0.41405375  1
  F  F7  1  0.95843309  0.25844017  0.65742918  1
  F  F8  1  0.58740781  0.59041790  0.82420120  1
  F  F9  1  0.18426706  0.30821040  0.00279478  1
  Ti  Ti10  1  0.46081408  0.99511757  0.71929448  1
  O  O11  1  0.53279065  0.37898306  0.49185612  1
  O  O12  1  0.63209572  0.46331018  0.38592709  1
  O  O13  1  0.82070723  0.25249852  0.92563443  1
