# generated using pymatgen
data_Li4Ni2P8Se
_symmetry_space_group_name_H-M   'P 1'
_cell_length_a   6.17064702
_cell_length_b   5.81661919
_cell_length_c   7.70563650
_cell_angle_alpha   100.41553680
_cell_angle_beta   103.29824829
_cell_angle_gamma   99.79806091
_symmetry_Int_Tables_number   1
_chemical_formula_structural   Li4Ni2P8Se
_chemical_formula_sum   'Li4 Ni2 P8 Se1'
_cell_volume   258.16194405
_cell_formula_units_Z   1
loop_
 _symmetry_equiv_pos_site_id
 _symmetry_equiv_pos_as_xyz
  1  'x, y, z'
loop_
 _atom_site_type_symbol
 _atom_site_label
 _atom_site_symmetry_multiplicity
 _atom_site_fract_x
 _atom_site_fract_y
 _atom_site_fract_z
 _atom_site_occupancy
  P  P0  1  0.00000000  0.00000000  0.00000000  1
  P  P1  1  0.50000000  0.50000000  0.50000000  1
  P  P2  1  0.50000000  0.50000000  0.00000000  1
  P  P3  1  0.50000000  0.00000000  0.50000000  1
  P  P4  1  0.00000000  0.50000000  0.50000000  1
  P  P5  1  0.33886528  0.26174096  0.26279294  1
  P  P6  1  0.27217388  0.49730272  0.94121598  1
  P  P7  1  0.66259424  0.84361038  0.81748096  1
  Li  Li8  1  0.05103921  0.09117469  0.07933784  1
  Li  Li9  1  0.42648585  0.29379217  0.90579867  1
  Li  Li10  1  0.86662952  0.87478970  0.60540369  1
  Li  Li11  1  0.43931346  0.30583116  0.18134503  1
  Se  Se12  1  0.84586058  0.20429506  0.95801522  1
  Ni  Ni13  1  0.39896249  0.38894687  0.53949239  1
  Ni  Ni14  1  0.96061869  0.60464187  0.56886478  1
