# generated using pymatgen
data_LiTiI2O2F
_symmetry_space_group_name_H-M   'P 1'
_cell_length_a   6.11310400
_cell_length_b   5.98939336
_cell_length_c   7.51327398
_cell_angle_alpha   97.41554079
_cell_angle_beta   100.75819641
_cell_angle_gamma   97.31076257
_symmetry_Int_Tables_number   1
_chemical_formula_structural   LiTiI2O2F
_chemical_formula_sum   'Li2 Ti2 I4 O4 F2'
_cell_volume   264.74041790
_cell_formula_units_Z   2
loop_
 _symmetry_equiv_pos_site_id
 _symmetry_equiv_pos_as_xyz
  1  'x, y, z'
loop_
 _atom_site_type_symbol
 _atom_site_label
 _atom_site_symmetry_multiplicity
 _atom_site_fract_x
 _atom_site_fract_y
 _atom_site_fract_z
 _atom_site_occupancy
  I  I0  1  0.00000000  0.00000000  0.00000000  1
  I  I1  1  0.50000000  0.50000000  0.50000000  1
  I  I2  1  0.50000000  0.50000000  0.00000000  1
  I  I3  1  0.50000000  0.00000000  0.50000000  1
  Li  Li4  1  0.00000000  0.50000000  0.50000000  1
  Li  Li5  1  0.48596108  0.10532035  0.19555054  1
  F  F6  1  0.61646389  0.36887587  0.96680747  1
  F  F7  1  0.85720119  0.14321486  0.12236846  1
  Ti  Ti8  1  0.36846966  0.87433795  0.30458348  1
  Ti  Ti9  1  0.92278683  0.77446501  0.22550934  1
  O  O10  1  0.21724343  0.04406149  0.79756674  1
  O  O11  1  0.07886341  0.25500790  0.75183414  1
  O  O12  1  0.65623040  0.76615603  0.83291248  1
  O  O13  1  0.79911275  0.18538782  0.80415895  1
