# generated using pymatgen
data_Li3Ti(OF)3
_symmetry_space_group_name_H-M   'P 1'
_cell_length_a   5.62400046
_cell_length_b   5.33776562
_cell_length_c   6.94422503
_cell_angle_alpha   101.47372475
_cell_angle_beta   105.19093916
_cell_angle_gamma   100.78443071
_symmetry_Int_Tables_number   1
_chemical_formula_structural   Li3Ti(OF)3
_chemical_formula_sum   'Li3 Ti1 O3 F3'
_cell_volume   190.74636080
_cell_formula_units_Z   1
loop_
 _symmetry_equiv_pos_site_id
 _symmetry_equiv_pos_as_xyz
  1  'x, y, z'
loop_
 _atom_site_type_symbol
 _atom_site_label
 _atom_site_symmetry_multiplicity
 _atom_site_fract_x
 _atom_site_fract_y
 _atom_site_fract_z
 _atom_site_occupancy
  Li  Li0  1  0.00000000  0.00000000  0.00000000  1
  Li  Li1  1  0.50000000  0.50000000  0.50000000  1
  Li  Li2  1  0.25000000  0.25000000  0.25000000  1
  F  F3  1  0.75000000  0.25000000  0.00000000  1
  F  F4  1  0.25000000  0.75000000  0.50000000  1
  F  F5  1  0.10771590  0.82572016  0.84365675  1
  Ti  Ti6  1  0.06351081  0.33074115  0.86430948  1
  O  O7  1  0.41966774  0.21637322  0.06055203  1
  O  O8  1  0.80856292  0.77633925  0.70535790  1
  O  O9  1  0.86539324  0.27953380  0.18142721  1
