# generated using pymatgen
data_Li2TiCu2P3F2
_symmetry_space_group_name_H-M   'P 1'
_cell_length_a   6.20778808
_cell_length_b   6.02743465
_cell_length_c   6.97936980
_cell_angle_alpha   95.15486943
_cell_angle_beta   97.33580118
_cell_angle_gamma   94.63972635
_symmetry_Int_Tables_number   1
_chemical_formula_structural   Li2TiCu2P3F2
_chemical_formula_sum   'Li2 Ti1 Cu2 P3 F2'
_cell_volume   256.83211395
_cell_formula_units_Z   1
loop_
 _symmetry_equiv_pos_site_id
 _symmetry_equiv_pos_as_xyz
  1  'x, y, z'
loop_
 _atom_site_type_symbol
 _atom_site_label
 _atom_site_symmetry_multiplicity
 _atom_site_fract_x
 _atom_site_fract_y
 _atom_site_fract_z
 _atom_site_occupancy
  P  P0  1  0.00000000  0.00000000  0.00000000  1
  P  P1  1  0.50000000  0.50000000  0.50000000  1
  P  P2  1  0.25000000  0.25000000  0.25000000  1
  Li  Li3  1  0.75000000  0.25000000  0.00000000  1
  Li  Li4  1  0.25000000  0.75000000  0.50000000  1
  Cu  Cu5  1  0.27046546  0.86777513  0.26119838  1
  Cu  Cu6  1  0.71370738  0.88378286  0.12217994  1
  F  F7  1  0.11405822  0.33822200  0.78019914  1
  F  F8  1  0.04719992  0.29020941  0.65448950  1
  Ti  Ti9  1  0.82330548  0.51472678  0.91652054  1
