# generated using pymatgen
data_Li2LuCu2(As3P2)2
_symmetry_space_group_name_H-M   'P 1'
_cell_length_a   7.37351085
_cell_length_b   7.17091234
_cell_length_c   8.17378595
_cell_angle_alpha   92.69698957
_cell_angle_beta   92.47400957
_cell_angle_gamma   92.87091120
_symmetry_Int_Tables_number   1
_chemical_formula_structural   Li2LuCu2(As3P2)2
_chemical_formula_sum   'Li2 Lu1 Cu2 As6 P4'
_cell_volume   430.71763986
_cell_formula_units_Z   1
loop_
 _symmetry_equiv_pos_site_id
 _symmetry_equiv_pos_as_xyz
  1  'x, y, z'
loop_
 _atom_site_type_symbol
 _atom_site_label
 _atom_site_symmetry_multiplicity
 _atom_site_fract_x
 _atom_site_fract_y
 _atom_site_fract_z
 _atom_site_occupancy
  P  P0  1  0.00000000  0.00000000  0.00000000  1
  P  P1  1  0.50000000  0.50000000  0.50000000  1
  P  P2  1  0.50000000  0.50000000  0.00000000  1
  P  P3  1  0.50000000  0.00000000  0.50000000  1
  Lu  Lu4  1  0.00000000  0.50000000  0.50000000  1
  Li  Li5  1  0.06921356  0.61085646  0.87995413  1
  Li  Li6  1  0.02071465  0.29792873  0.53426514  1
  Cu  Cu7  1  0.04940545  0.18364805  0.39606825  1
  Cu  Cu8  1  0.15480234  0.70289153  0.97794915  1
  As  As9  1  0.44440753  0.26664087  0.20726023  1
  As  As10  1  0.28199643  0.93203156  0.43105425  1
  As  As11  1  0.00114341  0.44674121  0.12950153  1
  As  As12  1  0.47824596  0.82859607  0.88458965  1
  As  As13  1  0.14497071  0.40814450  0.08665874  1
  As  As14  1  0.22810581  0.25117107  0.91966766  1
