# generated using pymatgen
data_Li2TiI4(OF)3
_symmetry_space_group_name_H-M   'P 1'
_cell_length_a   7.97417644
_cell_length_b   7.73745597
_cell_length_c   7.24189015
_cell_angle_alpha   91.58192285
_cell_angle_beta   92.20187136
_cell_angle_gamma   91.45425207
_symmetry_Int_Tables_number   1
_chemical_formula_structural   Li2TiI4(OF)3
_chemical_formula_sum   'Li2 Ti1 I4 O3 F3'
_cell_volume   446.16700422
_cell_formula_units_Z   1
loop_
 _symmetry_equiv_pos_site_id
 _symmetry_equiv_pos_as_xyz
  1  'x, y, z'
loop_
 _atom_site_type_symbol
 _atom_site_label
 _atom_site_symmetry_multiplicity
 _atom_site_fract_x
 _atom_site_fract_y
 _atom_site_fract_z
 _atom_site_occupancy
  I  I0  1  0.12500000  0.00000000  0.25000000  1
  I  I1  1  0.00000000  0.00000000  0.00000000  1
  I  I2  1  0.37500000  0.00000000  0.25000000  1
  I  I3  1  0.25000000  0.25000000  0.25000000  1
  Li  Li4  1  0.00000000  0.25000000  0.12500000  1
  Li  Li5  1  0.28369949  0.65327695  0.48602585  1
  F  F6  1  0.80614914  0.48793357  0.67777994  1
  F  F7  1  0.55905696  0.25254083  0.36559061  1
  F  F8  1  0.41645643  0.34288246  0.14495067  1
  Ti  Ti9  1  0.38617566  0.92991875  0.23731368  1
  O  O10  1  0.55207244  0.88329211  0.43755877  1
  O  O11  1  0.74995163  0.36064074  0.91782375  1
  O  O12  1  0.12354722  0.13548299  0.65792920  1
