# generated using pymatgen
data_Li2TiCu2(NiP2)2
_symmetry_space_group_name_H-M   'P 1'
_cell_length_a   7.38320667
_cell_length_b   7.22726720
_cell_length_c   7.97222455
_cell_angle_alpha   91.43387551
_cell_angle_beta   91.49864744
_cell_angle_gamma   91.42705587
_symmetry_Int_Tables_number   1
_chemical_formula_structural   Li2TiCu2(NiP2)2
_chemical_formula_sum   'Li2 Ti1 Cu2 Ni2 P4'
_cell_volume   424.98341877
_cell_formula_units_Z   1
loop_
 _symmetry_equiv_pos_site_id
 _symmetry_equiv_pos_as_xyz
  1  'x, y, z'
loop_
 _atom_site_type_symbol
 _atom_site_label
 _atom_site_symmetry_multiplicity
 _atom_site_fract_x
 _atom_site_fract_y
 _atom_site_fract_z
 _atom_site_occupancy
  P  P0  1  0.00000000  0.00000000  0.00000000  1
  P  P1  1  0.50000000  0.50000000  0.50000000  1
  P  P2  1  0.25000000  0.25000000  0.25000000  1
  P  P3  1  0.75000000  0.25000000  0.00000000  1
  Li  Li4  1  0.25000000  0.75000000  0.50000000  1
  Li  Li5  1  0.04378378  0.91858564  0.98918553  1
  Cu  Cu6  1  0.25510414  0.16730199  0.86861414  1
  Cu  Cu7  1  0.71700797  0.28973497  0.76562010  1
  Ni  Ni8  1  0.98821878  0.30597366  0.24602638  1
  Ni  Ni9  1  0.89645288  0.78089884  0.49704230  1
  Ti  Ti10  1  0.14591866  0.79794252  0.41978884  1
