# generated using pymatgen
data_Li3Ni2As6(IO)4
_symmetry_space_group_name_H-M   'P 1'
_cell_length_a   6.74480562
_cell_length_b   6.45450049
_cell_length_c   7.69949404
_cell_angle_alpha   94.39943891
_cell_angle_beta   94.75540045
_cell_angle_gamma   94.11856108
_symmetry_Int_Tables_number   1
_chemical_formula_structural   Li3Ni2As6(IO)4
_chemical_formula_sum   'Li3 Ni2 As6 I4 O4'
_cell_volume   332.02185632
_cell_formula_units_Z   1
loop_
 _symmetry_equiv_pos_site_id
 _symmetry_equiv_pos_as_xyz
  1  'x, y, z'
loop_
 _atom_site_type_symbol
 _atom_site_label
 _atom_site_symmetry_multiplicity
 _atom_site_fract_x
 _atom_site_fract_y
 _atom_site_fract_z
 _atom_site_occupancy
  I  I0  1  0.12500000  0.00000000  0.25000000  1
  I  I1  1  0.00000000  0.00000000  0.00000000  1
  I  I2  1  0.37500000  0.00000000  0.25000000  1
  I  I3  1  0.25000000  0.25000000  0.25000000  1
  Li  Li4  1  0.00000000  0.25000000  0.12500000  1
  Li  Li5  1  0.40011701  0.52479910  0.48292705  1
  Li  Li6  1  0.26358834  0.28825060  0.99775797  1
  Ni  Ni7  1  0.91017299  0.25424130  0.13235969  1
  Ni  Ni8  1  0.09891385  0.23760770  0.59257008  1
  As  As9  1  0.78643529  0.37420576  0.24241613  1
  As  As10  1  0.18977844  0.32209765  0.27966281  1
  As  As11  1  0.17729833  0.17328699  0.89072250  1
  As  As12  1  0.12545010  0.60077879  0.07462989  1
  As  As13  1  0.37499439  0.70450833  0.26349812  1
  As  As14  1  0.45926938  0.07924229  0.61998039  1
  O  O15  1  0.72692366  0.94737178  0.68428120  1
  O  O16  1  0.25482883  0.07986562  0.90800732  1
  O  O17  1  0.40759022  0.19338849  0.16614731  1
  O  O18  1  0.28834329  0.39210870  0.34046393  1
