# generated using pymatgen
data_Li2Mn3Sb4P3N
_symmetry_space_group_name_H-M   'P 1'
_cell_length_a   5.00969751
_cell_length_b   5.29906170
_cell_length_c   5.81373847
_cell_angle_alpha   99.42116856
_cell_angle_beta   92.47030347
_cell_angle_gamma   97.82958286
_symmetry_Int_Tables_number   1
_chemical_formula_structural   Li2Mn3Sb4P3N
_chemical_formula_sum   'Li2 Mn3 Sb4 P3 N1'
_cell_volume   150.49636138
_cell_formula_units_Z   1
loop_
 _symmetry_equiv_pos_site_id
 _symmetry_equiv_pos_as_xyz
  1  'x, y, z'
loop_
 _atom_site_type_symbol
 _atom_site_label
 _atom_site_symmetry_multiplicity
 _atom_site_fract_x
 _atom_site_fract_y
 _atom_site_fract_z
 _atom_site_occupancy
  Mn  Mn0  1  0.00000000  0.00000000  0.00000000  1
  Mn  Mn1  1  0.50000000  0.50000000  0.50000000  1
  Mn  Mn2  1  0.50000000  0.50000000  0.00000000  1
  Sb  Sb3  1  0.50000000  0.00000000  0.50000000  1
  Sb  Sb4  1  0.00000000  0.50000000  0.50000000  1
  Sb  Sb5  1  0.62021175  0.32990360  0.29788168  1
  Sb  Sb6  1  0.42907044  0.53118146  0.28740111  1
  P  P7  1  0.97927210  0.97073466  0.51435202  1
  P  P8  1  0.41439750  0.57164847  0.99584430  1
  P  P9  1  0.40280412  0.43524330  0.07921724  1
  Li  Li10  1  0.94770367  0.90448251  0.45463555  1
  Li  Li11  1  0.53253736  0.30891482  0.14712712  1
  N  N12  1  0.73286537  0.42364933  0.52226888  1
