# generated using pymatgen
data_Li3Ni2As6O7
_symmetry_space_group_name_H-M   'P 1'
_cell_length_a   7.70410694
_cell_length_b   7.51857967
_cell_length_c   8.82975612
_cell_angle_alpha   91.65460580
_cell_angle_beta   91.12946479
_cell_angle_gamma   91.91708866
_symmetry_Int_Tables_number   1
_chemical_formula_structural   Li3Ni2As6O7
_chemical_formula_sum   'Li3 Ni2 As6 O7'
_cell_volume   510.84542101
_cell_formula_units_Z   1
loop_
 _symmetry_equiv_pos_site_id
 _symmetry_equiv_pos_as_xyz
  1  'x, y, z'
loop_
 _atom_site_type_symbol
 _atom_site_label
 _atom_site_symmetry_multiplicity
 _atom_site_fract_x
 _atom_site_fract_y
 _atom_site_fract_z
 _atom_site_occupancy
  Li  Li0  1  0.12500000  0.00000000  0.25000000  1
  Li  Li1  1  0.00000000  0.00000000  0.00000000  1
  Li  Li2  1  0.37500000  0.00000000  0.25000000  1
  Ni  Ni3  1  0.25000000  0.25000000  0.25000000  1
  Ni  Ni4  1  0.00000000  0.25000000  0.12500000  1
  As  As5  1  0.02907858  0.71881609  0.29334456  1
  As  As6  1  0.09804520  0.67234031  0.88460530  1
  As  As7  1  0.15203590  0.32298748  0.51239389  1
  As  As8  1  0.42493098  0.06527928  0.14712157  1
  As  As9  1  0.75152169  0.39373910  0.89434850  1
  As  As10  1  0.86598782  0.42662922  0.32649509  1
  O  O11  1  0.73611111  0.07979915  0.74636195  1
  O  O12  1  0.02434268  0.41428129  0.99581480  1
  O  O13  1  0.31695220  0.06615791  0.80864484  1
  O  O14  1  0.96581250  0.68212526  0.53082477  1
  O  O15  1  0.32084772  0.75455561  0.56102015  1
  O  O16  1  0.35534929  0.87987411  0.03127110  1
  O  O17  1  0.66213857  0.36181523  0.83725005  1
