# generated using pymatgen
data_Li2TiS3(O2F)2
_symmetry_space_group_name_H-M   'P 1'
_cell_length_a   6.90465827
_cell_length_b   6.86085987
_cell_length_c   7.25628101
_cell_angle_alpha   91.04355236
_cell_angle_beta   94.96490521
_cell_angle_gamma   91.19305900
_symmetry_Int_Tables_number   1
_chemical_formula_structural   Li2TiS3(O2F)2
_chemical_formula_sum   'Li2 Ti1 S3 O4 F2'
_cell_volume   342.31063552
_cell_formula_units_Z   1
loop_
 _symmetry_equiv_pos_site_id
 _symmetry_equiv_pos_as_xyz
  1  'x, y, z'
loop_
 _atom_site_type_symbol
 _atom_site_label
 _atom_site_symmetry_multiplicity
 _atom_site_fract_x
 _atom_site_fract_y
 _atom_site_fract_z
 _atom_site_occupancy
  Li  Li0  1  0.12500000  0.00000000  0.25000000  1
  Li  Li1  1  0.00000000  0.00000000  0.00000000  1
  F  F2  1  0.37500000  0.00000000  0.25000000  1
  F  F3  1  0.25000000  0.25000000  0.25000000  1
  S  S4  1  0.00000000  0.25000000  0.12500000  1
  S  S5  1  0.31322342  0.41102189  0.05231196  1
  S  S6  1  0.20021959  0.12737430  0.85146346  1
  Ti  Ti7  1  0.38698459  0.39531764  0.66318783  1
  O  O8  1  0.15724630  0.43243607  0.29028493  1
  O  O9  1  0.87186729  0.40415828  0.02189643  1
  O  O10  1  0.40100838  0.57802249  0.97725734  1
  O  O11  1  0.75307618  0.47505292  0.64255433  1
