# generated using pymatgen
data_Li3TiP5I4N5
_symmetry_space_group_name_H-M   'P 1'
_cell_length_a   8.09499969
_cell_length_b   7.93819659
_cell_length_c   7.80689203
_cell_angle_alpha   91.82894150
_cell_angle_beta   91.60305921
_cell_angle_gamma   91.93296748
_symmetry_Int_Tables_number   1
_chemical_formula_structural   Li3TiP5I4N5
_chemical_formula_sum   'Li3 Ti1 P5 I4 N5'
_cell_volume   500.91567184
_cell_formula_units_Z   1
loop_
 _symmetry_equiv_pos_site_id
 _symmetry_equiv_pos_as_xyz
  1  'x, y, z'
loop_
 _atom_site_type_symbol
 _atom_site_label
 _atom_site_symmetry_multiplicity
 _atom_site_fract_x
 _atom_site_fract_y
 _atom_site_fract_z
 _atom_site_occupancy
  P  P0  1  0.00000000  0.00000000  0.00000000  1
  P  P1  1  0.50000000  0.50000000  0.50000000  1
  P  P2  1  0.50000000  0.50000000  0.00000000  1
  P  P3  1  0.50000000  0.00000000  0.50000000  1
  P  P4  1  0.00000000  0.50000000  0.50000000  1
  I  I5  1  0.93093245  0.81483116  0.24185725  1
  I  I6  1  0.65692809  0.82298258  0.00737632  1
  I  I7  1  0.02257990  0.65324290  0.68633823  1
  I  I8  1  0.20806145  0.22670253  0.78469505  1
  Li  Li9  1  0.45050393  0.24702646  0.38033281  1
  Li  Li10  1  0.12344924  0.74945521  0.16186072  1
  Li  Li11  1  0.12305354  0.81206880  0.76924052  1
  Ti  Ti12  1  0.69590767  0.72357781  0.18551531  1
  N  N13  1  0.63487236  0.27261673  0.30044191  1
  N  N14  1  0.13097546  0.06615066  0.99186222  1
  N  N15  1  0.83854435  0.18495882  0.26178001  1
  N  N16  1  0.10205404  0.87476675  0.78444799  1
  N  N17  1  0.52558046  0.10388553  0.62684662  1
