# generated using pymatgen
data_Li2I4O4F3
_symmetry_space_group_name_H-M   'P 1'
_cell_length_a   7.75894109
_cell_length_b   7.56813934
_cell_length_c   8.15514251
_cell_angle_alpha   91.24641233
_cell_angle_beta   91.35252526
_cell_angle_gamma   91.44224797
_symmetry_Int_Tables_number   1
_chemical_formula_structural   Li2I4O4F3
_chemical_formula_sum   'Li2 I4 O4 F3'
_cell_volume   478.47132695
_cell_formula_units_Z   1
loop_
 _symmetry_equiv_pos_site_id
 _symmetry_equiv_pos_as_xyz
  1  'x, y, z'
loop_
 _atom_site_type_symbol
 _atom_site_label
 _atom_site_symmetry_multiplicity
 _atom_site_fract_x
 _atom_site_fract_y
 _atom_site_fract_z
 _atom_site_occupancy
  I  I0  1  0.12500000  0.12500000  0.12500000  1
  I  I1  1  0.50000000  0.50000000  0.50000000  1
  I  I2  1  0.25000000  0.25000000  0.25000000  1
  I  I3  1  0.75000000  0.75000000  0.75000000  1
  Li  Li4  1  0.88388224  0.22174197  0.47002768  1
  Li  Li5  1  0.00156873  0.57541116  0.68838578  1
  F  F6  1  0.94852165  0.07767488  0.48599434  1
  F  F7  1  0.96496098  0.11979185  0.84977123  1
  F  F8  1  0.55708649  0.56412599  0.28988417  1
  O  O9  1  0.28810035  0.79158799  0.76286941  1
  O  O10  1  0.88178722  0.01237085  0.54909695  1
  O  O11  1  0.77758134  0.90939342  0.10533747  1
  O  O12  1  0.93364552  0.21121268  0.49471227  1
