# generated using pymatgen
data_Li2TiP4I4O3
_symmetry_space_group_name_H-M   'P 1'
_cell_length_a   7.55286697
_cell_length_b   7.44782616
_cell_length_c   7.68433720
_cell_angle_alpha   92.50044282
_cell_angle_beta   93.50181140
_cell_angle_gamma   92.49205271
_symmetry_Int_Tables_number   1
_chemical_formula_structural   Li2TiP4I4O3
_chemical_formula_sum   'Li2 Ti1 P4 I4 O3'
_cell_volume   430.58305121
_cell_formula_units_Z   1
loop_
 _symmetry_equiv_pos_site_id
 _symmetry_equiv_pos_as_xyz
  1  'x, y, z'
loop_
 _atom_site_type_symbol
 _atom_site_label
 _atom_site_symmetry_multiplicity
 _atom_site_fract_x
 _atom_site_fract_y
 _atom_site_fract_z
 _atom_site_occupancy
  Ti  Ti0  1  0.12500000  0.00000000  0.25000000  1
  I  I1  1  0.00000000  0.00000000  0.00000000  1
  I  I2  1  0.37500000  0.00000000  0.25000000  1
  I  I3  1  0.25000000  0.25000000  0.25000000  1
  I  I4  1  0.00000000  0.25000000  0.12500000  1
  O  O5  1  0.76071987  0.68538183  0.45533045  1
  O  O6  1  0.53523564  0.30284549  0.65785610  1
  O  O7  1  0.21738327  0.53244254  0.00860248  1
  P  P8  1  0.30373647  0.73564513  0.27921616  1
  P  P9  1  0.85589844  0.12703330  0.26201071  1
  P  P10  1  0.96794911  0.86867281  0.42875746  1
  P  P11  1  0.77362905  0.84087076  0.10149002  1
  Li  Li12  1  0.62823281  0.42428840  0.52549184  1
  Li  Li13  1  0.67112896  0.18227111  0.71780560  1
