# generated using pymatgen
data_Li2LuCu2(As3P2)2
_symmetry_space_group_name_H-M   'P 1'
_cell_length_a   7.57194572
_cell_length_b   7.35950626
_cell_length_c   8.02782162
_cell_angle_alpha   91.58058909
_cell_angle_beta   91.54277247
_cell_angle_gamma   91.79552690
_symmetry_Int_Tables_number   1
_chemical_formula_structural   Li2LuCu2(As3P2)2
_chemical_formula_sum   'Li2 Lu1 Cu2 As6 P4'
_cell_volume   446.79396548
_cell_formula_units_Z   1
loop_
 _symmetry_equiv_pos_site_id
 _symmetry_equiv_pos_as_xyz
  1  'x, y, z'
loop_
 _atom_site_type_symbol
 _atom_site_label
 _atom_site_symmetry_multiplicity
 _atom_site_fract_x
 _atom_site_fract_y
 _atom_site_fract_z
 _atom_site_occupancy
  P  P0  1  0.12500000  0.00000000  0.25000000  1
  P  P1  1  0.00000000  0.00000000  0.00000000  1
  P  P2  1  0.37500000  0.00000000  0.25000000  1
  P  P3  1  0.25000000  0.25000000  0.25000000  1
  Lu  Lu4  1  0.00000000  0.25000000  0.12500000  1
  Li  Li5  1  0.13816851  0.22872424  0.86806757  1
  Li  Li6  1  0.22391492  0.12280082  0.00801720  1
  Cu  Cu7  1  0.43555884  0.46981968  0.34677766  1
  Cu  Cu8  1  0.85814770  0.59948671  0.36736556  1
  As  As9  1  0.87649597  0.50194597  0.91369531  1
  As  As10  1  0.04913316  0.51729287  0.56856332  1
  As  As11  1  0.95413356  0.18847678  0.18372802  1
  As  As12  1  0.23276087  0.98421412  0.69854376  1
  As  As13  1  0.73659174  0.14407095  0.49535673  1
  As  As14  1  0.58500121  0.28138191  0.77260519  1
