# generated using pymatgen
data_LiCuAs3
_symmetry_space_group_name_H-M   'P 1'
_cell_length_a   7.06044456
_cell_length_b   7.16508990
_cell_length_c   7.99011739
_cell_angle_alpha   94.32193268
_cell_angle_beta   95.94602986
_cell_angle_gamma   94.16826179
_symmetry_Int_Tables_number   1
_chemical_formula_structural   LiCuAs3
_chemical_formula_sum   'Li2 Cu2 As6'
_cell_volume   399.56942160
_cell_formula_units_Z   2
loop_
 _symmetry_equiv_pos_site_id
 _symmetry_equiv_pos_as_xyz
  1  'x, y, z'
loop_
 _atom_site_type_symbol
 _atom_site_label
 _atom_site_symmetry_multiplicity
 _atom_site_fract_x
 _atom_site_fract_y
 _atom_site_fract_z
 _atom_site_occupancy
  As  As0  1  0.00000000  0.00000000  0.00000000  1
  As  As1  1  0.50000000  0.50000000  0.50000000  1
  As  As2  1  0.50000000  0.50000000  0.00000000  1
  As  As3  1  0.50000000  0.00000000  0.50000000  1
  As  As4  1  0.00000000  0.50000000  0.50000000  1
  As  As5  1  0.90746245  0.42264758  0.23725706  1
  Li  Li6  1  0.03139230  0.68171924  0.03527035  1
  Li  Li7  1  0.32956208  0.01555698  0.17924556  1
  Cu  Cu8  1  0.30112977  0.54552127  0.78356686  1
  Cu  Cu9  1  0.30936174  0.43577948  0.17754838  1
