# generated using pymatgen
data_Li3LuTiAs6
_symmetry_space_group_name_H-M   'P 1'
_cell_length_a   8.09637244
_cell_length_b   7.92383382
_cell_length_c   8.04282411
_cell_angle_alpha   91.03696274
_cell_angle_beta   90.79148592
_cell_angle_gamma   91.20114867
_symmetry_Int_Tables_number   1
_chemical_formula_structural   Li3LuTiAs6
_chemical_formula_sum   'Li3 Lu1 Ti1 As6'
_cell_volume   515.73197224
_cell_formula_units_Z   1
loop_
 _symmetry_equiv_pos_site_id
 _symmetry_equiv_pos_as_xyz
  1  'x, y, z'
loop_
 _atom_site_type_symbol
 _atom_site_label
 _atom_site_symmetry_multiplicity
 _atom_site_fract_x
 _atom_site_fract_y
 _atom_site_fract_z
 _atom_site_occupancy
  Lu  Lu0  1  0.00000000  0.00000000  0.00000000  1
  Li  Li1  1  0.50000000  0.50000000  0.50000000  1
  Li  Li2  1  0.50000000  0.50000000  0.00000000  1
  Li  Li3  1  0.50000000  0.00000000  0.50000000  1
  Ti  Ti4  1  0.00000000  0.50000000  0.50000000  1
  As  As5  1  0.77709285  0.20989850  0.71151583  1
  As  As6  1  0.02220633  0.00859083  0.96466621  1
  As  As7  1  0.07923091  0.27704640  0.06617242  1
  As  As8  1  0.41258899  0.42688166  0.08159742  1
  As  As9  1  0.29693467  0.42428353  0.00418321  1
  As  As10  1  0.10705773  0.88579932  0.22990117  1
