# generated using pymatgen
data_LiMnSb4P3N5
_symmetry_space_group_name_H-M   'P 1'
_cell_length_a   7.05633888
_cell_length_b   7.54857891
_cell_length_c   7.37877884
_cell_angle_alpha   90.77708684
_cell_angle_beta   90.44740496
_cell_angle_gamma   90.67506413
_symmetry_Int_Tables_number   1
_chemical_formula_structural   LiMnSb4P3N5
_chemical_formula_sum   'Li1 Mn1 Sb4 P3 N5'
_cell_volume   392.95719075
_cell_formula_units_Z   1
loop_
 _symmetry_equiv_pos_site_id
 _symmetry_equiv_pos_as_xyz
  1  'x, y, z'
loop_
 _atom_site_type_symbol
 _atom_site_label
 _atom_site_symmetry_multiplicity
 _atom_site_fract_x
 _atom_site_fract_y
 _atom_site_fract_z
 _atom_site_occupancy
  N  N0  1  0.00000000  0.00000000  0.00000000  1
  N  N1  1  0.50000000  0.50000000  0.50000000  1
  N  N2  1  0.50000000  0.50000000  0.00000000  1
  N  N3  1  0.50000000  0.00000000  0.50000000  1
  N  N4  1  0.00000000  0.50000000  0.50000000  1
  Mn  Mn5  1  0.46672494  0.13939273  0.60425249  1
  Sb  Sb6  1  0.52769139  0.96336016  0.39029491  1
  Sb  Sb7  1  0.08235229  0.16644355  0.87199230  1
  Sb  Sb8  1  0.24373385  0.81648635  0.45282316  1
  Sb  Sb9  1  0.25658570  0.34299158  0.13188418  1
  P  P10  1  0.17175632  0.09311692  0.87009502  1
  P  P11  1  0.20372240  0.82674161  0.85115567  1
  P  P12  1  0.66179401  0.33651543  0.81122553  1
  Li  Li13  1  0.74874448  0.33623859  0.57251868  1
