# generated using pymatgen
data_Li4LuNi2As6P5
_symmetry_space_group_name_H-M   'P 1'
_cell_length_a   7.32751952
_cell_length_b   7.15958060
_cell_length_c   8.58484562
_cell_angle_alpha   93.58177004
_cell_angle_beta   93.83191632
_cell_angle_gamma   93.70542799
_symmetry_Int_Tables_number   1
_chemical_formula_structural   Li4LuNi2As6P5
_chemical_formula_sum   'Li4 Lu1 Ni2 As6 P5'
_cell_volume   447.42150438
_cell_formula_units_Z   1
loop_
 _symmetry_equiv_pos_site_id
 _symmetry_equiv_pos_as_xyz
  1  'x, y, z'
loop_
 _atom_site_type_symbol
 _atom_site_label
 _atom_site_symmetry_multiplicity
 _atom_site_fract_x
 _atom_site_fract_y
 _atom_site_fract_z
 _atom_site_occupancy
  P  P0  1  0.00000000  0.00000000  0.00000000  1
  P  P1  1  0.50000000  0.50000000  0.50000000  1
  P  P2  1  0.25000000  0.25000000  0.25000000  1
  P  P3  1  0.75000000  0.25000000  0.00000000  1
  P  P4  1  0.25000000  0.75000000  0.50000000  1
  Lu  Lu5  1  0.89015876  0.25422074  0.49208089  1
  Li  Li6  1  0.78742697  0.62195585  0.27528386  1
  Li  Li7  1  0.12266269  0.07499039  0.92673146  1
  Li  Li8  1  0.53718583  0.46041060  0.16640916  1
  Li  Li9  1  0.27373740  0.63988053  0.93761532  1
  Ni  Ni10  1  0.27210166  0.89567584  0.14907804  1
  Ni  Ni11  1  0.30652876  0.19971866  0.23040777  1
  As  As12  1  0.46442094  0.40711336  0.44110630  1
  As  As13  1  0.99356511  0.62262422  0.63211435  1
  As  As14  1  0.85167597  0.64866476  0.99138957  1
  As  As15  1  0.47048456  0.44839658  0.83297035  1
  As  As16  1  0.70181741  0.38856803  0.43698211  1
  As  As17  1  0.07081150  0.00813953  0.29219798  1
