# generated using pymatgen
data_Li4TiS2(OF)3
_symmetry_space_group_name_H-M   'P 1'
_cell_length_a   5.30375930
_cell_length_b   4.86112661
_cell_length_c   7.89331549
_cell_angle_alpha   96.65139204
_cell_angle_beta   99.25804292
_cell_angle_gamma   96.11458430
_symmetry_Int_Tables_number   1
_chemical_formula_structural   Li4TiS2(OF)3
_chemical_formula_sum   'Li4 Ti1 S2 O3 F3'
_cell_volume   197.87213869
_cell_formula_units_Z   1
loop_
 _symmetry_equiv_pos_site_id
 _symmetry_equiv_pos_as_xyz
  1  'x, y, z'
loop_
 _atom_site_type_symbol
 _atom_site_label
 _atom_site_symmetry_multiplicity
 _atom_site_fract_x
 _atom_site_fract_y
 _atom_site_fract_z
 _atom_site_occupancy
  Li  Li0  1  0.00000000  0.00000000  0.00000000  1
  Li  Li1  1  0.50000000  0.50000000  0.50000000  1
  Li  Li2  1  0.25000000  0.25000000  0.25000000  1
  Li  Li3  1  0.75000000  0.25000000  0.00000000  1
  F  F4  1  0.25000000  0.75000000  0.50000000  1
  F  F5  1  0.95311052  0.21615277  0.27915237  1
  F  F6  1  0.11012014  0.42593676  0.61618891  1
  S  S7  1  0.35127059  0.35857190  0.04637096  1
  S  S8  1  0.51498368  0.53861107  0.79989136  1
  Ti  Ti9  1  0.00404961  0.10353906  0.32605030  1
  O  O10  1  0.47798677  0.19607777  0.03588208  1
  O  O11  1  0.12701762  0.88414785  0.79682375  1
  O  O12  1  0.15809321  0.73906521  0.29555606  1
