# generated using pymatgen
data_Li2Lu(CuAs3)2
_symmetry_space_group_name_H-M   'P 1'
_cell_length_a   7.42909689
_cell_length_b   7.38747210
_cell_length_c   8.16067531
_cell_angle_alpha   91.24576590
_cell_angle_beta   92.01009736
_cell_angle_gamma   91.35829133
_symmetry_Int_Tables_number   1
_chemical_formula_structural   Li2Lu(CuAs3)2
_chemical_formula_sum   'Li2 Lu1 Cu2 As6'
_cell_volume   447.36060642
_cell_formula_units_Z   1
loop_
 _symmetry_equiv_pos_site_id
 _symmetry_equiv_pos_as_xyz
  1  'x, y, z'
loop_
 _atom_site_type_symbol
 _atom_site_label
 _atom_site_symmetry_multiplicity
 _atom_site_fract_x
 _atom_site_fract_y
 _atom_site_fract_z
 _atom_site_occupancy
  Lu  Lu0  1  0.00000000  0.00000000  0.00000000  1
  As  As1  1  0.50000000  0.50000000  0.50000000  1
  As  As2  1  0.25000000  0.25000000  0.25000000  1
  As  As3  1  0.75000000  0.25000000  0.00000000  1
  As  As4  1  0.25000000  0.75000000  0.50000000  1
  As  As5  1  0.64042511  0.61501980  0.26285045  1
  As  As6  1  0.37367365  0.88529564  0.42774309  1
  Li  Li7  1  0.24980230  0.13410654  0.23160664  1
  Li  Li8  1  0.71060984  0.69817488  0.78048865  1
  Cu  Cu9  1  0.65191532  0.74354968  0.28829647  1
  Cu  Cu10  1  0.89096488  0.21179168  0.64203624  1
