# generated using pymatgen
data_LiCu2I4O3F2
_symmetry_space_group_name_H-M   'P 1'
_cell_length_a   7.38412643
_cell_length_b   7.32681886
_cell_length_c   7.80328076
_cell_angle_alpha   91.48780195
_cell_angle_beta   93.48700809
_cell_angle_gamma   91.77581880
_symmetry_Int_Tables_number   1
_chemical_formula_structural   LiCu2I4O3F2
_chemical_formula_sum   'Li1 Cu2 I4 O3 F2'
_cell_volume   421.02620299
_cell_formula_units_Z   1
loop_
 _symmetry_equiv_pos_site_id
 _symmetry_equiv_pos_as_xyz
  1  'x, y, z'
loop_
 _atom_site_type_symbol
 _atom_site_label
 _atom_site_symmetry_multiplicity
 _atom_site_fract_x
 _atom_site_fract_y
 _atom_site_fract_z
 _atom_site_occupancy
  I  I0  1  0.12500000  0.00000000  0.25000000  1
  I  I1  1  0.00000000  0.00000000  0.00000000  1
  I  I2  1  0.37500000  0.00000000  0.25000000  1
  I  I3  1  0.25000000  0.25000000  0.25000000  1
  Li  Li4  1  0.00000000  0.25000000  0.12500000  1
  Cu  Cu5  1  0.75167731  0.64419686  0.22326922  1
  Cu  Cu6  1  0.22049343  0.18150743  0.86447624  1
  F  F7  1  0.78226352  0.94873884  0.35025908  1
  F  F8  1  0.49557901  0.77677026  0.85711093  1
  O  O9  1  0.94391437  0.97578775  0.13234456  1
  O  O10  1  0.05593107  0.53476579  0.58820179  1
  O  O11  1  0.83024089  0.23406117  0.44614933  1
