# generated using pymatgen
data_Li3Cl2O7
_symmetry_space_group_name_H-M   'P 1'
_cell_length_a   6.42288564
_cell_length_b   6.12617920
_cell_length_c   8.08372241
_cell_angle_alpha   98.84442207
_cell_angle_beta   100.82420542
_cell_angle_gamma   98.47892017
_symmetry_Int_Tables_number   1
_chemical_formula_structural   Li3Cl2O7
_chemical_formula_sum   'Li3 Cl2 O7'
_cell_volume   303.56510589
_cell_formula_units_Z   1
loop_
 _symmetry_equiv_pos_site_id
 _symmetry_equiv_pos_as_xyz
  1  'x, y, z'
loop_
 _atom_site_type_symbol
 _atom_site_label
 _atom_site_symmetry_multiplicity
 _atom_site_fract_x
 _atom_site_fract_y
 _atom_site_fract_z
 _atom_site_occupancy
  Cl  Cl0  1  0.12500000  0.12500000  0.12500000  1
  Cl  Cl1  1  0.50000000  0.50000000  0.50000000  1
  O  O2  1  0.25000000  0.25000000  0.25000000  1
  O  O3  1  0.75000000  0.75000000  0.75000000  1
  O  O4  1  0.30070678  0.75244177  0.03930498  1
  O  O5  1  0.42634786  0.64247041  0.19926242  1
  O  O6  1  0.02902043  0.11292869  0.49057461  1
  O  O7  1  0.94345404  0.53418469  0.02316764  1
  O  O8  1  0.17010984  0.71756615  0.40994730  1
  Li  Li9  1  0.16859226  0.06902614  0.19697082  1
  Li  Li10  1  0.42412662  0.75774621  0.69046585  1
  Li  Li11  1  0.11131877  0.53059010  0.68517267  1
