# generated using pymatgen
data_Li2Ti2I4O4F3
_symmetry_space_group_name_H-M   'P 1'
_cell_length_a   6.12465792
_cell_length_b   5.94609706
_cell_length_c   7.14142385
_cell_angle_alpha   95.22466285
_cell_angle_beta   97.14018577
_cell_angle_gamma   94.84471798
_symmetry_Int_Tables_number   1
_chemical_formula_structural   Li2Ti2I4O4F3
_chemical_formula_sum   'Li2 Ti2 I4 O4 F3'
_cell_volume   255.77600145
_cell_formula_units_Z   1
loop_
 _symmetry_equiv_pos_site_id
 _symmetry_equiv_pos_as_xyz
  1  'x, y, z'
loop_
 _atom_site_type_symbol
 _atom_site_label
 _atom_site_symmetry_multiplicity
 _atom_site_fract_x
 _atom_site_fract_y
 _atom_site_fract_z
 _atom_site_occupancy
  I  I0  1  0.00000000  0.00000000  0.00000000  1
  I  I1  1  0.50000000  0.50000000  0.50000000  1
  I  I2  1  0.25000000  0.25000000  0.25000000  1
  I  I3  1  0.75000000  0.25000000  0.00000000  1
  Li  Li4  1  0.25000000  0.75000000  0.50000000  1
  Li  Li5  1  0.56891189  0.33259156  0.50282840  1
  F  F6  1  0.26138913  0.63667835  0.89463858  1
  F  F7  1  0.28325819  0.52536562  0.14348581  1
  F  F8  1  0.05240178  0.69784320  0.86479106  1
  Ti  Ti9  1  0.19041323  0.58314603  0.33189137  1
  Ti  Ti10  1  0.68270012  0.66606841  0.16560615  1
  O  O11  1  0.84087133  0.95759043  0.43167470  1
  O  O12  1  0.86623457  0.22800523  0.72441704  1
  O  O13  1  0.81185589  0.50325930  0.70175594  1
  O  O14  1  0.98733736  0.48837230  0.96433326  1
