# generated using pymatgen
data_Li2LuO3
_symmetry_space_group_name_H-M   'P 1'
_cell_length_a   6.75710115
_cell_length_b   6.53704929
_cell_length_c   7.49235521
_cell_angle_alpha   94.64231035
_cell_angle_beta   95.89978624
_cell_angle_gamma   94.45208462
_symmetry_Int_Tables_number   1
_chemical_formula_structural   Li2LuO3
_chemical_formula_sum   'Li2 Lu1 O3'
_cell_volume   326.88051083
_cell_formula_units_Z   1
loop_
 _symmetry_equiv_pos_site_id
 _symmetry_equiv_pos_as_xyz
  1  'x, y, z'
loop_
 _atom_site_type_symbol
 _atom_site_label
 _atom_site_symmetry_multiplicity
 _atom_site_fract_x
 _atom_site_fract_y
 _atom_site_fract_z
 _atom_site_occupancy
  O  O0  1  0.00000000  0.00000000  0.00000000  1
  O  O1  1  0.33300000  0.66700000  0.25000000  1
  O  O2  1  0.66700000  0.33300000  0.50000000  1
  Lu  Lu3  1  0.00000000  0.00000000  0.75000000  1
  Li  Li4  1  0.90532174  0.40565619  0.49726554  1
  Li  Li5  1  0.56054786  0.27511122  0.45671742  1
