# generated using pymatgen
data_Li2Lu(As3P2)2
_symmetry_space_group_name_H-M   'P 1'
_cell_length_a   7.35648331
_cell_length_b   7.25520675
_cell_length_c   7.92798635
_cell_angle_alpha   93.02200157
_cell_angle_beta   93.78327658
_cell_angle_gamma   93.00100050
_symmetry_Int_Tables_number   1
_chemical_formula_structural   Li2Lu(As3P2)2
_chemical_formula_sum   'Li2 Lu1 As6 P4'
_cell_volume   420.96723419
_cell_formula_units_Z   1
loop_
 _symmetry_equiv_pos_site_id
 _symmetry_equiv_pos_as_xyz
  1  'x, y, z'
loop_
 _atom_site_type_symbol
 _atom_site_label
 _atom_site_symmetry_multiplicity
 _atom_site_fract_x
 _atom_site_fract_y
 _atom_site_fract_z
 _atom_site_occupancy
  P  P0  1  0.00000000  0.00000000  0.00000000  1
  P  P1  1  0.50000000  0.50000000  0.50000000  1
  P  P2  1  0.50000000  0.50000000  0.00000000  1
  P  P3  1  0.50000000  0.00000000  0.50000000  1
  Lu  Lu4  1  0.00000000  0.50000000  0.50000000  1
  Li  Li5  1  0.31955165  0.22911361  0.99435990  1
  Li  Li6  1  0.98207739  0.80966739  0.18435062  1
  As  As7  1  0.37588922  0.74518697  0.40199318  1
  As  As8  1  0.36629356  0.18009800  0.34784987  1
  As  As9  1  0.50462259  0.99234056  0.08946296  1
  As  As10  1  0.91821964  0.70019895  0.76006468  1
  As  As11  1  0.55354239  0.03365062  0.32378904  1
  As  As12  1  0.90305950  0.21386289  0.74520502  1
