# generated using pymatgen
data_Li3LuCu2(PN)5
_symmetry_space_group_name_H-M   'P 1'
_cell_length_a   7.35012949
_cell_length_b   7.15755788
_cell_length_c   8.37845375
_cell_angle_alpha   93.57132867
_cell_angle_beta   93.13025394
_cell_angle_gamma   93.77445763
_symmetry_Int_Tables_number   1
_chemical_formula_structural   Li3LuCu2(PN)5
_chemical_formula_sum   'Li3 Lu1 Cu2 P5 N5'
_cell_volume   438.20829178
_cell_formula_units_Z   1
loop_
 _symmetry_equiv_pos_site_id
 _symmetry_equiv_pos_as_xyz
  1  'x, y, z'
loop_
 _atom_site_type_symbol
 _atom_site_label
 _atom_site_symmetry_multiplicity
 _atom_site_fract_x
 _atom_site_fract_y
 _atom_site_fract_z
 _atom_site_occupancy
  P  P0  1  0.12500000  0.00000000  0.25000000  1
  P  P1  1  0.00000000  0.00000000  0.00000000  1
  P  P2  1  0.37500000  0.00000000  0.25000000  1
  P  P3  1  0.25000000  0.25000000  0.25000000  1
  P  P4  1  0.00000000  0.25000000  0.12500000  1
  Lu  Lu5  1  0.13042337  0.31543674  0.85162081  1
  Li  Li6  1  0.87108494  0.03238574  0.46161162  1
  Li  Li7  1  0.72525131  0.88104151  0.79675903  1
  Li  Li8  1  0.60939591  0.06713449  0.65134236  1
  Cu  Cu9  1  0.39534920  0.83034176  0.56607236  1
  Cu  Cu10  1  0.01514435  0.34404862  0.50422975  1
  N  N11  1  0.89428684  0.59319925  0.26018728  1
  N  N12  1  0.67385411  0.24213817  0.52755627  1
  N  N13  1  0.75248377  0.79756394  0.36166949  1
  N  N14  1  0.22883679  0.21377657  0.12408821  1
  N  N15  1  0.60642943  0.90368821  0.45487596  1
