# generated using pymatgen
data_Li2Mn2Sb3P2
_symmetry_space_group_name_H-M   'P 1'
_cell_length_a   5.57464992
_cell_length_b   6.02628682
_cell_length_c   6.91902738
_cell_angle_alpha   96.00231519
_cell_angle_beta   96.38120806
_cell_angle_gamma   95.34755783
_symmetry_Int_Tables_number   1
_chemical_formula_structural   Li2Mn2Sb3P2
_chemical_formula_sum   'Li2 Mn2 Sb3 P2'
_cell_volume   228.43870291
_cell_formula_units_Z   1
loop_
 _symmetry_equiv_pos_site_id
 _symmetry_equiv_pos_as_xyz
  1  'x, y, z'
loop_
 _atom_site_type_symbol
 _atom_site_label
 _atom_site_symmetry_multiplicity
 _atom_site_fract_x
 _atom_site_fract_y
 _atom_site_fract_z
 _atom_site_occupancy
  Mn  Mn0  1  0.12500000  0.12500000  0.12500000  1
  Mn  Mn1  1  0.50000000  0.50000000  0.50000000  1
  Sb  Sb2  1  0.25000000  0.25000000  0.25000000  1
  Sb  Sb3  1  0.75000000  0.75000000  0.75000000  1
  Sb  Sb4  1  0.50687131  0.45302009  0.64972753  1
  P  P5  1  0.78172167  0.21073450  0.91422553  1
  P  P6  1  0.60963445  0.97832804  0.94257573  1
  Li  Li7  1  0.89329454  0.03370350  0.90403305  1
  Li  Li8  1  0.46501927  0.14375647  0.23106924  1
