# generated using pymatgen
data_Li2As6P3Cl2F3
_symmetry_space_group_name_H-M   'P 1'
_cell_length_a   6.91777141
_cell_length_b   6.98534552
_cell_length_c   7.90113297
_cell_angle_alpha   92.77324887
_cell_angle_beta   94.83548455
_cell_angle_gamma   92.64037579
_symmetry_Int_Tables_number   1
_chemical_formula_structural   Li2As6P3Cl2F3
_chemical_formula_sum   'Li2 As6 P3 Cl2 F3'
_cell_volume   379.51953440
_cell_formula_units_Z   1
loop_
 _symmetry_equiv_pos_site_id
 _symmetry_equiv_pos_as_xyz
  1  'x, y, z'
loop_
 _atom_site_type_symbol
 _atom_site_label
 _atom_site_symmetry_multiplicity
 _atom_site_fract_x
 _atom_site_fract_y
 _atom_site_fract_z
 _atom_site_occupancy
  P  P0  1  0.12500000  0.00000000  0.25000000  1
  P  P1  1  0.00000000  0.00000000  0.00000000  1
  P  P2  1  0.37500000  0.00000000  0.25000000  1
  Li  Li3  1  0.25000000  0.25000000  0.25000000  1
  Li  Li4  1  0.00000000  0.25000000  0.12500000  1
  F  F5  1  0.12956010  0.92873618  0.18430953  1
  F  F6  1  0.10554469  0.90546542  0.60434989  1
  F  F7  1  0.32012210  0.49941721  0.93349272  1
  Cl  Cl8  1  0.24392047  0.83394776  0.00133835  1
  Cl  Cl9  1  0.69147530  0.57715434  0.26351682  1
  As  As10  1  0.21844730  0.76359290  0.85718425  1
  As  As11  1  0.93828057  0.62265385  0.02903859  1
  As  As12  1  0.09728876  0.48342953  0.61034680  1
  As  As13  1  0.82290052  0.51899932  0.60190847  1
  As  As14  1  0.10510698  0.80647527  0.35685841  1
  As  As15  1  0.62444205  0.05339712  0.49037170  1
