# generated using pymatgen
data_Li2TiI4F3
_symmetry_space_group_name_H-M   'P 1'
_cell_length_a   7.26156400
_cell_length_b   7.09189804
_cell_length_c   7.26642917
_cell_angle_alpha   92.72809520
_cell_angle_beta   94.38091827
_cell_angle_gamma   92.57354674
_symmetry_Int_Tables_number   1
_chemical_formula_structural   Li2TiI4F3
_chemical_formula_sum   'Li2 Ti1 I4 F3'
_cell_volume   372.24947627
_cell_formula_units_Z   1
loop_
 _symmetry_equiv_pos_site_id
 _symmetry_equiv_pos_as_xyz
  1  'x, y, z'
loop_
 _atom_site_type_symbol
 _atom_site_label
 _atom_site_symmetry_multiplicity
 _atom_site_fract_x
 _atom_site_fract_y
 _atom_site_fract_z
 _atom_site_occupancy
  I  I0  1  0.00000000  0.00000000  0.00000000  1
  I  I1  1  0.50000000  0.50000000  0.50000000  1
  I  I2  1  0.50000000  0.50000000  0.00000000  1
  I  I3  1  0.50000000  0.00000000  0.50000000  1
  Li  Li4  1  0.00000000  0.50000000  0.50000000  1
  Li  Li5  1  0.02507329  0.96004369  0.86997607  1
  F  F6  1  0.84739320  0.35090786  0.65443752  1
  F  F7  1  0.88401276  0.74116539  0.45511214  1
  F  F8  1  0.34613041  0.01644151  0.40211185  1
  Ti  Ti9  1  0.73931357  0.26059768  0.07115949  1
