# generated using pymatgen
data_Li2Cu2(As2O)3
_symmetry_space_group_name_H-M   'P 1'
_cell_length_a   7.39089245
_cell_length_b   7.45353048
_cell_length_c   8.22491780
_cell_angle_alpha   91.57941212
_cell_angle_beta   93.17468309
_cell_angle_gamma   91.59502617
_symmetry_Int_Tables_number   1
_chemical_formula_structural   Li2Cu2(As2O)3
_chemical_formula_sum   'Li2 Cu2 As6 O3'
_cell_volume   452.03331592
_cell_formula_units_Z   1
loop_
 _symmetry_equiv_pos_site_id
 _symmetry_equiv_pos_as_xyz
  1  'x, y, z'
loop_
 _atom_site_type_symbol
 _atom_site_label
 _atom_site_symmetry_multiplicity
 _atom_site_fract_x
 _atom_site_fract_y
 _atom_site_fract_z
 _atom_site_occupancy
  Li  Li0  1  0.00000000  0.00000000  0.00000000  1
  Li  Li1  1  0.50000000  0.50000000  0.50000000  1
  Cu  Cu2  1  0.25000000  0.25000000  0.25000000  1
  Cu  Cu3  1  0.75000000  0.25000000  0.00000000  1
  As  As4  1  0.25000000  0.75000000  0.50000000  1
  As  As5  1  0.58617923  0.85742882  0.26692180  1
  As  As6  1  0.88621607  0.09509202  0.76606622  1
  As  As7  1  0.56621915  0.09504151  0.22205205  1
  As  As8  1  0.94732818  0.15780832  0.26885234  1
  As  As9  1  0.54527405  0.49270733  0.86234478  1
  O  O10  1  0.33321014  0.11592640  0.14204022  1
  O  O11  1  0.20232636  0.86830132  0.71045309  1
  O  O12  1  0.70347021  0.88525601  0.28909709  1
