# generated using pymatgen
data_Li2Lu(As3S)2
_symmetry_space_group_name_H-M   'P 1'
_cell_length_a   7.15511013
_cell_length_b   6.88683306
_cell_length_c   8.00348867
_cell_angle_alpha   92.36573624
_cell_angle_beta   92.80518506
_cell_angle_gamma   92.49837116
_symmetry_Int_Tables_number   1
_chemical_formula_structural   Li2Lu(As3S)2
_chemical_formula_sum   'Li2 Lu1 As6 S2'
_cell_volume   393.16070165
_cell_formula_units_Z   1
loop_
 _symmetry_equiv_pos_site_id
 _symmetry_equiv_pos_as_xyz
  1  'x, y, z'
loop_
 _atom_site_type_symbol
 _atom_site_label
 _atom_site_symmetry_multiplicity
 _atom_site_fract_x
 _atom_site_fract_y
 _atom_site_fract_z
 _atom_site_occupancy
  Lu  Lu0  1  0.12500000  0.12500000  0.12500000  1
  Li  Li1  1  0.50000000  0.50000000  0.50000000  1
  Li  Li2  1  0.25000000  0.25000000  0.25000000  1
  S  S3  1  0.75000000  0.75000000  0.75000000  1
  S  S4  1  0.52296395  0.36133317  0.75729528  1
  As  As5  1  0.18570843  0.31618247  0.70602718  1
  As  As6  1  0.18376908  0.04360493  0.02496433  1
  As  As7  1  0.23809569  0.26905816  0.25558800  1
  As  As8  1  0.85136854  0.30022344  0.89995452  1
  As  As9  1  0.21644750  0.99195767  0.87274978  1
  As  As10  1  0.09896902  0.00928994  0.60747912  1
