# generated using pymatgen
data_Li2Ti(I2F)2
_symmetry_space_group_name_H-M   'P 1'
_cell_length_a   7.60080706
_cell_length_b   7.53480982
_cell_length_c   7.29106970
_cell_angle_alpha   92.12345230
_cell_angle_beta   93.58494054
_cell_angle_gamma   92.56728938
_symmetry_Int_Tables_number   1
_chemical_formula_structural   Li2Ti(I2F)2
_chemical_formula_sum   'Li2 Ti1 I4 F2'
_cell_volume   415.99609270
_cell_formula_units_Z   1
loop_
 _symmetry_equiv_pos_site_id
 _symmetry_equiv_pos_as_xyz
  1  'x, y, z'
loop_
 _atom_site_type_symbol
 _atom_site_label
 _atom_site_symmetry_multiplicity
 _atom_site_fract_x
 _atom_site_fract_y
 _atom_site_fract_z
 _atom_site_occupancy
  I  I0  1  0.12500000  0.12500000  0.12500000  1
  I  I1  1  0.50000000  0.50000000  0.50000000  1
  I  I2  1  0.25000000  0.25000000  0.25000000  1
  I  I3  1  0.75000000  0.75000000  0.75000000  1
  Li  Li4  1  0.14685957  0.34200856  0.26488708  1
  Li  Li5  1  0.45695314  0.34007019  0.92352874  1
  F  F6  1  0.81655962  0.96940531  0.94598682  1
  F  F7  1  0.61588149  0.54848788  0.52630717  1
  Ti  Ti8  1  0.92815718  0.85439055  0.21064436  1
