# generated using pymatgen
data_Li2LuCu2(As3P2)2
_symmetry_space_group_name_H-M   'P 1'
_cell_length_a   7.62501632
_cell_length_b   7.43843281
_cell_length_c   8.01415012
_cell_angle_alpha   91.29603281
_cell_angle_beta   91.65028014
_cell_angle_gamma   91.40567444
_symmetry_Int_Tables_number   1
_chemical_formula_structural   Li2LuCu2(As3P2)2
_chemical_formula_sum   'Li2 Lu1 Cu2 As6 P4'
_cell_volume   454.09892505
_cell_formula_units_Z   1
loop_
 _symmetry_equiv_pos_site_id
 _symmetry_equiv_pos_as_xyz
  1  'x, y, z'
loop_
 _atom_site_type_symbol
 _atom_site_label
 _atom_site_symmetry_multiplicity
 _atom_site_fract_x
 _atom_site_fract_y
 _atom_site_fract_z
 _atom_site_occupancy
  P  P0  1  0.00000000  0.00000000  0.00000000  1
  P  P1  1  0.50000000  0.50000000  0.50000000  1
  P  P2  1  0.25000000  0.25000000  0.25000000  1
  P  P3  1  0.75000000  0.25000000  0.00000000  1
  Lu  Lu4  1  0.25000000  0.75000000  0.50000000  1
  Li  Li5  1  0.22636026  0.10559599  0.39819680  1
  Li  Li6  1  0.01228598  0.64351964  0.15827832  1
  Cu  Cu7  1  0.75764196  0.56105640  0.92836755  1
  Cu  Cu8  1  0.41732068  0.56510247  0.18292615  1
  As  As9  1  0.30661411  0.85555504  0.54509173  1
  As  As10  1  0.95633310  0.21259740  0.62127970  1
  As  As11  1  0.77036751  0.39158770  0.62584091  1
  As  As12  1  0.47452136  0.21602061  0.95578060  1
  As  As13  1  0.41801090  0.80913970  0.69066375  1
  As  As14  1  0.51636441  0.10178820  0.37683806  1
