# generated using pymatgen
data_Li3TiI4O3
_symmetry_space_group_name_H-M   'P 1'
_cell_length_a   7.00992516
_cell_length_b   6.72748491
_cell_length_c   7.04500986
_cell_angle_alpha   94.11460349
_cell_angle_beta   94.72113144
_cell_angle_gamma   93.71558917
_symmetry_Int_Tables_number   1
_chemical_formula_structural   Li3TiI4O3
_chemical_formula_sum   'Li3 Ti1 I4 O3'
_cell_volume   329.41951172
_cell_formula_units_Z   1
loop_
 _symmetry_equiv_pos_site_id
 _symmetry_equiv_pos_as_xyz
  1  'x, y, z'
loop_
 _atom_site_type_symbol
 _atom_site_label
 _atom_site_symmetry_multiplicity
 _atom_site_fract_x
 _atom_site_fract_y
 _atom_site_fract_z
 _atom_site_occupancy
  I  I0  1  0.00000000  0.00000000  0.00000000  1
  I  I1  1  0.33300000  0.66700000  0.25000000  1
  I  I2  1  0.66700000  0.33300000  0.50000000  1
  I  I3  1  0.00000000  0.00000000  0.75000000  1
  Li  Li4  1  0.36838852  0.57734654  0.03450361  1
  Li  Li5  1  0.74312619  0.84668740  0.94866696  1
  Li  Li6  1  0.93846013  0.09886490  0.03895740  1
  Ti  Ti7  1  0.25585781  0.42085264  0.42648834  1
  O  O8  1  0.39694520  0.08822622  0.85848816  1
  O  O9  1  0.59672358  0.20933383  0.01109332  1
  O  O10  1  0.20291316  0.20132269  0.50163636  1
