# generated using pymatgen
data_LiTiS3O3F2
_symmetry_space_group_name_H-M   'P 1'
_cell_length_a   5.85199927
_cell_length_b   5.76582436
_cell_length_c   7.16717350
_cell_angle_alpha   94.49763693
_cell_angle_beta   99.62717353
_cell_angle_gamma   94.44491538
_symmetry_Int_Tables_number   1
_chemical_formula_structural   LiTiS3O3F2
_chemical_formula_sum   'Li1 Ti1 S3 O3 F2'
_cell_volume   236.67962751
_cell_formula_units_Z   1
loop_
 _symmetry_equiv_pos_site_id
 _symmetry_equiv_pos_as_xyz
  1  'x, y, z'
loop_
 _atom_site_type_symbol
 _atom_site_label
 _atom_site_symmetry_multiplicity
 _atom_site_fract_x
 _atom_site_fract_y
 _atom_site_fract_z
 _atom_site_occupancy
  Li  Li0  1  0.00000000  0.00000000  0.00000000  1
  F  F1  1  0.50000000  0.50000000  0.50000000  1
  F  F2  1  0.50000000  0.50000000  0.00000000  1
  S  S3  1  0.50000000  0.00000000  0.50000000  1
  S  S4  1  0.00000000  0.50000000  0.50000000  1
  S  S5  1  0.64825796  0.60108856  0.33994126  1
  Ti  Ti6  1  0.27271523  0.70286611  0.08871560  1
  O  O7  1  0.24659056  0.40380843  0.09424625  1
  O  O8  1  0.66489936  0.74463383  0.05247329  1
  O  O9  1  0.16043859  0.24911179  0.56255132  1
