# generated using pymatgen
data_LiP4F2
_symmetry_space_group_name_H-M   'P 1'
_cell_length_a   6.93525385
_cell_length_b   6.96860298
_cell_length_c   7.85222371
_cell_angle_alpha   94.50873894
_cell_angle_beta   96.41606179
_cell_angle_gamma   94.52994739
_symmetry_Int_Tables_number   1
_chemical_formula_structural   LiP4F2
_chemical_formula_sum   'Li1 P4 F2'
_cell_volume   374.46821521
_cell_formula_units_Z   1
loop_
 _symmetry_equiv_pos_site_id
 _symmetry_equiv_pos_as_xyz
  1  'x, y, z'
loop_
 _atom_site_type_symbol
 _atom_site_label
 _atom_site_symmetry_multiplicity
 _atom_site_fract_x
 _atom_site_fract_y
 _atom_site_fract_z
 _atom_site_occupancy
  F  F0  1  0.00000000  0.00000000  0.00000000  1
  F  F1  1  0.33300000  0.66700000  0.25000000  1
  P  P2  1  0.66700000  0.33300000  0.50000000  1
  P  P3  1  0.00000000  0.00000000  0.75000000  1
  P  P4  1  0.26363278  0.96020751  0.89846377  1
  P  P5  1  0.66458710  0.86006307  0.32021809  1
  Li  Li6  1  0.79291858  0.99660033  0.46575644  1
