# generated using pymatgen
data_Li3LuTi2P4N3
_symmetry_space_group_name_H-M   'P 1'
_cell_length_a   4.69177543
_cell_length_b   4.57692903
_cell_length_c   6.15970125
_cell_angle_alpha   95.69511696
_cell_angle_beta   105.02774388
_cell_angle_gamma   96.38261558
_symmetry_Int_Tables_number   1
_chemical_formula_structural   Li3LuTi2P4N3
_chemical_formula_sum   'Li3 Lu1 Ti2 P4 N3'
_cell_volume   125.82237285
_cell_formula_units_Z   1
loop_
 _symmetry_equiv_pos_site_id
 _symmetry_equiv_pos_as_xyz
  1  'x, y, z'
loop_
 _atom_site_type_symbol
 _atom_site_label
 _atom_site_symmetry_multiplicity
 _atom_site_fract_x
 _atom_site_fract_y
 _atom_site_fract_z
 _atom_site_occupancy
  Ti  Ti0  1  0.00000000  0.00000000  0.00000000  1
  Ti  Ti1  1  0.50000000  0.50000000  0.50000000  1
  P  P2  1  0.25000000  0.25000000  0.25000000  1
  P  P3  1  0.75000000  0.25000000  0.00000000  1
  P  P4  1  0.25000000  0.75000000  0.50000000  1
  P  P5  1  0.70839948  0.83877425  0.48710541  1
  Lu  Lu6  1  0.18093169  0.01563520  0.93527314  1
  Li  Li7  1  0.41605569  0.80874080  0.27066154  1
  Li  Li8  1  0.20693708  0.89477765  0.64553422  1
  Li  Li9  1  0.69599322  0.22727824  0.11190357  1
  N  N10  1  0.45396051  0.14264147  0.49916933  1
  N  N11  1  0.90510964  0.38085013  0.29632261  1
  N  N12  1  0.23620344  0.24149340  0.86695599  1
