# generated using pymatgen
data_Li2LuCu2Ni2O7
_symmetry_space_group_name_H-M   'P 1'
_cell_length_a   7.28773114
_cell_length_b   7.19974276
_cell_length_c   8.16374629
_cell_angle_alpha   93.71147065
_cell_angle_beta   94.15599250
_cell_angle_gamma   93.74384930
_symmetry_Int_Tables_number   1
_chemical_formula_structural   Li2LuCu2Ni2O7
_chemical_formula_sum   'Li2 Lu1 Cu2 Ni2 O7'
_cell_volume   425.27229061
_cell_formula_units_Z   1
loop_
 _symmetry_equiv_pos_site_id
 _symmetry_equiv_pos_as_xyz
  1  'x, y, z'
loop_
 _atom_site_type_symbol
 _atom_site_label
 _atom_site_symmetry_multiplicity
 _atom_site_fract_x
 _atom_site_fract_y
 _atom_site_fract_z
 _atom_site_occupancy
  Ni  Ni0  1  0.00000000  0.00000000  0.00000000  1
  Ni  Ni1  1  0.50000000  0.50000000  0.50000000  1
  O  O2  1  0.50000000  0.50000000  0.00000000  1
  O  O3  1  0.50000000  0.00000000  0.50000000  1
  O  O4  1  0.00000000  0.50000000  0.50000000  1
  O  O5  1  0.82945605  0.09245514  0.47377666  1
  O  O6  1  0.13080807  0.09693142  0.18710730  1
  O  O7  1  0.50629803  0.85812839  0.07499389  1
  O  O8  1  0.30423321  0.32766857  0.63573809  1
  Lu  Lu9  1  0.25453714  0.98611415  0.90361235  1
  Li  Li10  1  0.78684410  0.77188100  0.39938026  1
  Li  Li11  1  0.11586323  0.39411619  0.01254646  1
  Cu  Cu12  1  0.96282507  0.27604055  0.24024242  1
  Cu  Cu13  1  0.06261864  0.05197650  0.36618679  1
