# generated using pymatgen
data_LiMn2Sb4P3
_symmetry_space_group_name_H-M   'P 1'
_cell_length_a   5.55145884
_cell_length_b   5.89490540
_cell_length_c   6.65421940
_cell_angle_alpha   96.07440897
_cell_angle_beta   92.58361648
_cell_angle_gamma   96.12890053
_symmetry_Int_Tables_number   1
_chemical_formula_structural   LiMn2Sb4P3
_chemical_formula_sum   'Li1 Mn2 Sb4 P3'
_cell_volume   214.95085668
_cell_formula_units_Z   1
loop_
 _symmetry_equiv_pos_site_id
 _symmetry_equiv_pos_as_xyz
  1  'x, y, z'
loop_
 _atom_site_type_symbol
 _atom_site_label
 _atom_site_symmetry_multiplicity
 _atom_site_fract_x
 _atom_site_fract_y
 _atom_site_fract_z
 _atom_site_occupancy
  Mn  Mn0  1  0.00000000  0.00000000  0.00000000  1
  Mn  Mn1  1  0.50000000  0.50000000  0.50000000  1
  Sb  Sb2  1  0.25000000  0.25000000  0.25000000  1
  Sb  Sb3  1  0.75000000  0.25000000  0.00000000  1
  Sb  Sb4  1  0.25000000  0.75000000  0.50000000  1
  Sb  Sb5  1  0.85067716  0.52283138  0.14627618  1
  P  P6  1  0.36117199  0.56383595  0.82566109  1
  P  P7  1  0.31366424  0.74844980  0.07444947  1
  P  P8  1  0.97233020  0.69645887  0.42011338  1
  Li  Li9  1  0.79207262  0.40606451  0.45118332  1
