# generated using pymatgen
data_LiTi2P4Se2O
_symmetry_space_group_name_H-M   'P 1'
_cell_length_a   7.62531863
_cell_length_b   7.23126000
_cell_length_c   7.16496158
_cell_angle_alpha   90.33687032
_cell_angle_beta   91.60272665
_cell_angle_gamma   90.38513272
_symmetry_Int_Tables_number   1
_chemical_formula_structural   LiTi2P4Se2O
_chemical_formula_sum   'Li1 Ti2 P4 Se2 O1'
_cell_volume   394.90996333
_cell_formula_units_Z   1
loop_
 _symmetry_equiv_pos_site_id
 _symmetry_equiv_pos_as_xyz
  1  'x, y, z'
loop_
 _atom_site_type_symbol
 _atom_site_label
 _atom_site_symmetry_multiplicity
 _atom_site_fract_x
 _atom_site_fract_y
 _atom_site_fract_z
 _atom_site_occupancy
  P  P0  1  0.12500000  0.00000000  0.25000000  1
  P  P1  1  0.00000000  0.00000000  0.00000000  1
  P  P2  1  0.37500000  0.00000000  0.25000000  1
  P  P3  1  0.25000000  0.25000000  0.25000000  1
  Li  Li4  1  0.00000000  0.25000000  0.12500000  1
  Se  Se5  1  0.77178068  0.47859414  0.12545226  1
  Se  Se6  1  0.85315598  0.74483736  0.51405416  1
  Ti  Ti7  1  0.30954969  0.92013089  0.13699784  1
  Ti  Ti8  1  0.17418784  0.14369005  0.22082577  1
  O  O9  1  0.08793266  0.22925235  0.64484247  1
