# generated using pymatgen
data_Li3LuTiAs6N5
_symmetry_space_group_name_H-M   'P 1'
_cell_length_a   7.90826035
_cell_length_b   7.73998196
_cell_length_c   8.03471956
_cell_angle_alpha   92.10680059
_cell_angle_beta   91.82740754
_cell_angle_gamma   92.24382978
_symmetry_Int_Tables_number   1
_chemical_formula_structural   Li3LuTiAs6N5
_chemical_formula_sum   'Li3 Lu1 Ti1 As6 N5'
_cell_volume   490.82063400
_cell_formula_units_Z   1
loop_
 _symmetry_equiv_pos_site_id
 _symmetry_equiv_pos_as_xyz
  1  'x, y, z'
loop_
 _atom_site_type_symbol
 _atom_site_label
 _atom_site_symmetry_multiplicity
 _atom_site_fract_x
 _atom_site_fract_y
 _atom_site_fract_z
 _atom_site_occupancy
  Lu  Lu0  1  0.12500000  0.00000000  0.25000000  1
  Li  Li1  1  0.00000000  0.00000000  0.00000000  1
  Li  Li2  1  0.37500000  0.00000000  0.25000000  1
  Li  Li3  1  0.25000000  0.25000000  0.25000000  1
  Ti  Ti4  1  0.00000000  0.25000000  0.12500000  1
  As  As5  1  0.14089125  0.66518045  0.35199530  1
  As  As6  1  0.07617207  0.02245374  0.28635819  1
  As  As7  1  0.24095860  0.09778990  0.85744856  1
  As  As8  1  0.99042155  0.52970006  0.57341332  1
  As  As9  1  0.50317440  0.20462714  0.97817145  1
  As  As10  1  0.31118593  0.83146208  0.00007701  1
  N  N11  1  0.45510303  0.55312464  0.90802177  1
  N  N12  1  0.64803818  0.23690658  0.19357255  1
  N  N13  1  0.55650916  0.09840463  0.94202771  1
  N  N14  1  0.33658138  0.32238764  0.85484044  1
  N  N15  1  0.09627297  0.79438725  0.48157963  1
