# generated using pymatgen
data_Li3TiI4(OF)3
_symmetry_space_group_name_H-M   'P 1'
_cell_length_a   7.72115055
_cell_length_b   7.55151126
_cell_length_c   7.22092117
_cell_angle_alpha   93.83872960
_cell_angle_beta   95.09405795
_cell_angle_gamma   93.60880572
_symmetry_Int_Tables_number   1
_chemical_formula_structural   Li3TiI4(OF)3
_chemical_formula_sum   'Li3 Ti1 I4 O3 F3'
_cell_volume   417.41536061
_cell_formula_units_Z   1
loop_
 _symmetry_equiv_pos_site_id
 _symmetry_equiv_pos_as_xyz
  1  'x, y, z'
loop_
 _atom_site_type_symbol
 _atom_site_label
 _atom_site_symmetry_multiplicity
 _atom_site_fract_x
 _atom_site_fract_y
 _atom_site_fract_z
 _atom_site_occupancy
  I  I0  1  0.12500000  0.00000000  0.25000000  1
  I  I1  1  0.00000000  0.00000000  0.00000000  1
  I  I2  1  0.37500000  0.00000000  0.25000000  1
  I  I3  1  0.25000000  0.25000000  0.25000000  1
  Li  Li4  1  0.00000000  0.25000000  0.12500000  1
  Li  Li5  1  0.89007436  0.82423229  0.72592060  1
  Li  Li6  1  0.77079756  0.94112680  0.09079147  1
  F  F7  1  0.61278858  0.27561323  0.59807943  1
  F  F8  1  0.90193287  0.08000900  0.70832809  1
  F  F9  1  0.09098622  0.75494189  0.21268261  1
  Ti  Ti10  1  0.30677162  0.98473586  0.83333294  1
  O  O11  1  0.78543403  0.91234697  0.15010722  1
  O  O12  1  0.77879880  0.03637012  0.43540817  1
  O  O13  1  0.78148715  0.46199092  0.59142748  1
