# generated using pymatgen
data_Li2As6P4O7
_symmetry_space_group_name_H-M   'P 1'
_cell_length_a   7.68550936
_cell_length_b   7.50504225
_cell_length_c   8.51955643
_cell_angle_alpha   91.45942906
_cell_angle_beta   91.34839844
_cell_angle_gamma   91.64209475
_symmetry_Int_Tables_number   1
_chemical_formula_structural   Li2As6P4O7
_chemical_formula_sum   'Li2 As6 P4 O7'
_cell_volume   490.90272795
_cell_formula_units_Z   1
loop_
 _symmetry_equiv_pos_site_id
 _symmetry_equiv_pos_as_xyz
  1  'x, y, z'
loop_
 _atom_site_type_symbol
 _atom_site_label
 _atom_site_symmetry_multiplicity
 _atom_site_fract_x
 _atom_site_fract_y
 _atom_site_fract_z
 _atom_site_occupancy
  P  P0  1  0.12500000  0.12500000  0.12500000  1
  P  P1  1  0.50000000  0.50000000  0.50000000  1
  P  P2  1  0.25000000  0.25000000  0.25000000  1
  P  P3  1  0.75000000  0.75000000  0.75000000  1
  Li  Li4  1  0.23247991  0.11269241  0.09629084  1
  Li  Li5  1  0.52651212  0.48093316  0.84153468  1
  As  As6  1  0.97655192  0.83588042  0.88946978  1
  As  As7  1  0.06888788  0.23817987  0.91541412  1
  As  As8  1  0.01863648  0.64510428  0.34925688  1
  As  As9  1  0.59289447  0.55857608  0.19634082  1
  As  As10  1  0.60928241  0.67183466  0.07152852  1
  As  As11  1  0.84832726  0.75018891  0.96008580  1
  O  O12  1  0.16571185  0.47436776  0.10993634  1
  O  O13  1  0.05230778  0.37850476  0.33208025  1
  O  O14  1  0.15993186  0.63217987  0.71299436  1
  O  O15  1  0.15444595  0.92314038  0.92730763  1
  O  O16  1  0.46511004  0.32659099  0.20578517  1
  O  O17  1  0.43377790  0.22215369  0.69166433  1
  O  O18  1  0.60530467  0.35407699  0.26872057  1
