# generated using pymatgen
data_Li2LuCu2(As3P2)2
_symmetry_space_group_name_H-M   'P 1'
_cell_length_a   7.23852213
_cell_length_b   7.27248023
_cell_length_c   8.18948963
_cell_angle_alpha   92.97839392
_cell_angle_beta   94.87045403
_cell_angle_gamma   92.88994238
_symmetry_Int_Tables_number   1
_chemical_formula_structural   Li2LuCu2(As3P2)2
_chemical_formula_sum   'Li2 Lu1 Cu2 As6 P4'
_cell_volume   428.32255993
_cell_formula_units_Z   1
loop_
 _symmetry_equiv_pos_site_id
 _symmetry_equiv_pos_as_xyz
  1  'x, y, z'
loop_
 _atom_site_type_symbol
 _atom_site_label
 _atom_site_symmetry_multiplicity
 _atom_site_fract_x
 _atom_site_fract_y
 _atom_site_fract_z
 _atom_site_occupancy
  P  P0  1  0.00000000  0.00000000  0.00000000  1
  P  P1  1  0.50000000  0.50000000  0.50000000  1
  P  P2  1  0.50000000  0.50000000  0.00000000  1
  P  P3  1  0.50000000  0.00000000  0.50000000  1
  Lu  Lu4  1  0.00000000  0.50000000  0.50000000  1
  As  As5  1  0.76993317  0.18880804  0.88173344  1
  As  As6  1  0.67624561  0.27226874  0.46795738  1
  As  As7  1  0.20284780  0.55313127  0.11177786  1
  As  As8  1  0.77025506  0.05364725  0.53851588  1
  As  As9  1  0.74408317  0.35776592  0.40594723  1
  As  As10  1  0.28035945  0.78117466  0.47776863  1
  Li  Li11  1  0.47735923  0.41557513  0.15122647  1
  Li  Li12  1  0.07670048  0.53440801  0.46493954  1
  Cu  Cu13  1  0.71207015  0.98018019  0.99951041  1
  Cu  Cu14  1  0.43821568  0.52286795  0.88927161  1
