# generated using pymatgen
data_Li2Lu(CuAs3)2
_symmetry_space_group_name_H-M   'P 1'
_cell_length_a   7.20801237
_cell_length_b   7.34480946
_cell_length_c   8.14845837
_cell_angle_alpha   92.94761333
_cell_angle_beta   94.64056057
_cell_angle_gamma   92.87375588
_symmetry_Int_Tables_number   1
_chemical_formula_structural   Li2Lu(CuAs3)2
_chemical_formula_sum   'Li2 Lu1 Cu2 As6'
_cell_volume   428.76909670
_cell_formula_units_Z   1
loop_
 _symmetry_equiv_pos_site_id
 _symmetry_equiv_pos_as_xyz
  1  'x, y, z'
loop_
 _atom_site_type_symbol
 _atom_site_label
 _atom_site_symmetry_multiplicity
 _atom_site_fract_x
 _atom_site_fract_y
 _atom_site_fract_z
 _atom_site_occupancy
  Lu  Lu0  1  0.00000000  0.00000000  0.00000000  1
  As  As1  1  0.50000000  0.50000000  0.50000000  1
  As  As2  1  0.25000000  0.25000000  0.25000000  1
  As  As3  1  0.75000000  0.25000000  0.00000000  1
  As  As4  1  0.25000000  0.75000000  0.50000000  1
  As  As5  1  0.22050690  0.37831934  0.89451946  1
  As  As6  1  0.81874185  0.16447240  0.85992177  1
  Li  Li7  1  0.08710265  0.11461192  0.29845441  1
  Li  Li8  1  0.36461935  0.75785948  0.23287376  1
  Cu  Cu9  1  0.65364857  0.86539513  0.67194119  1
  Cu  Cu10  1  0.38183578  0.18740248  0.76752071  1
