# generated using pymatgen
data_LiCuNiAs3
_symmetry_space_group_name_H-M   'P 1'
_cell_length_a   7.62739880
_cell_length_b   7.43477660
_cell_length_c   8.17413206
_cell_angle_alpha   91.43360793
_cell_angle_beta   91.52427688
_cell_angle_gamma   91.59802945
_symmetry_Int_Tables_number   1
_chemical_formula_structural   LiCuNiAs3
_chemical_formula_sum   'Li2 Cu2 Ni2 As6'
_cell_volume   463.04054580
_cell_formula_units_Z   2
loop_
 _symmetry_equiv_pos_site_id
 _symmetry_equiv_pos_as_xyz
  1  'x, y, z'
loop_
 _atom_site_type_symbol
 _atom_site_label
 _atom_site_symmetry_multiplicity
 _atom_site_fract_x
 _atom_site_fract_y
 _atom_site_fract_z
 _atom_site_occupancy
  Li  Li0  1  0.00000000  0.00000000  0.00000000  1
  Li  Li1  1  0.50000000  0.50000000  0.50000000  1
  Cu  Cu2  1  0.25000000  0.25000000  0.25000000  1
  Cu  Cu3  1  0.75000000  0.25000000  0.00000000  1
  Ni  Ni4  1  0.25000000  0.75000000  0.50000000  1
  Ni  Ni5  1  0.22206826  0.77320997  0.41299676  1
  As  As6  1  0.61334966  0.94870902  0.15082762  1
  As  As7  1  0.23854202  0.73828219  0.23127872  1
  As  As8  1  0.08413656  0.72574295  0.97286502  1
  As  As9  1  0.05875088  0.85482031  0.21000531  1
  As  As10  1  0.67987028  0.61980105  0.97768443  1
  As  As11  1  0.62074739  0.22694414  0.40261784  1
