# generated using pymatgen
data_Li2TiI4(OF)3
_symmetry_space_group_name_H-M   'P 1'
_cell_length_a   8.39594086
_cell_length_b   8.25212657
_cell_length_c   7.44359274
_cell_angle_alpha   90.16937569
_cell_angle_beta   90.80583807
_cell_angle_gamma   90.19364164
_symmetry_Int_Tables_number   1
_chemical_formula_structural   Li2TiI4(OF)3
_chemical_formula_sum   'Li2 Ti1 I4 O3 F3'
_cell_volume   515.66833007
_cell_formula_units_Z   1
loop_
 _symmetry_equiv_pos_site_id
 _symmetry_equiv_pos_as_xyz
  1  'x, y, z'
loop_
 _atom_site_type_symbol
 _atom_site_label
 _atom_site_symmetry_multiplicity
 _atom_site_fract_x
 _atom_site_fract_y
 _atom_site_fract_z
 _atom_site_occupancy
  I  I0  1  0.00000000  0.00000000  0.00000000  1
  I  I1  1  0.50000000  0.50000000  0.50000000  1
  I  I2  1  0.25000000  0.25000000  0.25000000  1
  I  I3  1  0.75000000  0.25000000  0.00000000  1
  Li  Li4  1  0.25000000  0.75000000  0.50000000  1
  Li  Li5  1  0.80433898  0.05735998  0.52121141  1
  F  F6  1  0.75530455  0.06629885  0.31230305  1
  F  F7  1  0.96714051  0.44227291  0.76036041  1
  F  F8  1  0.89970557  0.11774625  0.14512802  1
  Ti  Ti9  1  0.59800684  0.53459012  0.11271824  1
  O  O10  1  0.46948877  0.47319023  0.31599932  1
  O  O11  1  0.76122925  0.59347381  0.79271473  1
  O  O12  1  0.70629693  0.51393096  0.04916988  1
