# generated using pymatgen
data_Li3TiSe(ClO2)2
_symmetry_space_group_name_H-M   'P 1'
_cell_length_a   6.46842335
_cell_length_b   6.22495527
_cell_length_c   7.13719595
_cell_angle_alpha   98.36396855
_cell_angle_beta   101.07473586
_cell_angle_gamma   97.88146435
_symmetry_Int_Tables_number   1
_chemical_formula_structural   Li3TiSe(ClO2)2
_chemical_formula_sum   'Li3 Ti1 Se1 Cl2 O4'
_cell_volume   274.97043121
_cell_formula_units_Z   1
loop_
 _symmetry_equiv_pos_site_id
 _symmetry_equiv_pos_as_xyz
  1  'x, y, z'
loop_
 _atom_site_type_symbol
 _atom_site_label
 _atom_site_symmetry_multiplicity
 _atom_site_fract_x
 _atom_site_fract_y
 _atom_site_fract_z
 _atom_site_occupancy
  Li  Li0  1  0.00000000  0.00000000  0.00000000  1
  Li  Li1  1  0.50000000  0.50000000  0.50000000  1
  Li  Li2  1  0.50000000  0.50000000  0.00000000  1
  Se  Se3  1  0.50000000  0.00000000  0.50000000  1
  Cl  Cl4  1  0.00000000  0.50000000  0.50000000  1
  Cl  Cl5  1  0.21945473  0.94898323  0.99347976  1
  Ti  Ti6  1  0.53765083  0.94907388  0.20059075  1
  O  O7  1  0.75226209  0.67078868  0.12243841  1
  O  O8  1  0.45799258  0.33843143  0.77091583  1
  O  O9  1  0.83023085  0.51841553  0.71697949  1
  O  O10  1  0.67732741  0.42659653  0.31635923  1
