# generated using pymatgen
data_Li3TiP4N5F3
_symmetry_space_group_name_H-M   'P 1'
_cell_length_a   6.62626210
_cell_length_b   6.43876342
_cell_length_c   7.65527029
_cell_angle_alpha   95.33164657
_cell_angle_beta   96.30980767
_cell_angle_gamma   95.18625473
_symmetry_Int_Tables_number   1
_chemical_formula_structural   Li3TiP4N5F3
_chemical_formula_sum   'Li3 Ti1 P4 N5 F3'
_cell_volume   321.55397383
_cell_formula_units_Z   1
loop_
 _symmetry_equiv_pos_site_id
 _symmetry_equiv_pos_as_xyz
  1  'x, y, z'
loop_
 _atom_site_type_symbol
 _atom_site_label
 _atom_site_symmetry_multiplicity
 _atom_site_fract_x
 _atom_site_fract_y
 _atom_site_fract_z
 _atom_site_occupancy
  P  P0  1  0.12500000  0.00000000  0.25000000  1
  P  P1  1  0.00000000  0.00000000  0.00000000  1
  P  P2  1  0.37500000  0.00000000  0.25000000  1
  P  P3  1  0.25000000  0.25000000  0.25000000  1
  Li  Li4  1  0.00000000  0.25000000  0.12500000  1
  Li  Li5  1  0.85745861  0.00318285  0.13583889  1
  Li  Li6  1  0.04182545  0.84161328  0.43066997  1
  F  F7  1  0.34351373  0.65459361  0.06105844  1
  F  F8  1  0.64286579  0.56803927  0.50409510  1
  F  F9  1  0.28026785  0.53680133  0.50267452  1
  Ti  Ti10  1  0.51046989  0.86515779  0.27542058  1
  N  N11  1  0.77090778  0.55904228  0.81368307  1
  N  N12  1  0.44743534  0.02670053  0.25863004  1
  N  N13  1  0.41138069  0.85799844  0.88323735  1
  N  N14  1  0.89738062  0.68724757  0.17636308  1
  N  N15  1  0.02239501  0.56189812  0.01360743  1
