# generated using pymatgen
data_Li2Lu(NiP2)2
_symmetry_space_group_name_H-M   'P 1'
_cell_length_a   7.22995367
_cell_length_b   7.13256811
_cell_length_c   8.37414128
_cell_angle_alpha   93.85811947
_cell_angle_beta   93.84774030
_cell_angle_gamma   94.01213769
_symmetry_Int_Tables_number   1
_chemical_formula_structural   Li2Lu(NiP2)2
_chemical_formula_sum   'Li2 Lu1 Ni2 P4'
_cell_volume   428.68401498
_cell_formula_units_Z   1
loop_
 _symmetry_equiv_pos_site_id
 _symmetry_equiv_pos_as_xyz
  1  'x, y, z'
loop_
 _atom_site_type_symbol
 _atom_site_label
 _atom_site_symmetry_multiplicity
 _atom_site_fract_x
 _atom_site_fract_y
 _atom_site_fract_z
 _atom_site_occupancy
  Ni  Ni0  1  0.12500000  0.12500000  0.12500000  1
  Ni  Ni1  1  0.50000000  0.50000000  0.50000000  1
  P  P2  1  0.25000000  0.25000000  0.25000000  1
  P  P3  1  0.75000000  0.75000000  0.75000000  1
  P  P4  1  0.19281813  0.28993863  0.95425191  1
  P  P5  1  0.58705314  0.03498295  0.96191667  1
  Lu  Lu6  1  0.60604649  0.79605820  0.33014671  1
  Li  Li7  1  0.10643754  0.54424015  0.41959794  1
  Li  Li8  1  0.74599636  0.58770190  0.36492165  1
