# generated using pymatgen
data_Li(CuAs3)2
_symmetry_space_group_name_H-M   'P 1'
_cell_length_a   7.25658766
_cell_length_b   7.35069716
_cell_length_c   8.19626757
_cell_angle_alpha   91.31034540
_cell_angle_beta   93.43938867
_cell_angle_gamma   91.55633231
_symmetry_Int_Tables_number   1
_chemical_formula_structural   Li(CuAs3)2
_chemical_formula_sum   'Li1 Cu2 As6'
_cell_volume   436.11698281
_cell_formula_units_Z   1
loop_
 _symmetry_equiv_pos_site_id
 _symmetry_equiv_pos_as_xyz
  1  'x, y, z'
loop_
 _atom_site_type_symbol
 _atom_site_label
 _atom_site_symmetry_multiplicity
 _atom_site_fract_x
 _atom_site_fract_y
 _atom_site_fract_z
 _atom_site_occupancy
  As  As0  1  0.00000000  0.00000000  0.00000000  1
  As  As1  1  0.50000000  0.50000000  0.50000000  1
  As  As2  1  0.25000000  0.25000000  0.25000000  1
  As  As3  1  0.75000000  0.25000000  0.00000000  1
  As  As4  1  0.25000000  0.75000000  0.50000000  1
  As  As5  1  0.33217794  0.10524482  0.59097076  1
  Li  Li6  1  0.41422163  0.76878583  0.35510766  1
  Cu  Cu7  1  0.68576587  0.43778166  0.94611481  1
  Cu  Cu8  1  0.55282402  0.12990961  0.38774935  1
