# generated using pymatgen
data_Li2Mn2Sb4P3
_symmetry_space_group_name_H-M   'P 1'
_cell_length_a   5.50139360
_cell_length_b   5.95742154
_cell_length_c   7.28006669
_cell_angle_alpha   95.45856948
_cell_angle_beta   96.46617991
_cell_angle_gamma   96.21252604
_symmetry_Int_Tables_number   1
_chemical_formula_structural   Li2Mn2Sb4P3
_chemical_formula_sum   'Li2 Mn2 Sb4 P3'
_cell_volume   234.29270705
_cell_formula_units_Z   1
loop_
 _symmetry_equiv_pos_site_id
 _symmetry_equiv_pos_as_xyz
  1  'x, y, z'
loop_
 _atom_site_type_symbol
 _atom_site_label
 _atom_site_symmetry_multiplicity
 _atom_site_fract_x
 _atom_site_fract_y
 _atom_site_fract_z
 _atom_site_occupancy
  Mn  Mn0  1  0.12500000  0.00000000  0.25000000  1
  Mn  Mn1  1  0.00000000  0.00000000  0.00000000  1
  Sb  Sb2  1  0.37500000  0.00000000  0.25000000  1
  Sb  Sb3  1  0.25000000  0.25000000  0.25000000  1
  Sb  Sb4  1  0.00000000  0.25000000  0.12500000  1
  Sb  Sb5  1  0.27068654  0.85130550  0.28948863  1
  P  P6  1  0.43535648  0.04330876  0.24015519  1
  P  P7  1  0.41891147  0.56700800  0.69985968  1
  P  P8  1  0.54478786  0.77607636  0.82916282  1
  Li  Li9  1  0.82017898  0.86601777  0.47514521  1
  Li  Li10  1  0.59772340  0.19411291  0.94559306  1
