# generated using pymatgen
data_Li2LuTiN5F3
_symmetry_space_group_name_H-M   'P 1'
_cell_length_a   8.17787616
_cell_length_b   8.02137526
_cell_length_c   7.66376834
_cell_angle_alpha   90.76253619
_cell_angle_beta   91.16970544
_cell_angle_gamma   90.83412995
_symmetry_Int_Tables_number   1
_chemical_formula_structural   Li2LuTiN5F3
_chemical_formula_sum   'Li2 Lu1 Ti1 N5 F3'
_cell_volume   502.52187653
_cell_formula_units_Z   1
loop_
 _symmetry_equiv_pos_site_id
 _symmetry_equiv_pos_as_xyz
  1  'x, y, z'
loop_
 _atom_site_type_symbol
 _atom_site_label
 _atom_site_symmetry_multiplicity
 _atom_site_fract_x
 _atom_site_fract_y
 _atom_site_fract_z
 _atom_site_occupancy
  Lu  Lu0  1  0.00000000  0.00000000  0.00000000  1
  Li  Li1  1  0.50000000  0.50000000  0.50000000  1
  Li  Li2  1  0.25000000  0.25000000  0.25000000  1
  F  F3  1  0.75000000  0.25000000  0.00000000  1
  F  F4  1  0.25000000  0.75000000  0.50000000  1
  F  F5  1  0.67738043  0.06635082  0.59061446  1
  Ti  Ti6  1  0.39786271  0.28102433  0.78777755  1
  N  N7  1  0.78109330  0.71087617  0.34334438  1
  N  N8  1  0.72246093  0.39795829  0.93181613  1
  N  N9  1  0.01513070  0.83515537  0.40199349  1
  N  N10  1  0.52363673  0.47324246  0.20291295  1
  N  N11  1  0.38578924  0.49263831  0.16996759  1
