# generated using pymatgen
data_Li2LuCu2(As3P2)2
_symmetry_space_group_name_H-M   'P 1'
_cell_length_a   7.56398475
_cell_length_b   7.37607173
_cell_length_c   8.09503441
_cell_angle_alpha   91.80120396
_cell_angle_beta   91.97887040
_cell_angle_gamma   91.93160206
_symmetry_Int_Tables_number   1
_chemical_formula_structural   Li2LuCu2(As3P2)2
_chemical_formula_sum   'Li2 Lu1 Cu2 As6 P4'
_cell_volume   450.87605909
_cell_formula_units_Z   1
loop_
 _symmetry_equiv_pos_site_id
 _symmetry_equiv_pos_as_xyz
  1  'x, y, z'
loop_
 _atom_site_type_symbol
 _atom_site_label
 _atom_site_symmetry_multiplicity
 _atom_site_fract_x
 _atom_site_fract_y
 _atom_site_fract_z
 _atom_site_occupancy
  P  P0  1  0.00000000  0.00000000  0.00000000  1
  P  P1  1  0.50000000  0.50000000  0.50000000  1
  P  P2  1  0.50000000  0.50000000  0.00000000  1
  P  P3  1  0.50000000  0.00000000  0.50000000  1
  Lu  Lu4  1  0.00000000  0.50000000  0.50000000  1
  Li  Li5  1  0.66216056  0.80140889  0.28558001  1
  Li  Li6  1  0.78646083  0.62750392  0.77643982  1
  Cu  Cu7  1  0.67473146  0.84445923  0.80579689  1
  Cu  Cu8  1  0.99666007  0.15494856  0.64775484  1
  As  As9  1  0.25634884  0.03823096  0.06055166  1
  As  As10  1  0.30964324  0.88481735  0.68232958  1
  As  As11  1  0.47466765  0.00648969  0.99488930  1
  As  As12  1  0.88033408  0.39431602  0.18530927  1
  As  As13  1  0.72405678  0.92286501  0.89708630  1
  As  As14  1  0.20477549  0.92109521  0.19248295  1
