# generated using pymatgen
data_Li2TiAs6O5
_symmetry_space_group_name_H-M   'P 1'
_cell_length_a   7.90149496
_cell_length_b   7.73348339
_cell_length_c   8.17709043
_cell_angle_alpha   90.89737350
_cell_angle_beta   91.28893447
_cell_angle_gamma   91.03717959
_symmetry_Int_Tables_number   1
_chemical_formula_structural   Li2TiAs6O5
_chemical_formula_sum   'Li2 Ti1 As6 O5'
_cell_volume   499.39712685
_cell_formula_units_Z   1
loop_
 _symmetry_equiv_pos_site_id
 _symmetry_equiv_pos_as_xyz
  1  'x, y, z'
loop_
 _atom_site_type_symbol
 _atom_site_label
 _atom_site_symmetry_multiplicity
 _atom_site_fract_x
 _atom_site_fract_y
 _atom_site_fract_z
 _atom_site_occupancy
  Li  Li0  1  0.00000000  0.00000000  0.00000000  1
  Li  Li1  1  0.50000000  0.50000000  0.50000000  1
  Ti  Ti2  1  0.50000000  0.50000000  0.00000000  1
  As  As3  1  0.50000000  0.00000000  0.50000000  1
  As  As4  1  0.00000000  0.50000000  0.50000000  1
  As  As5  1  0.99178673  0.17960024  0.55115138  1
  As  As6  1  0.72251153  0.07452275  0.17858711  1
  As  As7  1  0.87712122  0.88225704  0.62465458  1
  As  As8  1  0.42657195  0.61397198  0.10842393  1
  O  O9  1  0.55891996  0.90050082  0.45079584  1
  O  O10  1  0.80694046  0.41856563  0.19955431  1
  O  O11  1  0.55026562  0.96660170  0.30401807  1
  O  O12  1  0.68641713  0.59829438  0.29287995  1
  O  O13  1  0.97973973  0.76677857  0.99767024  1
