# generated using pymatgen
data_Li3TiCu2(ClO)2
_symmetry_space_group_name_H-M   'P 1'
_cell_length_a   6.14451737
_cell_length_b   5.92918004
_cell_length_c   6.80238328
_cell_angle_alpha   97.40668625
_cell_angle_beta   100.22432587
_cell_angle_gamma   97.69346665
_symmetry_Int_Tables_number   1
_chemical_formula_structural   Li3TiCu2(ClO)2
_chemical_formula_sum   'Li3 Ti1 Cu2 Cl2 O2'
_cell_volume   238.71340104
_cell_formula_units_Z   1
loop_
 _symmetry_equiv_pos_site_id
 _symmetry_equiv_pos_as_xyz
  1  'x, y, z'
loop_
 _atom_site_type_symbol
 _atom_site_label
 _atom_site_symmetry_multiplicity
 _atom_site_fract_x
 _atom_site_fract_y
 _atom_site_fract_z
 _atom_site_occupancy
  Li  Li0  1  0.00000000  0.00000000  0.00000000  1
  Li  Li1  1  0.50000000  0.50000000  0.50000000  1
  Li  Li2  1  0.25000000  0.25000000  0.25000000  1
  Cu  Cu3  1  0.75000000  0.25000000  0.00000000  1
  Cu  Cu4  1  0.25000000  0.75000000  0.50000000  1
  Cl  Cl5  1  0.78281618  0.48970439  0.32682304  1
  Cl  Cl6  1  0.71920807  0.60619936  0.34194388  1
  Ti  Ti7  1  0.09911437  0.82306377  0.39492946  1
  O  O8  1  0.81619197  0.20578101  0.66611515  1
  O  O9  1  0.70314507  0.67810455  0.10765175  1
