# generated using pymatgen
data_Li3Cu2Ni2P5Cl2
_symmetry_space_group_name_H-M   'P 1'
_cell_length_a   6.15083119
_cell_length_b   5.81652147
_cell_length_c   7.57208064
_cell_angle_alpha   99.95521159
_cell_angle_beta   102.43801435
_cell_angle_gamma   99.50334244
_symmetry_Int_Tables_number   1
_chemical_formula_structural   Li3Cu2Ni2P5Cl2
_chemical_formula_sum   'Li3 Cu2 Ni2 P5 Cl2'
_cell_volume   254.72981230
_cell_formula_units_Z   1
loop_
 _symmetry_equiv_pos_site_id
 _symmetry_equiv_pos_as_xyz
  1  'x, y, z'
loop_
 _atom_site_type_symbol
 _atom_site_label
 _atom_site_symmetry_multiplicity
 _atom_site_fract_x
 _atom_site_fract_y
 _atom_site_fract_z
 _atom_site_occupancy
  Cl  Cl0  1  0.00000000  0.00000000  0.00000000  1
  Cl  Cl1  1  0.50000000  0.50000000  0.50000000  1
  Ni  Ni2  1  0.25000000  0.25000000  0.25000000  1
  Ni  Ni3  1  0.75000000  0.25000000  0.00000000  1
  P  P4  1  0.25000000  0.75000000  0.50000000  1
  P  P5  1  0.47012491  0.59490156  0.93346108  1
  P  P6  1  0.12302961  0.29914300  0.96173308  1
  P  P7  1  0.83077528  0.95938984  0.07275642  1
  P  P8  1  0.73154933  0.26524510  0.82170079  1
  Li  Li9  1  0.52823375  0.33778809  0.67633021  1
  Li  Li10  1  0.75823882  0.50751086  0.52971946  1
  Li  Li11  1  0.83340246  0.03111904  0.93953642  1
  Cu  Cu12  1  0.55248785  0.15282456  0.32970874  1
  Cu  Cu13  1  0.48244396  0.82071639  0.39216821  1
