# generated using pymatgen
data_LiCuAs3
_symmetry_space_group_name_H-M   'P 1'
_cell_length_a   7.30470373
_cell_length_b   7.19781011
_cell_length_c   8.09125999
_cell_angle_alpha   93.49433162
_cell_angle_beta   93.87729745
_cell_angle_gamma   93.55535217
_symmetry_Int_Tables_number   1
_chemical_formula_structural   LiCuAs3
_chemical_formula_sum   'Li2 Cu2 As6'
_cell_volume   422.72313213
_cell_formula_units_Z   2
loop_
 _symmetry_equiv_pos_site_id
 _symmetry_equiv_pos_as_xyz
  1  'x, y, z'
loop_
 _atom_site_type_symbol
 _atom_site_label
 _atom_site_symmetry_multiplicity
 _atom_site_fract_x
 _atom_site_fract_y
 _atom_site_fract_z
 _atom_site_occupancy
  Li  Li0  1  0.00000000  0.00000000  0.00000000  1
  Li  Li1  1  0.50000000  0.50000000  0.50000000  1
  Cu  Cu2  1  0.25000000  0.25000000  0.25000000  1
  Cu  Cu3  1  0.75000000  0.25000000  0.00000000  1
  As  As4  1  0.25000000  0.75000000  0.50000000  1
  As  As5  1  0.26298910  0.34492982  0.77645503  1
  As  As6  1  0.83696720  0.85464247  0.88567812  1
  As  As7  1  0.79738429  0.89386379  0.34642110  1
  As  As8  1  0.10647174  0.46243857  0.22861072  1
  As  As9  1  0.58365852  0.86364772  0.68076199  1
