# generated using pymatgen
data_LiSe2(OF)2
_symmetry_space_group_name_H-M   'P 1'
_cell_length_a   8.45276487
_cell_length_b   8.31900527
_cell_length_c   8.82756533
_cell_angle_alpha   90.00000000
_cell_angle_beta   90.00000000
_cell_angle_gamma   90.00000000
_symmetry_Int_Tables_number   1
_chemical_formula_structural   LiSe2(OF)2
_chemical_formula_sum   'Li1 Se2 O2 F2'
_cell_volume   620.74199586
_cell_formula_units_Z   1
loop_
 _symmetry_equiv_pos_site_id
 _symmetry_equiv_pos_as_xyz
  1  'x, y, z'
loop_
 _atom_site_type_symbol
 _atom_site_label
 _atom_site_symmetry_multiplicity
 _atom_site_fract_x
 _atom_site_fract_y
 _atom_site_fract_z
 _atom_site_occupancy
  Li  Li0  1  0.00000000  0.00000000  0.00000000  1
  Se  Se1  1  0.33300000  0.66700000  0.25000000  1
  Se  Se2  1  0.66700000  0.33300000  0.50000000  1
  F  F3  1  0.00000000  0.00000000  0.75000000  1
  F  F4  1  0.39026811  0.77107135  0.13887618  1
  O  O5  1  0.64227057  0.05104225  0.62581385  1
  O  O6  1  0.44181902  0.44012462  0.72848300  1
