# generated using pymatgen
data_Li2Ni2As6O7
_symmetry_space_group_name_H-M   'P 1'
_cell_length_a   7.31233429
_cell_length_b   7.25167456
_cell_length_c   8.42394899
_cell_angle_alpha   93.88539459
_cell_angle_beta   94.32145154
_cell_angle_gamma   93.88867338
_symmetry_Int_Tables_number   1
_chemical_formula_structural   Li2Ni2As6O7
_chemical_formula_sum   'Li2 Ni2 As6 O7'
_cell_volume   443.20474972
_cell_formula_units_Z   1
loop_
 _symmetry_equiv_pos_site_id
 _symmetry_equiv_pos_as_xyz
  1  'x, y, z'
loop_
 _atom_site_type_symbol
 _atom_site_label
 _atom_site_symmetry_multiplicity
 _atom_site_fract_x
 _atom_site_fract_y
 _atom_site_fract_z
 _atom_site_occupancy
  Ni  Ni0  1  0.00000000  0.00000000  0.00000000  1
  Ni  Ni1  1  0.33300000  0.66700000  0.25000000  1
  O  O2  1  0.66700000  0.33300000  0.50000000  1
  O  O3  1  0.00000000  0.00000000  0.75000000  1
  O  O4  1  0.08727880  0.40122277  0.19641298  1
  O  O5  1  0.92288477  0.05884192  0.56601483  1
  O  O6  1  0.70868259  0.32106561  0.54137000  1
  O  O7  1  0.06847079  0.56082449  0.77377894  1
  O  O8  1  0.49272089  0.40295802  0.88491216  1
  As  As9  1  0.23012065  0.76109752  0.26794729  1
  As  As10  1  0.77875305  0.05165480  0.11427749  1
  As  As11  1  0.74942937  0.53807710  0.00012823  1
  As  As12  1  0.63944182  0.45605130  0.05833303  1
  As  As13  1  0.14254576  0.49904780  0.35533717  1
  As  As14  1  0.62974773  0.91029252  0.53493071  1
  Li  Li15  1  0.26628821  0.98691871  0.85885712  1
  Li  Li16  1  0.12855076  0.61188126  0.66877533  1
