# generated using pymatgen
data_Li3TiAs6O5
_symmetry_space_group_name_H-M   'P 1'
_cell_length_a   8.29537736
_cell_length_b   8.14800329
_cell_length_c   8.21479917
_cell_angle_alpha   90.80830177
_cell_angle_beta   90.51246067
_cell_angle_gamma   90.93667715
_symmetry_Int_Tables_number   1
_chemical_formula_structural   Li3TiAs6O5
_chemical_formula_sum   'Li3 Ti1 As6 O5'
_cell_volume   555.09172071
_cell_formula_units_Z   1
loop_
 _symmetry_equiv_pos_site_id
 _symmetry_equiv_pos_as_xyz
  1  'x, y, z'
loop_
 _atom_site_type_symbol
 _atom_site_label
 _atom_site_symmetry_multiplicity
 _atom_site_fract_x
 _atom_site_fract_y
 _atom_site_fract_z
 _atom_site_occupancy
  Li  Li0  1  0.00000000  0.00000000  0.00000000  1
  Li  Li1  1  0.50000000  0.50000000  0.50000000  1
  Li  Li2  1  0.25000000  0.25000000  0.25000000  1
  Ti  Ti3  1  0.75000000  0.25000000  0.00000000  1
  As  As4  1  0.25000000  0.75000000  0.50000000  1
  As  As5  1  0.53776308  0.91785641  0.66434416  1
  As  As6  1  0.58530043  0.76020391  0.33802803  1
  As  As7  1  0.34921610  0.41648890  0.34222233  1
  As  As8  1  0.94598275  0.73021535  0.12934232  1
  As  As9  1  0.16086968  0.33615488  0.28221849  1
  O  O10  1  0.30653414  0.00809132  0.42217656  1
  O  O11  1  0.42705917  0.86187071  0.03702214  1
  O  O12  1  0.11737911  0.43836778  0.16247143  1
  O  O13  1  0.52558001  0.16216342  0.68040294  1
  O  O14  1  0.77731304  0.91672568  0.83389133  1
