# generated using pymatgen
data_Li2MnSb4P3
_symmetry_space_group_name_H-M   'P 1'
_cell_length_a   5.78773921
_cell_length_b   6.27507031
_cell_length_c   7.38709774
_cell_angle_alpha   94.70565246
_cell_angle_beta   95.57428014
_cell_angle_gamma   95.35561350
_symmetry_Int_Tables_number   1
_chemical_formula_structural   Li2MnSb4P3
_chemical_formula_sum   'Li2 Mn1 Sb4 P3'
_cell_volume   264.72778236
_cell_formula_units_Z   1
loop_
 _symmetry_equiv_pos_site_id
 _symmetry_equiv_pos_as_xyz
  1  'x, y, z'
loop_
 _atom_site_type_symbol
 _atom_site_label
 _atom_site_symmetry_multiplicity
 _atom_site_fract_x
 _atom_site_fract_y
 _atom_site_fract_z
 _atom_site_occupancy
  Mn  Mn0  1  0.00000000  0.00000000  0.00000000  1
  Sb  Sb1  1  0.50000000  0.50000000  0.50000000  1
  Sb  Sb2  1  0.50000000  0.50000000  0.00000000  1
  Sb  Sb3  1  0.50000000  0.00000000  0.50000000  1
  Sb  Sb4  1  0.00000000  0.50000000  0.50000000  1
  P  P5  1  0.38433395  0.71166063  0.48484005  1
  P  P6  1  0.29273690  0.37717673  0.51972167  1
  P  P7  1  0.82413684  0.66312472  0.47062067  1
  Li  Li8  1  0.99103431  0.84073803  0.93294234  1
  Li  Li9  1  0.77050472  0.05795443  0.39539867  1
