# generated using pymatgen
data_Li2Cu2I4N5O3
_symmetry_space_group_name_H-M   'P 1'
_cell_length_a   7.80052371
_cell_length_b   7.62762208
_cell_length_c   7.78001252
_cell_angle_alpha   91.39172113
_cell_angle_beta   92.03449669
_cell_angle_gamma   91.48901204
_symmetry_Int_Tables_number   1
_chemical_formula_structural   Li2Cu2I4N5O3
_chemical_formula_sum   'Li2 Cu2 I4 N5 O3'
_cell_volume   462.31116136
_cell_formula_units_Z   1
loop_
 _symmetry_equiv_pos_site_id
 _symmetry_equiv_pos_as_xyz
  1  'x, y, z'
loop_
 _atom_site_type_symbol
 _atom_site_label
 _atom_site_symmetry_multiplicity
 _atom_site_fract_x
 _atom_site_fract_y
 _atom_site_fract_z
 _atom_site_occupancy
  I  I0  1  0.00000000  0.00000000  0.00000000  1
  I  I1  1  0.50000000  0.50000000  0.50000000  1
  I  I2  1  0.50000000  0.50000000  0.00000000  1
  I  I3  1  0.50000000  0.00000000  0.50000000  1
  Li  Li4  1  0.00000000  0.50000000  0.50000000  1
  Li  Li5  1  0.20535305  0.71495427  0.80241834  1
  Cu  Cu6  1  0.18113516  0.54202771  0.35704783  1
  Cu  Cu7  1  0.80805453  0.87745655  0.72994559  1
  O  O8  1  0.20512677  0.05092609  0.01389768  1
  O  O9  1  0.27455017  0.07337705  0.32960239  1
  O  O10  1  0.37626983  0.85926461  0.12332673  1
  N  N11  1  0.64799477  0.09463215  0.60927679  1
  N  N12  1  0.43653968  0.44943679  0.26924949  1
  N  N13  1  0.52387624  0.31164928  0.23617501  1
  N  N14  1  0.13625463  0.45467811  0.61862317  1
  N  N15  1  0.99586934  0.64892522  0.43073705  1
