# generated using pymatgen
data_Li2LuCu2(NiP2)2
_symmetry_space_group_name_H-M   'P 1'
_cell_length_a   7.47175510
_cell_length_b   7.25139243
_cell_length_c   8.00080185
_cell_angle_alpha   91.77095810
_cell_angle_beta   91.63516213
_cell_angle_gamma   91.98290113
_symmetry_Int_Tables_number   1
_chemical_formula_structural   Li2LuCu2(NiP2)2
_chemical_formula_sum   'Li2 Lu1 Cu2 Ni2 P4'
_cell_volume   432.83176185
_cell_formula_units_Z   1
loop_
 _symmetry_equiv_pos_site_id
 _symmetry_equiv_pos_as_xyz
  1  'x, y, z'
loop_
 _atom_site_type_symbol
 _atom_site_label
 _atom_site_symmetry_multiplicity
 _atom_site_fract_x
 _atom_site_fract_y
 _atom_site_fract_z
 _atom_site_occupancy
  P  P0  1  0.12500000  0.00000000  0.25000000  1
  P  P1  1  0.00000000  0.00000000  0.00000000  1
  P  P2  1  0.37500000  0.00000000  0.25000000  1
  P  P3  1  0.25000000  0.25000000  0.25000000  1
  Lu  Lu4  1  0.00000000  0.25000000  0.12500000  1
  Li  Li5  1  0.08408687  0.86641780  0.39108392  1
  Li  Li6  1  0.19172436  0.17710403  0.24932346  1
  Cu  Cu7  1  0.70723857  0.44799330  0.88310466  1
  Cu  Cu8  1  0.44298366  0.19037006  0.42973868  1
  Ni  Ni9  1  0.61561061  0.54799345  0.20892778  1
  Ni  Ni10  1  0.39635478  0.72844773  0.91751198  1
