# generated using pymatgen
data_Li2Lu(CuAs3)2
_symmetry_space_group_name_H-M   'P 1'
_cell_length_a   7.47809329
_cell_length_b   7.51208941
_cell_length_c   8.33476665
_cell_angle_alpha   91.30451279
_cell_angle_beta   92.34171602
_cell_angle_gamma   91.41042792
_symmetry_Int_Tables_number   1
_chemical_formula_structural   Li2Lu(CuAs3)2
_chemical_formula_sum   'Li2 Lu1 Cu2 As6'
_cell_volume   467.54952824
_cell_formula_units_Z   1
loop_
 _symmetry_equiv_pos_site_id
 _symmetry_equiv_pos_as_xyz
  1  'x, y, z'
loop_
 _atom_site_type_symbol
 _atom_site_label
 _atom_site_symmetry_multiplicity
 _atom_site_fract_x
 _atom_site_fract_y
 _atom_site_fract_z
 _atom_site_occupancy
  Lu  Lu0  1  0.00000000  0.00000000  0.00000000  1
  Li  Li1  1  0.50000000  0.50000000  0.50000000  1
  Li  Li2  1  0.25000000  0.25000000  0.25000000  1
  Cu  Cu3  1  0.75000000  0.25000000  0.00000000  1
  Cu  Cu4  1  0.25000000  0.75000000  0.50000000  1
  As  As5  1  0.33967547  0.03517964  0.63707299  1
  As  As6  1  0.54410262  0.91976652  0.43024921  1
  As  As7  1  0.13174536  0.71722657  0.99339235  1
  As  As8  1  0.10238157  0.50387132  0.85891781  1
  As  As9  1  0.01964431  0.21658490  0.22153700  1
  As  As10  1  0.15586031  0.63636796  0.57307325  1
