# generated using pymatgen
data_Li3TiCl2O4F3
_symmetry_space_group_name_H-M   'P 1'
_cell_length_a   7.36204177
_cell_length_b   7.21119280
_cell_length_c   7.13209562
_cell_angle_alpha   93.56041089
_cell_angle_beta   94.80610873
_cell_angle_gamma   93.30090307
_symmetry_Int_Tables_number   1
_chemical_formula_structural   Li3TiCl2O4F3
_chemical_formula_sum   'Li3 Ti1 Cl2 O4 F3'
_cell_volume   375.82593553
_cell_formula_units_Z   1
loop_
 _symmetry_equiv_pos_site_id
 _symmetry_equiv_pos_as_xyz
  1  'x, y, z'
loop_
 _atom_site_type_symbol
 _atom_site_label
 _atom_site_symmetry_multiplicity
 _atom_site_fract_x
 _atom_site_fract_y
 _atom_site_fract_z
 _atom_site_occupancy
  Li  Li0  1  0.00000000  0.00000000  0.00000000  1
  Li  Li1  1  0.50000000  0.50000000  0.50000000  1
  Li  Li2  1  0.25000000  0.25000000  0.25000000  1
  F  F3  1  0.75000000  0.25000000  0.00000000  1
  F  F4  1  0.25000000  0.75000000  0.50000000  1
  F  F5  1  0.46464774  0.07960736  0.98518695  1
  Cl  Cl6  1  0.41358518  0.56317063  0.97119235  1
  Cl  Cl7  1  0.37256403  0.62066662  0.31656580  1
  Ti  Ti8  1  0.96273639  0.80128896  0.75359035  1
  O  O9  1  0.49396528  0.12702496  0.81303997  1
  O  O10  1  0.73883940  0.57469595  0.34961620  1
  O  O11  1  0.89854252  0.13959311  0.08177982  1
  O  O12  1  0.09077827  0.87177221  0.81561532  1
