# generated using pymatgen
data_Li2LuCu2(NiP2)2
_symmetry_space_group_name_H-M   'P 1'
_cell_length_a   7.35929638
_cell_length_b   7.20753986
_cell_length_c   7.96452746
_cell_angle_alpha   92.93827480
_cell_angle_beta   93.14677506
_cell_angle_gamma   93.07084830
_symmetry_Int_Tables_number   1
_chemical_formula_structural   Li2LuCu2(NiP2)2
_chemical_formula_sum   'Li2 Lu1 Cu2 Ni2 P4'
_cell_volume   420.59230518
_cell_formula_units_Z   1
loop_
 _symmetry_equiv_pos_site_id
 _symmetry_equiv_pos_as_xyz
  1  'x, y, z'
loop_
 _atom_site_type_symbol
 _atom_site_label
 _atom_site_symmetry_multiplicity
 _atom_site_fract_x
 _atom_site_fract_y
 _atom_site_fract_z
 _atom_site_occupancy
  Ni  Ni0  1  0.12500000  0.00000000  0.25000000  1
  Ni  Ni1  1  0.00000000  0.00000000  0.00000000  1
  P  P2  1  0.37500000  0.00000000  0.25000000  1
  P  P3  1  0.25000000  0.25000000  0.25000000  1
  P  P4  1  0.00000000  0.25000000  0.12500000  1
  P  P5  1  0.93810065  0.47379712  0.43453304  1
  Lu  Lu6  1  0.11193057  0.27432937  0.95851681  1
  Li  Li7  1  0.90584732  0.95851421  0.84403970  1
  Li  Li8  1  0.56556887  0.93211824  0.33726021  1
  Cu  Cu9  1  0.78789570  0.81964965  0.00098516  1
  Cu  Cu10  1  0.23815664  0.70523001  0.87219107  1
