# generated using pymatgen
data_LiMn2Sb4P3
_symmetry_space_group_name_H-M   'P 1'
_cell_length_a   6.02168610
_cell_length_b   6.28241465
_cell_length_c   6.85205518
_cell_angle_alpha   93.90452627
_cell_angle_beta   92.12495408
_cell_angle_gamma   93.91360116
_symmetry_Int_Tables_number   1
_chemical_formula_structural   LiMn2Sb4P3
_chemical_formula_sum   'Li1 Mn2 Sb4 P3'
_cell_volume   257.78668911
_cell_formula_units_Z   1
loop_
 _symmetry_equiv_pos_site_id
 _symmetry_equiv_pos_as_xyz
  1  'x, y, z'
loop_
 _atom_site_type_symbol
 _atom_site_label
 _atom_site_symmetry_multiplicity
 _atom_site_fract_x
 _atom_site_fract_y
 _atom_site_fract_z
 _atom_site_occupancy
  Mn  Mn0  1  0.00000000  0.00000000  0.00000000  1
  Mn  Mn1  1  0.50000000  0.50000000  0.50000000  1
  Sb  Sb2  1  0.25000000  0.25000000  0.25000000  1
  Sb  Sb3  1  0.75000000  0.25000000  0.00000000  1
  Sb  Sb4  1  0.25000000  0.75000000  0.50000000  1
  Sb  Sb5  1  0.97743658  0.88889460  0.63056986  1
  P  P6  1  0.20718294  0.70334465  0.43736552  1
  P  P7  1  0.76715000  0.17405803  0.28814825  1
  P  P8  1  0.46840686  0.54617589  0.89176991  1
  Li  Li9  1  0.27509987  0.75882385  0.34298421  1
