# generated using pymatgen
data_Li2Lu(CuP2)2
_symmetry_space_group_name_H-M   'P 1'
_cell_length_a   7.14074445
_cell_length_b   7.10800331
_cell_length_c   7.85876255
_cell_angle_alpha   94.40864124
_cell_angle_beta   95.49692144
_cell_angle_gamma   94.28268210
_symmetry_Int_Tables_number   1
_chemical_formula_structural   Li2Lu(CuP2)2
_chemical_formula_sum   'Li2 Lu1 Cu2 P4'
_cell_volume   394.51874845
_cell_formula_units_Z   1
loop_
 _symmetry_equiv_pos_site_id
 _symmetry_equiv_pos_as_xyz
  1  'x, y, z'
loop_
 _atom_site_type_symbol
 _atom_site_label
 _atom_site_symmetry_multiplicity
 _atom_site_fract_x
 _atom_site_fract_y
 _atom_site_fract_z
 _atom_site_occupancy
  P  P0  1  0.00000000  0.00000000  0.00000000  1
  P  P1  1  0.33300000  0.66700000  0.25000000  1
  P  P2  1  0.66700000  0.33300000  0.50000000  1
  P  P3  1  0.00000000  0.00000000  0.75000000  1
  Lu  Lu4  1  0.22891395  0.78693274  0.70179841  1
  Li  Li5  1  0.39298308  0.55941937  0.88672901  1
  Li  Li6  1  0.26584266  0.00773864  0.40468745  1
  Cu  Cu7  1  0.48731014  0.46975972  0.37664052  1
  Cu  Cu8  1  0.96383173  0.60772450  0.34142985  1
