# generated using pymatgen
data_Li2P4F3
_symmetry_space_group_name_H-M   'P 1'
_cell_length_a   7.19347481
_cell_length_b   7.17231060
_cell_length_c   8.02361755
_cell_angle_alpha   93.68321961
_cell_angle_beta   94.94600438
_cell_angle_gamma   93.62801247
_symmetry_Int_Tables_number   1
_chemical_formula_structural   Li2P4F3
_chemical_formula_sum   'Li2 P4 F3'
_cell_volume   410.58874768
_cell_formula_units_Z   1
loop_
 _symmetry_equiv_pos_site_id
 _symmetry_equiv_pos_as_xyz
  1  'x, y, z'
loop_
 _atom_site_type_symbol
 _atom_site_label
 _atom_site_symmetry_multiplicity
 _atom_site_fract_x
 _atom_site_fract_y
 _atom_site_fract_z
 _atom_site_occupancy
  F  F0  1  0.12500000  0.00000000  0.25000000  1
  F  F1  1  0.00000000  0.00000000  0.00000000  1
  F  F2  1  0.37500000  0.00000000  0.25000000  1
  P  P3  1  0.25000000  0.25000000  0.25000000  1
  P  P4  1  0.00000000  0.25000000  0.12500000  1
  P  P5  1  0.74370347  0.27744599  0.77908195  1
  P  P6  1  0.16966272  0.18359378  0.11917299  1
  Li  Li7  1  0.91728561  0.79649530  0.66598957  1
  Li  Li8  1  0.37573410  0.17251384  0.72180326  1
