# generated using pymatgen
data_LiScSe3I4O3
_symmetry_space_group_name_H-M   'P 1'
_cell_length_a   8.20762603
_cell_length_b   8.91102276
_cell_length_c   8.14779893
_cell_angle_alpha   90.00000000
_cell_angle_beta   90.00000000
_cell_angle_gamma   90.00000000
_symmetry_Int_Tables_number   1
_chemical_formula_structural   LiScSe3I4O3
_chemical_formula_sum   'Li1 Sc1 Se3 I4 O3'
_cell_volume   595.91650744
_cell_formula_units_Z   1
loop_
 _symmetry_equiv_pos_site_id
 _symmetry_equiv_pos_as_xyz
  1  'x, y, z'
loop_
 _atom_site_type_symbol
 _atom_site_label
 _atom_site_symmetry_multiplicity
 _atom_site_fract_x
 _atom_site_fract_y
 _atom_site_fract_z
 _atom_site_occupancy
  Sc  Sc0  1  0.00000000  0.00000000  0.00000000  1
  I  I1  1  0.50000000  0.50000000  0.50000000  1
  I  I2  1  0.50000000  0.50000000  0.00000000  1
  I  I3  1  0.50000000  0.00000000  0.50000000  1
  I  I4  1  0.00000000  0.50000000  0.50000000  1
  Li  Li5  1  0.51737846  0.19598586  0.09716762  1
  Se  Se6  1  0.79725303  0.70753586  0.65722279  1
  Se  Se7  1  0.37142615  0.22852265  0.03089368  1
  Se  Se8  1  0.11261632  0.82319563  0.83068117  1
  O  O9  1  0.66224794  0.85611572  0.84106765  1
  O  O10  1  0.94107828  0.21675420  0.01856863  1
  O  O11  1  0.25492708  0.82586572  0.73945319  1
