# generated using pymatgen
data_Li5Ti2(PO)3
_symmetry_space_group_name_H-M   'P 1'
_cell_length_a   8.09037448
_cell_length_b   7.65019411
_cell_length_c   6.80556501
_cell_angle_alpha   90.00000000
_cell_angle_beta   90.00000000
_cell_angle_gamma   90.00000000
_symmetry_Int_Tables_number   1
_chemical_formula_structural   Li5Ti2(PO)3
_chemical_formula_sum   'Li5 Ti2 P3 O3'
_cell_volume   421.21639370
_cell_formula_units_Z   1
loop_
 _symmetry_equiv_pos_site_id
 _symmetry_equiv_pos_as_xyz
  1  'x, y, z'
loop_
 _atom_site_type_symbol
 _atom_site_label
 _atom_site_symmetry_multiplicity
 _atom_site_fract_x
 _atom_site_fract_y
 _atom_site_fract_z
 _atom_site_occupancy
  P  P0  1  0.00000000  0.00000000  0.00000000  1
  P  P1  1  0.33300000  0.66700000  0.25000000  1
  P  P2  1  0.66700000  0.33300000  0.50000000  1
  Li  Li3  1  0.00000000  0.00000000  0.75000000  1
  Li  Li4  1  0.09720674  0.53249845  0.90947444  1
  Li  Li5  1  0.18575473  0.27603350  0.98389504  1
  Li  Li6  1  0.76041057  0.78313509  0.05532126  1
  Li  Li7  1  0.07227988  0.37523409  0.25541803  1
  Ti  Ti8  1  0.86460909  0.96308536  0.22443065  1
  Ti  Ti9  1  0.97188832  0.53872730  0.95522551  1
  O  O10  1  0.99742392  0.62520730  0.98860620  1
  O  O11  1  0.90198377  0.64459671  0.21701745  1
  O  O12  1  0.99581295  0.64699935  0.63072992  1
