# generated using pymatgen
data_Li2Cu2Ni2O5
_symmetry_space_group_name_H-M   'P 1'
_cell_length_a   6.67136108
_cell_length_b   6.52126769
_cell_length_c   7.61871692
_cell_angle_alpha   94.04274979
_cell_angle_beta   95.42891249
_cell_angle_gamma   94.64559528
_symmetry_Int_Tables_number   1
_chemical_formula_structural   Li2Cu2Ni2O5
_chemical_formula_sum   'Li2 Cu2 Ni2 O5'
_cell_volume   327.86497922
_cell_formula_units_Z   1
loop_
 _symmetry_equiv_pos_site_id
 _symmetry_equiv_pos_as_xyz
  1  'x, y, z'
loop_
 _atom_site_type_symbol
 _atom_site_label
 _atom_site_symmetry_multiplicity
 _atom_site_fract_x
 _atom_site_fract_y
 _atom_site_fract_z
 _atom_site_occupancy
  Li  Li0  1  0.00000000  0.00000000  0.00000000  1
  Li  Li1  1  0.50000000  0.50000000  0.50000000  1
  Cu  Cu2  1  0.25000000  0.25000000  0.25000000  1
  Cu  Cu3  1  0.75000000  0.25000000  0.00000000  1
  Ni  Ni4  1  0.25000000  0.75000000  0.50000000  1
  Ni  Ni5  1  0.33214827  0.16689965  0.14011691  1
  O  O6  1  0.19487580  0.80856373  0.95942498  1
  O  O7  1  0.63096515  0.85490492  0.62682811  1
  O  O8  1  0.69595392  0.67585148  0.01286571  1
  O  O9  1  0.21653511  0.24133984  0.49879967  1
  O  O10  1  0.60910516  0.69712327  0.08676226  1
