# generated using pymatgen
data_Li2P4F3
_symmetry_space_group_name_H-M   'P 1'
_cell_length_a   7.27550795
_cell_length_b   7.30706012
_cell_length_c   8.22996831
_cell_angle_alpha   92.66403906
_cell_angle_beta   94.59102545
_cell_angle_gamma   92.59261964
_symmetry_Int_Tables_number   1
_chemical_formula_structural   Li2P4F3
_chemical_formula_sum   'Li2 P4 F3'
_cell_volume   435.12426867
_cell_formula_units_Z   1
loop_
 _symmetry_equiv_pos_site_id
 _symmetry_equiv_pos_as_xyz
  1  'x, y, z'
loop_
 _atom_site_type_symbol
 _atom_site_label
 _atom_site_symmetry_multiplicity
 _atom_site_fract_x
 _atom_site_fract_y
 _atom_site_fract_z
 _atom_site_occupancy
  F  F0  1  0.00000000  0.00000000  0.00000000  1
  F  F1  1  0.50000000  0.50000000  0.50000000  1
  F  F2  1  0.25000000  0.25000000  0.25000000  1
  P  P3  1  0.75000000  0.25000000  0.00000000  1
  P  P4  1  0.25000000  0.75000000  0.50000000  1
  P  P5  1  0.72481439  0.59951198  0.69122464  1
  P  P6  1  0.92914183  0.71983350  0.52518745  1
  Li  Li7  1  0.28272254  0.64556025  0.73339799  1
  Li  Li8  1  0.36741622  0.11050483  0.71153780  1
