# generated using pymatgen
data_Li2Ti(PO)4
_symmetry_space_group_name_H-M   'P 1'
_cell_length_a   8.21587930
_cell_length_b   8.15092924
_cell_length_c   7.51135389
_cell_angle_alpha   91.95251822
_cell_angle_beta   92.42811559
_cell_angle_gamma   91.86944592
_symmetry_Int_Tables_number   1
_chemical_formula_structural   Li2Ti(PO)4
_chemical_formula_sum   'Li2 Ti1 P4 O4'
_cell_volume   501.97742590
_cell_formula_units_Z   1
loop_
 _symmetry_equiv_pos_site_id
 _symmetry_equiv_pos_as_xyz
  1  'x, y, z'
loop_
 _atom_site_type_symbol
 _atom_site_label
 _atom_site_symmetry_multiplicity
 _atom_site_fract_x
 _atom_site_fract_y
 _atom_site_fract_z
 _atom_site_occupancy
  O  O0  1  0.00000000  0.00000000  0.00000000  1
  O  O1  1  0.33300000  0.66700000  0.25000000  1
  O  O2  1  0.66700000  0.33300000  0.50000000  1
  O  O3  1  0.00000000  0.00000000  0.75000000  1
  P  P4  1  0.73703737  0.60908300  0.77043755  1
  P  P5  1  0.43980991  0.69316542  0.62716240  1
  P  P6  1  0.39271923  0.39814901  0.64717742  1
  P  P7  1  0.06865307  0.89579910  0.87811285  1
  Ti  Ti8  1  0.08575667  0.31318429  0.07019410  1
  Li  Li9  1  0.66335752  0.54764246  0.83915522  1
  Li  Li10  1  0.36668094  0.51400721  0.06134376  1
