# generated using pymatgen
data_Li2TiCl2F3
_symmetry_space_group_name_H-M   'P 1'
_cell_length_a   7.28570603
_cell_length_b   7.09075994
_cell_length_c   7.42751000
_cell_angle_alpha   93.14505352
_cell_angle_beta   94.15785098
_cell_angle_gamma   93.05759619
_symmetry_Int_Tables_number   1
_chemical_formula_structural   Li2TiCl2F3
_chemical_formula_sum   'Li2 Ti1 Cl2 F3'
_cell_volume   381.49425317
_cell_formula_units_Z   1
loop_
 _symmetry_equiv_pos_site_id
 _symmetry_equiv_pos_as_xyz
  1  'x, y, z'
loop_
 _atom_site_type_symbol
 _atom_site_label
 _atom_site_symmetry_multiplicity
 _atom_site_fract_x
 _atom_site_fract_y
 _atom_site_fract_z
 _atom_site_occupancy
  Li  Li0  1  0.00000000  0.00000000  0.00000000  1
  Li  Li1  1  0.50000000  0.50000000  0.50000000  1
  F  F2  1  0.25000000  0.25000000  0.25000000  1
  F  F3  1  0.75000000  0.25000000  0.00000000  1
  F  F4  1  0.25000000  0.75000000  0.50000000  1
  Cl  Cl5  1  0.28969129  0.98278704  0.99591690  1
  Cl  Cl6  1  0.78113453  0.88639201  0.21092334  1
  Ti  Ti7  1  0.93308828  0.47989044  0.31136199  1
