# generated using pymatgen
data_Li2LuP4N5
_symmetry_space_group_name_H-M   'P 1'
_cell_length_a   7.24242828
_cell_length_b   7.11522059
_cell_length_c   8.14329550
_cell_angle_alpha   94.01258220
_cell_angle_beta   94.16244333
_cell_angle_gamma   94.09507425
_symmetry_Int_Tables_number   1
_chemical_formula_structural   Li2LuP4N5
_chemical_formula_sum   'Li2 Lu1 P4 N5'
_cell_volume   416.26748971
_cell_formula_units_Z   1
loop_
 _symmetry_equiv_pos_site_id
 _symmetry_equiv_pos_as_xyz
  1  'x, y, z'
loop_
 _atom_site_type_symbol
 _atom_site_label
 _atom_site_symmetry_multiplicity
 _atom_site_fract_x
 _atom_site_fract_y
 _atom_site_fract_z
 _atom_site_occupancy
  P  P0  1  0.00000000  0.00000000  0.00000000  1
  P  P1  1  0.33300000  0.66700000  0.25000000  1
  P  P2  1  0.66700000  0.33300000  0.50000000  1
  P  P3  1  0.00000000  0.00000000  0.75000000  1
  Lu  Lu4  1  0.89476024  0.59588077  0.19356711  1
  Li  Li5  1  0.83459456  0.55192393  0.15280747  1
  Li  Li6  1  0.85304284  0.25260021  0.20040633  1
  N  N7  1  0.34995706  0.32291358  0.52549457  1
  N  N8  1  0.93229118  0.90160603  0.64689900  1
  N  N9  1  0.15961645  0.19010224  0.67382118  1
  N  N10  1  0.76547291  0.44420828  0.22949151  1
  N  N11  1  0.72831327  0.35015014  0.15007413  1
