# generated using pymatgen
data_Li3LuTiAs6N5
_symmetry_space_group_name_H-M   'P 1'
_cell_length_a   8.10304884
_cell_length_b   7.94053548
_cell_length_c   7.86835364
_cell_angle_alpha   91.52290120
_cell_angle_beta   91.28979925
_cell_angle_gamma   91.64985893
_symmetry_Int_Tables_number   1
_chemical_formula_structural   Li3LuTiAs6N5
_chemical_formula_sum   'Li3 Lu1 Ti1 As6 N5'
_cell_volume   505.74403489
_cell_formula_units_Z   1
loop_
 _symmetry_equiv_pos_site_id
 _symmetry_equiv_pos_as_xyz
  1  'x, y, z'
loop_
 _atom_site_type_symbol
 _atom_site_label
 _atom_site_symmetry_multiplicity
 _atom_site_fract_x
 _atom_site_fract_y
 _atom_site_fract_z
 _atom_site_occupancy
  Lu  Lu0  1  0.00000000  0.00000000  0.00000000  1
  Li  Li1  1  0.50000000  0.50000000  0.50000000  1
  Li  Li2  1  0.25000000  0.25000000  0.25000000  1
  Li  Li3  1  0.75000000  0.25000000  0.00000000  1
  Ti  Ti4  1  0.25000000  0.75000000  0.50000000  1
  As  As5  1  0.92792635  0.54933823  0.00149941  1
  As  As6  1  0.97581374  0.60791288  0.07467883  1
  As  As7  1  0.98574178  0.31710200  0.47251561  1
  As  As8  1  0.16856851  0.80151067  0.42478504  1
  As  As9  1  0.89613648  0.71799687  0.41363962  1
  As  As10  1  0.54170554  0.69764706  0.68290908  1
  N  N11  1  0.06847914  0.78529131  0.45648329  1
  N  N12  1  0.29778261  0.32920853  0.57209449  1
  N  N13  1  0.33766368  0.23369704  0.43880890  1
  N  N14  1  0.41974619  0.20781621  0.42152263  1
  N  N15  1  0.61370266  0.86262835  0.66609887  1
