# generated using pymatgen
data_Li3TiI4(OF)3
_symmetry_space_group_name_H-M   'P 1'
_cell_length_a   7.03011596
_cell_length_b   6.83031353
_cell_length_c   7.11204348
_cell_angle_alpha   96.22404247
_cell_angle_beta   98.25940777
_cell_angle_gamma   95.85124831
_symmetry_Int_Tables_number   1
_chemical_formula_structural   Li3TiI4(OF)3
_chemical_formula_sum   'Li3 Ti1 I4 O3 F3'
_cell_volume   333.56535765
_cell_formula_units_Z   1
loop_
 _symmetry_equiv_pos_site_id
 _symmetry_equiv_pos_as_xyz
  1  'x, y, z'
loop_
 _atom_site_type_symbol
 _atom_site_label
 _atom_site_symmetry_multiplicity
 _atom_site_fract_x
 _atom_site_fract_y
 _atom_site_fract_z
 _atom_site_occupancy
  I  I0  1  0.00000000  0.00000000  0.00000000  1
  I  I1  1  0.50000000  0.50000000  0.50000000  1
  I  I2  1  0.25000000  0.25000000  0.25000000  1
  I  I3  1  0.75000000  0.25000000  0.00000000  1
  Li  Li4  1  0.25000000  0.75000000  0.50000000  1
  Li  Li5  1  0.46808208  0.14563175  0.41227677  1
  Li  Li6  1  0.05966273  0.15878224  0.80878124  1
  F  F7  1  0.68304759  0.92078641  0.07787473  1
  F  F8  1  0.77467085  0.62831960  0.99883423  1
  F  F9  1  0.32581980  0.33841578  0.82042469  1
  Ti  Ti10  1  0.47795374  0.37693531  0.65728724  1
  O  O11  1  0.51979509  0.65619247  0.37399273  1
  O  O12  1  0.98797074  0.17631538  0.95410367  1
  O  O13  1  0.42900089  0.02597990  0.78717730  1
