# generated using pymatgen
data_Li2LuTiP3S2
_symmetry_space_group_name_H-M   'P 1'
_cell_length_a   6.57900083
_cell_length_b   6.42732644
_cell_length_c   7.12182269
_cell_angle_alpha   91.85008670
_cell_angle_beta   93.39898172
_cell_angle_gamma   91.32833391
_symmetry_Int_Tables_number   1
_chemical_formula_structural   Li2LuTiP3S2
_chemical_formula_sum   'Li2 Lu1 Ti1 P3 S2'
_cell_volume   300.36749444
_cell_formula_units_Z   1
loop_
 _symmetry_equiv_pos_site_id
 _symmetry_equiv_pos_as_xyz
  1  'x, y, z'
loop_
 _atom_site_type_symbol
 _atom_site_label
 _atom_site_symmetry_multiplicity
 _atom_site_fract_x
 _atom_site_fract_y
 _atom_site_fract_z
 _atom_site_occupancy
  P  P0  1  0.00000000  0.00000000  0.00000000  1
  P  P1  1  0.50000000  0.50000000  0.50000000  1
  P  P2  1  0.25000000  0.25000000  0.25000000  1
  Lu  Lu3  1  0.75000000  0.25000000  0.00000000  1
  Li  Li4  1  0.25000000  0.75000000  0.50000000  1
  Li  Li5  1  0.36569825  0.20015802  0.94221162  1
  S  S6  1  0.01965674  0.61926850  0.50678136  1
  S  S7  1  0.53152242  0.91141907  0.15545455  1
  Ti  Ti8  1  0.70071476  0.06790042  0.92459034  1
