# generated using pymatgen
data_Li2TiI4(OF)3
_symmetry_space_group_name_H-M   'P 1'
_cell_length_a   8.02328352
_cell_length_b   7.86011044
_cell_length_c   7.48403036
_cell_angle_alpha   90.31371228
_cell_angle_beta   91.49254774
_cell_angle_gamma   90.35865690
_symmetry_Int_Tables_number   1
_chemical_formula_structural   Li2TiI4(OF)3
_chemical_formula_sum   'Li2 Ti1 I4 O3 F3'
_cell_volume   471.79522268
_cell_formula_units_Z   1
loop_
 _symmetry_equiv_pos_site_id
 _symmetry_equiv_pos_as_xyz
  1  'x, y, z'
loop_
 _atom_site_type_symbol
 _atom_site_label
 _atom_site_symmetry_multiplicity
 _atom_site_fract_x
 _atom_site_fract_y
 _atom_site_fract_z
 _atom_site_occupancy
  I  I0  1  0.00000000  0.00000000  0.00000000  1
  I  I1  1  0.50000000  0.50000000  0.50000000  1
  I  I2  1  0.25000000  0.25000000  0.25000000  1
  I  I3  1  0.75000000  0.25000000  0.00000000  1
  Li  Li4  1  0.25000000  0.75000000  0.50000000  1
  Li  Li5  1  0.05000645  0.25961930  0.46880297  1
  F  F6  1  0.68380106  0.37711942  0.74778554  1
  F  F7  1  0.56319866  0.40173083  0.68013907  1
  F  F8  1  0.51975523  0.95479434  0.37418029  1
  Ti  Ti9  1  0.75828834  0.90002728  0.47207759  1
  O  O10  1  0.91218061  0.04834172  0.09907362  1
  O  O11  1  0.38030569  0.60008095  0.76326537  1
  O  O12  1  0.76488858  0.68141573  0.28245423  1
