# generated using pymatgen
data_Li3Ni2As6O5
_symmetry_space_group_name_H-M   'P 1'
_cell_length_a   7.93897817
_cell_length_b   7.76178198
_cell_length_c   8.35042529
_cell_angle_alpha   91.30211652
_cell_angle_beta   90.93271358
_cell_angle_gamma   91.50851584
_symmetry_Int_Tables_number   1
_chemical_formula_structural   Li3Ni2As6O5
_chemical_formula_sum   'Li3 Ni2 As6 O5'
_cell_volume   514.17387619
_cell_formula_units_Z   1
loop_
 _symmetry_equiv_pos_site_id
 _symmetry_equiv_pos_as_xyz
  1  'x, y, z'
loop_
 _atom_site_type_symbol
 _atom_site_label
 _atom_site_symmetry_multiplicity
 _atom_site_fract_x
 _atom_site_fract_y
 _atom_site_fract_z
 _atom_site_occupancy
  Li  Li0  1  0.00000000  0.00000000  0.00000000  1
  Li  Li1  1  0.50000000  0.50000000  0.50000000  1
  Li  Li2  1  0.25000000  0.25000000  0.25000000  1
  Ni  Ni3  1  0.75000000  0.25000000  0.00000000  1
  Ni  Ni4  1  0.25000000  0.75000000  0.50000000  1
  As  As5  1  0.22208495  0.84091678  0.41290016  1
  As  As6  1  0.19717328  0.64173925  0.03793087  1
  As  As7  1  0.62725610  0.01329169  0.67974970  1
  As  As8  1  0.22590299  0.53538708  0.96415662  1
  As  As9  1  0.82915323  0.00640252  0.25854730  1
  As  As10  1  0.38514834  0.21699977  0.62442536  1
  O  O11  1  0.61385642  0.70838299  0.23522443  1
  O  O12  1  0.08614017  0.91499687  0.53349828  1
  O  O13  1  0.05611916  0.43948151  0.59845628  1
  O  O14  1  0.04396442  0.24672368  0.18800049  1
  O  O15  1  0.36771577  0.10414825  0.57213949  1
