# generated using pymatgen
data_Li2TiCu2(I2F)2
_symmetry_space_group_name_H-M   'P 1'
_cell_length_a   7.61046261
_cell_length_b   7.54232690
_cell_length_c   7.37877631
_cell_angle_alpha   92.07296449
_cell_angle_beta   93.49970396
_cell_angle_gamma   92.50624877
_symmetry_Int_Tables_number   1
_chemical_formula_structural   Li2TiCu2(I2F)2
_chemical_formula_sum   'Li2 Ti1 Cu2 I4 F2'
_cell_volume   422.03139642
_cell_formula_units_Z   1
loop_
 _symmetry_equiv_pos_site_id
 _symmetry_equiv_pos_as_xyz
  1  'x, y, z'
loop_
 _atom_site_type_symbol
 _atom_site_label
 _atom_site_symmetry_multiplicity
 _atom_site_fract_x
 _atom_site_fract_y
 _atom_site_fract_z
 _atom_site_occupancy
  I  I0  1  0.00000000  0.00000000  0.00000000  1
  I  I1  1  0.50000000  0.50000000  0.50000000  1
  I  I2  1  0.25000000  0.25000000  0.25000000  1
  I  I3  1  0.75000000  0.25000000  0.00000000  1
  Li  Li4  1  0.25000000  0.75000000  0.50000000  1
  Li  Li5  1  0.11957118  0.76356165  0.01701695  1
  Cu  Cu6  1  0.22717632  0.91056160  0.81571207  1
  Cu  Cu7  1  0.39309163  0.28358151  0.99966512  1
  F  F8  1  0.24460900  0.64310938  0.91030174  1
  F  F9  1  0.99613280  0.31861403  0.50848286  1
  Ti  Ti10  1  0.51546063  0.26474352  0.74006228  1
