# generated using pymatgen
data_Li2TiI4O2F3
_symmetry_space_group_name_H-M   'P 1'
_cell_length_a   5.16987936
_cell_length_b   5.18558454
_cell_length_c   6.54345384
_cell_angle_alpha   98.82134576
_cell_angle_beta   105.60760763
_cell_angle_gamma   99.58668001
_symmetry_Int_Tables_number   1
_chemical_formula_structural   Li2TiI4O2F3
_chemical_formula_sum   'Li2 Ti1 I4 O2 F3'
_cell_volume   162.92749308
_cell_formula_units_Z   1
loop_
 _symmetry_equiv_pos_site_id
 _symmetry_equiv_pos_as_xyz
  1  'x, y, z'
loop_
 _atom_site_type_symbol
 _atom_site_label
 _atom_site_symmetry_multiplicity
 _atom_site_fract_x
 _atom_site_fract_y
 _atom_site_fract_z
 _atom_site_occupancy
  I  I0  1  0.12500000  0.00000000  0.25000000  1
  I  I1  1  0.00000000  0.00000000  0.00000000  1
  I  I2  1  0.37500000  0.00000000  0.25000000  1
  I  I3  1  0.25000000  0.25000000  0.25000000  1
  Li  Li4  1  0.00000000  0.25000000  0.12500000  1
  Li  Li5  1  0.04794728  0.05410533  0.49785501  1
  F  F6  1  0.99266009  0.79012644  0.66879013  1
  F  F7  1  0.81968147  0.05315247  0.81758317  1
  F  F8  1  0.11829195  0.12547713  0.29076849  1
  Ti  Ti9  1  0.67264128  0.92816045  0.02015491  1
  O  O10  1  0.06125649  0.51349539  0.04171473  1
  O  O11  1  0.54990639  0.93484236  0.65550412  1
