# generated using pymatgen
data_Li2LuP4N5
_symmetry_space_group_name_H-M   'P 1'
_cell_length_a   7.07557318
_cell_length_b   7.02160715
_cell_length_c   8.04117474
_cell_angle_alpha   95.05600102
_cell_angle_beta   95.69848771
_cell_angle_gamma   95.00043253
_symmetry_Int_Tables_number   1
_chemical_formula_structural   Li2LuP4N5
_chemical_formula_sum   'Li2 Lu1 P4 N5'
_cell_volume   394.12148235
_cell_formula_units_Z   1
loop_
 _symmetry_equiv_pos_site_id
 _symmetry_equiv_pos_as_xyz
  1  'x, y, z'
loop_
 _atom_site_type_symbol
 _atom_site_label
 _atom_site_symmetry_multiplicity
 _atom_site_fract_x
 _atom_site_fract_y
 _atom_site_fract_z
 _atom_site_occupancy
  P  P0  1  0.00000000  0.00000000  0.00000000  1
  P  P1  1  0.50000000  0.50000000  0.50000000  1
  P  P2  1  0.25000000  0.25000000  0.25000000  1
  P  P3  1  0.75000000  0.25000000  0.00000000  1
  Lu  Lu4  1  0.25000000  0.75000000  0.50000000  1
  Li  Li5  1  0.16577052  0.14736748  0.76081803  1
  Li  Li6  1  0.15082467  0.05995570  0.05916514  1
  N  N7  1  0.21290374  0.25075428  0.66467013  1
  N  N8  1  0.02681743  0.93677959  0.80142674  1
  N  N9  1  0.21283006  0.80560033  0.80822917  1
  N  N10  1  0.42187334  0.95394888  0.53190565  1
  N  N11  1  0.64929317  0.10789251  0.59097406  1
