# generated using pymatgen
data_Li2Ni2P5(IO)4
_symmetry_space_group_name_H-M   'P 1'
_cell_length_a   8.19362000
_cell_length_b   8.27119727
_cell_length_c   8.17137211
_cell_angle_alpha   90.00000000
_cell_angle_beta   90.00000000
_cell_angle_gamma   90.00000000
_symmetry_Int_Tables_number   1
_chemical_formula_structural   Li2Ni2P5(IO)4
_chemical_formula_sum   'Li2 Ni2 P5 I4 O4'
_cell_volume   553.78244662
_cell_formula_units_Z   1
loop_
 _symmetry_equiv_pos_site_id
 _symmetry_equiv_pos_as_xyz
  1  'x, y, z'
loop_
 _atom_site_type_symbol
 _atom_site_label
 _atom_site_symmetry_multiplicity
 _atom_site_fract_x
 _atom_site_fract_y
 _atom_site_fract_z
 _atom_site_occupancy
  P  P0  1  0.00000000  0.00000000  0.00000000  1
  P  P1  1  0.50000000  0.50000000  0.50000000  1
  P  P2  1  0.25000000  0.25000000  0.25000000  1
  P  P3  1  0.75000000  0.25000000  0.00000000  1
  P  P4  1  0.25000000  0.75000000  0.50000000  1
  I  I5  1  0.99691146  0.34282813  0.98350477  1
  I  I6  1  0.60272073  0.02517526  0.39578113  1
  I  I7  1  0.50464441  0.50382533  0.39710802  1
  I  I8  1  0.96340276  0.20217776  0.28359882  1
  Li  Li9  1  0.18550948  0.98898989  0.57311112  1
  Li  Li10  1  0.81546881  0.21103069  0.11881989  1
  Ni  Ni11  1  0.66993974  0.59746722  0.44554655  1
  Ni  Ni12  1  0.05465396  0.52019392  0.05100975  1
  O  O13  1  0.15559709  0.66156788  0.75792983  1
  O  O14  1  0.77098227  0.89461531  0.79561781  1
  O  O15  1  0.38482234  0.80480878  0.14157257  1
  O  O16  1  0.20912967  0.16650078  0.78382461  1
