# generated using pymatgen
data_Li2Lu(NiAs3)2
_symmetry_space_group_name_H-M   'P 1'
_cell_length_a   7.48771860
_cell_length_b   7.31487272
_cell_length_c   8.25685863
_cell_angle_alpha   91.64048094
_cell_angle_beta   91.99300751
_cell_angle_gamma   91.81024219
_symmetry_Int_Tables_number   1
_chemical_formula_structural   Li2Lu(NiAs3)2
_chemical_formula_sum   'Li2 Lu1 Ni2 As6'
_cell_volume   451.54303881
_cell_formula_units_Z   1
loop_
 _symmetry_equiv_pos_site_id
 _symmetry_equiv_pos_as_xyz
  1  'x, y, z'
loop_
 _atom_site_type_symbol
 _atom_site_label
 _atom_site_symmetry_multiplicity
 _atom_site_fract_x
 _atom_site_fract_y
 _atom_site_fract_z
 _atom_site_occupancy
  Ni  Ni0  1  0.12500000  0.00000000  0.25000000  1
  Ni  Ni1  1  0.00000000  0.00000000  0.00000000  1
  Lu  Lu2  1  0.37500000  0.00000000  0.25000000  1
  As  As3  1  0.25000000  0.25000000  0.25000000  1
  As  As4  1  0.00000000  0.25000000  0.12500000  1
  As  As5  1  0.98536096  0.31653991  0.65498459  1
  As  As6  1  0.73534384  0.75889224  0.79763321  1
  As  As7  1  0.48331574  0.46889884  0.47482771  1
  As  As8  1  0.39093622  0.88699015  0.36735434  1
  Li  Li9  1  0.90764676  0.42652972  0.85137716  1
  Li  Li10  1  0.88528258  0.48650535  0.76141220  1
