# generated using pymatgen
data_Li2Sb4P3N5
_symmetry_space_group_name_H-M   'P 1'
_cell_length_a   7.67089981
_cell_length_b   8.25161426
_cell_length_c   8.09400328
_cell_angle_alpha   90.47315092
_cell_angle_beta   90.56049098
_cell_angle_gamma   90.53850416
_symmetry_Int_Tables_number   1
_chemical_formula_structural   Li2Sb4P3N5
_chemical_formula_sum   'Li2 Sb4 P3 N5'
_cell_volume   512.26360210
_cell_formula_units_Z   1
loop_
 _symmetry_equiv_pos_site_id
 _symmetry_equiv_pos_as_xyz
  1  'x, y, z'
loop_
 _atom_site_type_symbol
 _atom_site_label
 _atom_site_symmetry_multiplicity
 _atom_site_fract_x
 _atom_site_fract_y
 _atom_site_fract_z
 _atom_site_occupancy
  N  N0  1  0.00000000  0.00000000  0.00000000  1
  N  N1  1  0.33300000  0.66700000  0.25000000  1
  N  N2  1  0.66700000  0.33300000  0.50000000  1
  N  N3  1  0.00000000  0.00000000  0.75000000  1
  N  N4  1  0.94912710  0.51212093  0.02154325  1
  Sb  Sb5  1  0.66570268  0.25472414  0.43363219  1
  Sb  Sb6  1  0.02886733  0.74913284  0.44577305  1
  Sb  Sb7  1  0.62434598  0.28202675  0.62973777  1
  Sb  Sb8  1  0.96092620  0.80511029  0.40879950  1
  P  P9  1  0.12981850  0.97617878  0.07363165  1
  P  P10  1  0.54925522  0.31170039  0.02954648  1
  P  P11  1  0.87995246  0.36138551  0.31254560  1
  Li  Li12  1  0.36337157  0.12546129  0.41626068  1
  Li  Li13  1  0.50922111  0.83449769  0.97219048  1
