# generated using pymatgen
data_Li3LuCu2(PN)5
_symmetry_space_group_name_H-M   'P 1'
_cell_length_a   7.35012949
_cell_length_b   7.15755788
_cell_length_c   8.37845375
_cell_angle_alpha   93.57132867
_cell_angle_beta   93.13025394
_cell_angle_gamma   93.77445763
_symmetry_Int_Tables_number   1
_chemical_formula_structural   Li3LuCu2(PN)5
_chemical_formula_sum   'Li3 Lu1 Cu2 P5 N5'
_cell_volume   438.20829178
_cell_formula_units_Z   1
loop_
 _symmetry_equiv_pos_site_id
 _symmetry_equiv_pos_as_xyz
  1  'x, y, z'
loop_
 _atom_site_type_symbol
 _atom_site_label
 _atom_site_symmetry_multiplicity
 _atom_site_fract_x
 _atom_site_fract_y
 _atom_site_fract_z
 _atom_site_occupancy
  P  P0  1  0.12500000  0.00000000  0.25000000  1
  P  P1  1  0.00000000  0.00000000  0.00000000  1
  P  P2  1  0.37500000  0.00000000  0.25000000  1
  P  P3  1  0.25000000  0.25000000  0.25000000  1
  P  P4  1  0.00000000  0.25000000  0.12500000  1
  Lu  Lu5  1  0.94564553  0.25611310  0.68864300  1
  Li  Li6  1  0.52807015  0.18031142  0.90983181  1
  Li  Li7  1  0.61911897  0.64284744  0.44116287  1
  Li  Li8  1  0.25525749  0.03842066  0.29595543  1
  Cu  Cu9  1  0.37143605  0.70163158  0.29795524  1
  Cu  Cu10  1  0.34438905  0.01599913  0.65739429  1
  N  N11  1  0.67227400  0.89909676  0.03506466  1
  N  N12  1  0.71162428  0.97064980  0.08762693  1
  N  N13  1  0.97902775  0.77226069  0.35675051  1
  N  N14  1  0.09619170  0.24369927  0.28587498  1
  N  N15  1  0.96295936  0.03637153  0.85834948  1
