# generated using pymatgen
data_Li3Zr3Ti2I5Cl2
_symmetry_space_group_name_H-M   'P 1'
_cell_length_a   8.29738699
_cell_length_b   7.93296304
_cell_length_c   8.01827146
_cell_angle_alpha   93.23997185
_cell_angle_beta   95.53635977
_cell_angle_gamma   93.06467615
_symmetry_Int_Tables_number   1
_chemical_formula_structural   Li3Zr3Ti2I5Cl2
_chemical_formula_sum   'Li3 Zr3 Ti2 I5 Cl2'
_cell_volume   523.56130570
_cell_formula_units_Z   1
loop_
 _symmetry_equiv_pos_site_id
 _symmetry_equiv_pos_as_xyz
  1  'x, y, z'
loop_
 _atom_site_type_symbol
 _atom_site_label
 _atom_site_symmetry_multiplicity
 _atom_site_fract_x
 _atom_site_fract_y
 _atom_site_fract_z
 _atom_site_occupancy
  I  I0  1  0.00000000  0.00000000  0.00000000  1
  I  I1  1  0.50000000  0.50000000  0.50000000  1
  I  I2  1  0.50000000  0.50000000  0.00000000  1
  I  I3  1  0.50000000  0.00000000  0.50000000  1
  I  I4  1  0.00000000  0.50000000  0.50000000  1
  Li  Li5  1  0.01581694  0.29915202  0.02469426  1
  Li  Li6  1  0.44223372  0.91415793  0.11969329  1
  Li  Li7  1  0.59440532  0.09502452  0.40291840  1
  Cl  Cl8  1  0.71763515  0.22785159  0.64498203  1
  Cl  Cl9  1  0.55148772  0.37517139  0.00016934  1
  Ti  Ti10  1  0.40840115  0.10302200  0.87793347  1
  Ti  Ti11  1  0.69172292  0.67590315  0.70458946  1
  Zr  Zr12  1  0.63206150  0.35845102  0.19672486  1
  Zr  Zr13  1  0.21942218  0.79539007  0.00233788  1
  Zr  Zr14  1  0.43946448  0.94526146  0.52711946  1
