# generated using pymatgen
data_LiAs6S3F2
_symmetry_space_group_name_H-M   'P 1'
_cell_length_a   6.37031345
_cell_length_b   6.37500029
_cell_length_c   7.70245718
_cell_angle_alpha   91.23858510
_cell_angle_beta   96.05476526
_cell_angle_gamma   91.41053425
_symmetry_Int_Tables_number   1
_chemical_formula_structural   LiAs6S3F2
_chemical_formula_sum   'Li1 As6 S3 F2'
_cell_volume   310.87110428
_cell_formula_units_Z   1
loop_
 _symmetry_equiv_pos_site_id
 _symmetry_equiv_pos_as_xyz
  1  'x, y, z'
loop_
 _atom_site_type_symbol
 _atom_site_label
 _atom_site_symmetry_multiplicity
 _atom_site_fract_x
 _atom_site_fract_y
 _atom_site_fract_z
 _atom_site_occupancy
  Li  Li0  1  0.12500000  0.12500000  0.12500000  1
  F  F1  1  0.50000000  0.50000000  0.50000000  1
  F  F2  1  0.25000000  0.25000000  0.25000000  1
  S  S3  1  0.75000000  0.75000000  0.75000000  1
  S  S4  1  0.47025110  0.19710291  0.68176555  1
  S  S5  1  0.50759869  0.27720802  0.93204537  1
  As  As6  1  0.58379238  0.30731091  0.32043262  1
  As  As7  1  0.69701137  0.49570572  0.41423372  1
  As  As8  1  0.56998501  0.85006273  0.10283139  1
  As  As9  1  0.15353969  0.74111524  0.31498688  1
  As  As10  1  0.42980103  0.49382399  0.03941297  1
  As  As11  1  0.99937659  0.86292858  0.75226795  1
