# generated using pymatgen
data_Li2TiO2F3
_symmetry_space_group_name_H-M   'P 1'
_cell_length_a   5.15680213
_cell_length_b   5.18081395
_cell_length_c   6.53288786
_cell_angle_alpha   97.59537274
_cell_angle_beta   103.69690073
_cell_angle_gamma   98.26112578
_symmetry_Int_Tables_number   1
_chemical_formula_structural   Li2TiO2F3
_chemical_formula_sum   'Li2 Ti1 O2 F3'
_cell_volume   165.28634424
_cell_formula_units_Z   1
loop_
 _symmetry_equiv_pos_site_id
 _symmetry_equiv_pos_as_xyz
  1  'x, y, z'
loop_
 _atom_site_type_symbol
 _atom_site_label
 _atom_site_symmetry_multiplicity
 _atom_site_fract_x
 _atom_site_fract_y
 _atom_site_fract_z
 _atom_site_occupancy
  Li  Li0  1  0.00000000  0.00000000  0.00000000  1
  Li  Li1  1  0.33300000  0.66700000  0.25000000  1
  F  F2  1  0.66700000  0.33300000  0.50000000  1
  F  F3  1  0.00000000  0.00000000  0.75000000  1
  F  F4  1  0.76062156  0.34712516  0.61883353  1
  Ti  Ti5  1  0.52969841  0.92862349  0.38357401  1
  O  O6  1  0.75439849  0.79140404  0.98516669  1
  O  O7  1  0.30865000  0.98460986  0.52998963  1
