# generated using pymatgen
data_Li2MnSb4P3N
_symmetry_space_group_name_H-M   'P 1'
_cell_length_a   4.38627329
_cell_length_b   4.67660150
_cell_length_c   6.36603806
_cell_angle_alpha   98.84251556
_cell_angle_beta   98.11175951
_cell_angle_gamma   98.63375809
_symmetry_Int_Tables_number   1
_chemical_formula_structural   Li2MnSb4P3N
_chemical_formula_sum   'Li2 Mn1 Sb4 P3 N1'
_cell_volume   125.75687059
_cell_formula_units_Z   1
loop_
 _symmetry_equiv_pos_site_id
 _symmetry_equiv_pos_as_xyz
  1  'x, y, z'
loop_
 _atom_site_type_symbol
 _atom_site_label
 _atom_site_symmetry_multiplicity
 _atom_site_fract_x
 _atom_site_fract_y
 _atom_site_fract_z
 _atom_site_occupancy
  N  N0  1  0.00000000  0.00000000  0.00000000  1
  Mn  Mn1  1  0.50000000  0.50000000  0.50000000  1
  Sb  Sb2  1  0.50000000  0.50000000  0.00000000  1
  Sb  Sb3  1  0.50000000  0.00000000  0.50000000  1
  Sb  Sb4  1  0.00000000  0.50000000  0.50000000  1
  Sb  Sb5  1  0.36157682  0.08075628  0.19584433  1
  P  P6  1  0.76207413  0.46955643  0.79527851  1
  P  P7  1  0.14514758  0.61365934  0.73109680  1
  P  P8  1  0.42226936  0.65822551  0.23387945  1
  Li  Li9  1  0.56405183  0.29408222  0.75704727  1
  Li  Li10  1  0.02055567  0.33804211  0.60333896  1
