# generated using pymatgen
data_Li2Mn2Sb4Mo2P3
_symmetry_space_group_name_H-M   'P 1'
_cell_length_a   6.57528449
_cell_length_b   7.11850258
_cell_length_c   7.15967045
_cell_angle_alpha   93.93511039
_cell_angle_beta   91.32509967
_cell_angle_gamma   94.01400202
_symmetry_Int_Tables_number   1
_chemical_formula_structural   Li2Mn2Sb4Mo2P3
_chemical_formula_sum   'Li2 Mn2 Sb4 Mo2 P3'
_cell_volume   333.37528256
_cell_formula_units_Z   1
loop_
 _symmetry_equiv_pos_site_id
 _symmetry_equiv_pos_as_xyz
  1  'x, y, z'
loop_
 _atom_site_type_symbol
 _atom_site_label
 _atom_site_symmetry_multiplicity
 _atom_site_fract_x
 _atom_site_fract_y
 _atom_site_fract_z
 _atom_site_occupancy
  Mn  Mn0  1  0.00000000  0.00000000  0.00000000  1
  Mn  Mn1  1  0.50000000  0.50000000  0.50000000  1
  Sb  Sb2  1  0.25000000  0.25000000  0.25000000  1
  Sb  Sb3  1  0.75000000  0.25000000  0.00000000  1
  Sb  Sb4  1  0.25000000  0.75000000  0.50000000  1
  Sb  Sb5  1  0.36260855  0.41534325  0.23201642  1
  P  P6  1  0.02303598  0.13380679  0.43488255  1
  P  P7  1  0.05685158  0.81721269  0.64229286  1
  P  P8  1  0.61941999  0.18991070  0.39062279  1
  Mo  Mo9  1  0.87696174  0.28309709  0.63272323  1
  Mo  Mo10  1  0.19074977  0.61602511  0.09805363  1
  Li  Li11  1  0.64083693  0.08109069  0.83289063  1
  Li  Li12  1  0.73248929  0.47468078  0.18449772  1
