# generated using pymatgen
data_Li5Ti2SeO4F3
_symmetry_space_group_name_H-M   'P 1'
_cell_length_a   4.36707186
_cell_length_b   4.01636783
_cell_length_c   6.66143356
_cell_angle_alpha   107.32019578
_cell_angle_beta   112.36720788
_cell_angle_gamma   106.24625117
_symmetry_Int_Tables_number   1
_chemical_formula_structural   Li5Ti2SeO4F3
_chemical_formula_sum   'Li5 Ti2 Se1 O4 F3'
_cell_volume   92.36251186
_cell_formula_units_Z   1
loop_
 _symmetry_equiv_pos_site_id
 _symmetry_equiv_pos_as_xyz
  1  'x, y, z'
loop_
 _atom_site_type_symbol
 _atom_site_label
 _atom_site_symmetry_multiplicity
 _atom_site_fract_x
 _atom_site_fract_y
 _atom_site_fract_z
 _atom_site_occupancy
  Li  Li0  1  0.00000000  0.00000000  0.00000000  1
  Li  Li1  1  0.50000000  0.50000000  0.50000000  1
  Li  Li2  1  0.50000000  0.50000000  0.00000000  1
  Li  Li3  1  0.50000000  0.00000000  0.50000000  1
  Li  Li4  1  0.00000000  0.50000000  0.50000000  1
  Se  Se5  1  0.75131953  0.60617913  0.56527259  1
  F  F6  1  0.71102717  0.42571243  0.55582952  1
  F  F7  1  0.29247648  0.32335985  0.69543383  1
  F  F8  1  0.93430517  0.34444900  0.65938075  1
  Ti  Ti9  1  0.83009413  0.15968749  0.26119171  1
  Ti  Ti10  1  0.83818864  0.87956800  0.08914329  1
  O  O11  1  0.36539195  0.05995272  0.82811901  1
  O  O12  1  0.57047419  0.76406593  0.05101583  1
  O  O13  1  0.45696625  0.60414722  0.45472451  1
  O  O14  1  0.76117854  0.57331755  0.48711730  1
