# generated using pymatgen
data_Li2TiP3Cl2F3
_symmetry_space_group_name_H-M   'P 1'
_cell_length_a   7.01059304
_cell_length_b   6.83878781
_cell_length_c   7.19473403
_cell_angle_alpha   93.52358485
_cell_angle_beta   95.33257710
_cell_angle_gamma   93.30330751
_symmetry_Int_Tables_number   1
_chemical_formula_structural   Li2TiP3Cl2F3
_chemical_formula_sum   'Li2 Ti1 P3 Cl2 F3'
_cell_volume   342.10501200
_cell_formula_units_Z   1
loop_
 _symmetry_equiv_pos_site_id
 _symmetry_equiv_pos_as_xyz
  1  'x, y, z'
loop_
 _atom_site_type_symbol
 _atom_site_label
 _atom_site_symmetry_multiplicity
 _atom_site_fract_x
 _atom_site_fract_y
 _atom_site_fract_z
 _atom_site_occupancy
  P  P0  1  0.00000000  0.00000000  0.00000000  1
  P  P1  1  0.50000000  0.50000000  0.50000000  1
  P  P2  1  0.50000000  0.50000000  0.00000000  1
  Li  Li3  1  0.50000000  0.00000000  0.50000000  1
  Li  Li4  1  0.00000000  0.50000000  0.50000000  1
  F  F5  1  0.28762967  0.67710603  0.43763854  1
  F  F6  1  0.20994189  0.38687717  0.07801200  1
  F  F7  1  0.56558915  0.75067404  0.75300855  1
  Cl  Cl8  1  0.37617887  0.87929691  0.10565203  1
  Cl  Cl9  1  0.87933457  0.46494472  0.56888239  1
  Ti  Ti10  1  0.44702284  0.68761590  0.99679901  1
