# generated using pymatgen
data_Li3Cu2Ni2As6O7
_symmetry_space_group_name_H-M   'P 1'
_cell_length_a   7.63191851
_cell_length_b   7.42784055
_cell_length_c   8.47762725
_cell_angle_alpha   91.69459604
_cell_angle_beta   91.28524125
_cell_angle_gamma   91.96293827
_symmetry_Int_Tables_number   1
_chemical_formula_structural   Li3Cu2Ni2As6O7
_chemical_formula_sum   'Li3 Cu2 Ni2 As6 O7'
_cell_volume   479.96116616
_cell_formula_units_Z   1
loop_
 _symmetry_equiv_pos_site_id
 _symmetry_equiv_pos_as_xyz
  1  'x, y, z'
loop_
 _atom_site_type_symbol
 _atom_site_label
 _atom_site_symmetry_multiplicity
 _atom_site_fract_x
 _atom_site_fract_y
 _atom_site_fract_z
 _atom_site_occupancy
  Li  Li0  1  0.00000000  0.00000000  0.00000000  1
  Li  Li1  1  0.50000000  0.50000000  0.50000000  1
  Li  Li2  1  0.50000000  0.50000000  0.00000000  1
  Cu  Cu3  1  0.50000000  0.00000000  0.50000000  1
  Cu  Cu4  1  0.00000000  0.50000000  0.50000000  1
  Ni  Ni5  1  0.52720560  0.34032886  0.28347957  1
  Ni  Ni6  1  0.25427414  0.09487939  0.78320248  1
  As  As7  1  0.44080531  0.76504221  0.61013904  1
  As  As8  1  0.27140806  0.13093432  0.04413083  1
  As  As9  1  0.73462520  0.58981983  0.24717060  1
  As  As10  1  0.93446106  0.17836030  0.81864477  1
  As  As11  1  0.07408546  0.41301153  0.28222153  1
  As  As12  1  0.48293801  0.14692804  0.80348820  1
  O  O13  1  0.68162567  0.46641064  0.49341412  1
  O  O14  1  0.05721055  0.81828697  0.94239248  1
  O  O15  1  0.11738874  0.15213824  0.13370477  1
  O  O16  1  0.66109559  0.04648653  0.67010240  1
  O  O17  1  0.56337264  0.38459250  0.35205371  1
  O  O18  1  0.48407728  0.74732307  0.24288709  1
  O  O19  1  0.60853658  0.76445330  0.94298093  1
