# generated using pymatgen
data_Li2LuCu2(PN)5
_symmetry_space_group_name_H-M   'P 1'
_cell_length_a   7.41081916
_cell_length_b   7.28595361
_cell_length_c   8.42304013
_cell_angle_alpha   92.55176095
_cell_angle_beta   92.96486939
_cell_angle_gamma   92.70434907
_symmetry_Int_Tables_number   1
_chemical_formula_structural   Li2LuCu2(PN)5
_chemical_formula_sum   'Li2 Lu1 Cu2 P5 N5'
_cell_volume   453.18342993
_cell_formula_units_Z   1
loop_
 _symmetry_equiv_pos_site_id
 _symmetry_equiv_pos_as_xyz
  1  'x, y, z'
loop_
 _atom_site_type_symbol
 _atom_site_label
 _atom_site_symmetry_multiplicity
 _atom_site_fract_x
 _atom_site_fract_y
 _atom_site_fract_z
 _atom_site_occupancy
  P  P0  1  0.00000000  0.00000000  0.00000000  1
  P  P1  1  0.50000000  0.50000000  0.50000000  1
  P  P2  1  0.25000000  0.25000000  0.25000000  1
  P  P3  1  0.75000000  0.25000000  0.00000000  1
  P  P4  1  0.25000000  0.75000000  0.50000000  1
  Lu  Lu5  1  0.73774300  0.96817444  0.65935611  1
  Li  Li6  1  0.71286418  0.26299228  0.57085587  1
  Li  Li7  1  0.34914340  0.78839491  0.55350820  1
  Cu  Cu8  1  0.01854742  0.44724304  0.46778179  1
  Cu  Cu9  1  0.78836253  0.95360919  0.13392053  1
  N  N10  1  0.18672320  0.90249424  0.22565799  1
  N  N11  1  0.85753609  0.58090156  0.93521426  1
  N  N12  1  0.94067743  0.24697427  0.53639252  1
  N  N13  1  0.78493676  0.03845010  0.78780981  1
  N  N14  1  0.62946990  0.31413399  0.65295982  1
