# generated using pymatgen
data_LiTiS3F2
_symmetry_space_group_name_H-M   'P 1'
_cell_length_a   5.88674432
_cell_length_b   5.76382265
_cell_length_c   7.11683526
_cell_angle_alpha   95.72068355
_cell_angle_beta   100.40198375
_cell_angle_gamma   95.54447712
_symmetry_Int_Tables_number   1
_chemical_formula_structural   LiTiS3F2
_chemical_formula_sum   'Li1 Ti1 S3 F2'
_cell_volume   234.69755655
_cell_formula_units_Z   1
loop_
 _symmetry_equiv_pos_site_id
 _symmetry_equiv_pos_as_xyz
  1  'x, y, z'
loop_
 _atom_site_type_symbol
 _atom_site_label
 _atom_site_symmetry_multiplicity
 _atom_site_fract_x
 _atom_site_fract_y
 _atom_site_fract_z
 _atom_site_occupancy
  Li  Li0  1  0.00000000  0.00000000  0.00000000  1
  F  F1  1  0.50000000  0.50000000  0.50000000  1
  F  F2  1  0.50000000  0.50000000  0.00000000  1
  S  S3  1  0.50000000  0.00000000  0.50000000  1
  S  S4  1  0.00000000  0.50000000  0.50000000  1
  S  S5  1  0.63126453  0.28073744  0.91557787  1
  Ti  Ti6  1  0.32355943  0.07240989  0.73445776  1
