# generated using pymatgen
data_Li3TiSeO2
_symmetry_space_group_name_H-M   'P 1'
_cell_length_a   5.28084933
_cell_length_b   5.09820982
_cell_length_c   6.74526544
_cell_angle_alpha   100.00530708
_cell_angle_beta   103.77391440
_cell_angle_gamma   100.26104149
_symmetry_Int_Tables_number   1
_chemical_formula_structural   Li3TiSeO2
_chemical_formula_sum   'Li3 Ti1 Se1 O2'
_cell_volume   169.06142303
_cell_formula_units_Z   1
loop_
 _symmetry_equiv_pos_site_id
 _symmetry_equiv_pos_as_xyz
  1  'x, y, z'
loop_
 _atom_site_type_symbol
 _atom_site_label
 _atom_site_symmetry_multiplicity
 _atom_site_fract_x
 _atom_site_fract_y
 _atom_site_fract_z
 _atom_site_occupancy
  Li  Li0  1  0.00000000  0.00000000  0.00000000  1
  Li  Li1  1  0.33300000  0.66700000  0.25000000  1
  Li  Li2  1  0.66700000  0.33300000  0.50000000  1
  Se  Se3  1  0.00000000  0.00000000  0.75000000  1
  Ti  Ti4  1  0.52256394  0.11868573  0.24769278  1
  O  O5  1  0.89049509  0.94674688  0.67420543  1
  O  O6  1  0.85316278  0.08867557  0.19490939  1
