# generated using pymatgen
data_Li2LuTiP3
_symmetry_space_group_name_H-M   'P 1'
_cell_length_a   6.76495804
_cell_length_b   6.63988242
_cell_length_c   7.35427447
_cell_angle_alpha   97.36423651
_cell_angle_beta   99.28506228
_cell_angle_gamma   96.98684988
_symmetry_Int_Tables_number   1
_chemical_formula_structural   Li2LuTiP3
_chemical_formula_sum   'Li2 Lu1 Ti1 P3'
_cell_volume   319.88923620
_cell_formula_units_Z   1
loop_
 _symmetry_equiv_pos_site_id
 _symmetry_equiv_pos_as_xyz
  1  'x, y, z'
loop_
 _atom_site_type_symbol
 _atom_site_label
 _atom_site_symmetry_multiplicity
 _atom_site_fract_x
 _atom_site_fract_y
 _atom_site_fract_z
 _atom_site_occupancy
  Ti  Ti0  1  0.00000000  0.00000000  0.00000000  1
  P  P1  1  0.33300000  0.66700000  0.25000000  1
  P  P2  1  0.66700000  0.33300000  0.50000000  1
  P  P3  1  0.00000000  0.00000000  0.75000000  1
  Lu  Lu4  1  0.27103069  0.73094216  0.20260398  1
  Li  Li5  1  0.30976914  0.27316887  0.49302344  1
  Li  Li6  1  0.25312065  0.48943960  0.54888974  1
