# generated using pymatgen
data_Li2LuTi(PI)4
_symmetry_space_group_name_H-M   'P 1'
_cell_length_a   7.71223386
_cell_length_b   7.69555623
_cell_length_c   7.52840072
_cell_angle_alpha   93.60400998
_cell_angle_beta   94.48188025
_cell_angle_gamma   93.45067292
_symmetry_Int_Tables_number   1
_chemical_formula_structural   Li2LuTi(PI)4
_chemical_formula_sum   'Li2 Lu1 Ti1 P4 I4'
_cell_volume   443.61016965
_cell_formula_units_Z   1
loop_
 _symmetry_equiv_pos_site_id
 _symmetry_equiv_pos_as_xyz
  1  'x, y, z'
loop_
 _atom_site_type_symbol
 _atom_site_label
 _atom_site_symmetry_multiplicity
 _atom_site_fract_x
 _atom_site_fract_y
 _atom_site_fract_z
 _atom_site_occupancy
  P  P0  1  0.12500000  0.00000000  0.25000000  1
  P  P1  1  0.00000000  0.00000000  0.00000000  1
  P  P2  1  0.37500000  0.00000000  0.25000000  1
  P  P3  1  0.25000000  0.25000000  0.25000000  1
  Ti  Ti4  1  0.00000000  0.25000000  0.12500000  1
  Lu  Lu5  1  0.25170956  0.05862853  0.71357768  1
  I  I6  1  0.71206096  0.37385165  0.77033955  1
  I  I7  1  0.33797132  0.57622660  0.48615681  1
  I  I8  1  0.54862589  0.38129844  0.70407026  1
  I  I9  1  0.94048634  0.92284167  0.29457704  1
  Li  Li10  1  0.54628060  0.83087178  0.97135002  1
  Li  Li11  1  0.59532571  0.85055722  0.46846877  1
