# generated using pymatgen
data_Li2LuCu2P4N5
_symmetry_space_group_name_H-M   'P 1'
_cell_length_a   7.23084376
_cell_length_b   7.11066672
_cell_length_c   8.11800148
_cell_angle_alpha   94.06004417
_cell_angle_beta   94.27346736
_cell_angle_gamma   94.12956032
_symmetry_Int_Tables_number   1
_chemical_formula_structural   Li2LuCu2P4N5
_chemical_formula_sum   'Li2 Lu1 Cu2 P4 N5'
_cell_volume   413.93592535
_cell_formula_units_Z   1
loop_
 _symmetry_equiv_pos_site_id
 _symmetry_equiv_pos_as_xyz
  1  'x, y, z'
loop_
 _atom_site_type_symbol
 _atom_site_label
 _atom_site_symmetry_multiplicity
 _atom_site_fract_x
 _atom_site_fract_y
 _atom_site_fract_z
 _atom_site_occupancy
  P  P0  1  0.12500000  0.00000000  0.25000000  1
  P  P1  1  0.00000000  0.00000000  0.00000000  1
  P  P2  1  0.37500000  0.00000000  0.25000000  1
  P  P3  1  0.25000000  0.25000000  0.25000000  1
  Lu  Lu4  1  0.00000000  0.25000000  0.12500000  1
  Li  Li5  1  0.62577236  0.57698501  0.95247627  1
  Li  Li6  1  0.96556272  0.90908891  0.34849282  1
  N  N7  1  0.82250963  0.08922952  0.73917509  1
  N  N8  1  0.44914527  0.55216421  0.31125731  1
  N  N9  1  0.75003198  0.72000560  0.96765775  1
  N  N10  1  0.63178995  0.08535811  0.10706824  1
  N  N11  1  0.67249724  0.84047007  0.24836287  1
  Cu  Cu12  1  0.54530419  0.80929533  0.93480528  1
  Cu  Cu13  1  0.47118656  0.52645690  0.05462144  1
