# generated using pymatgen
data_Li2I4O4F3
_symmetry_space_group_name_H-M   'P 1'
_cell_length_a   8.03296670
_cell_length_b   7.81735654
_cell_length_c   7.50128058
_cell_angle_alpha   91.42874309
_cell_angle_beta   91.80734572
_cell_angle_gamma   91.37073796
_symmetry_Int_Tables_number   1
_chemical_formula_structural   Li2I4O4F3
_chemical_formula_sum   'Li2 I4 O4 F3'
_cell_volume   470.53001497
_cell_formula_units_Z   1
loop_
 _symmetry_equiv_pos_site_id
 _symmetry_equiv_pos_as_xyz
  1  'x, y, z'
loop_
 _atom_site_type_symbol
 _atom_site_label
 _atom_site_symmetry_multiplicity
 _atom_site_fract_x
 _atom_site_fract_y
 _atom_site_fract_z
 _atom_site_occupancy
  I  I0  1  0.00000000  0.00000000  0.00000000  1
  I  I1  1  0.50000000  0.50000000  0.50000000  1
  I  I2  1  0.25000000  0.25000000  0.25000000  1
  I  I3  1  0.75000000  0.25000000  0.00000000  1
  Li  Li4  1  0.25000000  0.75000000  0.50000000  1
  Li  Li5  1  0.10645234  0.61777473  0.90609226  1
  F  F6  1  0.59190442  0.33031331  0.14427325  1
  F  F7  1  0.83612457  0.16994610  0.61241385  1
  F  F8  1  0.64310730  0.47533652  0.74454039  1
  O  O9  1  0.10521475  0.68723639  0.59762665  1
  O  O10  1  0.80676057  0.49422315  0.41848040  1
  O  O11  1  0.17624322  0.60643429  0.49214701  1
  O  O12  1  0.47939244  0.61802964  0.42232874  1
