# generated using pymatgen
data_Li6Ti2(PO)3
_symmetry_space_group_name_H-M   'P 1'
_cell_length_a   8.09037448
_cell_length_b   7.65019411
_cell_length_c   6.80556501
_cell_angle_alpha   90.00000000
_cell_angle_beta   90.00000000
_cell_angle_gamma   90.00000000
_symmetry_Int_Tables_number   1
_chemical_formula_structural   Li6Ti2(PO)3
_chemical_formula_sum   'Li6 Ti2 P3 O3'
_cell_volume   421.21639370
_cell_formula_units_Z   1
loop_
 _symmetry_equiv_pos_site_id
 _symmetry_equiv_pos_as_xyz
  1  'x, y, z'
loop_
 _atom_site_type_symbol
 _atom_site_label
 _atom_site_symmetry_multiplicity
 _atom_site_fract_x
 _atom_site_fract_y
 _atom_site_fract_z
 _atom_site_occupancy
  P  P0  1  0.00000000  0.00000000  0.00000000  1
  P  P1  1  0.33300000  0.66700000  0.25000000  1
  P  P2  1  0.66700000  0.33300000  0.50000000  1
  Li  Li3  1  0.00000000  0.00000000  0.75000000  1
  Li  Li4  1  0.38904644  0.71033267  0.97691165  1
  Li  Li5  1  0.83173887  0.45243907  0.98960193  1
  Li  Li6  1  0.35746987  0.92665418  0.64570320  1
  Li  Li7  1  0.30523103  0.75684567  0.33635164  1
  Li  Li8  1  0.06426889  0.40457722  0.18258517  1
  Ti  Ti9  1  0.65489706  0.39668247  0.01167304  1
  Ti  Ti10  1  0.10384056  0.50660701  0.16337806  1
  O  O11  1  0.28260200  0.08144309  0.62739648  1
  O  O12  1  0.06712574  0.81652744  0.69184056  1
  O  O13  1  0.13676408  0.18984735  0.85785492  1
