# generated using pymatgen
data_Li3P6SeCl2
_symmetry_space_group_name_H-M   'P 1'
_cell_length_a   5.90729145
_cell_length_b   5.52525323
_cell_length_c   7.09892310
_cell_angle_alpha   102.15872728
_cell_angle_beta   105.52390216
_cell_angle_gamma   101.43790787
_symmetry_Int_Tables_number   1
_chemical_formula_structural   Li3P6SeCl2
_chemical_formula_sum   'Li3 P6 Se1 Cl2'
_cell_volume   210.11392606
_cell_formula_units_Z   1
loop_
 _symmetry_equiv_pos_site_id
 _symmetry_equiv_pos_as_xyz
  1  'x, y, z'
loop_
 _atom_site_type_symbol
 _atom_site_label
 _atom_site_symmetry_multiplicity
 _atom_site_fract_x
 _atom_site_fract_y
 _atom_site_fract_z
 _atom_site_occupancy
  P  P0  1  0.00000000  0.00000000  0.00000000  1
  P  P1  1  0.50000000  0.50000000  0.50000000  1
  P  P2  1  0.25000000  0.25000000  0.25000000  1
  P  P3  1  0.75000000  0.25000000  0.00000000  1
  P  P4  1  0.25000000  0.75000000  0.50000000  1
  P  P5  1  0.71781232  0.57420371  0.02847271  1
  Li  Li6  1  0.16735617  0.23488541  0.42896377  1
  Li  Li7  1  0.47889151  0.38204288  0.08223958  1
  Li  Li8  1  0.52714224  0.49107673  0.07245724  1
  Se  Se9  1  0.68011318  0.56218841  0.77634243  1
  Cl  Cl10  1  0.56187313  0.71490544  0.68096807  1
  Cl  Cl11  1  0.30869508  0.52459470  0.44300259  1
