# generated using pymatgen
data_LiLu(CuP2)2
_symmetry_space_group_name_H-M   'P 1'
_cell_length_a   7.21373128
_cell_length_b   7.13661763
_cell_length_c   7.99209254
_cell_angle_alpha   91.98281275
_cell_angle_beta   93.51321350
_cell_angle_gamma   92.35145940
_symmetry_Int_Tables_number   1
_chemical_formula_structural   LiLu(CuP2)2
_chemical_formula_sum   'Li1 Lu1 Cu2 P4'
_cell_volume   410.04276090
_cell_formula_units_Z   1
loop_
 _symmetry_equiv_pos_site_id
 _symmetry_equiv_pos_as_xyz
  1  'x, y, z'
loop_
 _atom_site_type_symbol
 _atom_site_label
 _atom_site_symmetry_multiplicity
 _atom_site_fract_x
 _atom_site_fract_y
 _atom_site_fract_z
 _atom_site_occupancy
  P  P0  1  0.00000000  0.00000000  0.00000000  1
  P  P1  1  0.33300000  0.66700000  0.25000000  1
  P  P2  1  0.66700000  0.33300000  0.50000000  1
  P  P3  1  0.00000000  0.00000000  0.75000000  1
  Lu  Lu4  1  0.38570345  0.49251731  0.43404036  1
  Li  Li5  1  0.71932577  0.87173663  0.80675960  1
  Cu  Cu6  1  0.19280350  0.60524613  0.71737750  1
  Cu  Cu7  1  0.69938541  0.81153043  0.94264737  1
