# generated using pymatgen
data_Li3TiNi2(IO)4
_symmetry_space_group_name_H-M   'P 1'
_cell_length_a   8.76686945
_cell_length_b   8.64297362
_cell_length_c   7.68400799
_cell_angle_alpha   90.00000000
_cell_angle_beta   90.00000000
_cell_angle_gamma   90.00000000
_symmetry_Int_Tables_number   1
_chemical_formula_structural   Li3TiNi2(IO)4
_chemical_formula_sum   'Li3 Ti1 Ni2 I4 O4'
_cell_volume   582.23128103
_cell_formula_units_Z   1
loop_
 _symmetry_equiv_pos_site_id
 _symmetry_equiv_pos_as_xyz
  1  'x, y, z'
loop_
 _atom_site_type_symbol
 _atom_site_label
 _atom_site_symmetry_multiplicity
 _atom_site_fract_x
 _atom_site_fract_y
 _atom_site_fract_z
 _atom_site_occupancy
  I  I0  1  0.12500000  0.00000000  0.25000000  1
  I  I1  1  0.00000000  0.00000000  0.00000000  1
  I  I2  1  0.37500000  0.00000000  0.25000000  1
  I  I3  1  0.25000000  0.25000000  0.25000000  1
  Li  Li4  1  0.00000000  0.25000000  0.12500000  1
  Li  Li5  1  0.17420608  0.78045574  0.81374504  1
  Li  Li6  1  0.65913707  0.91818028  0.63448738  1
  Ni  Ni7  1  0.51071695  0.26521127  0.89857658  1
  Ni  Ni8  1  0.61266860  0.70737251  0.79818947  1
  Ti  Ti9  1  0.26672990  0.44375789  0.31573813  1
  O  O10  1  0.58934565  0.30444171  0.34194463  1
  O  O11  1  0.32847801  0.37945300  0.01269801  1
  O  O12  1  0.82788169  0.35586059  0.74106374  1
  O  O13  1  0.69475824  0.07517925  0.45844863  1
