# generated using pymatgen
data_Li3Zn2Te6(IO)4
_symmetry_space_group_name_H-M   'P 1'
_cell_length_a   8.68606414
_cell_length_b   8.97801469
_cell_length_c   7.22912433
_cell_angle_alpha   90.00000000
_cell_angle_beta   90.00000000
_cell_angle_gamma   90.00000000
_symmetry_Int_Tables_number   1
_chemical_formula_structural   Li3Zn2Te6(IO)4
_chemical_formula_sum   'Li3 Zn2 Te6 I4 O4'
_cell_volume   563.75322293
_cell_formula_units_Z   1
loop_
 _symmetry_equiv_pos_site_id
 _symmetry_equiv_pos_as_xyz
  1  'x, y, z'
loop_
 _atom_site_type_symbol
 _atom_site_label
 _atom_site_symmetry_multiplicity
 _atom_site_fract_x
 _atom_site_fract_y
 _atom_site_fract_z
 _atom_site_occupancy
  I  I0  1  0.12500000  0.00000000  0.25000000  1
  I  I1  1  0.00000000  0.00000000  0.00000000  1
  I  I2  1  0.37500000  0.00000000  0.25000000  1
  I  I3  1  0.25000000  0.25000000  0.25000000  1
  Li  Li4  1  0.00000000  0.25000000  0.12500000  1
  Li  Li5  1  0.51048557  0.06375249  0.38583344  1
  Li  Li6  1  0.81846091  0.18969444  0.63285569  1
  Zn  Zn7  1  0.23629834  0.96876666  0.45358010  1
  Zn  Zn8  1  0.30543898  0.42818704  0.20079965  1
  Te  Te9  1  0.22059051  0.05537083  0.76966661  1
  Te  Te10  1  0.87136237  0.21039067  0.89418318  1
  Te  Te11  1  0.78121983  0.50935220  0.02812005  1
  Te  Te12  1  0.68650130  0.70991003  0.91804726  1
  Te  Te13  1  0.72531386  0.22352246  0.89762935  1
  Te  Te14  1  0.17579937  0.69771864  0.29530907  1
  O  O15  1  0.20257160  0.90729666  0.82387715  1
  O  O16  1  0.64872969  0.78726414  0.21046386  1
  O  O17  1  0.27789879  0.19877710  0.30056420  1
  O  O18  1  0.22902337  0.97252138  0.11385612  1
