# generated using pymatgen
data_LiP3ClF
_symmetry_space_group_name_H-M   'P 1'
_cell_length_a   5.92531112
_cell_length_b   5.52623283
_cell_length_c   7.29054455
_cell_angle_alpha   100.26001071
_cell_angle_beta   103.57478484
_cell_angle_gamma   99.65625779
_symmetry_Int_Tables_number   1
_chemical_formula_structural   LiP3ClF
_chemical_formula_sum   'Li2 P6 Cl2 F2'
_cell_volume   222.80003160
_cell_formula_units_Z   2
loop_
 _symmetry_equiv_pos_site_id
 _symmetry_equiv_pos_as_xyz
  1  'x, y, z'
loop_
 _atom_site_type_symbol
 _atom_site_label
 _atom_site_symmetry_multiplicity
 _atom_site_fract_x
 _atom_site_fract_y
 _atom_site_fract_z
 _atom_site_occupancy
  F  F0  1  0.12500000  0.00000000  0.25000000  1
  F  F1  1  0.00000000  0.00000000  0.00000000  1
  Cl  Cl2  1  0.37500000  0.00000000  0.25000000  1
  Cl  Cl3  1  0.25000000  0.25000000  0.25000000  1
  P  P4  1  0.00000000  0.25000000  0.12500000  1
  P  P5  1  0.01468583  0.65601904  0.78881789  1
  P  P6  1  0.56319230  0.96240393  0.20938204  1
  P  P7  1  0.04679045  0.66143891  0.21994181  1
  P  P8  1  0.32339537  0.45264799  0.34132245  1
  P  P9  1  0.86704805  0.31459365  0.67531040  1
  Li  Li10  1  0.23708227  0.53495021  0.32876713  1
  Li  Li11  1  0.37720697  0.65280994  0.74393554  1
