# generated using pymatgen
data_Li2TiP3(NF)3
_symmetry_space_group_name_H-M   'P 1'
_cell_length_a   6.90538273
_cell_length_b   6.62316398
_cell_length_c   7.83501193
_cell_angle_alpha   94.56237237
_cell_angle_beta   94.89346262
_cell_angle_gamma   94.55613638
_symmetry_Int_Tables_number   1
_chemical_formula_structural   Li2TiP3(NF)3
_chemical_formula_sum   'Li2 Ti1 P3 N3 F3'
_cell_volume   354.55698577
_cell_formula_units_Z   1
loop_
 _symmetry_equiv_pos_site_id
 _symmetry_equiv_pos_as_xyz
  1  'x, y, z'
loop_
 _atom_site_type_symbol
 _atom_site_label
 _atom_site_symmetry_multiplicity
 _atom_site_fract_x
 _atom_site_fract_y
 _atom_site_fract_z
 _atom_site_occupancy
  P  P0  1  0.00000000  0.00000000  0.00000000  1
  P  P1  1  0.50000000  0.50000000  0.50000000  1
  P  P2  1  0.50000000  0.50000000  0.00000000  1
  Li  Li3  1  0.50000000  0.00000000  0.50000000  1
  Li  Li4  1  0.00000000  0.50000000  0.50000000  1
  F  F5  1  0.71345560  0.97331342  0.17346846  1
  F  F6  1  0.97411835  0.55329815  0.65561354  1
  F  F7  1  0.34031874  0.54611189  0.98843943  1
  Ti  Ti8  1  0.15521077  0.72258952  0.74580579  1
  N  N9  1  0.71442082  0.71176640  0.17121119  1
  N  N10  1  0.12978324  0.33319696  0.37755551  1
  N  N11  1  0.00009683  0.84863404  0.68094545  1
