# generated using pymatgen
data_LiMn2(MoP)2
_symmetry_space_group_name_H-M   'P 1'
_cell_length_a   5.07822124
_cell_length_b   5.39488221
_cell_length_c   6.31688928
_cell_angle_alpha   99.74404075
_cell_angle_beta   95.36835186
_cell_angle_gamma   97.81825799
_symmetry_Int_Tables_number   1
_chemical_formula_structural   LiMn2(MoP)2
_chemical_formula_sum   'Li1 Mn2 Mo2 P2'
_cell_volume   167.76919259
_cell_formula_units_Z   1
loop_
 _symmetry_equiv_pos_site_id
 _symmetry_equiv_pos_as_xyz
  1  'x, y, z'
loop_
 _atom_site_type_symbol
 _atom_site_label
 _atom_site_symmetry_multiplicity
 _atom_site_fract_x
 _atom_site_fract_y
 _atom_site_fract_z
 _atom_site_occupancy
  Mn  Mn0  1  0.00000000  0.00000000  0.00000000  1
  Mn  Mn1  1  0.50000000  0.50000000  0.50000000  1
  P  P2  1  0.25000000  0.25000000  0.25000000  1
  P  P3  1  0.75000000  0.25000000  0.00000000  1
  Mo  Mo4  1  0.25000000  0.75000000  0.50000000  1
  Mo  Mo5  1  0.04085548  0.75055741  0.41518002  1
  Li  Li6  1  0.60561494  0.99103896  0.83050267  1
