# generated using pymatgen
data_Li2Lu(As3P2)2
_symmetry_space_group_name_H-M   'P 1'
_cell_length_a   7.42074445
_cell_length_b   7.20551171
_cell_length_c   7.97520522
_cell_angle_alpha   91.79015079
_cell_angle_beta   91.74839315
_cell_angle_gamma   91.95534725
_symmetry_Int_Tables_number   1
_chemical_formula_structural   Li2Lu(As3P2)2
_chemical_formula_sum   'Li2 Lu1 As6 P4'
_cell_volume   425.76712336
_cell_formula_units_Z   1
loop_
 _symmetry_equiv_pos_site_id
 _symmetry_equiv_pos_as_xyz
  1  'x, y, z'
loop_
 _atom_site_type_symbol
 _atom_site_label
 _atom_site_symmetry_multiplicity
 _atom_site_fract_x
 _atom_site_fract_y
 _atom_site_fract_z
 _atom_site_occupancy
  P  P0  1  0.00000000  0.00000000  0.00000000  1
  P  P1  1  0.50000000  0.50000000  0.50000000  1
  P  P2  1  0.50000000  0.50000000  0.00000000  1
  P  P3  1  0.50000000  0.00000000  0.50000000  1
  Lu  Lu4  1  0.00000000  0.50000000  0.50000000  1
  Li  Li5  1  0.53341395  0.95063699  0.78081165  1
  Li  Li6  1  0.46259326  0.73595846  0.11118424  1
  As  As7  1  0.26993989  0.26206871  0.46458259  1
  As  As8  1  0.58273562  0.48100353  0.80516078  1
  As  As9  1  0.18127143  0.62132919  0.37758584  1
  As  As10  1  0.06518419  0.61029484  0.39975274  1
  As  As11  1  0.68131333  0.97278064  0.50782067  1
  As  As12  1  0.92900122  0.07233195  0.51921274  1
