# generated using pymatgen
data_Li2LuCu2(PN)5
_symmetry_space_group_name_H-M   'P 1'
_cell_length_a   7.43442476
_cell_length_b   7.50821298
_cell_length_c   8.41556267
_cell_angle_alpha   91.44609424
_cell_angle_beta   92.55869273
_cell_angle_gamma   91.55708475
_symmetry_Int_Tables_number   1
_chemical_formula_structural   Li2LuCu2(PN)5
_chemical_formula_sum   'Li2 Lu1 Cu2 P5 N5'
_cell_volume   468.94416595
_cell_formula_units_Z   1
loop_
 _symmetry_equiv_pos_site_id
 _symmetry_equiv_pos_as_xyz
  1  'x, y, z'
loop_
 _atom_site_type_symbol
 _atom_site_label
 _atom_site_symmetry_multiplicity
 _atom_site_fract_x
 _atom_site_fract_y
 _atom_site_fract_z
 _atom_site_occupancy
  P  P0  1  0.00000000  0.00000000  0.00000000  1
  P  P1  1  0.50000000  0.50000000  0.50000000  1
  P  P2  1  0.50000000  0.50000000  0.00000000  1
  P  P3  1  0.50000000  0.00000000  0.50000000  1
  P  P4  1  0.00000000  0.50000000  0.50000000  1
  Lu  Lu5  1  0.49884188  0.44606404  0.08495778  1
  Li  Li6  1  0.22005741  0.38488907  0.47110206  1
  Li  Li7  1  0.60724493  0.76689183  0.54460345  1
  N  N8  1  0.22115244  0.83849179  0.74081052  1
  N  N9  1  0.31670541  0.19534680  0.51289564  1
  N  N10  1  0.28876407  0.08412592  0.56485909  1
  N  N11  1  0.03553579  0.31722617  0.54790195  1
  N  N12  1  0.80176936  0.43942185  0.01094076  1
  Cu  Cu13  1  0.82438098  0.29896067  0.28557302  1
  Cu  Cu14  1  0.84562793  0.05823981  0.37399738  1
