# generated using pymatgen
data_Li2LuCu2(As3P2)2
_symmetry_space_group_name_H-M   'P 1'
_cell_length_a   7.16210882
_cell_length_b   7.12258070
_cell_length_c   7.86561770
_cell_angle_alpha   94.27132390
_cell_angle_beta   95.32722116
_cell_angle_gamma   94.15575864
_symmetry_Int_Tables_number   1
_chemical_formula_structural   Li2LuCu2(As3P2)2
_chemical_formula_sum   'Li2 Lu1 Cu2 As6 P4'
_cell_volume   397.12832062
_cell_formula_units_Z   1
loop_
 _symmetry_equiv_pos_site_id
 _symmetry_equiv_pos_as_xyz
  1  'x, y, z'
loop_
 _atom_site_type_symbol
 _atom_site_label
 _atom_site_symmetry_multiplicity
 _atom_site_fract_x
 _atom_site_fract_y
 _atom_site_fract_z
 _atom_site_occupancy
  P  P0  1  0.00000000  0.00000000  0.00000000  1
  P  P1  1  0.50000000  0.50000000  0.50000000  1
  P  P2  1  0.25000000  0.25000000  0.25000000  1
  P  P3  1  0.75000000  0.25000000  0.00000000  1
  Lu  Lu4  1  0.25000000  0.75000000  0.50000000  1
  Li  Li5  1  0.25800484  0.68998846  0.63696072  1
  Li  Li6  1  0.71148215  0.28268370  0.58120676  1
  Cu  Cu7  1  0.59450047  0.66913116  0.13512141  1
  Cu  Cu8  1  0.15714221  0.41035910  0.69661508  1
  As  As9  1  0.12964089  0.44892497  0.66793480  1
  As  As10  1  0.27846425  0.98298181  0.11549428  1
  As  As11  1  0.20314252  0.16854264  0.14269285  1
  As  As12  1  0.00364736  0.46489467  0.87042661  1
  As  As13  1  0.68520242  0.52774822  0.44112125  1
  As  As14  1  0.20226687  0.37359428  0.14687932  1
