# generated using pymatgen
data_Li3Cu2As6I4O5
_symmetry_space_group_name_H-M   'P 1'
_cell_length_a   8.38916792
_cell_length_b   8.23739641
_cell_length_c   7.79591831
_cell_angle_alpha   90.62641757
_cell_angle_beta   90.47509712
_cell_angle_gamma   90.72561188
_symmetry_Int_Tables_number   1
_chemical_formula_structural   Li3Cu2As6I4O5
_chemical_formula_sum   'Li3 Cu2 As6 I4 O5'
_cell_volume   538.64162408
_cell_formula_units_Z   1
loop_
 _symmetry_equiv_pos_site_id
 _symmetry_equiv_pos_as_xyz
  1  'x, y, z'
loop_
 _atom_site_type_symbol
 _atom_site_label
 _atom_site_symmetry_multiplicity
 _atom_site_fract_x
 _atom_site_fract_y
 _atom_site_fract_z
 _atom_site_occupancy
  I  I0  1  0.00000000  0.00000000  0.00000000  1
  I  I1  1  0.50000000  0.50000000  0.50000000  1
  I  I2  1  0.50000000  0.50000000  0.00000000  1
  I  I3  1  0.50000000  0.00000000  0.50000000  1
  Li  Li4  1  0.00000000  0.50000000  0.50000000  1
  Li  Li5  1  0.64940923  0.57758844  0.87027461  1
  Li  Li6  1  0.86351724  0.08784446  0.04760100  1
  Cu  Cu7  1  0.28719496  0.62916745  0.42672896  1
  Cu  Cu8  1  0.89483617  0.00712766  0.85945755  1
  As  As9  1  0.15503795  0.94588483  0.92672013  1
  As  As10  1  0.46471234  0.53485353  0.15446456  1
  As  As11  1  0.90824289  0.76841808  0.54521339  1
  As  As12  1  0.27232700  0.57662100  0.11741582  1
  As  As13  1  0.41655309  0.24497286  0.07137354  1
  As  As14  1  0.27247402  0.16246921  0.15301178  1
  O  O15  1  0.31125128  0.32635272  0.02109827  1
  O  O16  1  0.30783192  0.31341826  0.54608165  1
  O  O17  1  0.87360248  0.31629521  0.85924815  1
  O  O18  1  0.19009273  0.30507549  0.31211388  1
  O  O19  1  0.69428256  0.92921347  0.54265325  1
