# generated using pymatgen
data_Li2LuTiP4F2
_symmetry_space_group_name_H-M   'P 1'
_cell_length_a   6.85925885
_cell_length_b   6.76585492
_cell_length_c   7.39548359
_cell_angle_alpha   93.19976909
_cell_angle_beta   94.74355000
_cell_angle_gamma   92.78988561
_symmetry_Int_Tables_number   1
_chemical_formula_structural   Li2LuTiP4F2
_chemical_formula_sum   'Li2 Lu1 Ti1 P4 F2'
_cell_volume   341.01621993
_cell_formula_units_Z   1
loop_
 _symmetry_equiv_pos_site_id
 _symmetry_equiv_pos_as_xyz
  1  'x, y, z'
loop_
 _atom_site_type_symbol
 _atom_site_label
 _atom_site_symmetry_multiplicity
 _atom_site_fract_x
 _atom_site_fract_y
 _atom_site_fract_z
 _atom_site_occupancy
  P  P0  1  0.00000000  0.00000000  0.00000000  1
  P  P1  1  0.50000000  0.50000000  0.50000000  1
  P  P2  1  0.50000000  0.50000000  0.00000000  1
  P  P3  1  0.50000000  0.00000000  0.50000000  1
  Lu  Lu4  1  0.00000000  0.50000000  0.50000000  1
  Li  Li5  1  0.38320030  0.84459131  0.40412409  1
  Li  Li6  1  0.25287278  0.12008625  0.29361994  1
  F  F7  1  0.64150002  0.82980277  0.14492124  1
  F  F8  1  0.83932885  0.47999171  0.33414410  1
  Ti  Ti9  1  0.44221561  0.45812446  0.18797870  1
