# generated using pymatgen
data_Li2TiAs6(IO)4
_symmetry_space_group_name_H-M   'P 1'
_cell_length_a   7.85307134
_cell_length_b   7.61621554
_cell_length_c   7.52491519
_cell_angle_alpha   91.74991137
_cell_angle_beta   92.21362040
_cell_angle_gamma   91.67886723
_symmetry_Int_Tables_number   1
_chemical_formula_structural   Li2TiAs6(IO)4
_chemical_formula_sum   'Li2 Ti1 As6 I4 O4'
_cell_volume   449.31539927
_cell_formula_units_Z   1
loop_
 _symmetry_equiv_pos_site_id
 _symmetry_equiv_pos_as_xyz
  1  'x, y, z'
loop_
 _atom_site_type_symbol
 _atom_site_label
 _atom_site_symmetry_multiplicity
 _atom_site_fract_x
 _atom_site_fract_y
 _atom_site_fract_z
 _atom_site_occupancy
  I  I0  1  0.00000000  0.00000000  0.00000000  1
  I  I1  1  0.50000000  0.50000000  0.50000000  1
  I  I2  1  0.25000000  0.25000000  0.25000000  1
  I  I3  1  0.75000000  0.25000000  0.00000000  1
  Li  Li4  1  0.25000000  0.75000000  0.50000000  1
  Li  Li5  1  0.18208156  0.50883742  0.49331838  1
  Ti  Ti6  1  0.23035170  0.51239561  0.56692794  1
  As  As7  1  0.83480302  0.86357928  0.88580363  1
  As  As8  1  0.05372211  0.92816698  0.30299139  1
  As  As9  1  0.88990857  0.49030082  0.14009124  1
  As  As10  1  0.84533438  0.37949736  0.52573637  1
  As  As11  1  0.36632937  0.85206222  0.18874970  1
  As  As12  1  0.49943369  0.37619238  0.30528929  1
  O  O13  1  0.44161119  0.37224695  0.43164643  1
  O  O14  1  0.77989376  0.25991857  0.35638449  1
  O  O15  1  0.13169052  0.35577601  0.12272870  1
  O  O16  1  0.40665149  0.62156268  0.61485830  1
