# generated using pymatgen
data_Li2TiP4F2
_symmetry_space_group_name_H-M   'P 1'
_cell_length_a   6.85640504
_cell_length_b   6.81943686
_cell_length_c   7.53255754
_cell_angle_alpha   94.33476362
_cell_angle_beta   95.87219971
_cell_angle_gamma   93.97787234
_symmetry_Int_Tables_number   1
_chemical_formula_structural   Li2TiP4F2
_chemical_formula_sum   'Li2 Ti1 P4 F2'
_cell_volume   348.29105952
_cell_formula_units_Z   1
loop_
 _symmetry_equiv_pos_site_id
 _symmetry_equiv_pos_as_xyz
  1  'x, y, z'
loop_
 _atom_site_type_symbol
 _atom_site_label
 _atom_site_symmetry_multiplicity
 _atom_site_fract_x
 _atom_site_fract_y
 _atom_site_fract_z
 _atom_site_occupancy
  F  F0  1  0.12500000  0.12500000  0.12500000  1
  F  F1  1  0.50000000  0.50000000  0.50000000  1
  Ti  Ti2  1  0.25000000  0.25000000  0.25000000  1
  P  P3  1  0.75000000  0.75000000  0.75000000  1
  P  P4  1  0.60938068  0.59675942  0.15049279  1
  P  P5  1  0.55096616  0.64192747  0.01089623  1
  P  P6  1  0.16989691  0.37241573  0.34049641  1
  Li  Li7  1  0.23116916  0.21919864  0.86139538  1
  Li  Li8  1  0.71863766  0.56639686  0.09307106  1
