# generated using pymatgen
data_Li2TiTe6S2F
_symmetry_space_group_name_H-M   'P 1'
_cell_length_a   6.36034678
_cell_length_b   6.48941359
_cell_length_c   7.67845633
_cell_angle_alpha   95.00028463
_cell_angle_beta   96.95987388
_cell_angle_gamma   94.59673129
_symmetry_Int_Tables_number   1
_chemical_formula_structural   Li2TiTe6S2F
_chemical_formula_sum   'Li2 Ti1 Te6 S2 F1'
_cell_volume   312.07387603
_cell_formula_units_Z   1
loop_
 _symmetry_equiv_pos_site_id
 _symmetry_equiv_pos_as_xyz
  1  'x, y, z'
loop_
 _atom_site_type_symbol
 _atom_site_label
 _atom_site_symmetry_multiplicity
 _atom_site_fract_x
 _atom_site_fract_y
 _atom_site_fract_z
 _atom_site_occupancy
  Li  Li0  1  0.12500000  0.00000000  0.25000000  1
  Li  Li1  1  0.00000000  0.00000000  0.00000000  1
  F  F2  1  0.37500000  0.00000000  0.25000000  1
  Te  Te3  1  0.25000000  0.25000000  0.25000000  1
  Te  Te4  1  0.00000000  0.25000000  0.12500000  1
  Te  Te5  1  0.61866195  0.84810203  0.57487071  1
  Te  Te6  1  0.19505567  0.75310419  0.67183094  1
  Te  Te7  1  0.47816225  0.46706575  0.56542823  1
  Te  Te8  1  0.59038896  0.76819103  0.57499989  1
  S  S9  1  0.01548602  0.16516920  0.07782828  1
  S  S10  1  0.50371618  0.96191359  0.08210881  1
  Ti  Ti11  1  0.72929164  0.45235653  0.32577638  1
