# generated using pymatgen
data_Li3LuCu2(PN)5
_symmetry_space_group_name_H-M   'P 1'
_cell_length_a   7.35012949
_cell_length_b   7.15755788
_cell_length_c   8.37845375
_cell_angle_alpha   93.57132867
_cell_angle_beta   93.13025394
_cell_angle_gamma   93.77445763
_symmetry_Int_Tables_number   1
_chemical_formula_structural   Li3LuCu2(PN)5
_chemical_formula_sum   'Li3 Lu1 Cu2 P5 N5'
_cell_volume   438.20829178
_cell_formula_units_Z   1
loop_
 _symmetry_equiv_pos_site_id
 _symmetry_equiv_pos_as_xyz
  1  'x, y, z'
loop_
 _atom_site_type_symbol
 _atom_site_label
 _atom_site_symmetry_multiplicity
 _atom_site_fract_x
 _atom_site_fract_y
 _atom_site_fract_z
 _atom_site_occupancy
  P  P0  1  0.12500000  0.00000000  0.25000000  1
  P  P1  1  0.00000000  0.00000000  0.00000000  1
  P  P2  1  0.37500000  0.00000000  0.25000000  1
  P  P3  1  0.25000000  0.25000000  0.25000000  1
  P  P4  1  0.00000000  0.25000000  0.12500000  1
  Lu  Lu5  1  0.75343613  0.77635371  0.40179967  1
  Li  Li6  1  0.56696123  0.60090453  0.57731946  1
  Li  Li7  1  0.97128944  0.72750354  0.01950810  1
  Li  Li8  1  0.31540189  0.09227740  0.96313844  1
  Cu  Cu9  1  0.17909858  0.39454576  0.91702843  1
  Cu  Cu10  1  0.65003145  0.69536810  0.24952878  1
  N  N11  1  0.16514169  0.82632434  0.68504033  1
  N  N12  1  0.52963629  0.58401077  0.76530299  1
  N  N13  1  0.73288366  0.90546241  0.17800446  1
  N  N14  1  0.71644626  0.65106211  0.38524419  1
  N  N15  1  0.26761935  0.75134171  0.66639334  1
