# generated using pymatgen
data_Li3(P4Cl)2
_symmetry_space_group_name_H-M   'P 1'
_cell_length_a   5.35218124
_cell_length_b   4.95644265
_cell_length_c   7.30578794
_cell_angle_alpha   104.67099499
_cell_angle_beta   108.73149102
_cell_angle_gamma   103.80123802
_symmetry_Int_Tables_number   1
_chemical_formula_structural   Li3(P4Cl)2
_chemical_formula_sum   'Li3 P8 Cl2'
_cell_volume   166.38197859
_cell_formula_units_Z   1
loop_
 _symmetry_equiv_pos_site_id
 _symmetry_equiv_pos_as_xyz
  1  'x, y, z'
loop_
 _atom_site_type_symbol
 _atom_site_label
 _atom_site_symmetry_multiplicity
 _atom_site_fract_x
 _atom_site_fract_y
 _atom_site_fract_z
 _atom_site_occupancy
  Cl  Cl0  1  0.00000000  0.00000000  0.00000000  1
  Cl  Cl1  1  0.50000000  0.50000000  0.50000000  1
  P  P2  1  0.50000000  0.50000000  0.00000000  1
  P  P3  1  0.50000000  0.00000000  0.50000000  1
  P  P4  1  0.00000000  0.50000000  0.50000000  1
  P  P5  1  0.81840151  0.80354813  0.13499503  1
  P  P6  1  0.37510738  0.14043530  0.44504575  1
  P  P7  1  0.52694537  0.93019489  0.08255001  1
  P  P8  1  0.90880774  0.34133324  0.26248237  1
  P  P9  1  0.93084613  0.05872235  0.32764849  1
  Li  Li10  1  0.95996493  0.91544063  0.86351390  1
  Li  Li11  1  0.29033721  0.54420775  0.97203377  1
  Li  Li12  1  0.27497629  0.10619188  0.66430440  1
