# generated using pymatgen
data_Li2LuCu2(As3P2)2
_symmetry_space_group_name_H-M   'P 1'
_cell_length_a   7.22202957
_cell_length_b   7.13584540
_cell_length_c   8.01878501
_cell_angle_alpha   94.03670068
_cell_angle_beta   94.64303029
_cell_angle_gamma   94.01754405
_symmetry_Int_Tables_number   1
_chemical_formula_structural   Li2LuCu2(As3P2)2
_chemical_formula_sum   'Li2 Lu1 Cu2 As6 P4'
_cell_volume   409.67785430
_cell_formula_units_Z   1
loop_
 _symmetry_equiv_pos_site_id
 _symmetry_equiv_pos_as_xyz
  1  'x, y, z'
loop_
 _atom_site_type_symbol
 _atom_site_label
 _atom_site_symmetry_multiplicity
 _atom_site_fract_x
 _atom_site_fract_y
 _atom_site_fract_z
 _atom_site_occupancy
  P  P0  1  0.00000000  0.00000000  0.00000000  1
  P  P1  1  0.50000000  0.50000000  0.50000000  1
  P  P2  1  0.50000000  0.50000000  0.00000000  1
  P  P3  1  0.50000000  0.00000000  0.50000000  1
  Lu  Lu4  1  0.00000000  0.50000000  0.50000000  1
  Li  Li5  1  0.47522814  0.96415776  0.43022648  1
  Li  Li6  1  0.40393760  0.46571124  0.65873906  1
  Cu  Cu7  1  0.74404883  0.83969250  0.01697039  1
  Cu  Cu8  1  0.99744413  0.63779525  0.93046700  1
  As  As9  1  0.66197613  0.86129347  0.29347195  1
  As  As10  1  0.53709256  0.59421156  0.61034088  1
  As  As11  1  0.73832195  0.87001597  0.01192787  1
  As  As12  1  0.47686543  0.79832498  0.99107461  1
  As  As13  1  0.14144490  0.32843246  0.82965101  1
  As  As14  1  0.67732657  0.40240016  0.24613566  1
