# generated using pymatgen
data_Li2Cu2Ni2As6O5
_symmetry_space_group_name_H-M   'P 1'
_cell_length_a   7.79847092
_cell_length_b   7.61180077
_cell_length_c   8.05478425
_cell_angle_alpha   91.10693615
_cell_angle_beta   91.37346425
_cell_angle_gamma   91.28020752
_symmetry_Int_Tables_number   1
_chemical_formula_structural   Li2Cu2Ni2As6O5
_chemical_formula_sum   'Li2 Cu2 Ni2 As6 O5'
_cell_volume   477.78429078
_cell_formula_units_Z   1
loop_
 _symmetry_equiv_pos_site_id
 _symmetry_equiv_pos_as_xyz
  1  'x, y, z'
loop_
 _atom_site_type_symbol
 _atom_site_label
 _atom_site_symmetry_multiplicity
 _atom_site_fract_x
 _atom_site_fract_y
 _atom_site_fract_z
 _atom_site_occupancy
  Li  Li0  1  0.12500000  0.00000000  0.25000000  1
  Li  Li1  1  0.00000000  0.00000000  0.00000000  1
  Cu  Cu2  1  0.37500000  0.00000000  0.25000000  1
  Cu  Cu3  1  0.25000000  0.25000000  0.25000000  1
  Ni  Ni4  1  0.00000000  0.25000000  0.12500000  1
  Ni  Ni5  1  0.16099620  0.39582232  0.63441721  1
  As  As6  1  0.56158220  0.85982363  0.26535387  1
  As  As7  1  0.65851473  0.85042913  0.87261138  1
  As  As8  1  0.25918916  0.56764450  0.33896667  1
  As  As9  1  0.27376158  0.97909459  0.86993058  1
  As  As10  1  0.96103584  0.55936144  0.58116756  1
  As  As11  1  0.96825853  0.70181053  0.80239735  1
  O  O12  1  0.73094437  0.71736208  0.82345182  1
  O  O13  1  0.18341312  0.97433866  0.41583601  1
  O  O14  1  0.80341368  0.24050582  0.58657183  1
  O  O15  1  0.73270283  0.33624313  0.66827188  1
  O  O16  1  0.18621171  0.78719949  0.15279435  1
