# generated using pymatgen
data_LiLuP4S3
_symmetry_space_group_name_H-M   'P 1'
_cell_length_a   6.28283013
_cell_length_b   6.26310062
_cell_length_c   7.50716729
_cell_angle_alpha   92.73939935
_cell_angle_beta   96.88501185
_cell_angle_gamma   92.86334902
_symmetry_Int_Tables_number   1
_chemical_formula_structural   LiLuP4S3
_chemical_formula_sum   'Li1 Lu1 P4 S3'
_cell_volume   292.47941674
_cell_formula_units_Z   1
loop_
 _symmetry_equiv_pos_site_id
 _symmetry_equiv_pos_as_xyz
  1  'x, y, z'
loop_
 _atom_site_type_symbol
 _atom_site_label
 _atom_site_symmetry_multiplicity
 _atom_site_fract_x
 _atom_site_fract_y
 _atom_site_fract_z
 _atom_site_occupancy
  S  S0  1  0.00000000  0.00000000  0.00000000  1
  S  S1  1  0.33300000  0.66700000  0.25000000  1
  S  S2  1  0.66700000  0.33300000  0.50000000  1
  P  P3  1  0.00000000  0.00000000  0.75000000  1
  P  P4  1  0.35090870  0.89979944  0.11819723  1
  P  P5  1  0.09571732  0.95985700  0.57104058  1
  P  P6  1  0.16537058  0.62237475  0.56274935  1
  Lu  Lu7  1  0.48717873  0.82244754  0.48135041  1
  Li  Li8  1  0.75150240  0.68887463  0.92609722  1
