# generated using pymatgen
data_Li2LuTi(PI)4
_symmetry_space_group_name_H-M   'P 1'
_cell_length_a   7.23903451
_cell_length_b   7.21462315
_cell_length_c   7.75490665
_cell_angle_alpha   94.56440194
_cell_angle_beta   95.66545333
_cell_angle_gamma   94.43054233
_symmetry_Int_Tables_number   1
_chemical_formula_structural   Li2LuTi(PI)4
_chemical_formula_sum   'Li2 Lu1 Ti1 P4 I4'
_cell_volume   400.27676118
_cell_formula_units_Z   1
loop_
 _symmetry_equiv_pos_site_id
 _symmetry_equiv_pos_as_xyz
  1  'x, y, z'
loop_
 _atom_site_type_symbol
 _atom_site_label
 _atom_site_symmetry_multiplicity
 _atom_site_fract_x
 _atom_site_fract_y
 _atom_site_fract_z
 _atom_site_occupancy
  Ti  Ti0  1  0.12500000  0.00000000  0.25000000  1
  P  P1  1  0.00000000  0.00000000  0.00000000  1
  P  P2  1  0.37500000  0.00000000  0.25000000  1
  P  P3  1  0.25000000  0.25000000  0.25000000  1
  P  P4  1  0.00000000  0.25000000  0.12500000  1
  I  I5  1  0.24497869  0.47529403  0.48483235  1
  I  I6  1  0.14192266  0.37523170  0.65420855  1
  I  I7  1  0.30946413  0.41497970  0.04300263  1
  I  I8  1  0.29556331  0.19179153  0.34772708  1
  Lu  Lu9  1  0.58774065  0.22856535  0.43097484  1
  Li  Li10  1  0.45329010  0.23776257  0.48797288  1
  Li  Li11  1  0.52133779  0.27386774  0.90144508  1
