# generated using pymatgen
data_Li3Ti2SeO4F3
_symmetry_space_group_name_H-M   'P 1'
_cell_length_a   5.38790735
_cell_length_b   5.15489319
_cell_length_c   7.25853416
_cell_angle_alpha   101.88581291
_cell_angle_beta   106.00689369
_cell_angle_gamma   101.17345863
_symmetry_Int_Tables_number   1
_chemical_formula_structural   Li3Ti2SeO4F3
_chemical_formula_sum   'Li3 Ti2 Se1 O4 F3'
_cell_volume   182.77585118
_cell_formula_units_Z   1
loop_
 _symmetry_equiv_pos_site_id
 _symmetry_equiv_pos_as_xyz
  1  'x, y, z'
loop_
 _atom_site_type_symbol
 _atom_site_label
 _atom_site_symmetry_multiplicity
 _atom_site_fract_x
 _atom_site_fract_y
 _atom_site_fract_z
 _atom_site_occupancy
  Li  Li0  1  0.00000000  0.00000000  0.00000000  1
  Li  Li1  1  0.50000000  0.50000000  0.50000000  1
  Li  Li2  1  0.50000000  0.50000000  0.00000000  1
  F  F3  1  0.50000000  0.00000000  0.50000000  1
  F  F4  1  0.00000000  0.50000000  0.50000000  1
  F  F5  1  0.06350062  0.87975819  0.87421894  1
  Se  Se6  1  0.94897554  0.94597136  0.84315259  1
  Ti  Ti7  1  0.65280079  0.90406329  0.60237793  1
  Ti  Ti8  1  0.29815698  0.74982286  0.01433326  1
  O  O9  1  0.42162650  0.07183387  0.31892234  1
  O  O10  1  0.68582730  0.01814392  0.38042867  1
  O  O11  1  0.48289682  0.13961520  0.24844332  1
  O  O12  1  0.45329347  0.71605702  0.66422726  1
