# generated using pymatgen
data_Li2LuTiP4
_symmetry_space_group_name_H-M   'P 1'
_cell_length_a   6.30893516
_cell_length_b   6.17404593
_cell_length_c   7.24490402
_cell_angle_alpha   98.50634101
_cell_angle_beta   101.09907737
_cell_angle_gamma   98.03614309
_symmetry_Int_Tables_number   1
_chemical_formula_structural   Li2LuTiP4
_chemical_formula_sum   'Li2 Lu1 Ti1 P4'
_cell_volume   269.72812949
_cell_formula_units_Z   1
loop_
 _symmetry_equiv_pos_site_id
 _symmetry_equiv_pos_as_xyz
  1  'x, y, z'
loop_
 _atom_site_type_symbol
 _atom_site_label
 _atom_site_symmetry_multiplicity
 _atom_site_fract_x
 _atom_site_fract_y
 _atom_site_fract_z
 _atom_site_occupancy
  Ti  Ti0  1  0.00000000  0.00000000  0.00000000  1
  P  P1  1  0.33300000  0.66700000  0.25000000  1
  P  P2  1  0.66700000  0.33300000  0.50000000  1
  P  P3  1  0.00000000  0.00000000  0.75000000  1
  P  P4  1  0.77649278  0.61512795  0.80220397  1
  Li  Li5  1  0.72431478  0.85968287  0.25088251  1
  Li  Li6  1  0.41564684  0.11173239  0.42301146  1
  Lu  Lu7  1  0.04449550  0.50989895  0.68395572  1
