# generated using pymatgen
data_Li3TiNi2As6O5
_symmetry_space_group_name_H-M   'P 1'
_cell_length_a   8.10788965
_cell_length_b   7.95126316
_cell_length_c   8.46106100
_cell_angle_alpha   91.11093185
_cell_angle_beta   90.70432715
_cell_angle_gamma   91.28737127
_symmetry_Int_Tables_number   1
_chemical_formula_structural   Li3TiNi2As6O5
_chemical_formula_sum   'Li3 Ti1 Ni2 As6 O5'
_cell_volume   545.18298446
_cell_formula_units_Z   1
loop_
 _symmetry_equiv_pos_site_id
 _symmetry_equiv_pos_as_xyz
  1  'x, y, z'
loop_
 _atom_site_type_symbol
 _atom_site_label
 _atom_site_symmetry_multiplicity
 _atom_site_fract_x
 _atom_site_fract_y
 _atom_site_fract_z
 _atom_site_occupancy
  Li  Li0  1  0.00000000  0.00000000  0.00000000  1
  Li  Li1  1  0.50000000  0.50000000  0.50000000  1
  Li  Li2  1  0.25000000  0.25000000  0.25000000  1
  Ni  Ni3  1  0.75000000  0.25000000  0.00000000  1
  Ni  Ni4  1  0.25000000  0.75000000  0.50000000  1
  Ti  Ti5  1  0.37304057  0.22694004  0.00157309  1
  As  As6  1  0.90723876  0.97481098  0.80184055  1
  As  As7  1  0.76979823  0.95695247  0.29674135  1
  As  As8  1  0.95598647  0.67398840  0.77005952  1
  As  As9  1  0.61552881  0.82332858  0.75803366  1
  As  As10  1  0.70814039  0.27562076  0.81252053  1
  As  As11  1  0.15991162  0.76375618  0.26689230  1
  O  O12  1  0.48058543  0.75444119  0.62638160  1
  O  O13  1  0.96549886  0.04891780  0.98238860  1
  O  O14  1  0.37208172  0.12902653  0.64267122  1
  O  O15  1  0.14958585  0.65798005  0.00836098  1
  O  O16  1  0.31214651  0.05320729  0.25373384  1
