# generated using pymatgen
data_Li2LuTiAs6
_symmetry_space_group_name_H-M   'P 1'
_cell_length_a   7.99170528
_cell_length_b   7.82436272
_cell_length_c   7.89535532
_cell_angle_alpha   91.18680028
_cell_angle_beta   91.25444415
_cell_angle_gamma   91.28645913
_symmetry_Int_Tables_number   1
_chemical_formula_structural   Li2LuTiAs6
_chemical_formula_sum   'Li2 Lu1 Ti1 As6'
_cell_volume   493.34279412
_cell_formula_units_Z   1
loop_
 _symmetry_equiv_pos_site_id
 _symmetry_equiv_pos_as_xyz
  1  'x, y, z'
loop_
 _atom_site_type_symbol
 _atom_site_label
 _atom_site_symmetry_multiplicity
 _atom_site_fract_x
 _atom_site_fract_y
 _atom_site_fract_z
 _atom_site_occupancy
  Lu  Lu0  1  0.12500000  0.00000000  0.25000000  1
  Li  Li1  1  0.00000000  0.00000000  0.00000000  1
  Li  Li2  1  0.37500000  0.00000000  0.25000000  1
  Ti  Ti3  1  0.25000000  0.25000000  0.25000000  1
  As  As4  1  0.00000000  0.25000000  0.12500000  1
  As  As5  1  0.19041794  0.50967202  0.12892387  1
  As  As6  1  0.82018643  0.35192033  0.12848606  1
  As  As7  1  0.33080092  0.79792491  0.40979029  1
  As  As8  1  0.86941481  0.90870558  0.85500770  1
  As  As9  1  0.03793786  0.37892750  0.76130564  1
