# generated using pymatgen
data_LiTi2As6S3F2
_symmetry_space_group_name_H-M   'P 1'
_cell_length_a   6.53265227
_cell_length_b   6.61946140
_cell_length_c   7.79840804
_cell_angle_alpha   91.12416158
_cell_angle_beta   95.34841941
_cell_angle_gamma   91.28521687
_symmetry_Int_Tables_number   1
_chemical_formula_structural   LiTi2As6S3F2
_chemical_formula_sum   'Li1 Ti2 As6 S3 F2'
_cell_volume   335.59125923
_cell_formula_units_Z   1
loop_
 _symmetry_equiv_pos_site_id
 _symmetry_equiv_pos_as_xyz
  1  'x, y, z'
loop_
 _atom_site_type_symbol
 _atom_site_label
 _atom_site_symmetry_multiplicity
 _atom_site_fract_x
 _atom_site_fract_y
 _atom_site_fract_z
 _atom_site_occupancy
  F  F0  1  0.00000000  0.00000000  0.00000000  1
  F  F1  1  0.50000000  0.50000000  0.50000000  1
  S  S2  1  0.50000000  0.50000000  0.00000000  1
  S  S3  1  0.50000000  0.00000000  0.50000000  1
  S  S4  1  0.00000000  0.50000000  0.50000000  1
  Ti  Ti5  1  0.77202640  0.80846306  0.17449578  1
  Ti  Ti6  1  0.95528200  0.10037468  0.87876071  1
  As  As7  1  0.64470115  0.04341719  0.50983275  1
  As  As8  1  0.01066600  0.23200432  0.08957025  1
  As  As9  1  0.31872270  0.71885926  0.65815737  1
  As  As10  1  0.90066207  0.92479606  0.11353807  1
  As  As11  1  0.81284895  0.31863040  0.69688357  1
  As  As12  1  0.41268604  0.29881896  0.89607589  1
  Li  Li13  1  0.03548164  0.30837767  0.86844379  1
