# generated using pymatgen
data_LiP2(IO)2
_symmetry_space_group_name_H-M   'P 1'
_cell_length_a   8.17590103
_cell_length_b   8.11458685
_cell_length_c   7.51881469
_cell_angle_alpha   92.07895577
_cell_angle_beta   92.58535100
_cell_angle_gamma   91.99050403
_symmetry_Int_Tables_number   1
_chemical_formula_structural   LiP2(IO)2
_chemical_formula_sum   'Li2 P4 I4 O4'
_cell_volume   497.66235598
_cell_formula_units_Z   2
loop_
 _symmetry_equiv_pos_site_id
 _symmetry_equiv_pos_as_xyz
  1  'x, y, z'
loop_
 _atom_site_type_symbol
 _atom_site_label
 _atom_site_symmetry_multiplicity
 _atom_site_fract_x
 _atom_site_fract_y
 _atom_site_fract_z
 _atom_site_occupancy
  O  O0  1  0.12500000  0.12500000  0.12500000  1
  O  O1  1  0.50000000  0.50000000  0.50000000  1
  O  O2  1  0.25000000  0.25000000  0.25000000  1
  O  O3  1  0.75000000  0.75000000  0.75000000  1
  P  P4  1  0.94144728  0.34719589  0.63006388  1
  P  P5  1  0.51831939  0.53732370  0.90276323  1
  P  P6  1  0.01979958  0.82808666  0.23147815  1
  P  P7  1  0.64503090  0.52434057  0.49780523  1
  I  I8  1  0.80459660  0.55948269  0.77238331  1
  I  I9  1  0.46214005  0.64812938  0.30025259  1
  I  I10  1  0.24016123  0.75641183  0.54283912  1
  I  I11  1  0.04921729  0.63220922  0.83395473  1
  Li  Li12  1  0.57484699  0.21162330  0.42563347  1
  Li  Li13  1  0.45672042  0.37715884  0.67965425  1
