# generated using pymatgen
data_LiZnCuTe3I2
_symmetry_space_group_name_H-M   'P 1'
_cell_length_a   7.86464696
_cell_length_b   8.16239492
_cell_length_c   8.01551882
_cell_angle_alpha   90.31441798
_cell_angle_beta   91.49590526
_cell_angle_gamma   90.35946371
_symmetry_Int_Tables_number   1
_chemical_formula_structural   LiZnCuTe3I2
_chemical_formula_sum   'Li2 Zn2 Cu2 Te6 I4'
_cell_volume   514.35734984
_cell_formula_units_Z   2
loop_
 _symmetry_equiv_pos_site_id
 _symmetry_equiv_pos_as_xyz
  1  'x, y, z'
loop_
 _atom_site_type_symbol
 _atom_site_label
 _atom_site_symmetry_multiplicity
 _atom_site_fract_x
 _atom_site_fract_y
 _atom_site_fract_z
 _atom_site_occupancy
  Te  Te0  1  0.12500000  0.00000000  0.25000000  1
  Te  Te1  1  0.00000000  0.00000000  0.00000000  1
  Te  Te2  1  0.37500000  0.00000000  0.25000000  1
  Te  Te3  1  0.25000000  0.25000000  0.25000000  1
  Te  Te4  1  0.00000000  0.25000000  0.12500000  1
  Te  Te5  1  0.94147227  0.33915798  0.92749010  1
  I  I6  1  0.68014162  0.06489718  0.21203438  1
  I  I7  1  0.99425341  0.08309017  0.79465442  1
  I  I8  1  0.42152916  0.29386914  0.63010864  1
  I  I9  1  0.27953164  0.14101013  0.10672629  1
  Li  Li10  1  0.35653630  0.68433656  0.44451277  1
  Li  Li11  1  0.21357700  0.01580227  0.56636469  1
  Cu  Cu12  1  0.32938935  0.87872744  0.07524227  1
  Cu  Cu13  1  0.72188337  0.73137885  0.84911750  1
  Zn  Zn14  1  0.13835136  0.30707855  0.61930596  1
  Zn  Zn15  1  0.48051452  0.35357924  0.09411701  1
