# generated using pymatgen
data_Li4TiSeO4F3
_symmetry_space_group_name_H-M   'P 1'
_cell_length_a   5.37508982
_cell_length_b   5.01868179
_cell_length_c   6.73184570
_cell_angle_alpha   103.55602260
_cell_angle_beta   107.44951945
_cell_angle_gamma   102.72601899
_symmetry_Int_Tables_number   1
_chemical_formula_structural   Li4TiSeO4F3
_chemical_formula_sum   'Li4 Ti1 Se1 O4 F3'
_cell_volume   159.93407475
_cell_formula_units_Z   1
loop_
 _symmetry_equiv_pos_site_id
 _symmetry_equiv_pos_as_xyz
  1  'x, y, z'
loop_
 _atom_site_type_symbol
 _atom_site_label
 _atom_site_symmetry_multiplicity
 _atom_site_fract_x
 _atom_site_fract_y
 _atom_site_fract_z
 _atom_site_occupancy
  Li  Li0  1  0.00000000  0.00000000  0.00000000  1
  Li  Li1  1  0.50000000  0.50000000  0.50000000  1
  Li  Li2  1  0.25000000  0.25000000  0.25000000  1
  Li  Li3  1  0.75000000  0.25000000  0.00000000  1
  Se  Se4  1  0.25000000  0.75000000  0.50000000  1
  F  F5  1  0.97215212  0.87167731  0.19231064  1
  F  F6  1  0.68152531  0.27967329  0.33528207  1
  F  F7  1  0.43279992  0.07485086  0.66756422  1
  Ti  Ti8  1  0.32520647  0.73655207  0.19159256  1
  O  O9  1  0.73456464  0.26659775  0.99400193  1
  O  O10  1  0.87717864  0.09622676  0.31396679  1
  O  O11  1  0.36357677  0.15059663  0.80055034  1
  O  O12  1  0.63399283  0.79798361  0.19454271  1
