# generated using pymatgen
data_Li2MnSb4P3
_symmetry_space_group_name_H-M   'P 1'
_cell_length_a   4.63286672
_cell_length_b   4.99394776
_cell_length_c   7.03926180
_cell_angle_alpha   97.74227369
_cell_angle_beta   99.17143856
_cell_angle_gamma   98.81166339
_symmetry_Int_Tables_number   1
_chemical_formula_structural   Li2MnSb4P3
_chemical_formula_sum   'Li2 Mn1 Sb4 P3'
_cell_volume   156.75469010
_cell_formula_units_Z   1
loop_
 _symmetry_equiv_pos_site_id
 _symmetry_equiv_pos_as_xyz
  1  'x, y, z'
loop_
 _atom_site_type_symbol
 _atom_site_label
 _atom_site_symmetry_multiplicity
 _atom_site_fract_x
 _atom_site_fract_y
 _atom_site_fract_z
 _atom_site_occupancy
  Mn  Mn0  1  0.12500000  0.00000000  0.25000000  1
  Sb  Sb1  1  0.00000000  0.00000000  0.00000000  1
  Sb  Sb2  1  0.37500000  0.00000000  0.25000000  1
  Sb  Sb3  1  0.25000000  0.25000000  0.25000000  1
  Sb  Sb4  1  0.00000000  0.25000000  0.12500000  1
  P  P5  1  0.76454770  0.96232582  0.35847509  1
  P  P6  1  0.22642721  0.79690620  0.67965924  1
  P  P7  1  0.66365691  0.93867325  0.24273970  1
  Li  Li8  1  0.51521939  0.04384324  0.77341742  1
  Li  Li9  1  0.74710521  0.46772897  0.73673727  1
