# generated using pymatgen
data_Li2TiCu2I4O3
_symmetry_space_group_name_H-M   'P 1'
_cell_length_a   7.23629832
_cell_length_b   7.12720852
_cell_length_c   7.08176084
_cell_angle_alpha   93.26219752
_cell_angle_beta   94.87581015
_cell_angle_gamma   93.74082665
_symmetry_Int_Tables_number   1
_chemical_formula_structural   Li2TiCu2I4O3
_chemical_formula_sum   'Li2 Ti1 Cu2 I4 O3'
_cell_volume   362.42490648
_cell_formula_units_Z   1
loop_
 _symmetry_equiv_pos_site_id
 _symmetry_equiv_pos_as_xyz
  1  'x, y, z'
loop_
 _atom_site_type_symbol
 _atom_site_label
 _atom_site_symmetry_multiplicity
 _atom_site_fract_x
 _atom_site_fract_y
 _atom_site_fract_z
 _atom_site_occupancy
  I  I0  1  0.12500000  0.00000000  0.25000000  1
  I  I1  1  0.00000000  0.00000000  0.00000000  1
  I  I2  1  0.37500000  0.00000000  0.25000000  1
  I  I3  1  0.25000000  0.25000000  0.25000000  1
  Li  Li4  1  0.00000000  0.25000000  0.12500000  1
  Li  Li5  1  0.75209833  0.15062378  0.24565650  1
  Cu  Cu6  1  0.91999025  0.58351189  0.31376855  1
  Cu  Cu7  1  0.42907589  0.23831122  0.35297265  1
  Ti  Ti8  1  0.78045898  0.59862802  0.10244105  1
  O  O9  1  0.62144902  0.10542743  0.86478725  1
  O  O10  1  0.45044450  0.93026931  0.00010220  1
  O  O11  1  0.79425658  0.05081130  0.71804976  1
