# generated using pymatgen
data_Li2TiNiAs3O2
_symmetry_space_group_name_H-M   'P 1'
_cell_length_a   8.19533498
_cell_length_b   7.89474804
_cell_length_c   8.14110313
_cell_angle_alpha   90.00000000
_cell_angle_beta   90.00000000
_cell_angle_gamma   90.00000000
_symmetry_Int_Tables_number   1
_chemical_formula_structural   Li2TiNiAs3O2
_chemical_formula_sum   'Li4 Ti2 Ni2 As6 O4'
_cell_volume   526.73022538
_cell_formula_units_Z   2
loop_
 _symmetry_equiv_pos_site_id
 _symmetry_equiv_pos_as_xyz
  1  'x, y, z'
loop_
 _atom_site_type_symbol
 _atom_site_label
 _atom_site_symmetry_multiplicity
 _atom_site_fract_x
 _atom_site_fract_y
 _atom_site_fract_z
 _atom_site_occupancy
  Li  Li0  1  0.12500000  0.00000000  0.25000000  1
  Li  Li1  1  0.00000000  0.00000000  0.00000000  1
  Li  Li2  1  0.37500000  0.00000000  0.25000000  1
  Li  Li3  1  0.25000000  0.25000000  0.25000000  1
  Ni  Ni4  1  0.00000000  0.25000000  0.12500000  1
  Ni  Ni5  1  0.12404440  0.07354423  0.21476514  1
  Ti  Ti6  1  0.54652456  0.56474587  0.80397957  1
  Ti  Ti7  1  0.95662051  0.26798336  0.20075771  1
  As  As8  1  0.67334488  0.19040385  0.27482682  1
  As  As9  1  0.99227135  0.55544489  0.68073879  1
  As  As10  1  0.05292472  0.95352077  0.72791533  1
  As  As11  1  0.30125900  0.64686017  0.50520165  1
  As  As12  1  0.39999457  0.92622726  0.07629051  1
  As  As13  1  0.81498688  0.71542585  0.44975990  1
  O  O14  1  0.75080750  0.29218206  0.91568407  1
  O  O15  1  0.81858538  0.61384996  0.95085384  1
  O  O16  1  0.49681644  0.62404530  0.68547340  1
  O  O17  1  0.45885217  0.93839164  0.77501547  1
