# generated using pymatgen
data_Li3Ni2Te6(AsO)6
_symmetry_space_group_name_H-M   'P 1'
_cell_length_a   8.37356337
_cell_length_b   8.36543971
_cell_length_c   9.13550432
_cell_angle_alpha   90.00000000
_cell_angle_beta   90.00000000
_cell_angle_gamma   90.00000000
_symmetry_Int_Tables_number   1
_chemical_formula_structural   Li3Ni2Te6(AsO)6
_chemical_formula_sum   'Li3 Ni2 Te6 As6 O6'
_cell_volume   639.92873530
_cell_formula_units_Z   1
loop_
 _symmetry_equiv_pos_site_id
 _symmetry_equiv_pos_as_xyz
  1  'x, y, z'
loop_
 _atom_site_type_symbol
 _atom_site_label
 _atom_site_symmetry_multiplicity
 _atom_site_fract_x
 _atom_site_fract_y
 _atom_site_fract_z
 _atom_site_occupancy
  Li  Li0  1  0.12500000  0.00000000  0.25000000  1
  Li  Li1  1  0.00000000  0.00000000  0.00000000  1
  Li  Li2  1  0.37500000  0.00000000  0.25000000  1
  Ni  Ni3  1  0.25000000  0.25000000  0.25000000  1
  Ni  Ni4  1  0.00000000  0.25000000  0.12500000  1
  Te  Te5  1  0.99202417  0.68241894  0.53356846  1
  Te  Te6  1  0.50666566  0.25896591  0.24844217  1
  Te  Te7  1  0.94792296  0.93964161  0.68973927  1
  Te  Te8  1  0.27422689  0.59897377  0.35900262  1
  Te  Te9  1  0.03239859  0.56206037  0.41470910  1
  Te  Te10  1  0.81375204  0.82229987  0.69832139  1
  As  As11  1  0.52510324  0.41394761  0.28182305  1
  As  As12  1  0.83440671  0.94666194  0.36170921  1
  As  As13  1  0.03941348  0.70726664  0.37671264  1
  As  As14  1  0.84513913  0.93105112  0.31994813  1
  As  As15  1  0.56686626  0.22180860  0.39062390  1
  As  As16  1  0.32009858  0.58851753  0.52945250  1
  O  O17  1  0.52738821  0.00784017  0.83398490  1
  O  O18  1  0.48354975  0.97942428  0.04364247  1
  O  O19  1  0.94062996  0.14378641  0.75207296  1
  O  O20  1  0.64795231  0.39533698  0.02912790  1
  O  O21  1  0.13870464  0.79567691  0.78543851  1
  O  O22  1  0.24311527  0.52283067  0.16692211  1
