# generated using pymatgen
data_Li3LuTi2VP3
_symmetry_space_group_name_H-M   'P 1'
_cell_length_a   5.88153868
_cell_length_b   5.36819005
_cell_length_c   6.81026473
_cell_angle_alpha   95.69763008
_cell_angle_beta   96.57661106
_cell_angle_gamma   96.54481488
_symmetry_Int_Tables_number   1
_chemical_formula_structural   Li3LuTi2VP3
_chemical_formula_sum   'Li3 Lu1 Ti2 V1 P3'
_cell_volume   210.83588996
_cell_formula_units_Z   1
loop_
 _symmetry_equiv_pos_site_id
 _symmetry_equiv_pos_as_xyz
  1  'x, y, z'
loop_
 _atom_site_type_symbol
 _atom_site_label
 _atom_site_symmetry_multiplicity
 _atom_site_fract_x
 _atom_site_fract_y
 _atom_site_fract_z
 _atom_site_occupancy
  P  P0  1  0.00000000  0.00000000  0.00000000  1
  P  P1  1  0.50000000  0.50000000  0.50000000  1
  P  P2  1  0.25000000  0.25000000  0.25000000  1
  Lu  Lu3  1  0.75000000  0.25000000  0.00000000  1
  Li  Li4  1  0.25000000  0.75000000  0.50000000  1
  Li  Li5  1  0.51574863  0.85517736  0.92063444  1
  Li  Li6  1  0.42797961  0.67987087  0.21273979  1
  Ti  Ti7  1  0.78547422  0.40794336  0.97177510  1
  Ti  Ti8  1  0.24668437  0.47500563  0.11453342  1
  V  V9  1  0.85508924  0.26673491  0.23254872  1
