# generated using pymatgen
data_Li2MnSb4P3
_symmetry_space_group_name_H-M   'P 1'
_cell_length_a   6.59396575
_cell_length_b   7.04235192
_cell_length_c   7.18995560
_cell_angle_alpha   94.07430427
_cell_angle_beta   91.34758535
_cell_angle_gamma   94.15259038
_symmetry_Int_Tables_number   1
_chemical_formula_structural   Li2MnSb4P3
_chemical_formula_sum   'Li2 Mn1 Sb4 P3'
_cell_volume   332.02417102
_cell_formula_units_Z   1
loop_
 _symmetry_equiv_pos_site_id
 _symmetry_equiv_pos_as_xyz
  1  'x, y, z'
loop_
 _atom_site_type_symbol
 _atom_site_label
 _atom_site_symmetry_multiplicity
 _atom_site_fract_x
 _atom_site_fract_y
 _atom_site_fract_z
 _atom_site_occupancy
  Mn  Mn0  1  0.00000000  0.00000000  0.00000000  1
  Sb  Sb1  1  0.33300000  0.66700000  0.25000000  1
  Sb  Sb2  1  0.66700000  0.33300000  0.50000000  1
  Sb  Sb3  1  0.00000000  0.00000000  0.75000000  1
  Sb  Sb4  1  0.99931440  0.02000380  0.17844036  1
  P  P5  1  0.52389834  0.63775934  0.48692768  1
  P  P6  1  0.46326372  0.82583616  0.72946188  1
  P  P7  1  0.94755596  0.68513056  0.27884510  1
  Li  Li8  1  0.00091220  0.22192927  0.83370909  1
  Li  Li9  1  0.96770898  0.07850544  0.67027694  1
