# generated using pymatgen
data_Li2MnSb4P3
_symmetry_space_group_name_H-M   'P 1'
_cell_length_a   4.86782639
_cell_length_b   5.20489116
_cell_length_c   6.72670856
_cell_angle_alpha   99.26383600
_cell_angle_beta   95.48423539
_cell_angle_gamma   99.77888278
_symmetry_Int_Tables_number   1
_chemical_formula_structural   Li2MnSb4P3
_chemical_formula_sum   'Li2 Mn1 Sb4 P3'
_cell_volume   164.43547951
_cell_formula_units_Z   1
loop_
 _symmetry_equiv_pos_site_id
 _symmetry_equiv_pos_as_xyz
  1  'x, y, z'
loop_
 _atom_site_type_symbol
 _atom_site_label
 _atom_site_symmetry_multiplicity
 _atom_site_fract_x
 _atom_site_fract_y
 _atom_site_fract_z
 _atom_site_occupancy
  Mn  Mn0  1  0.00000000  0.00000000  0.00000000  1
  Sb  Sb1  1  0.33300000  0.66700000  0.25000000  1
  Sb  Sb2  1  0.66700000  0.33300000  0.50000000  1
  Sb  Sb3  1  0.00000000  0.00000000  0.75000000  1
  Sb  Sb4  1  0.13892971  0.41985952  0.53340001  1
  P  P5  1  0.34064820  0.55050931  0.63595185  1
  P  P6  1  0.41631738  0.65691106  0.88758721  1
  P  P7  1  0.10344746  0.54649359  0.77765410  1
  Li  Li8  1  0.33308905  0.80983762  0.10605766  1
  Li  Li9  1  0.78194350  0.80906963  0.40582774  1
