# generated using pymatgen
data_Li2Ti3Ni2(As3O2)2
_symmetry_space_group_name_H-M   'P 1'
_cell_length_a   7.60048673
_cell_length_b   7.41856429
_cell_length_c   8.91887618
_cell_angle_alpha   90.35024066
_cell_angle_beta   91.66633868
_cell_angle_gamma   90.40041859
_symmetry_Int_Tables_number   1
_chemical_formula_structural   Li2Ti3Ni2(As3O2)2
_chemical_formula_sum   'Li2 Ti3 Ni2 As6 O4'
_cell_volume   502.65317899
_cell_formula_units_Z   1
loop_
 _symmetry_equiv_pos_site_id
 _symmetry_equiv_pos_as_xyz
  1  'x, y, z'
loop_
 _atom_site_type_symbol
 _atom_site_label
 _atom_site_symmetry_multiplicity
 _atom_site_fract_x
 _atom_site_fract_y
 _atom_site_fract_z
 _atom_site_occupancy
  Li  Li0  1  0.00000000  0.00000000  0.00000000  1
  Li  Li1  1  0.50000000  0.50000000  0.50000000  1
  Ni  Ni2  1  0.25000000  0.25000000  0.25000000  1
  Ni  Ni3  1  0.75000000  0.25000000  0.00000000  1
  Ti  Ti4  1  0.25000000  0.75000000  0.50000000  1
  Ti  Ti5  1  0.11294196  0.05815563  0.48584310  1
  Ti  Ti6  1  0.88394174  0.99565094  0.81800562  1
  As  As7  1  0.75275607  0.23017869  0.82899436  1
  As  As8  1  0.76991520  0.68665790  0.41692146  1
  As  As9  1  0.18835376  0.56826452  0.88411151  1
  As  As10  1  0.81117265  0.20215536  0.17690790  1
  As  As11  1  0.42848847  0.02085966  0.91629654  1
  As  As12  1  0.35177528  0.40882739  0.66081667  1
  O  O13  1  0.44156778  0.07704892  0.95142683  1
  O  O14  1  0.31920063  0.72173464  0.61678184  1
  O  O15  1  0.73640996  0.91792043  0.04444143  1
  O  O16  1  0.28245093  0.84044777  0.13961671  1
