# generated using pymatgen
data_Li2LuTi(CuO)2
_symmetry_space_group_name_H-M   'P 1'
_cell_length_a   6.42670997
_cell_length_b   6.42574178
_cell_length_c   7.39139720
_cell_angle_alpha   96.28566005
_cell_angle_beta   98.42369478
_cell_angle_gamma   96.47580282
_symmetry_Int_Tables_number   1
_chemical_formula_structural   Li2LuTi(CuO)2
_chemical_formula_sum   'Li2 Lu1 Ti1 Cu2 O2'
_cell_volume   297.54280655
_cell_formula_units_Z   1
loop_
 _symmetry_equiv_pos_site_id
 _symmetry_equiv_pos_as_xyz
  1  'x, y, z'
loop_
 _atom_site_type_symbol
 _atom_site_label
 _atom_site_symmetry_multiplicity
 _atom_site_fract_x
 _atom_site_fract_y
 _atom_site_fract_z
 _atom_site_occupancy
  Ti  Ti0  1  0.12500000  0.00000000  0.25000000  1
  O  O1  1  0.00000000  0.00000000  0.00000000  1
  O  O2  1  0.37500000  0.00000000  0.25000000  1
  Lu  Lu3  1  0.25000000  0.25000000  0.25000000  1
  Li  Li4  1  0.00000000  0.25000000  0.12500000  1
  Li  Li5  1  0.53710267  0.24548804  0.07558899  1
  Cu  Cu6  1  0.31784056  0.51108964  0.44982004  1
  Cu  Cu7  1  0.48824573  0.19662657  0.16999403  1
