# generated using pymatgen
data_LiMn2Sb2Mo2P3
_symmetry_space_group_name_H-M   'P 1'
_cell_length_a   4.91059622
_cell_length_b   5.14156410
_cell_length_c   6.09259030
_cell_angle_alpha   97.77564615
_cell_angle_beta   91.74464847
_cell_angle_gamma   97.96096995
_symmetry_Int_Tables_number   1
_chemical_formula_structural   LiMn2Sb2Mo2P3
_chemical_formula_sum   'Li1 Mn2 Sb2 Mo2 P3'
_cell_volume   150.75366012
_cell_formula_units_Z   1
loop_
 _symmetry_equiv_pos_site_id
 _symmetry_equiv_pos_as_xyz
  1  'x, y, z'
loop_
 _atom_site_type_symbol
 _atom_site_label
 _atom_site_symmetry_multiplicity
 _atom_site_fract_x
 _atom_site_fract_y
 _atom_site_fract_z
 _atom_site_occupancy
  Mn  Mn0  1  0.00000000  0.00000000  0.00000000  1
  Mn  Mn1  1  0.50000000  0.50000000  0.50000000  1
  Sb  Sb2  1  0.25000000  0.25000000  0.25000000  1
  Sb  Sb3  1  0.75000000  0.25000000  0.00000000  1
  P  P4  1  0.25000000  0.75000000  0.50000000  1
  P  P5  1  0.70969639  0.23422114  0.75910462  1
  P  P6  1  0.65313801  0.36194783  0.09258915  1
  Mo  Mo7  1  0.07384080  0.44044320  0.97175648  1
  Mo  Mo8  1  0.63985396  0.37461090  0.89017848  1
  Li  Li9  1  0.34944564  0.98863585  0.07390760  1
