# generated using pymatgen
data_Li4ZrTi2SeS2
_symmetry_space_group_name_H-M   'P 1'
_cell_length_a   3.97418124
_cell_length_b   3.58592468
_cell_length_c   6.83451818
_cell_angle_alpha   103.82313393
_cell_angle_beta   107.60217805
_cell_angle_gamma   102.76561214
_symmetry_Int_Tables_number   1
_chemical_formula_structural   Li4ZrTi2SeS2
_chemical_formula_sum   'Li4 Zr1 Ti2 Se1 S2'
_cell_volume   85.50711505
_cell_formula_units_Z   1
loop_
 _symmetry_equiv_pos_site_id
 _symmetry_equiv_pos_as_xyz
  1  'x, y, z'
loop_
 _atom_site_type_symbol
 _atom_site_label
 _atom_site_symmetry_multiplicity
 _atom_site_fract_x
 _atom_site_fract_y
 _atom_site_fract_z
 _atom_site_occupancy
  Li  Li0  1  0.12500000  0.00000000  0.25000000  1
  Li  Li1  1  0.00000000  0.00000000  0.00000000  1
  Li  Li2  1  0.37500000  0.00000000  0.25000000  1
  Li  Li3  1  0.25000000  0.25000000  0.25000000  1
  Se  Se4  1  0.00000000  0.25000000  0.12500000  1
  S  S5  1  0.66765436  0.91552602  0.04536924  1
  S  S6  1  0.88236448  0.45539450  0.25130452  1
  Ti  Ti7  1  0.18345833  0.81637389  0.55164934  1
  Ti  Ti8  1  0.85967354  0.31649422  0.28365399  1
  Zr  Zr9  1  0.69234111  0.99284741  0.66350736  1
