# generated using pymatgen
data_Li2TiCu2P5O2
_symmetry_space_group_name_H-M   'P 1'
_cell_length_a   6.55193290
_cell_length_b   6.40637024
_cell_length_c   7.58889008
_cell_angle_alpha   94.93303378
_cell_angle_beta   96.26114506
_cell_angle_gamma   95.49519306
_symmetry_Int_Tables_number   1
_chemical_formula_structural   Li2TiCu2P5O2
_chemical_formula_sum   'Li2 Ti1 Cu2 P5 O2'
_cell_volume   313.68118050
_cell_formula_units_Z   1
loop_
 _symmetry_equiv_pos_site_id
 _symmetry_equiv_pos_as_xyz
  1  'x, y, z'
loop_
 _atom_site_type_symbol
 _atom_site_label
 _atom_site_symmetry_multiplicity
 _atom_site_fract_x
 _atom_site_fract_y
 _atom_site_fract_z
 _atom_site_occupancy
  P  P0  1  0.00000000  0.00000000  0.00000000  1
  P  P1  1  0.50000000  0.50000000  0.50000000  1
  P  P2  1  0.50000000  0.50000000  0.00000000  1
  P  P3  1  0.50000000  0.00000000  0.50000000  1
  P  P4  1  0.00000000  0.50000000  0.50000000  1
  Li  Li5  1  0.70755697  0.05217630  0.72808280  1
  Li  Li6  1  0.97416017  0.13785350  0.34377163  1
  Cu  Cu7  1  0.68310226  0.89508480  0.40400700  1
  Cu  Cu8  1  0.24105520  0.01270486  0.15998132  1
  Ti  Ti9  1  0.83151749  0.84598819  0.04819933  1
  O  O10  1  0.13884163  0.14518002  0.01252313  1
  O  O11  1  0.12937267  0.67404842  0.27705381  1
