# generated using pymatgen
data_Li2LuP4O3
_symmetry_space_group_name_H-M   'P 1'
_cell_length_a   7.36784684
_cell_length_b   7.32902425
_cell_length_c   7.64173806
_cell_angle_alpha   93.64405595
_cell_angle_beta   95.01743890
_cell_angle_gamma   93.51470016
_symmetry_Int_Tables_number   1
_chemical_formula_structural   Li2LuP4O3
_chemical_formula_sum   'Li2 Lu1 P4 O3'
_cell_volume   409.30597983
_cell_formula_units_Z   1
loop_
 _symmetry_equiv_pos_site_id
 _symmetry_equiv_pos_as_xyz
  1  'x, y, z'
loop_
 _atom_site_type_symbol
 _atom_site_label
 _atom_site_symmetry_multiplicity
 _atom_site_fract_x
 _atom_site_fract_y
 _atom_site_fract_z
 _atom_site_occupancy
  O  O0  1  0.00000000  0.00000000  0.00000000  1
  O  O1  1  0.50000000  0.50000000  0.50000000  1
  O  O2  1  0.50000000  0.50000000  0.00000000  1
  P  P3  1  0.50000000  0.00000000  0.50000000  1
  P  P4  1  0.00000000  0.50000000  0.50000000  1
  P  P5  1  0.94779456  0.10380119  0.52309961  1
  P  P6  1  0.83158471  0.83074792  0.24475524  1
  Li  Li7  1  0.44681004  0.42249503  0.51608336  1
  Li  Li8  1  0.65525623  0.08503051  0.94616530  1
  Lu  Lu9  1  0.58235471  0.54175400  0.34988389  1
