# generated using pymatgen
data_Li2Ni3Sb4P3W
_symmetry_space_group_name_H-M   'P 1'
_cell_length_a   6.28438913
_cell_length_b   5.93297278
_cell_length_c   6.95716373
_cell_angle_alpha   96.12177881
_cell_angle_beta   91.27870973
_cell_angle_gamma   95.70105293
_symmetry_Int_Tables_number   1
_chemical_formula_structural   Li2Ni3Sb4P3W
_chemical_formula_sum   'Li2 Ni3 Sb4 P3 W1'
_cell_volume   256.50163609
_cell_formula_units_Z   1
loop_
 _symmetry_equiv_pos_site_id
 _symmetry_equiv_pos_as_xyz
  1  'x, y, z'
loop_
 _atom_site_type_symbol
 _atom_site_label
 _atom_site_symmetry_multiplicity
 _atom_site_fract_x
 _atom_site_fract_y
 _atom_site_fract_z
 _atom_site_occupancy
  W  W0  1  0.00000000  0.00000000  0.00000000  1
  Sb  Sb1  1  0.50000000  0.50000000  0.50000000  1
  Sb  Sb2  1  0.25000000  0.25000000  0.25000000  1
  Sb  Sb3  1  0.75000000  0.25000000  0.00000000  1
  Sb  Sb4  1  0.25000000  0.75000000  0.50000000  1
  P  P5  1  0.92473601  0.69359250  0.97617528  1
  P  P6  1  0.68683524  0.65216587  0.38962745  1
  P  P7  1  0.01771251  0.45141314  0.40897520  1
  Li  Li8  1  0.77854220  0.16770789  0.60354765  1
  Li  Li9  1  0.85697847  0.42434717  0.41886842  1
  Ni  Ni10  1  0.41646939  0.63684123  0.04486405  1
  Ni  Ni11  1  0.47128485  0.32789953  0.17140808  1
  Ni  Ni12  1  0.10716881  0.04900536  0.76492405  1
