# generated using pymatgen
data_Li2LuCu2(NiP2)2
_symmetry_space_group_name_H-M   'P 1'
_cell_length_a   7.49847010
_cell_length_b   7.53416992
_cell_length_c   8.28308830
_cell_angle_alpha   90.95811142
_cell_angle_beta   91.99153292
_cell_angle_gamma   91.10505911
_symmetry_Int_Tables_number   1
_chemical_formula_structural   Li2LuCu2(NiP2)2
_chemical_formula_sum   'Li2 Lu1 Cu2 Ni2 P4'
_cell_volume   467.51051870
_cell_formula_units_Z   1
loop_
 _symmetry_equiv_pos_site_id
 _symmetry_equiv_pos_as_xyz
  1  'x, y, z'
loop_
 _atom_site_type_symbol
 _atom_site_label
 _atom_site_symmetry_multiplicity
 _atom_site_fract_x
 _atom_site_fract_y
 _atom_site_fract_z
 _atom_site_occupancy
  Ni  Ni0  1  0.12500000  0.00000000  0.25000000  1
  Ni  Ni1  1  0.00000000  0.00000000  0.00000000  1
  P  P2  1  0.37500000  0.00000000  0.25000000  1
  P  P3  1  0.25000000  0.25000000  0.25000000  1
  P  P4  1  0.00000000  0.25000000  0.12500000  1
  P  P5  1  0.35790086  0.74236961  0.79571178  1
  Lu  Lu6  1  0.17568996  0.70507806  0.74020556  1
  Li  Li7  1  0.00417406  0.22582859  0.00007485  1
  Li  Li8  1  0.11413220  0.66046673  0.68248494  1
  Cu  Cu9  1  0.54291970  0.68200853  0.70217569  1
  Cu  Cu10  1  0.39756521  0.68372306  0.14980196  1
