# generated using pymatgen
data_LiNiP4
_symmetry_space_group_name_H-M   'P 1'
_cell_length_a   7.00988377
_cell_length_b   6.69862525
_cell_length_c   8.11563239
_cell_angle_alpha   96.05208386
_cell_angle_beta   97.72712107
_cell_angle_gamma   95.69329142
_symmetry_Int_Tables_number   1
_chemical_formula_structural   LiNiP4
_chemical_formula_sum   'Li2 Ni2 P8'
_cell_volume   373.02337480
_cell_formula_units_Z   2
loop_
 _symmetry_equiv_pos_site_id
 _symmetry_equiv_pos_as_xyz
  1  'x, y, z'
loop_
 _atom_site_type_symbol
 _atom_site_label
 _atom_site_symmetry_multiplicity
 _atom_site_fract_x
 _atom_site_fract_y
 _atom_site_fract_z
 _atom_site_occupancy
  Ni  Ni0  1  0.00000000  0.00000000  0.00000000  1
  Ni  Ni1  1  0.33300000  0.66700000  0.25000000  1
  P  P2  1  0.66700000  0.33300000  0.50000000  1
  P  P3  1  0.00000000  0.00000000  0.75000000  1
  P  P4  1  0.36938819  0.09860359  0.10338299  1
  P  P5  1  0.20641955  0.74599418  0.08697167  1
  P  P6  1  0.38983468  0.74264266  0.96595637  1
  P  P7  1  0.58143700  0.39762770  0.21312673  1
  P  P8  1  0.03150571  0.18617979  0.92675495  1
  P  P9  1  0.58621898  0.33572614  0.03876468  1
  Li  Li10  1  0.51137225  0.17663738  0.16562239  1
  Li  Li11  1  0.58729889  0.41120072  0.16531215  1
