# generated using pymatgen
data_Li4Ti2As6P3O5
_symmetry_space_group_name_H-M   'P 1'
_cell_length_a   8.20142981
_cell_length_b   7.90894874
_cell_length_c   8.21865489
_cell_angle_alpha   90.00000000
_cell_angle_beta   90.00000000
_cell_angle_gamma   90.00000000
_symmetry_Int_Tables_number   1
_chemical_formula_structural   Li4Ti2As6P3O5
_chemical_formula_sum   'Li4 Ti2 As6 P3 O5'
_cell_volume   533.10048481
_cell_formula_units_Z   1
loop_
 _symmetry_equiv_pos_site_id
 _symmetry_equiv_pos_as_xyz
  1  'x, y, z'
loop_
 _atom_site_type_symbol
 _atom_site_label
 _atom_site_symmetry_multiplicity
 _atom_site_fract_x
 _atom_site_fract_y
 _atom_site_fract_z
 _atom_site_occupancy
  P  P0  1  0.12500000  0.00000000  0.25000000  1
  P  P1  1  0.00000000  0.00000000  0.00000000  1
  P  P2  1  0.37500000  0.00000000  0.25000000  1
  Li  Li3  1  0.25000000  0.25000000  0.25000000  1
  Li  Li4  1  0.00000000  0.25000000  0.12500000  1
  Li  Li5  1  0.80286867  0.19318781  0.73504489  1
  Li  Li6  1  0.47351778  0.41010116  0.65462500  1
  Ti  Ti7  1  0.89537670  0.95649428  0.40738057  1
  Ti  Ti8  1  0.99023841  0.20036391  0.05464090  1
  As  As9  1  0.95937374  0.18830034  0.65783824  1
  As  As10  1  0.31041035  0.46419810  0.14047158  1
  As  As11  1  0.97273344  0.01066108  0.16434496  1
  As  As12  1  0.71853275  0.73936356  0.05663119  1
  As  As13  1  0.57061893  0.37944556  0.32478278  1
  As  As14  1  0.14190410  0.40752425  0.63964203  1
  O  O15  1  0.20287021  0.33797387  0.74831097  1
  O  O16  1  0.89330851  0.38522013  0.66639670  1
  O  O17  1  0.72942732  0.20444003  0.05406847  1
  O  O18  1  0.00058731  0.38577376  0.08790516  1
  O  O19  1  0.04820993  0.81974649  0.06555691  1
