# generated using pymatgen
data_Li2MnSb4P3
_symmetry_space_group_name_H-M   'P 1'
_cell_length_a   5.97712174
_cell_length_b   6.46289135
_cell_length_c   7.11293092
_cell_angle_alpha   95.16604903
_cell_angle_beta   93.66050300
_cell_angle_gamma   95.53713019
_symmetry_Int_Tables_number   1
_chemical_formula_structural   Li2MnSb4P3
_chemical_formula_sum   'Li2 Mn1 Sb4 P3'
_cell_volume   271.64574816
_cell_formula_units_Z   1
loop_
 _symmetry_equiv_pos_site_id
 _symmetry_equiv_pos_as_xyz
  1  'x, y, z'
loop_
 _atom_site_type_symbol
 _atom_site_label
 _atom_site_symmetry_multiplicity
 _atom_site_fract_x
 _atom_site_fract_y
 _atom_site_fract_z
 _atom_site_occupancy
  Mn  Mn0  1  0.00000000  0.00000000  0.00000000  1
  Sb  Sb1  1  0.50000000  0.50000000  0.50000000  1
  Sb  Sb2  1  0.50000000  0.50000000  0.00000000  1
  Sb  Sb3  1  0.50000000  0.00000000  0.50000000  1
  Sb  Sb4  1  0.00000000  0.50000000  0.50000000  1
  P  P5  1  0.82943387  0.75987771  0.03555980  1
  P  P6  1  0.91727082  0.34914435  0.47656759  1
  P  P7  1  0.20265232  0.83792942  0.97442571  1
  Li  Li8  1  0.76503645  0.77250140  0.70297664  1
  Li  Li9  1  0.68157791  0.09730610  0.33999166  1
