# generated using pymatgen
data_Li6ZrTi2SeO3
_symmetry_space_group_name_H-M   'P 1'
_cell_length_a   6.51748765
_cell_length_b   6.06489799
_cell_length_c   6.71392703
_cell_angle_alpha   98.33783972
_cell_angle_beta   100.64550632
_cell_angle_gamma   97.84353826
_symmetry_Int_Tables_number   1
_chemical_formula_structural   Li6ZrTi2SeO3
_chemical_formula_sum   'Li6 Zr1 Ti2 Se1 O3'
_cell_volume   254.40000802
_cell_formula_units_Z   1
loop_
 _symmetry_equiv_pos_site_id
 _symmetry_equiv_pos_as_xyz
  1  'x, y, z'
loop_
 _atom_site_type_symbol
 _atom_site_label
 _atom_site_symmetry_multiplicity
 _atom_site_fract_x
 _atom_site_fract_y
 _atom_site_fract_z
 _atom_site_occupancy
  Li  Li0  1  0.00000000  0.00000000  0.00000000  1
  Li  Li1  1  0.50000000  0.50000000  0.50000000  1
  Li  Li2  1  0.50000000  0.50000000  0.00000000  1
  Li  Li3  1  0.50000000  0.00000000  0.50000000  1
  Li  Li4  1  0.00000000  0.50000000  0.50000000  1
  Li  Li5  1  0.32947368  0.21960739  0.77201903  1
  Se  Se6  1  0.42574938  0.96235005  0.26684160  1
  Ti  Ti7  1  0.90433242  0.01502757  0.21339632  1
  Ti  Ti8  1  0.36364635  0.17673645  0.21071187  1
  O  O9  1  0.30434462  0.92883328  0.73928428  1
  O  O10  1  0.71778508  0.40419335  0.61743695  1
  O  O11  1  0.10033163  0.73697082  0.70631150  1
  Zr  Zr12  1  0.24123669  0.73382944  0.31379669  1
