# generated using pymatgen
data_Li2MnSbMo2P3
_symmetry_space_group_name_H-M   'P 1'
_cell_length_a   3.88747890
_cell_length_b   4.01599248
_cell_length_c   5.88554067
_cell_angle_alpha   104.52002943
_cell_angle_beta   93.55139247
_cell_angle_gamma   104.54091232
_symmetry_Int_Tables_number   1
_chemical_formula_structural   Li2MnSbMo2P3
_chemical_formula_sum   'Li2 Mn1 Sb1 Mo2 P3'
_cell_volume   85.33334802
_cell_formula_units_Z   1
loop_
 _symmetry_equiv_pos_site_id
 _symmetry_equiv_pos_as_xyz
  1  'x, y, z'
loop_
 _atom_site_type_symbol
 _atom_site_label
 _atom_site_symmetry_multiplicity
 _atom_site_fract_x
 _atom_site_fract_y
 _atom_site_fract_z
 _atom_site_occupancy
  Mn  Mn0  1  0.00000000  0.00000000  0.00000000  1
  Sb  Sb1  1  0.50000000  0.50000000  0.50000000  1
  P  P2  1  0.25000000  0.25000000  0.25000000  1
  P  P3  1  0.75000000  0.25000000  0.00000000  1
  P  P4  1  0.25000000  0.75000000  0.50000000  1
  Mo  Mo5  1  0.23270594  0.74995390  0.81528193  1
  Mo  Mo6  1  0.76708940  0.66584399  0.77600077  1
  Li  Li7  1  0.49744186  0.91331964  0.92326451  1
  Li  Li8  1  0.49396569  0.31383799  0.37526138  1
