# generated using pymatgen
data_Li2Lu(As3P2)2
_symmetry_space_group_name_H-M   'P 1'
_cell_length_a   8.15521607
_cell_length_b   7.99736952
_cell_length_c   7.74295266
_cell_angle_alpha   90.72730284
_cell_angle_beta   90.92609803
_cell_angle_gamma   90.78883112
_symmetry_Int_Tables_number   1
_chemical_formula_structural   Li2Lu(As3P2)2
_chemical_formula_sum   'Li2 Lu1 As6 P4'
_cell_volume   504.84155920
_cell_formula_units_Z   1
loop_
 _symmetry_equiv_pos_site_id
 _symmetry_equiv_pos_as_xyz
  1  'x, y, z'
loop_
 _atom_site_type_symbol
 _atom_site_label
 _atom_site_symmetry_multiplicity
 _atom_site_fract_x
 _atom_site_fract_y
 _atom_site_fract_z
 _atom_site_occupancy
  P  P0  1  0.12500000  0.00000000  0.25000000  1
  P  P1  1  0.00000000  0.00000000  0.00000000  1
  P  P2  1  0.37500000  0.00000000  0.25000000  1
  P  P3  1  0.25000000  0.25000000  0.25000000  1
  Lu  Lu4  1  0.00000000  0.25000000  0.12500000  1
  Li  Li5  1  0.17111920  0.77018419  0.32900475  1
  Li  Li6  1  0.76735029  0.47788334  0.13794814  1
  As  As7  1  0.79121776  0.64718346  0.74393254  1
  As  As8  1  0.32912963  0.08293686  0.58963431  1
  As  As9  1  0.99893390  0.21293169  0.68056801  1
  As  As10  1  0.02484730  0.76394797  0.53474367  1
  As  As11  1  0.98269116  0.79526322  0.70971044  1
  As  As12  1  0.66334303  0.11833692  0.78820421  1
