# generated using pymatgen
data_Li(NiP)3
_symmetry_space_group_name_H-M   'P 1'
_cell_length_a   5.42771726
_cell_length_b   5.59076277
_cell_length_c   6.88288736
_cell_angle_alpha   94.73400380
_cell_angle_beta   94.82427621
_cell_angle_gamma   95.21158094
_symmetry_Int_Tables_number   1
_chemical_formula_structural   Li(NiP)3
_chemical_formula_sum   'Li1 Ni3 P3'
_cell_volume   206.40406874
_cell_formula_units_Z   1
loop_
 _symmetry_equiv_pos_site_id
 _symmetry_equiv_pos_as_xyz
  1  'x, y, z'
loop_
 _atom_site_type_symbol
 _atom_site_label
 _atom_site_symmetry_multiplicity
 _atom_site_fract_x
 _atom_site_fract_y
 _atom_site_fract_z
 _atom_site_occupancy
  P  P0  1  0.00000000  0.00000000  0.00000000  1
  P  P1  1  0.50000000  0.50000000  0.50000000  1
  P  P2  1  0.50000000  0.50000000  0.00000000  1
  Li  Li3  1  0.50000000  0.00000000  0.50000000  1
  Ni  Ni4  1  0.00000000  0.50000000  0.50000000  1
  Ni  Ni5  1  0.63076441  0.58782704  0.36577418  1
  Ni  Ni6  1  0.35495866  0.38217191  0.97923875  1
