# generated using pymatgen
data_Li2MnSb4Mo2P3
_symmetry_space_group_name_H-M   'P 1'
_cell_length_a   5.43967067
_cell_length_b   5.82403166
_cell_length_c   6.76552462
_cell_angle_alpha   98.13253430
_cell_angle_beta   93.23104033
_cell_angle_gamma   98.36416521
_symmetry_Int_Tables_number   1
_chemical_formula_structural   Li2MnSb4Mo2P3
_chemical_formula_sum   'Li2 Mn1 Sb4 Mo2 P3'
_cell_volume   209.27621731
_cell_formula_units_Z   1
loop_
 _symmetry_equiv_pos_site_id
 _symmetry_equiv_pos_as_xyz
  1  'x, y, z'
loop_
 _atom_site_type_symbol
 _atom_site_label
 _atom_site_symmetry_multiplicity
 _atom_site_fract_x
 _atom_site_fract_y
 _atom_site_fract_z
 _atom_site_occupancy
  Mn  Mn0  1  0.00000000  0.00000000  0.00000000  1
  Sb  Sb1  1  0.50000000  0.50000000  0.50000000  1
  Sb  Sb2  1  0.50000000  0.50000000  0.00000000  1
  Sb  Sb3  1  0.50000000  0.00000000  0.50000000  1
  Sb  Sb4  1  0.00000000  0.50000000  0.50000000  1
  P  P5  1  0.04144795  0.24315725  0.44560562  1
  P  P6  1  0.16029806  0.87501722  0.38477031  1
  P  P7  1  0.23541537  0.03991790  0.79785217  1
  Mo  Mo8  1  0.94774671  0.61746256  0.32426383  1
  Mo  Mo9  1  0.18570690  0.55667254  0.95646720  1
  Li  Li10  1  0.53416850  0.42567231  0.85071517  1
  Li  Li11  1  0.66994264  0.75493436  0.88745836  1
