# generated using pymatgen
data_Li3Zn2Te6(IO)4
_symmetry_space_group_name_H-M   'P 1'
_cell_length_a   6.74428828
_cell_length_b   6.37293318
_cell_length_c   7.33259216
_cell_angle_alpha   96.61642683
_cell_angle_beta   92.33918471
_cell_angle_gamma   97.67425416
_symmetry_Int_Tables_number   1
_chemical_formula_structural   Li3Zn2Te6(IO)4
_chemical_formula_sum   'Li3 Zn2 Te6 I4 O4'
_cell_volume   309.75232637
_cell_formula_units_Z   1
loop_
 _symmetry_equiv_pos_site_id
 _symmetry_equiv_pos_as_xyz
  1  'x, y, z'
loop_
 _atom_site_type_symbol
 _atom_site_label
 _atom_site_symmetry_multiplicity
 _atom_site_fract_x
 _atom_site_fract_y
 _atom_site_fract_z
 _atom_site_occupancy
  I  I0  1  0.00000000  0.00000000  0.00000000  1
  I  I1  1  0.50000000  0.50000000  0.50000000  1
  I  I2  1  0.50000000  0.50000000  0.00000000  1
  I  I3  1  0.50000000  0.00000000  0.50000000  1
  Li  Li4  1  0.00000000  0.50000000  0.50000000  1
  Li  Li5  1  0.23852156  0.43757882  0.12397683  1
  Li  Li6  1  0.55624777  0.28031646  0.86575651  1
  Zn  Zn7  1  0.65000667  0.03407511  0.81419551  1
  Zn  Zn8  1  0.18767136  0.89268796  0.03950014  1
  Te  Te9  1  0.82719013  0.68709768  0.01366748  1
  Te  Te10  1  0.15370410  0.95899262  0.64974908  1
  Te  Te11  1  0.58374818  0.96726206  0.57041405  1
  Te  Te12  1  0.05955780  0.93964886  0.04512666  1
  Te  Te13  1  0.33555776  0.79178964  0.64824681  1
  Te  Te14  1  0.56616436  0.71581302  0.84296578  1
  O  O15  1  0.02215280  0.31368487  0.88602779  1
  O  O16  1  0.47080900  0.26354723  0.53358870  1
  O  O17  1  0.67780572  0.88385267  0.78912902  1
  O  O18  1  0.50170384  0.38573703  0.07796173  1
