# generated using pymatgen
data_Li4LuVP4N5
_symmetry_space_group_name_H-M   'P 1'
_cell_length_a   5.75505057
_cell_length_b   4.92309317
_cell_length_c   7.38220853
_cell_angle_alpha   100.15459724
_cell_angle_beta   93.59007653
_cell_angle_gamma   101.77810351
_symmetry_Int_Tables_number   1
_chemical_formula_structural   Li4LuVP4N5
_chemical_formula_sum   'Li4 Lu1 V1 P4 N5'
_cell_volume   200.48848124
_cell_formula_units_Z   1
loop_
 _symmetry_equiv_pos_site_id
 _symmetry_equiv_pos_as_xyz
  1  'x, y, z'
loop_
 _atom_site_type_symbol
 _atom_site_label
 _atom_site_symmetry_multiplicity
 _atom_site_fract_x
 _atom_site_fract_y
 _atom_site_fract_z
 _atom_site_occupancy
  P  P0  1  0.00000000  0.00000000  0.00000000  1
  P  P1  1  0.50000000  0.50000000  0.50000000  1
  P  P2  1  0.25000000  0.25000000  0.25000000  1
  P  P3  1  0.75000000  0.25000000  0.00000000  1
  Lu  Lu4  1  0.25000000  0.75000000  0.50000000  1
  Li  Li5  1  0.63346255  0.92911718  0.92602788  1
  Li  Li6  1  0.38318204  0.68996022  0.43981395  1
  Li  Li7  1  0.30530350  0.15241585  0.54055330  1
  Li  Li8  1  0.22890202  0.83403031  0.27511374  1
  V  V9  1  0.50494015  0.73778703  0.67929500  1
  N  N10  1  0.71503719  0.75144035  0.58237511  1
  N  N11  1  0.27186357  0.61246360  0.88985514  1
  N  N12  1  0.37079941  0.87525093  0.50484101  1
  N  N13  1  0.78853387  0.00798111  0.82122135  1
  N  N14  1  0.13554747  0.48190834  0.07912337  1
