# generated using pymatgen
data_Li2Mn2Sb4P3
_symmetry_space_group_name_H-M   'P 1'
_cell_length_a   4.83829076
_cell_length_b   5.11852943
_cell_length_c   5.91008545
_cell_angle_alpha   99.71653054
_cell_angle_beta   93.43578791
_cell_angle_gamma   98.44999476
_symmetry_Int_Tables_number   1
_chemical_formula_structural   Li2Mn2Sb4P3
_chemical_formula_sum   'Li2 Mn2 Sb4 P3'
_cell_volume   142.15731338
_cell_formula_units_Z   1
loop_
 _symmetry_equiv_pos_site_id
 _symmetry_equiv_pos_as_xyz
  1  'x, y, z'
loop_
 _atom_site_type_symbol
 _atom_site_label
 _atom_site_symmetry_multiplicity
 _atom_site_fract_x
 _atom_site_fract_y
 _atom_site_fract_z
 _atom_site_occupancy
  Mn  Mn0  1  0.00000000  0.00000000  0.00000000  1
  Mn  Mn1  1  0.50000000  0.50000000  0.50000000  1
  Sb  Sb2  1  0.25000000  0.25000000  0.25000000  1
  Sb  Sb3  1  0.75000000  0.25000000  0.00000000  1
  Sb  Sb4  1  0.25000000  0.75000000  0.50000000  1
  Sb  Sb5  1  0.82847611  0.29375265  0.85046607  1
  P  P6  1  0.59907751  0.63218402  0.74940591  1
  P  P7  1  0.03514374  0.50795684  0.09314917  1
  P  P8  1  0.20015616  0.57351650  0.52407828  1
  Li  Li9  1  0.30742044  0.39774465  0.96603727  1
  Li  Li10  1  0.96513274  0.22220612  0.69996289  1
