# generated using pymatgen
data_Li2Mn3Sb4P2N
_symmetry_space_group_name_H-M   'P 1'
_cell_length_a   4.32247392
_cell_length_b   4.57797293
_cell_length_c   5.34924835
_cell_angle_alpha   101.72469710
_cell_angle_beta   98.14042420
_cell_angle_gamma   97.20288742
_symmetry_Int_Tables_number   1
_chemical_formula_structural   Li2Mn3Sb4P2N
_chemical_formula_sum   'Li2 Mn3 Sb4 P2 N1'
_cell_volume   101.29300298
_cell_formula_units_Z   1
loop_
 _symmetry_equiv_pos_site_id
 _symmetry_equiv_pos_as_xyz
  1  'x, y, z'
loop_
 _atom_site_type_symbol
 _atom_site_label
 _atom_site_symmetry_multiplicity
 _atom_site_fract_x
 _atom_site_fract_y
 _atom_site_fract_z
 _atom_site_occupancy
  N  N0  1  0.12500000  0.00000000  0.25000000  1
  Mn  Mn1  1  0.00000000  0.00000000  0.00000000  1
  Mn  Mn2  1  0.37500000  0.00000000  0.25000000  1
  Mn  Mn3  1  0.25000000  0.25000000  0.25000000  1
  Sb  Sb4  1  0.00000000  0.25000000  0.12500000  1
  Sb  Sb5  1  0.62557669  0.85402649  0.85745431  1
  Sb  Sb6  1  0.93194398  0.93192803  0.79793325  1
  Sb  Sb7  1  0.00041665  0.02612938  0.00818604  1
  P  P8  1  0.25011416  0.26898637  0.79849417  1
  P  P9  1  0.14018366  0.62555199  0.64795426  1
  Li  Li10  1  0.53754095  0.46440561  0.86673427  1
  Li  Li11  1  0.64334747  0.91169340  0.67396291  1
