# generated using pymatgen
data_LiMn2P8(OF2)3
_symmetry_space_group_name_H-M   'P 1'
_cell_length_a   7.89884589
_cell_length_b   7.99698753
_cell_length_c   7.95830308
_cell_angle_alpha   90.00000000
_cell_angle_beta   90.00000000
_cell_angle_gamma   90.00000000
_symmetry_Int_Tables_number   1
_chemical_formula_structural   LiMn2P8(OF2)3
_chemical_formula_sum   'Li1 Mn2 P8 O3 F6'
_cell_volume   502.70190875
_cell_formula_units_Z   1
loop_
 _symmetry_equiv_pos_site_id
 _symmetry_equiv_pos_as_xyz
  1  'x, y, z'
loop_
 _atom_site_type_symbol
 _atom_site_label
 _atom_site_symmetry_multiplicity
 _atom_site_fract_x
 _atom_site_fract_y
 _atom_site_fract_z
 _atom_site_occupancy
  P  P0  1  0.12500000  0.00000000  0.25000000  1
  P  P1  1  0.00000000  0.00000000  0.00000000  1
  P  P2  1  0.37500000  0.00000000  0.25000000  1
  P  P3  1  0.25000000  0.25000000  0.25000000  1
  P  P4  1  0.00000000  0.25000000  0.12500000  1
  P  P5  1  0.92704198  0.27911444  0.18012562  1
  P  P6  1  0.66589646  0.52797563  0.40063197  1
  P  P7  1  0.23221976  0.08882004  0.25659262  1
  Li  Li8  1  0.41597915  0.13502571  0.69008848  1
  F  F9  1  0.58922966  0.17386907  0.25044515  1
  F  F10  1  0.73744773  0.53402506  0.09217288  1
  F  F11  1  0.88766595  0.15896458  0.74324582  1
  F  F12  1  0.86709749  0.97914604  0.56265777  1
  F  F13  1  0.89798025  0.80759797  0.24390014  1
  F  F14  1  0.48235294  0.36703830  0.45103265  1
  Mn  Mn15  1  0.80146266  0.57142749  0.69535565  1
  Mn  Mn16  1  0.95975990  0.09609178  0.00076289  1
  O  O17  1  0.15385571  0.86219887  0.20409606  1
  O  O18  1  0.77215424  0.03371418  0.35219834  1
  O  O19  1  0.73620901  0.78347694  0.62440286  1
