# generated using pymatgen
data_Li2MnMo2P2N
_symmetry_space_group_name_H-M   'P 1'
_cell_length_a   4.83783233
_cell_length_b   5.15790389
_cell_length_c   6.40564308
_cell_angle_alpha   101.00165051
_cell_angle_beta   95.10298951
_cell_angle_gamma   100.08379719
_symmetry_Int_Tables_number   1
_chemical_formula_structural   Li2MnMo2P2N
_chemical_formula_sum   'Li2 Mn1 Mo2 P2 N1'
_cell_volume   153.23608239
_cell_formula_units_Z   1
loop_
 _symmetry_equiv_pos_site_id
 _symmetry_equiv_pos_as_xyz
  1  'x, y, z'
loop_
 _atom_site_type_symbol
 _atom_site_label
 _atom_site_symmetry_multiplicity
 _atom_site_fract_x
 _atom_site_fract_y
 _atom_site_fract_z
 _atom_site_occupancy
  N  N0  1  0.12500000  0.00000000  0.25000000  1
  Mn  Mn1  1  0.00000000  0.00000000  0.00000000  1
  P  P2  1  0.37500000  0.00000000  0.25000000  1
  P  P3  1  0.25000000  0.25000000  0.25000000  1
  Mo  Mo4  1  0.00000000  0.25000000  0.12500000  1
  Mo  Mo5  1  0.41508636  0.51869978  0.56626685  1
  Li  Li6  1  0.40509593  0.96886272  0.78702066  1
  Li  Li7  1  0.81598482  0.44867212  0.74584281  1
