# generated using pymatgen
data_LiMn2P8(O2F3)2
_symmetry_space_group_name_H-M   'P 1'
_cell_length_a   8.12594088
_cell_length_b   7.83666419
_cell_length_c   8.35370774
_cell_angle_alpha   90.00000000
_cell_angle_beta   90.00000000
_cell_angle_gamma   90.00000000
_symmetry_Int_Tables_number   1
_chemical_formula_structural   LiMn2P8(O2F3)2
_chemical_formula_sum   'Li1 Mn2 P8 O4 F6'
_cell_volume   531.96636384
_cell_formula_units_Z   1
loop_
 _symmetry_equiv_pos_site_id
 _symmetry_equiv_pos_as_xyz
  1  'x, y, z'
loop_
 _atom_site_type_symbol
 _atom_site_label
 _atom_site_symmetry_multiplicity
 _atom_site_fract_x
 _atom_site_fract_y
 _atom_site_fract_z
 _atom_site_occupancy
  P  P0  1  0.00000000  0.00000000  0.00000000  1
  P  P1  1  0.50000000  0.50000000  0.50000000  1
  P  P2  1  0.50000000  0.50000000  0.00000000  1
  P  P3  1  0.50000000  0.00000000  0.50000000  1
  P  P4  1  0.00000000  0.50000000  0.50000000  1
  P  P5  1  0.20379405  0.29764047  0.18617071  1
  P  P6  1  0.64707604  0.22401093  0.25739435  1
  P  P7  1  0.90636595  0.16144720  0.89174406  1
  Li  Li8  1  0.32177116  0.91871413  0.03836036  1
  F  F9  1  0.89679373  0.51824131  0.54510201  1
  F  F10  1  0.65482393  0.05131041  0.10287964  1
  F  F11  1  0.55975129  0.92563489  0.77588986  1
  F  F12  1  0.04227139  0.17718486  0.29311374  1
  F  F13  1  0.51905806  0.99872897  0.75287579  1
  F  F14  1  0.67946176  0.78417343  0.20383227  1
  Mn  Mn15  1  0.98916849  0.72274950  0.87575640  1
  Mn  Mn16  1  0.57706524  0.44832257  0.69775160  1
  O  O17  1  0.18035185  0.62885940  0.10772275  1
  O  O18  1  0.78853824  0.28561393  0.37985029  1
  O  O19  1  0.54928681  0.31343248  0.80908896  1
  O  O20  1  0.63028311  0.48313703  0.73779432  1
