# generated using pymatgen
data_Li4Zn2P3I4O3
_symmetry_space_group_name_H-M   'P 1'
_cell_length_a   8.31211036
_cell_length_b   8.28131594
_cell_length_c   6.99668670
_cell_angle_alpha   90.00000000
_cell_angle_beta   90.00000000
_cell_angle_gamma   90.00000000
_symmetry_Int_Tables_number   1
_chemical_formula_structural   Li4Zn2P3I4O3
_chemical_formula_sum   'Li4 Zn2 P3 I4 O3'
_cell_volume   481.61841222
_cell_formula_units_Z   1
loop_
 _symmetry_equiv_pos_site_id
 _symmetry_equiv_pos_as_xyz
  1  'x, y, z'
loop_
 _atom_site_type_symbol
 _atom_site_label
 _atom_site_symmetry_multiplicity
 _atom_site_fract_x
 _atom_site_fract_y
 _atom_site_fract_z
 _atom_site_occupancy
  P  P0  1  0.12500000  0.00000000  0.25000000  1
  P  P1  1  0.00000000  0.00000000  0.00000000  1
  P  P2  1  0.37500000  0.00000000  0.25000000  1
  I  I3  1  0.25000000  0.25000000  0.25000000  1
  I  I4  1  0.00000000  0.25000000  0.12500000  1
  I  I5  1  0.73728013  0.21382810  0.08835283  1
  I  I6  1  0.22731943  0.36399238  0.06354959  1
  Li  Li7  1  0.24293383  0.41918657  0.67994711  1
  Li  Li8  1  0.43320980  0.15442996  0.73004663  1
  Li  Li9  1  0.34069283  0.88621244  0.76910244  1
  Li  Li10  1  0.31026197  0.75562409  0.87459972  1
  Zn  Zn11  1  0.50704137  0.28023414  0.42682514  1
  Zn  Zn12  1  0.86599878  0.73854768  0.92766601  1
  O  O13  1  0.30896246  0.28341723  0.07583073  1
  O  O14  1  0.23906232  0.95229905  0.58047956  1
  O  O15  1  0.02454826  0.62096457  0.68929741  1
