# generated using pymatgen
data_Li3TiNi2(IO)4
_symmetry_space_group_name_H-M   'P 1'
_cell_length_a   7.33219107
_cell_length_b   7.14365074
_cell_length_c   7.72443198
_cell_angle_alpha   94.50613883
_cell_angle_beta   95.59820376
_cell_angle_gamma   94.35664671
_symmetry_Int_Tables_number   1
_chemical_formula_structural   Li3TiNi2(IO)4
_chemical_formula_sum   'Li3 Ti1 Ni2 I4 O4'
_cell_volume   399.99206965
_cell_formula_units_Z   1
loop_
 _symmetry_equiv_pos_site_id
 _symmetry_equiv_pos_as_xyz
  1  'x, y, z'
loop_
 _atom_site_type_symbol
 _atom_site_label
 _atom_site_symmetry_multiplicity
 _atom_site_fract_x
 _atom_site_fract_y
 _atom_site_fract_z
 _atom_site_occupancy
  I  I0  1  0.00000000  0.00000000  0.00000000  1
  I  I1  1  0.50000000  0.50000000  0.50000000  1
  I  I2  1  0.50000000  0.50000000  0.00000000  1
  I  I3  1  0.50000000  0.00000000  0.50000000  1
  Li  Li4  1  0.00000000  0.50000000  0.50000000  1
  Li  Li5  1  0.03247976  0.70634825  0.07309209  1
  Li  Li6  1  0.87631806  0.92610165  0.36457384  1
  Ni  Ni7  1  0.82707088  0.44802889  0.60326640  1
  Ni  Ni8  1  0.96005045  0.35346585  0.66845088  1
  Ti  Ti9  1  0.95655709  0.14085150  0.09155849  1
  O  O10  1  0.22303242  0.09336410  0.93230651  1
  O  O11  1  0.90880041  0.96817690  0.62041176  1
  O  O12  1  0.08915722  0.61502399  0.09942301  1
  O  O13  1  0.89064269  0.62662268  0.60813868  1
