# generated using pymatgen
data_LiMnSb2P
_symmetry_space_group_name_H-M   'P 1'
_cell_length_a   6.09303756
_cell_length_b   6.57998107
_cell_length_c   6.83253116
_cell_angle_alpha   96.42599638
_cell_angle_beta   92.95694689
_cell_angle_gamma   95.33063934
_symmetry_Int_Tables_number   1
_chemical_formula_structural   LiMnSb2P
_chemical_formula_sum   'Li2 Mn2 Sb4 P2'
_cell_volume   270.49967027
_cell_formula_units_Z   2
loop_
 _symmetry_equiv_pos_site_id
 _symmetry_equiv_pos_as_xyz
  1  'x, y, z'
loop_
 _atom_site_type_symbol
 _atom_site_label
 _atom_site_symmetry_multiplicity
 _atom_site_fract_x
 _atom_site_fract_y
 _atom_site_fract_z
 _atom_site_occupancy
  Mn  Mn0  1  0.00000000  0.00000000  0.00000000  1
  Mn  Mn1  1  0.50000000  0.50000000  0.50000000  1
  Sb  Sb2  1  0.25000000  0.25000000  0.25000000  1
  Sb  Sb3  1  0.75000000  0.25000000  0.00000000  1
  Sb  Sb4  1  0.25000000  0.75000000  0.50000000  1
  Sb  Sb5  1  0.96795602  0.29247385  0.89327960  1
  P  P6  1  0.66643791  0.47451952  0.94820472  1
  P  P7  1  0.29189157  0.90189235  0.55360345  1
  Li  Li8  1  0.85643282  0.83739100  0.57098432  1
  Li  Li9  1  0.25668486  0.41186424  0.92614473  1
