# generated using pymatgen
data_Li3TiP3Cl2F3
_symmetry_space_group_name_H-M   'P 1'
_cell_length_a   5.94639431
_cell_length_b   5.72160640
_cell_length_c   6.92041434
_cell_angle_alpha   98.98191174
_cell_angle_beta   101.97184711
_cell_angle_gamma   98.41398056
_symmetry_Int_Tables_number   1
_chemical_formula_structural   Li3TiP3Cl2F3
_chemical_formula_sum   'Li3 Ti1 P3 Cl2 F3'
_cell_volume   223.58218798
_cell_formula_units_Z   1
loop_
 _symmetry_equiv_pos_site_id
 _symmetry_equiv_pos_as_xyz
  1  'x, y, z'
loop_
 _atom_site_type_symbol
 _atom_site_label
 _atom_site_symmetry_multiplicity
 _atom_site_fract_x
 _atom_site_fract_y
 _atom_site_fract_z
 _atom_site_occupancy
  P  P0  1  0.00000000  0.00000000  0.00000000  1
  P  P1  1  0.50000000  0.50000000  0.50000000  1
  P  P2  1  0.50000000  0.50000000  0.00000000  1
  Li  Li3  1  0.50000000  0.00000000  0.50000000  1
  Li  Li4  1  0.00000000  0.50000000  0.50000000  1
  Li  Li5  1  0.31533617  0.96214352  0.96150955  1
  F  F6  1  0.05219178  0.21944906  0.97438164  1
  F  F7  1  0.32568978  0.08255692  0.27873034  1
  F  F8  1  0.68851659  0.29250355  0.06439841  1
  Cl  Cl9  1  0.44590317  0.63990993  0.51564501  1
  Cl  Cl10  1  0.53365131  0.00007934  0.12130692  1
  Ti  Ti11  1  0.93025565  0.40247510  0.99713829  1
