# generated using pymatgen
data_Li2As6I4O4F3
_symmetry_space_group_name_H-M   'P 1'
_cell_length_a   7.93497895
_cell_length_b   7.90784491
_cell_length_c   8.17072011
_cell_angle_alpha   90.31248177
_cell_angle_beta   91.81686136
_cell_angle_gamma   90.34603900
_symmetry_Int_Tables_number   1
_chemical_formula_structural   Li2As6I4O4F3
_chemical_formula_sum   'Li2 As6 I4 O4 F3'
_cell_volume   512.42583979
_cell_formula_units_Z   1
loop_
 _symmetry_equiv_pos_site_id
 _symmetry_equiv_pos_as_xyz
  1  'x, y, z'
loop_
 _atom_site_type_symbol
 _atom_site_label
 _atom_site_symmetry_multiplicity
 _atom_site_fract_x
 _atom_site_fract_y
 _atom_site_fract_z
 _atom_site_occupancy
  I  I0  1  0.00000000  0.00000000  0.00000000  1
  I  I1  1  0.50000000  0.50000000  0.50000000  1
  I  I2  1  0.25000000  0.25000000  0.25000000  1
  I  I3  1  0.75000000  0.25000000  0.00000000  1
  Li  Li4  1  0.25000000  0.75000000  0.50000000  1
  Li  Li5  1  0.89181073  0.58860182  0.90717557  1
  F  F6  1  0.31432768  0.61857614  0.44071658  1
  F  F7  1  0.57843344  0.53815383  0.77175776  1
  F  F8  1  0.35921718  0.71138751  0.43030412  1
  As  As9  1  0.66524897  0.53982514  0.50942409  1
  As  As10  1  0.09005561  0.98507387  0.13168500  1
  As  As11  1  0.37539843  0.94619578  0.50460612  1
  As  As12  1  0.89919416  0.35333893  0.60639512  1
  As  As13  1  0.91111874  0.52871300  0.42246325  1
  As  As14  1  0.40835793  0.64294679  0.51097866  1
  O  O15  1  0.88594781  0.46664314  0.93424022  1
  O  O16  1  0.00114802  0.18436491  0.74865823  1
  O  O17  1  0.09202847  0.29365455  0.48831109  1
  O  O18  1  0.44990264  0.93875559  0.02833588  1
