# generated using pymatgen
data_LiCu2(I2F)2
_symmetry_space_group_name_H-M   'P 1'
_cell_length_a   6.96856142
_cell_length_b   6.88996855
_cell_length_c   7.63028174
_cell_angle_alpha   91.84135487
_cell_angle_beta   93.88801313
_cell_angle_gamma   91.86215302
_symmetry_Int_Tables_number   1
_chemical_formula_structural   LiCu2(I2F)2
_chemical_formula_sum   'Li1 Cu2 I4 F2'
_cell_volume   365.10118216
_cell_formula_units_Z   1
loop_
 _symmetry_equiv_pos_site_id
 _symmetry_equiv_pos_as_xyz
  1  'x, y, z'
loop_
 _atom_site_type_symbol
 _atom_site_label
 _atom_site_symmetry_multiplicity
 _atom_site_fract_x
 _atom_site_fract_y
 _atom_site_fract_z
 _atom_site_occupancy
  I  I0  1  0.12500000  0.12500000  0.12500000  1
  I  I1  1  0.50000000  0.50000000  0.50000000  1
  I  I2  1  0.25000000  0.25000000  0.25000000  1
  I  I3  1  0.75000000  0.75000000  0.75000000  1
  Li  Li4  1  0.26989358  0.17935036  0.83051271  1
  Cu  Cu5  1  0.18607994  0.92351793  0.26419131  1
  Cu  Cu6  1  0.45717425  0.64050626  0.18160544  1
  F  F7  1  0.73831681  0.78679182  0.73400400  1
  F  F8  1  0.48520912  0.31060280  0.70754014  1
