# generated using pymatgen
data_Li2Ti2SeF3
_symmetry_space_group_name_H-M   'P 1'
_cell_length_a   3.56788513
_cell_length_b   3.26636086
_cell_length_c   6.30644926
_cell_angle_alpha   102.77189200
_cell_angle_beta   111.15133528
_cell_angle_gamma   101.91838658
_symmetry_Int_Tables_number   1
_chemical_formula_structural   Li2Ti2SeF3
_chemical_formula_sum   'Li2 Ti2 Se1 F3'
_cell_volume   63.45040225
_cell_formula_units_Z   1
loop_
 _symmetry_equiv_pos_site_id
 _symmetry_equiv_pos_as_xyz
  1  'x, y, z'
loop_
 _atom_site_type_symbol
 _atom_site_label
 _atom_site_symmetry_multiplicity
 _atom_site_fract_x
 _atom_site_fract_y
 _atom_site_fract_z
 _atom_site_occupancy
  F  F0  1  0.12500000  0.12500000  0.12500000  1
  F  F1  1  0.50000000  0.50000000  0.50000000  1
  F  F2  1  0.25000000  0.25000000  0.25000000  1
  Se  Se3  1  0.75000000  0.75000000  0.75000000  1
  Ti  Ti4  1  0.20116721  0.28423573  0.78030956  1
  Ti  Ti5  1  0.17179583  0.71529602  0.24128025  1
  Li  Li6  1  0.82630423  0.55071324  0.36269630  1
  Li  Li7  1  0.75393591  0.67746289  0.87335039  1
