# generated using pymatgen
data_Li2LuTiP3Se
_symmetry_space_group_name_H-M   'P 1'
_cell_length_a   6.77771307
_cell_length_b   6.67977253
_cell_length_c   7.41492015
_cell_angle_alpha   97.20266938
_cell_angle_beta   99.06542730
_cell_angle_gamma   96.84159426
_symmetry_Int_Tables_number   1
_chemical_formula_structural   Li2LuTiP3Se
_chemical_formula_sum   'Li2 Lu1 Ti1 P3 Se1'
_cell_volume   325.56959704
_cell_formula_units_Z   1
loop_
 _symmetry_equiv_pos_site_id
 _symmetry_equiv_pos_as_xyz
  1  'x, y, z'
loop_
 _atom_site_type_symbol
 _atom_site_label
 _atom_site_symmetry_multiplicity
 _atom_site_fract_x
 _atom_site_fract_y
 _atom_site_fract_z
 _atom_site_occupancy
  P  P0  1  0.00000000  0.00000000  0.00000000  1
  P  P1  1  0.50000000  0.50000000  0.50000000  1
  P  P2  1  0.50000000  0.50000000  0.00000000  1
  Lu  Lu3  1  0.50000000  0.00000000  0.50000000  1
  Li  Li4  1  0.00000000  0.50000000  0.50000000  1
  Li  Li5  1  0.99747243  0.87936759  0.36086273  1
  Se  Se6  1  0.96144589  0.96677394  0.44692352  1
  Ti  Ti7  1  0.04014704  0.11579788  0.07854460  1
