# generated using pymatgen
data_Li2Ni3Sb2Mo2P3
_symmetry_space_group_name_H-M   'P 1'
_cell_length_a   4.96019623
_cell_length_b   5.10203389
_cell_length_c   6.52163154
_cell_angle_alpha   98.90621024
_cell_angle_beta   93.81358554
_cell_angle_gamma   98.98688175
_symmetry_Int_Tables_number   1
_chemical_formula_structural   Li2Ni3Sb2Mo2P3
_chemical_formula_sum   'Li2 Ni3 Sb2 Mo2 P3'
_cell_volume   160.35486223
_cell_formula_units_Z   1
loop_
 _symmetry_equiv_pos_site_id
 _symmetry_equiv_pos_as_xyz
  1  'x, y, z'
loop_
 _atom_site_type_symbol
 _atom_site_label
 _atom_site_symmetry_multiplicity
 _atom_site_fract_x
 _atom_site_fract_y
 _atom_site_fract_z
 _atom_site_occupancy
  Sb  Sb0  1  0.00000000  0.00000000  0.00000000  1
  Sb  Sb1  1  0.50000000  0.50000000  0.50000000  1
  P  P2  1  0.50000000  0.50000000  0.00000000  1
  P  P3  1  0.50000000  0.00000000  0.50000000  1
  P  P4  1  0.00000000  0.50000000  0.50000000  1
  Mo  Mo5  1  0.06886441  0.57097664  0.00916705  1
  Mo  Mo6  1  0.94305230  0.05947856  0.67815050  1
  Li  Li7  1  0.49282442  0.90038493  0.13235932  1
  Li  Li8  1  0.96074575  0.22694400  0.30663042  1
  Ni  Ni9  1  0.43362863  0.19582504  0.28654889  1
  Ni  Ni10  1  0.21502758  0.99519925  0.33152122  1
  Ni  Ni11  1  0.23907546  0.29502170  0.20077792  1
