# generated using pymatgen
data_Li2Sb4P3
_symmetry_space_group_name_H-M   'P 1'
_cell_length_a   5.17787415
_cell_length_b   5.25145677
_cell_length_c   6.96780700
_cell_angle_alpha   98.67740094
_cell_angle_beta   96.94272684
_cell_angle_gamma   99.49970635
_symmetry_Int_Tables_number   1
_chemical_formula_structural   Li2Sb4P3
_chemical_formula_sum   'Li2 Sb4 P3'
_cell_volume   182.65065742
_cell_formula_units_Z   1
loop_
 _symmetry_equiv_pos_site_id
 _symmetry_equiv_pos_as_xyz
  1  'x, y, z'
loop_
 _atom_site_type_symbol
 _atom_site_label
 _atom_site_symmetry_multiplicity
 _atom_site_fract_x
 _atom_site_fract_y
 _atom_site_fract_z
 _atom_site_occupancy
  Sb  Sb0  1  0.12500000  0.00000000  0.25000000  1
  Sb  Sb1  1  0.00000000  0.00000000  0.00000000  1
  Sb  Sb2  1  0.37500000  0.00000000  0.25000000  1
  Sb  Sb3  1  0.25000000  0.25000000  0.25000000  1
  P  P4  1  0.00000000  0.25000000  0.12500000  1
  P  P5  1  0.71628478  0.50793123  0.34722520  1
  P  P6  1  0.22664193  0.08186393  0.40290328  1
  Li  Li7  1  0.11608540  0.54466207  0.35171714  1
  Li  Li8  1  0.89285220  0.75914065  0.23698411  1
