# generated using pymatgen
data_Li3P3Se
_symmetry_space_group_name_H-M   'P 1'
_cell_length_a   8.00804426
_cell_length_b   8.24029905
_cell_length_c   7.11339211
_cell_angle_alpha   92.65226073
_cell_angle_beta   93.38632779
_cell_angle_gamma   92.49502379
_symmetry_Int_Tables_number   1
_chemical_formula_structural   Li3P3Se
_chemical_formula_sum   'Li3 P3 Se1'
_cell_volume   467.57771607
_cell_formula_units_Z   1
loop_
 _symmetry_equiv_pos_site_id
 _symmetry_equiv_pos_as_xyz
  1  'x, y, z'
loop_
 _atom_site_type_symbol
 _atom_site_label
 _atom_site_symmetry_multiplicity
 _atom_site_fract_x
 _atom_site_fract_y
 _atom_site_fract_z
 _atom_site_occupancy
  P  P0  1  0.00000000  0.00000000  0.00000000  1
  P  P1  1  0.33300000  0.66700000  0.25000000  1
  P  P2  1  0.66700000  0.33300000  0.50000000  1
  Li  Li3  1  0.00000000  0.00000000  0.75000000  1
  Li  Li4  1  0.34321733  0.08740929  0.65592921  1
  Li  Li5  1  0.98760390  0.64172920  0.47441750  1
  Se  Se6  1  0.31940468  0.49641093  0.71482208  1
