# generated using pymatgen
data_Li2Mn2Sb4Mo2P3
_symmetry_space_group_name_H-M   'P 1'
_cell_length_a   6.16755071
_cell_length_b   6.51421755
_cell_length_c   7.03510272
_cell_angle_alpha   95.84096932
_cell_angle_beta   91.93191381
_cell_angle_gamma   95.95320119
_symmetry_Int_Tables_number   1
_chemical_formula_structural   Li2Mn2Sb4Mo2P3
_chemical_formula_sum   'Li2 Mn2 Sb4 Mo2 P3'
_cell_volume   279.38378425
_cell_formula_units_Z   1
loop_
 _symmetry_equiv_pos_site_id
 _symmetry_equiv_pos_as_xyz
  1  'x, y, z'
loop_
 _atom_site_type_symbol
 _atom_site_label
 _atom_site_symmetry_multiplicity
 _atom_site_fract_x
 _atom_site_fract_y
 _atom_site_fract_z
 _atom_site_occupancy
  Mn  Mn0  1  0.00000000  0.00000000  0.00000000  1
  Mn  Mn1  1  0.50000000  0.50000000  0.50000000  1
  Sb  Sb2  1  0.25000000  0.25000000  0.25000000  1
  Sb  Sb3  1  0.75000000  0.25000000  0.00000000  1
  Sb  Sb4  1  0.25000000  0.75000000  0.50000000  1
  Sb  Sb5  1  0.99872962  0.72320778  0.34059641  1
  P  P6  1  0.08123336  0.57818977  0.46698784  1
  P  P7  1  0.84992126  0.49156845  0.49791695  1
  P  P8  1  0.10152872  0.34329666  0.06697914  1
  Mo  Mo9  1  0.60184783  0.95683723  0.80010288  1
  Mo  Mo10  1  0.52659186  0.14858845  0.77003599  1
  Li  Li11  1  0.51767494  0.68580638  0.58254272  1
  Li  Li12  1  0.85976709  0.76774723  0.36183897  1
