# generated using pymatgen
data_Li2Mn2Sb4Mo2P3
_symmetry_space_group_name_H-M   'P 1'
_cell_length_a   5.77082342
_cell_length_b   6.21818185
_cell_length_c   6.96469397
_cell_angle_alpha   96.39111211
_cell_angle_beta   93.36008700
_cell_angle_gamma   96.68746677
_symmetry_Int_Tables_number   1
_chemical_formula_structural   Li2Mn2Sb4Mo2P3
_chemical_formula_sum   'Li2 Mn2 Sb4 Mo2 P3'
_cell_volume   246.02878911
_cell_formula_units_Z   1
loop_
 _symmetry_equiv_pos_site_id
 _symmetry_equiv_pos_as_xyz
  1  'x, y, z'
loop_
 _atom_site_type_symbol
 _atom_site_label
 _atom_site_symmetry_multiplicity
 _atom_site_fract_x
 _atom_site_fract_y
 _atom_site_fract_z
 _atom_site_occupancy
  Mn  Mn0  1  0.00000000  0.00000000  0.00000000  1
  Mn  Mn1  1  0.50000000  0.50000000  0.50000000  1
  Sb  Sb2  1  0.25000000  0.25000000  0.25000000  1
  Sb  Sb3  1  0.75000000  0.25000000  0.00000000  1
  Sb  Sb4  1  0.25000000  0.75000000  0.50000000  1
  Sb  Sb5  1  0.05781798  0.33419264  0.17426229  1
  P  P6  1  0.93977746  0.04263244  0.72690001  1
  P  P7  1  0.33939798  0.92859462  0.25196119  1
  P  P8  1  0.18509969  0.70609293  0.56224190  1
  Mo  Mo9  1  0.69049573  0.14389347  0.82807136  1
  Mo  Mo10  1  0.58663975  0.14089625  0.94370782  1
  Li  Li11  1  0.63556974  0.53226016  0.25244137  1
  Li  Li12  1  0.06635708  0.19516799  0.36401584  1
