# generated using pymatgen
data_Li2Mn2Sb4P3
_symmetry_space_group_name_H-M   'P 1'
_cell_length_a   7.10097668
_cell_length_b   7.22200249
_cell_length_c   7.65813508
_cell_angle_alpha   91.96110679
_cell_angle_beta   92.32311220
_cell_angle_gamma   92.23198166
_symmetry_Int_Tables_number   1
_chemical_formula_structural   Li2Mn2Sb4P3
_chemical_formula_sum   'Li2 Mn2 Sb4 P3'
_cell_volume   391.86158329
_cell_formula_units_Z   1
loop_
 _symmetry_equiv_pos_site_id
 _symmetry_equiv_pos_as_xyz
  1  'x, y, z'
loop_
 _atom_site_type_symbol
 _atom_site_label
 _atom_site_symmetry_multiplicity
 _atom_site_fract_x
 _atom_site_fract_y
 _atom_site_fract_z
 _atom_site_occupancy
  Mn  Mn0  1  0.00000000  0.00000000  0.00000000  1
  Mn  Mn1  1  0.50000000  0.50000000  0.50000000  1
  Sb  Sb2  1  0.25000000  0.25000000  0.25000000  1
  Sb  Sb3  1  0.75000000  0.25000000  0.00000000  1
  Sb  Sb4  1  0.25000000  0.75000000  0.50000000  1
  Sb  Sb5  1  0.74377297  0.53712066  0.22255347  1
  P  P6  1  0.52839751  0.27163803  0.08267339  1
  P  P7  1  0.42808270  0.76897022  0.98076674  1
  P  P8  1  0.09974290  0.26812701  0.48564449  1
  Li  Li9  1  0.05606295  0.29608365  0.41833419  1
  Li  Li10  1  0.81823101  0.02112790  0.35789162  1
