# generated using pymatgen
data_Li2LuTi(PI)4
_symmetry_space_group_name_H-M   'P 1'
_cell_length_a   7.24274891
_cell_length_b   7.21753672
_cell_length_c   7.75480062
_cell_angle_alpha   94.54807695
_cell_angle_beta   95.64504880
_cell_angle_gamma   94.41549030
_symmetry_Int_Tables_number   1
_chemical_formula_structural   Li2LuTi(PI)4
_chemical_formula_sum   'Li2 Lu1 Ti1 P4 I4'
_cell_volume   400.67288008
_cell_formula_units_Z   1
loop_
 _symmetry_equiv_pos_site_id
 _symmetry_equiv_pos_as_xyz
  1  'x, y, z'
loop_
 _atom_site_type_symbol
 _atom_site_label
 _atom_site_symmetry_multiplicity
 _atom_site_fract_x
 _atom_site_fract_y
 _atom_site_fract_z
 _atom_site_occupancy
  Ti  Ti0  1  0.12500000  0.00000000  0.25000000  1
  I  I1  1  0.00000000  0.00000000  0.00000000  1
  I  I2  1  0.37500000  0.00000000  0.25000000  1
  I  I3  1  0.25000000  0.25000000  0.25000000  1
  I  I4  1  0.00000000  0.25000000  0.12500000  1
  P  P5  1  0.16956387  0.58650037  0.53394333  1
  P  P6  1  0.21712988  0.26593129  0.47960959  1
  P  P7  1  0.80948131  0.54183718  0.26356524  1
  P  P8  1  0.81019073  0.98827789  0.52895321  1
  Lu  Lu9  1  0.28058938  0.27752032  0.02384912  1
  Li  Li10  1  0.14815897  0.17316705  0.93855801  1
  Li  Li11  1  0.89355858  0.88968756  0.59536604  1
