# generated using pymatgen
data_Li2I4O4F3
_symmetry_space_group_name_H-M   'P 1'
_cell_length_a   7.88394437
_cell_length_b   7.65073468
_cell_length_c   7.52085910
_cell_angle_alpha   91.69479356
_cell_angle_beta   92.14389691
_cell_angle_gamma   91.62598713
_symmetry_Int_Tables_number   1
_chemical_formula_structural   Li2I4O4F3
_chemical_formula_sum   'Li2 I4 O4 F3'
_cell_volume   452.92967324
_cell_formula_units_Z   1
loop_
 _symmetry_equiv_pos_site_id
 _symmetry_equiv_pos_as_xyz
  1  'x, y, z'
loop_
 _atom_site_type_symbol
 _atom_site_label
 _atom_site_symmetry_multiplicity
 _atom_site_fract_x
 _atom_site_fract_y
 _atom_site_fract_z
 _atom_site_occupancy
  I  I0  1  0.00000000  0.00000000  0.00000000  1
  I  I1  1  0.50000000  0.50000000  0.50000000  1
  I  I2  1  0.50000000  0.50000000  0.00000000  1
  I  I3  1  0.50000000  0.00000000  0.50000000  1
  Li  Li4  1  0.00000000  0.50000000  0.50000000  1
  Li  Li5  1  0.24090813  0.01910452  0.96611400  1
  F  F6  1  0.35306039  0.84420014  0.07315777  1
  F  F7  1  0.25858962  0.21765935  0.54400472  1
  F  F8  1  0.46761695  0.02014712  0.23847212  1
  O  O9  1  0.88264258  0.23757035  0.81231082  1
  O  O10  1  0.77628736  0.96106406  0.47362368  1
  O  O11  1  0.84656131  0.55820293  0.58508063  1
  O  O12  1  0.63061670  0.41899503  0.29579000  1
