# generated using pymatgen
data_Li2Mn2Sb4P3
_symmetry_space_group_name_H-M   'P 1'
_cell_length_a   5.82276467
_cell_length_b   6.31392473
_cell_length_c   7.24447503
_cell_angle_alpha   94.61355654
_cell_angle_beta   95.46518400
_cell_angle_gamma   95.25079697
_symmetry_Int_Tables_number   1
_chemical_formula_structural   Li2Mn2Sb4P3
_chemical_formula_sum   'Li2 Mn2 Sb4 P3'
_cell_volume   262.94630699
_cell_formula_units_Z   1
loop_
 _symmetry_equiv_pos_site_id
 _symmetry_equiv_pos_as_xyz
  1  'x, y, z'
loop_
 _atom_site_type_symbol
 _atom_site_label
 _atom_site_symmetry_multiplicity
 _atom_site_fract_x
 _atom_site_fract_y
 _atom_site_fract_z
 _atom_site_occupancy
  Mn  Mn0  1  0.00000000  0.00000000  0.00000000  1
  Mn  Mn1  1  0.50000000  0.50000000  0.50000000  1
  Sb  Sb2  1  0.25000000  0.25000000  0.25000000  1
  Sb  Sb3  1  0.75000000  0.25000000  0.00000000  1
  Sb  Sb4  1  0.25000000  0.75000000  0.50000000  1
  Sb  Sb5  1  0.12198923  0.19657667  0.21926259  1
  P  P6  1  0.28467274  0.28710256  0.45533438  1
  P  P7  1  0.36363491  0.20284270  0.07106800  1
  P  P8  1  0.88188587  0.63579092  0.59051439  1
  Li  Li9  1  0.31698291  0.28888474  0.62030227  1
  Li  Li10  1  0.74567636  0.93936408  0.23550825  1
