# generated using pymatgen
data_Li2Sb2P3
_symmetry_space_group_name_H-M   'P 1'
_cell_length_a   5.45094105
_cell_length_b   5.86165972
_cell_length_c   6.92081830
_cell_angle_alpha   96.49259834
_cell_angle_beta   94.75878034
_cell_angle_gamma   96.94062818
_symmetry_Int_Tables_number   1
_chemical_formula_structural   Li2Sb2P3
_chemical_formula_sum   'Li2 Sb2 P3'
_cell_volume   217.05350816
_cell_formula_units_Z   1
loop_
 _symmetry_equiv_pos_site_id
 _symmetry_equiv_pos_as_xyz
  1  'x, y, z'
loop_
 _atom_site_type_symbol
 _atom_site_label
 _atom_site_symmetry_multiplicity
 _atom_site_fract_x
 _atom_site_fract_y
 _atom_site_fract_z
 _atom_site_occupancy
  Sb  Sb0  1  0.12500000  0.12500000  0.12500000  1
  Sb  Sb1  1  0.50000000  0.50000000  0.50000000  1
  P  P2  1  0.25000000  0.25000000  0.25000000  1
  P  P3  1  0.75000000  0.75000000  0.75000000  1
  P  P4  1  0.22390636  0.79980545  0.35861512  1
  Li  Li5  1  0.32066815  0.06105777  0.62652317  1
  Li  Li6  1  0.24808517  0.52336398  0.58265675  1
