# generated using pymatgen
data_Li2Mn2Sb4P3
_symmetry_space_group_name_H-M   'P 1'
_cell_length_a   6.30924499
_cell_length_b   6.62663043
_cell_length_c   7.09371083
_cell_angle_alpha   95.68613274
_cell_angle_beta   93.13308359
_cell_angle_gamma   96.06525375
_symmetry_Int_Tables_number   1
_chemical_formula_structural   Li2Mn2Sb4P3
_chemical_formula_sum   'Li2 Mn2 Sb4 P3'
_cell_volume   292.83358552
_cell_formula_units_Z   1
loop_
 _symmetry_equiv_pos_site_id
 _symmetry_equiv_pos_as_xyz
  1  'x, y, z'
loop_
 _atom_site_type_symbol
 _atom_site_label
 _atom_site_symmetry_multiplicity
 _atom_site_fract_x
 _atom_site_fract_y
 _atom_site_fract_z
 _atom_site_occupancy
  Mn  Mn0  1  0.00000000  0.00000000  0.00000000  1
  Mn  Mn1  1  0.50000000  0.50000000  0.50000000  1
  Sb  Sb2  1  0.25000000  0.25000000  0.25000000  1
  Sb  Sb3  1  0.75000000  0.25000000  0.00000000  1
  Sb  Sb4  1  0.25000000  0.75000000  0.50000000  1
  Sb  Sb5  1  0.38802811  0.03850110  0.19009475  1
  P  P6  1  0.19189669  0.17531078  0.09694604  1
  P  P7  1  0.70906336  0.46737671  0.04102508  1
  P  P8  1  0.82796187  0.89537235  0.60450351  1
  Li  Li9  1  0.71660450  0.03911738  0.05332843  1
  Li  Li10  1  0.03537198  0.47862941  0.85504575  1
