# generated using pymatgen
data_LiTi2Mn2(P2O)3
_symmetry_space_group_name_H-M   'P 1'
_cell_length_a   8.15008601
_cell_length_b   8.33324542
_cell_length_c   7.58322552
_cell_angle_alpha   90.00000000
_cell_angle_beta   90.00000000
_cell_angle_gamma   90.00000000
_symmetry_Int_Tables_number   1
_chemical_formula_structural   LiTi2Mn2(P2O)3
_chemical_formula_sum   'Li1 Ti2 Mn2 P6 O3'
_cell_volume   515.02740118
_cell_formula_units_Z   1
loop_
 _symmetry_equiv_pos_site_id
 _symmetry_equiv_pos_as_xyz
  1  'x, y, z'
loop_
 _atom_site_type_symbol
 _atom_site_label
 _atom_site_symmetry_multiplicity
 _atom_site_fract_x
 _atom_site_fract_y
 _atom_site_fract_z
 _atom_site_occupancy
  P  P0  1  0.12500000  0.00000000  0.25000000  1
  P  P1  1  0.00000000  0.00000000  0.00000000  1
  P  P2  1  0.37500000  0.00000000  0.25000000  1
  P  P3  1  0.25000000  0.25000000  0.25000000  1
  P  P4  1  0.00000000  0.25000000  0.12500000  1
  P  P5  1  0.17835232  0.99724520  0.72412800  1
  Li  Li6  1  0.93933558  0.78954811  0.66379251  1
  Ti  Ti7  1  0.79078494  0.74394075  0.18930438  1
  Ti  Ti8  1  0.89163086  0.58525107  0.17617078  1
  Mn  Mn9  1  0.95504128  0.62681468  0.24075675  1
  Mn  Mn10  1  0.18356164  0.22641251  0.66850476  1
  O  O11  1  0.31767525  0.52544158  0.82210517  1
  O  O12  1  0.28989649  0.28244951  0.98471453  1
  O  O13  1  0.21297832  0.01079116  0.62420109  1
