# generated using pymatgen
data_Li4TiSe(I2Cl)2
_symmetry_space_group_name_H-M   'P 1'
_cell_length_a   5.93578643
_cell_length_b   5.61032644
_cell_length_c   6.82884536
_cell_angle_alpha   103.16636705
_cell_angle_beta   106.81042671
_cell_angle_gamma   102.38581061
_symmetry_Int_Tables_number   1
_chemical_formula_structural   Li4TiSe(I2Cl)2
_chemical_formula_sum   'Li4 Ti1 Se1 I4 Cl2'
_cell_volume   202.15513863
_cell_formula_units_Z   1
loop_
 _symmetry_equiv_pos_site_id
 _symmetry_equiv_pos_as_xyz
  1  'x, y, z'
loop_
 _atom_site_type_symbol
 _atom_site_label
 _atom_site_symmetry_multiplicity
 _atom_site_fract_x
 _atom_site_fract_y
 _atom_site_fract_z
 _atom_site_occupancy
  I  I0  1  0.00000000  0.00000000  0.00000000  1
  I  I1  1  0.50000000  0.50000000  0.50000000  1
  I  I2  1  0.50000000  0.50000000  0.00000000  1
  I  I3  1  0.50000000  0.00000000  0.50000000  1
  Li  Li4  1  0.00000000  0.50000000  0.50000000  1
  Li  Li5  1  0.54767470  0.76435593  0.52221963  1
  Li  Li6  1  0.95150249  0.28582477  0.24207346  1
  Li  Li7  1  0.72231466  0.14671478  0.60802605  1
  Se  Se8  1  0.98240787  0.25783050  0.91043745  1
  Cl  Cl9  1  0.04884036  0.02004678  0.29719298  1
  Cl  Cl10  1  0.13806678  0.39656434  0.05381419  1
  Ti  Ti11  1  0.81985812  0.07540680  0.45726120  1
