# generated using pymatgen
data_LiTiCu2(I2F)2
_symmetry_space_group_name_H-M   'P 1'
_cell_length_a   6.96533099
_cell_length_b   6.88369019
_cell_length_c   7.61676408
_cell_angle_alpha   91.83099499
_cell_angle_beta   93.86247907
_cell_angle_gamma   91.83611359
_symmetry_Int_Tables_number   1
_chemical_formula_structural   LiTiCu2(I2F)2
_chemical_formula_sum   'Li1 Ti1 Cu2 I4 F2'
_cell_volume   363.97265483
_cell_formula_units_Z   1
loop_
 _symmetry_equiv_pos_site_id
 _symmetry_equiv_pos_as_xyz
  1  'x, y, z'
loop_
 _atom_site_type_symbol
 _atom_site_label
 _atom_site_symmetry_multiplicity
 _atom_site_fract_x
 _atom_site_fract_y
 _atom_site_fract_z
 _atom_site_occupancy
  I  I0  1  0.12500000  0.00000000  0.25000000  1
  I  I1  1  0.00000000  0.00000000  0.00000000  1
  I  I2  1  0.37500000  0.00000000  0.25000000  1
  I  I3  1  0.25000000  0.25000000  0.25000000  1
  Li  Li4  1  0.00000000  0.25000000  0.12500000  1
  Cu  Cu5  1  0.12026061  0.51582168  0.04385804  1
  Cu  Cu6  1  0.75224991  0.62927947  0.89845423  1
  F  F7  1  0.76767552  0.13147784  0.26130724  1
  F  F8  1  0.71157663  0.09642264  0.60042073  1
  Ti  Ti9  1  0.06658920  0.94866910  0.81460806  1
