# generated using pymatgen
data_LiSb2Mo2P3
_symmetry_space_group_name_H-M   'P 1'
_cell_length_a   5.31470393
_cell_length_b   5.57063541
_cell_length_c   6.24444620
_cell_angle_alpha   97.37310402
_cell_angle_beta   90.92290402
_cell_angle_gamma   97.06841916
_symmetry_Int_Tables_number   1
_chemical_formula_structural   LiSb2Mo2P3
_chemical_formula_sum   'Li1 Sb2 Mo2 P3'
_cell_volume   181.85713514
_cell_formula_units_Z   1
loop_
 _symmetry_equiv_pos_site_id
 _symmetry_equiv_pos_as_xyz
  1  'x, y, z'
loop_
 _atom_site_type_symbol
 _atom_site_label
 _atom_site_symmetry_multiplicity
 _atom_site_fract_x
 _atom_site_fract_y
 _atom_site_fract_z
 _atom_site_occupancy
  Sb  Sb0  1  0.00000000  0.00000000  0.00000000  1
  Sb  Sb1  1  0.33300000  0.66700000  0.25000000  1
  P  P2  1  0.66700000  0.33300000  0.50000000  1
  P  P3  1  0.00000000  0.00000000  0.75000000  1
  P  P4  1  0.63996092  0.92981916  0.01939784  1
  Mo  Mo5  1  0.56450556  0.71016985  0.94651700  1
  Mo  Mo6  1  0.75933112  0.83821112  0.59296666  1
  Li  Li7  1  0.56374834  0.67396298  0.63605055  1
