# generated using pymatgen
data_Li3Ti2As6O5
_symmetry_space_group_name_H-M   'P 1'
_cell_length_a   6.33441353
_cell_length_b   6.20433401
_cell_length_c   7.69770014
_cell_angle_alpha   94.72672479
_cell_angle_beta   96.11010104
_cell_angle_gamma   94.49347460
_symmetry_Int_Tables_number   1
_chemical_formula_structural   Li3Ti2As6O5
_chemical_formula_sum   'Li3 Ti2 As6 O5'
_cell_volume   298.62356414
_cell_formula_units_Z   1
loop_
 _symmetry_equiv_pos_site_id
 _symmetry_equiv_pos_as_xyz
  1  'x, y, z'
loop_
 _atom_site_type_symbol
 _atom_site_label
 _atom_site_symmetry_multiplicity
 _atom_site_fract_x
 _atom_site_fract_y
 _atom_site_fract_z
 _atom_site_occupancy
  Li  Li0  1  0.12500000  0.12500000  0.12500000  1
  Li  Li1  1  0.50000000  0.50000000  0.50000000  1
  Li  Li2  1  0.25000000  0.25000000  0.25000000  1
  Ti  Ti3  1  0.75000000  0.75000000  0.75000000  1
  Ti  Ti4  1  0.03001837  0.74702661  0.21755479  1
  As  As5  1  0.24731863  0.13400068  0.42584697  1
  As  As6  1  0.13108841  0.38950490  0.69467469  1
  As  As7  1  0.87921905  0.25187042  0.97904432  1
  As  As8  1  0.94635989  0.51606364  0.16845709  1
  As  As9  1  0.14669487  0.32963772  0.05103860  1
  As  As10  1  0.80222840  0.41384118  0.86093046  1
  O  O11  1  0.47618555  0.82557149  0.24999766  1
  O  O12  1  0.57742569  0.83001800  0.37233582  1
  O  O13  1  0.29599844  0.11033043  0.46730669  1
  O  O14  1  0.82296117  0.56983897  0.74344152  1
  O  O15  1  0.28462238  0.60261873  0.20982203  1
