# generated using pymatgen
data_LiMnSbMoP
_symmetry_space_group_name_H-M   'P 1'
_cell_length_a   4.78112750
_cell_length_b   4.95783572
_cell_length_c   6.00972403
_cell_angle_alpha   101.43558650
_cell_angle_beta   92.88806653
_cell_angle_gamma   100.13163563
_symmetry_Int_Tables_number   1
_chemical_formula_structural   LiMnSbMoP
_chemical_formula_sum   'Li2 Mn2 Sb2 Mo2 P2'
_cell_volume   136.91177206
_cell_formula_units_Z   2
loop_
 _symmetry_equiv_pos_site_id
 _symmetry_equiv_pos_as_xyz
  1  'x, y, z'
loop_
 _atom_site_type_symbol
 _atom_site_label
 _atom_site_symmetry_multiplicity
 _atom_site_fract_x
 _atom_site_fract_y
 _atom_site_fract_z
 _atom_site_occupancy
  Mn  Mn0  1  0.12500000  0.00000000  0.25000000  1
  Mn  Mn1  1  0.00000000  0.00000000  0.00000000  1
  Sb  Sb2  1  0.37500000  0.00000000  0.25000000  1
  Sb  Sb3  1  0.25000000  0.25000000  0.25000000  1
  P  P4  1  0.00000000  0.25000000  0.12500000  1
  P  P5  1  0.10919850  0.43098156  0.46055398  1
  Mo  Mo6  1  0.87696757  0.64104309  0.34404875  1
  Mo  Mo7  1  0.43617723  0.94888447  0.48256324  1
  Li  Li8  1  0.70438177  0.04674607  0.24162770  1
  Li  Li9  1  0.74430136  0.45995422  0.74626739  1
