# generated using pymatgen
data_Li2LuCu2(As3P2)2
_symmetry_space_group_name_H-M   'P 1'
_cell_length_a   7.44939055
_cell_length_b   7.25368211
_cell_length_c   8.15955312
_cell_angle_alpha   92.40731792
_cell_angle_beta   92.32909797
_cell_angle_gamma   92.56599854
_symmetry_Int_Tables_number   1
_chemical_formula_structural   Li2LuCu2(As3P2)2
_chemical_formula_sum   'Li2 Lu1 Cu2 As6 P4'
_cell_volume   439.67531476
_cell_formula_units_Z   1
loop_
 _symmetry_equiv_pos_site_id
 _symmetry_equiv_pos_as_xyz
  1  'x, y, z'
loop_
 _atom_site_type_symbol
 _atom_site_label
 _atom_site_symmetry_multiplicity
 _atom_site_fract_x
 _atom_site_fract_y
 _atom_site_fract_z
 _atom_site_occupancy
  P  P0  1  0.12500000  0.00000000  0.25000000  1
  P  P1  1  0.00000000  0.00000000  0.00000000  1
  P  P2  1  0.37500000  0.00000000  0.25000000  1
  P  P3  1  0.25000000  0.25000000  0.25000000  1
  Lu  Lu4  1  0.00000000  0.25000000  0.12500000  1
  Li  Li5  1  0.47767019  0.32519133  0.30912336  1
  Li  Li6  1  0.96719699  0.87173785  0.52082238  1
  Cu  Cu7  1  0.79642058  0.07678378  0.18179278  1
  Cu  Cu8  1  0.43087199  0.90860657  0.33389527  1
  As  As9  1  0.29605592  0.87898671  0.41319006  1
  As  As10  1  0.06411228  0.91214880  0.42164723  1
  As  As11  1  0.47934172  0.54885139  0.13263922  1
  As  As12  1  0.99373907  0.23677491  0.46146970  1
  As  As13  1  0.11600104  0.29112574  0.71019405  1
  As  As14  1  0.11186365  0.13703446  0.25450477  1
