# generated using pymatgen
data_Li4Zr(NiCl)2
_symmetry_space_group_name_H-M   'P 1'
_cell_length_a   6.85191107
_cell_length_b   6.53260192
_cell_length_c   8.03845731
_cell_angle_alpha   96.87343308
_cell_angle_beta   98.77579538
_cell_angle_gamma   96.46594767
_symmetry_Int_Tables_number   1
_chemical_formula_structural   Li4Zr(NiCl)2
_chemical_formula_sum   'Li4 Zr1 Ni2 Cl2'
_cell_volume   349.88541307
_cell_formula_units_Z   1
loop_
 _symmetry_equiv_pos_site_id
 _symmetry_equiv_pos_as_xyz
  1  'x, y, z'
loop_
 _atom_site_type_symbol
 _atom_site_label
 _atom_site_symmetry_multiplicity
 _atom_site_fract_x
 _atom_site_fract_y
 _atom_site_fract_z
 _atom_site_occupancy
  Li  Li0  1  0.00000000  0.00000000  0.00000000  1
  Li  Li1  1  0.50000000  0.50000000  0.50000000  1
  Li  Li2  1  0.25000000  0.25000000  0.25000000  1
  Li  Li3  1  0.75000000  0.25000000  0.00000000  1
  Cl  Cl4  1  0.25000000  0.75000000  0.50000000  1
  Cl  Cl5  1  0.80252048  0.68344519  0.25519950  1
  Ni  Ni6  1  0.04736669  0.79779539  0.73313930  1
  Ni  Ni7  1  0.58262479  0.77032504  0.81769951  1
  Zr  Zr8  1  0.41499246  0.90413618  0.37094927  1
