# generated using pymatgen
data_Li3PI4Br4O
_symmetry_space_group_name_H-M   'P 1'
_cell_length_a   8.28012313
_cell_length_b   8.16899085
_cell_length_c   8.41162294
_cell_angle_alpha   90.00000000
_cell_angle_beta   90.00000000
_cell_angle_gamma   90.00000000
_symmetry_Int_Tables_number   1
_chemical_formula_structural   Li3PI4Br4O
_chemical_formula_sum   'Li3 P1 I4 Br4 O1'
_cell_volume   568.96428003
_cell_formula_units_Z   1
loop_
 _symmetry_equiv_pos_site_id
 _symmetry_equiv_pos_as_xyz
  1  'x, y, z'
loop_
 _atom_site_type_symbol
 _atom_site_label
 _atom_site_symmetry_multiplicity
 _atom_site_fract_x
 _atom_site_fract_y
 _atom_site_fract_z
 _atom_site_occupancy
  I  I0  1  0.00000000  0.00000000  0.00000000  1
  I  I1  1  0.50000000  0.50000000  0.50000000  1
  I  I2  1  0.25000000  0.25000000  0.25000000  1
  I  I3  1  0.75000000  0.25000000  0.00000000  1
  P  P4  1  0.25000000  0.75000000  0.50000000  1
  Li  Li5  1  0.89820984  0.55750342  0.41863259  1
  Li  Li6  1  0.24242601  0.30442956  0.42895844  1
  Li  Li7  1  0.48112115  0.42426976  0.65749053  1
  Br  Br8  1  0.05878065  0.86725382  0.38766152  1
  Br  Br9  1  0.30077029  0.85635198  0.50465680  1
  Br  Br10  1  0.14482234  0.33039150  0.31359148  1
  Br  Br11  1  0.40714009  0.87865841  0.02044389  1
  O  O12  1  0.64498257  0.73085406  0.53712227  1
