# generated using pymatgen
data_Li2LuCu2(As3P2)2
_symmetry_space_group_name_H-M   'P 1'
_cell_length_a   7.48573541
_cell_length_b   7.29611782
_cell_length_c   8.19873715
_cell_angle_alpha   92.44889012
_cell_angle_beta   92.40016003
_cell_angle_gamma   92.60590034
_symmetry_Int_Tables_number   1
_chemical_formula_structural   Li2LuCu2(As3P2)2
_chemical_formula_sum   'Li2 Lu1 Cu2 As6 P4'
_cell_volume   446.48627115
_cell_formula_units_Z   1
loop_
 _symmetry_equiv_pos_site_id
 _symmetry_equiv_pos_as_xyz
  1  'x, y, z'
loop_
 _atom_site_type_symbol
 _atom_site_label
 _atom_site_symmetry_multiplicity
 _atom_site_fract_x
 _atom_site_fract_y
 _atom_site_fract_z
 _atom_site_occupancy
  P  P0  1  0.00000000  0.00000000  0.00000000  1
  P  P1  1  0.50000000  0.50000000  0.50000000  1
  P  P2  1  0.25000000  0.25000000  0.25000000  1
  P  P3  1  0.75000000  0.25000000  0.00000000  1
  Lu  Lu4  1  0.25000000  0.75000000  0.50000000  1
  Li  Li5  1  0.08356956  0.18331516  0.65644968  1
  Li  Li6  1  0.35181664  0.58314707  0.96766328  1
  Cu  Cu7  1  0.55421515  0.11938970  0.90404235  1
  Cu  Cu8  1  0.21331593  0.25944391  0.80489611  1
  As  As9  1  0.19919252  0.57177957  0.27775970  1
  As  As10  1  0.19686336  0.95831570  0.35986388  1
  As  As11  1  0.76924620  0.74343738  0.31221102  1
  As  As12  1  0.80120461  0.92582646  0.65820841  1
  As  As13  1  0.49521156  0.67641685  0.52210307  1
  As  As14  1  0.92532022  0.46150257  0.06024000  1
