# generated using pymatgen
data_Li2Cu2S2N5
_symmetry_space_group_name_H-M   'P 1'
_cell_length_a   6.62969525
_cell_length_b   6.47955286
_cell_length_c   7.66581139
_cell_angle_alpha   94.80037299
_cell_angle_beta   95.95612565
_cell_angle_gamma   95.32755462
_symmetry_Int_Tables_number   1
_chemical_formula_structural   Li2Cu2S2N5
_chemical_formula_sum   'Li2 Cu2 S2 N5'
_cell_volume   324.66010667
_cell_formula_units_Z   1
loop_
 _symmetry_equiv_pos_site_id
 _symmetry_equiv_pos_as_xyz
  1  'x, y, z'
loop_
 _atom_site_type_symbol
 _atom_site_label
 _atom_site_symmetry_multiplicity
 _atom_site_fract_x
 _atom_site_fract_y
 _atom_site_fract_z
 _atom_site_occupancy
  Li  Li0  1  0.12500000  0.12500000  0.12500000  1
  Li  Li1  1  0.50000000  0.50000000  0.50000000  1
  Cu  Cu2  1  0.25000000  0.25000000  0.25000000  1
  Cu  Cu3  1  0.75000000  0.75000000  0.75000000  1
  S  S4  1  0.81285055  0.38684594  0.73618914  1
  S  S5  1  0.05393504  0.69970490  0.09954018  1
  N  N6  1  0.58247733  0.88301170  0.82016437  1
  N  N7  1  0.79018272  0.62906876  0.91106472  1
  N  N8  1  0.64958584  0.72453620  0.71668311  1
  N  N9  1  0.03328460  0.45578320  0.36343490  1
  N  N10  1  0.15347259  0.56547107  0.74154670  1
