# generated using pymatgen
data_Li4Ti3Nb2SeF3
_symmetry_space_group_name_H-M   'P 1'
_cell_length_a   4.93522797
_cell_length_b   4.55967821
_cell_length_c   7.04023575
_cell_angle_alpha   103.16360956
_cell_angle_beta   108.25641521
_cell_angle_gamma   102.46756190
_symmetry_Int_Tables_number   1
_chemical_formula_structural   Li4Ti3Nb2SeF3
_chemical_formula_sum   'Li4 Ti3 Nb2 Se1 F3'
_cell_volume   139.25246926
_cell_formula_units_Z   1
loop_
 _symmetry_equiv_pos_site_id
 _symmetry_equiv_pos_as_xyz
  1  'x, y, z'
loop_
 _atom_site_type_symbol
 _atom_site_label
 _atom_site_symmetry_multiplicity
 _atom_site_fract_x
 _atom_site_fract_y
 _atom_site_fract_z
 _atom_site_occupancy
  Li  Li0  1  0.00000000  0.00000000  0.00000000  1
  Li  Li1  1  0.50000000  0.50000000  0.50000000  1
  Li  Li2  1  0.50000000  0.50000000  0.00000000  1
  Li  Li3  1  0.50000000  0.00000000  0.50000000  1
  Nb  Nb4  1  0.00000000  0.50000000  0.50000000  1
  Nb  Nb5  1  0.25302489  0.77610928  0.32452087  1
  Se  Se6  1  0.19898554  0.49323766  0.30260902  1
  F  F7  1  0.96092487  0.55215292  0.09377141  1
  F  F8  1  0.01724896  0.76905398  0.69247352  1
  F  F9  1  0.32793536  0.13682858  0.52121358  1
  Ti  Ti10  1  0.62307183  0.72978432  0.53879541  1
  Ti  Ti11  1  0.02335226  0.31697536  0.66117693  1
  Ti  Ti12  1  0.74188443  0.10600030  0.01606539  1
