# generated using pymatgen
data_LiMn2(Sb2P)2
_symmetry_space_group_name_H-M   'P 1'
_cell_length_a   5.43433222
_cell_length_b   5.87403415
_cell_length_c   6.90760510
_cell_angle_alpha   96.46296337
_cell_angle_beta   95.64115552
_cell_angle_gamma   96.63414667
_symmetry_Int_Tables_number   1
_chemical_formula_structural   LiMn2(Sb2P)2
_chemical_formula_sum   'Li1 Mn2 Sb4 P2'
_cell_volume   216.24417915
_cell_formula_units_Z   1
loop_
 _symmetry_equiv_pos_site_id
 _symmetry_equiv_pos_as_xyz
  1  'x, y, z'
loop_
 _atom_site_type_symbol
 _atom_site_label
 _atom_site_symmetry_multiplicity
 _atom_site_fract_x
 _atom_site_fract_y
 _atom_site_fract_z
 _atom_site_occupancy
  Mn  Mn0  1  0.00000000  0.00000000  0.00000000  1
  Mn  Mn1  1  0.33300000  0.66700000  0.25000000  1
  Sb  Sb2  1  0.66700000  0.33300000  0.50000000  1
  Sb  Sb3  1  0.00000000  0.00000000  0.75000000  1
  Sb  Sb4  1  0.75529848  0.47959061  0.86575190  1
  Sb  Sb5  1  0.88962275  0.17964520  0.78609742  1
  P  P6  1  0.18787961  0.19717971  0.85912760  1
  P  P7  1  0.96453852  0.07128643  0.92720804  1
  Li  Li8  1  0.36456890  0.45082730  0.63754274  1
