# generated using pymatgen
data_Li2TiI4O3
_symmetry_space_group_name_H-M   'P 1'
_cell_length_a   6.43991312
_cell_length_b   6.35185741
_cell_length_c   7.37068093
_cell_angle_alpha   97.96590360
_cell_angle_beta   100.30129849
_cell_angle_gamma   97.54483766
_symmetry_Int_Tables_number   1
_chemical_formula_structural   Li2TiI4O3
_chemical_formula_sum   'Li2 Ti1 I4 O3'
_cell_volume   289.98480290
_cell_formula_units_Z   1
loop_
 _symmetry_equiv_pos_site_id
 _symmetry_equiv_pos_as_xyz
  1  'x, y, z'
loop_
 _atom_site_type_symbol
 _atom_site_label
 _atom_site_symmetry_multiplicity
 _atom_site_fract_x
 _atom_site_fract_y
 _atom_site_fract_z
 _atom_site_occupancy
  I  I0  1  0.00000000  0.00000000  0.00000000  1
  I  I1  1  0.50000000  0.50000000  0.50000000  1
  I  I2  1  0.50000000  0.50000000  0.00000000  1
  I  I3  1  0.50000000  0.00000000  0.50000000  1
  Li  Li4  1  0.00000000  0.50000000  0.50000000  1
  Li  Li5  1  0.70306446  0.29450560  0.92827936  1
  Ti  Ti6  1  0.76814456  0.58120318  0.95231295  1
  O  O7  1  0.87459506  0.98360948  0.69441507  1
  O  O8  1  0.81826112  0.26174772  0.35225909  1
  O  O9  1  0.32881077  0.31021826  0.09414316  1
