# generated using pymatgen
data_LiAs2O
_symmetry_space_group_name_H-M   'P 1'
_cell_length_a   7.59609687
_cell_length_b   7.31627572
_cell_length_c   7.47478561
_cell_angle_alpha   90.38129526
_cell_angle_beta   91.81408707
_cell_angle_gamma   90.43592230
_symmetry_Int_Tables_number   1
_chemical_formula_structural   LiAs2O
_chemical_formula_sum   'Li3 As6 O3'
_cell_volume   415.18214942
_cell_formula_units_Z   3
loop_
 _symmetry_equiv_pos_site_id
 _symmetry_equiv_pos_as_xyz
  1  'x, y, z'
loop_
 _atom_site_type_symbol
 _atom_site_label
 _atom_site_symmetry_multiplicity
 _atom_site_fract_x
 _atom_site_fract_y
 _atom_site_fract_z
 _atom_site_occupancy
  Li  Li0  1  0.00000000  0.00000000  0.00000000  1
  Li  Li1  1  0.33300000  0.66700000  0.25000000  1
  Li  Li2  1  0.66700000  0.33300000  0.50000000  1
  As  As3  1  0.00000000  0.00000000  0.75000000  1
  As  As4  1  0.23287851  0.83196949  0.21665025  1
  As  As5  1  0.05474951  0.39581345  0.60966631  1
  As  As6  1  0.56963824  0.44421989  0.41989035  1
  As  As7  1  0.72863909  0.78525978  0.25338536  1
  As  As8  1  0.61563859  0.27294444  0.34148100  1
  O  O9  1  0.79083265  0.74091979  0.49060280  1
  O  O10  1  0.25468771  0.07240453  0.63063541  1
  O  O11  1  0.72022366  0.77771957  0.35141961  1
