# generated using pymatgen
data_Li3Ni2As6O7
_symmetry_space_group_name_H-M   'P 1'
_cell_length_a   7.74863574
_cell_length_b   7.57455129
_cell_length_c   9.04696371
_cell_angle_alpha   91.62993816
_cell_angle_beta   91.03337545
_cell_angle_gamma   91.88880674
_symmetry_Int_Tables_number   1
_chemical_formula_structural   Li3Ni2As6O7
_chemical_formula_sum   'Li3 Ni2 As6 O7'
_cell_volume   530.38947357
_cell_formula_units_Z   1
loop_
 _symmetry_equiv_pos_site_id
 _symmetry_equiv_pos_as_xyz
  1  'x, y, z'
loop_
 _atom_site_type_symbol
 _atom_site_label
 _atom_site_symmetry_multiplicity
 _atom_site_fract_x
 _atom_site_fract_y
 _atom_site_fract_z
 _atom_site_occupancy
  Li  Li0  1  0.12500000  0.00000000  0.25000000  1
  Li  Li1  1  0.00000000  0.00000000  0.00000000  1
  Li  Li2  1  0.37500000  0.00000000  0.25000000  1
  Ni  Ni3  1  0.25000000  0.25000000  0.25000000  1
  Ni  Ni4  1  0.00000000  0.25000000  0.12500000  1
  As  As5  1  0.85524580  0.93764586  0.25850835  1
  As  As6  1  0.92036591  0.16987402  0.66873885  1
  As  As7  1  0.19142653  0.22072643  0.38708667  1
  As  As8  1  0.93081432  0.50725463  0.04733083  1
  As  As9  1  0.18030277  0.50786401  0.56531482  1
  As  As10  1  0.51092048  0.62336058  0.75520691  1
  O  O11  1  0.99092980  0.19579990  0.08250024  1
  O  O12  1  0.63408795  0.66373251  0.35869978  1
  O  O13  1  0.24390681  0.48075857  0.40040793  1
  O  O14  1  0.25836112  0.12810594  0.33972157  1
  O  O15  1  0.50138254  0.80321496  0.22449294  1
  O  O16  1  0.48886693  0.72500287  0.98519901  1
  O  O17  1  0.09357167  0.59539833  0.03380002  1
