# generated using pymatgen
data_Li3TiZn2(IO)4
_symmetry_space_group_name_H-M   'P 1'
_cell_length_a   8.75529257
_cell_length_b   8.89804942
_cell_length_c   7.22107458
_cell_angle_alpha   90.00000000
_cell_angle_beta   90.00000000
_cell_angle_gamma   90.00000000
_symmetry_Int_Tables_number   1
_chemical_formula_structural   Li3TiZn2(IO)4
_chemical_formula_sum   'Li3 Ti1 Zn2 I4 O4'
_cell_volume   562.55800308
_cell_formula_units_Z   1
loop_
 _symmetry_equiv_pos_site_id
 _symmetry_equiv_pos_as_xyz
  1  'x, y, z'
loop_
 _atom_site_type_symbol
 _atom_site_label
 _atom_site_symmetry_multiplicity
 _atom_site_fract_x
 _atom_site_fract_y
 _atom_site_fract_z
 _atom_site_occupancy
  I  I0  1  0.00000000  0.00000000  0.00000000  1
  I  I1  1  0.50000000  0.50000000  0.50000000  1
  I  I2  1  0.50000000  0.50000000  0.00000000  1
  I  I3  1  0.50000000  0.00000000  0.50000000  1
  Li  Li4  1  0.00000000  0.50000000  0.50000000  1
  Li  Li5  1  0.76999990  0.97578333  0.70527749  1
  Li  Li6  1  0.09633456  0.78599473  0.57313003  1
  Zn  Zn7  1  0.22642201  0.92677935  0.33934154  1
  Zn  Zn8  1  0.74995411  0.07079597  0.69660686  1
  Ti  Ti9  1  0.25584575  0.35021768  0.29965276  1
  O  O10  1  0.87494343  0.68030773  0.78910881  1
  O  O11  1  0.76967672  0.04528578  0.25573710  1
  O  O12  1  0.70144415  0.47212910  0.32223814  1
  O  O13  1  0.12433899  0.53633994  0.67814261  1
