# generated using pymatgen
data_Li3Te6(IO)4
_symmetry_space_group_name_H-M   'P 1'
_cell_length_a   8.73639415
_cell_length_b   8.91987886
_cell_length_c   7.22327205
_cell_angle_alpha   90.00000000
_cell_angle_beta   90.00000000
_cell_angle_gamma   90.00000000
_symmetry_Int_Tables_number   1
_chemical_formula_structural   Li3Te6(IO)4
_chemical_formula_sum   'Li3 Te6 I4 O4'
_cell_volume   562.89209236
_cell_formula_units_Z   1
loop_
 _symmetry_equiv_pos_site_id
 _symmetry_equiv_pos_as_xyz
  1  'x, y, z'
loop_
 _atom_site_type_symbol
 _atom_site_label
 _atom_site_symmetry_multiplicity
 _atom_site_fract_x
 _atom_site_fract_y
 _atom_site_fract_z
 _atom_site_occupancy
  I  I0  1  0.00000000  0.00000000  0.00000000  1
  I  I1  1  0.50000000  0.50000000  0.50000000  1
  I  I2  1  0.50000000  0.50000000  0.00000000  1
  I  I3  1  0.50000000  0.00000000  0.50000000  1
  Li  Li4  1  0.00000000  0.50000000  0.50000000  1
  Li  Li5  1  0.78964067  0.94121322  0.06236797  1
  Li  Li6  1  0.38719733  0.49819034  0.41385478  1
  Te  Te7  1  0.97215885  0.26722048  0.43040799  1
  Te  Te8  1  0.87456590  0.03759136  0.96767276  1
  Te  Te9  1  0.62785043  0.67711689  0.12802903  1
  Te  Te10  1  0.60245783  0.66816320  0.74198587  1
  Te  Te11  1  0.47477399  0.45757231  0.48627207  1
  Te  Te12  1  0.26748858  0.44910205  0.27099715  1
  O  O13  1  0.24856925  0.46736033  0.68043763  1
  O  O14  1  0.32898352  0.06830514  0.60898812  1
  O  O15  1  0.07028856  0.09731548  0.32231859  1
  O  O16  1  0.45014130  0.94181738  0.28910641  1
