# generated using pymatgen
data_Li3Zn2Te6(IO)4
_symmetry_space_group_name_H-M   'P 1'
_cell_length_a   8.59417627
_cell_length_b   9.08415372
_cell_length_c   7.23980888
_cell_angle_alpha   90.00000000
_cell_angle_beta   90.00000000
_cell_angle_gamma   90.00000000
_symmetry_Int_Tables_number   1
_chemical_formula_structural   Li3Zn2Te6(IO)4
_chemical_formula_sum   'Li3 Zn2 Te6 I4 O4'
_cell_volume   565.21780327
_cell_formula_units_Z   1
loop_
 _symmetry_equiv_pos_site_id
 _symmetry_equiv_pos_as_xyz
  1  'x, y, z'
loop_
 _atom_site_type_symbol
 _atom_site_label
 _atom_site_symmetry_multiplicity
 _atom_site_fract_x
 _atom_site_fract_y
 _atom_site_fract_z
 _atom_site_occupancy
  I  I0  1  0.00000000  0.00000000  0.00000000  1
  I  I1  1  0.50000000  0.50000000  0.50000000  1
  I  I2  1  0.25000000  0.25000000  0.25000000  1
  I  I3  1  0.75000000  0.25000000  0.00000000  1
  Li  Li4  1  0.25000000  0.75000000  0.50000000  1
  Li  Li5  1  0.25533811  0.42481721  0.81632383  1
  Li  Li6  1  0.61005773  0.69486376  0.02369422  1
  Zn  Zn7  1  0.01053833  0.48513490  0.85258680  1
  Zn  Zn8  1  0.60489330  0.30033885  0.75972669  1
  Te  Te9  1  0.13636430  0.21688569  0.82462170  1
  Te  Te10  1  0.94780159  0.93075409  0.59520583  1
  Te  Te11  1  0.49210862  0.56779600  0.40107383  1
  Te  Te12  1  0.89184215  0.10998487  0.74893664  1
  Te  Te13  1  0.04221720  0.43478641  0.34450977  1
  Te  Te14  1  0.48218115  0.24119246  0.59568183  1
  O  O15  1  0.97218306  0.95330744  0.42338286  1
  O  O16  1  0.40717789  0.37689518  0.33602814  1
  O  O17  1  0.29969425  0.70517705  0.35493213  1
  O  O18  1  0.32049422  0.45104468  0.94306244  1
