# generated using pymatgen
data_Li2MnSb4Mo2P3
_symmetry_space_group_name_H-M   'P 1'
_cell_length_a   4.35452547
_cell_length_b   4.41647568
_cell_length_c   6.31328776
_cell_angle_alpha   103.15276346
_cell_angle_beta   94.21129046
_cell_angle_gamma   103.38612865
_symmetry_Int_Tables_number   1
_chemical_formula_structural   Li2MnSb4Mo2P3
_chemical_formula_sum   'Li2 Mn1 Sb4 Mo2 P3'
_cell_volume   113.99399250
_cell_formula_units_Z   1
loop_
 _symmetry_equiv_pos_site_id
 _symmetry_equiv_pos_as_xyz
  1  'x, y, z'
loop_
 _atom_site_type_symbol
 _atom_site_label
 _atom_site_symmetry_multiplicity
 _atom_site_fract_x
 _atom_site_fract_y
 _atom_site_fract_z
 _atom_site_occupancy
  Mn  Mn0  1  0.00000000  0.00000000  0.00000000  1
  Sb  Sb1  1  0.50000000  0.50000000  0.50000000  1
  Sb  Sb2  1  0.25000000  0.25000000  0.25000000  1
  Sb  Sb3  1  0.75000000  0.25000000  0.00000000  1
  Sb  Sb4  1  0.25000000  0.75000000  0.50000000  1
  P  P5  1  0.26387854  0.37768398  0.98118306  1
  P  P6  1  0.54602964  0.94316333  0.52766618  1
  P  P7  1  0.25712937  0.96746275  0.57675959  1
  Mo  Mo8  1  0.19050530  0.24658175  0.67715123  1
  Mo  Mo9  1  0.76743485  0.75029817  0.85449193  1
  Li  Li10  1  0.39922006  0.95162261  0.91131235  1
  Li  Li11  1  0.81440386  0.82492852  0.17820189  1
