# generated using pymatgen
data_Li2TiCu2(As3O2)2
_symmetry_space_group_name_H-M   'P 1'
_cell_length_a   7.96861294
_cell_length_b   8.04803216
_cell_length_c   8.05462681
_cell_angle_alpha   90.30717043
_cell_angle_beta   91.46142362
_cell_angle_gamma   90.35117782
_symmetry_Int_Tables_number   1
_chemical_formula_structural   Li2TiCu2(As3O2)2
_chemical_formula_sum   'Li2 Ti1 Cu2 As6 O4'
_cell_volume   516.37094480
_cell_formula_units_Z   1
loop_
 _symmetry_equiv_pos_site_id
 _symmetry_equiv_pos_as_xyz
  1  'x, y, z'
loop_
 _atom_site_type_symbol
 _atom_site_label
 _atom_site_symmetry_multiplicity
 _atom_site_fract_x
 _atom_site_fract_y
 _atom_site_fract_z
 _atom_site_occupancy
  O  O0  1  0.12500000  0.00000000  0.25000000  1
  O  O1  1  0.00000000  0.00000000  0.00000000  1
  O  O2  1  0.37500000  0.00000000  0.25000000  1
  O  O3  1  0.25000000  0.25000000  0.25000000  1
  Ti  Ti4  1  0.00000000  0.25000000  0.12500000  1
  As  As5  1  0.30845294  0.03608004  0.35416639  1
  As  As6  1  0.90939096  0.50491830  0.77914406  1
  As  As7  1  0.77948962  0.19438329  0.86453562  1
  As  As8  1  0.10150537  0.03073979  0.13666015  1
  As  As9  1  0.47094015  0.04983188  0.68619903  1
  As  As10  1  0.39133077  0.69955487  0.42253309  1
  Li  Li11  1  0.74040747  0.54192843  0.56648199  1
  Li  Li12  1  0.12566603  0.61202931  0.58307508  1
  Cu  Cu13  1  0.20012060  0.82476848  0.09581044  1
  Cu  Cu14  1  0.04670042  0.67897522  0.09462436  1
