# generated using pymatgen
data_LiCuAs3P2
_symmetry_space_group_name_H-M   'P 1'
_cell_length_a   7.32835233
_cell_length_b   7.34848214
_cell_length_c   8.20405885
_cell_angle_alpha   91.93920740
_cell_angle_beta   92.93220427
_cell_angle_gamma   91.94604715
_symmetry_Int_Tables_number   1
_chemical_formula_structural   LiCuAs3P2
_chemical_formula_sum   'Li2 Cu2 As6 P4'
_cell_volume   440.69404396
_cell_formula_units_Z   2
loop_
 _symmetry_equiv_pos_site_id
 _symmetry_equiv_pos_as_xyz
  1  'x, y, z'
loop_
 _atom_site_type_symbol
 _atom_site_label
 _atom_site_symmetry_multiplicity
 _atom_site_fract_x
 _atom_site_fract_y
 _atom_site_fract_z
 _atom_site_occupancy
  P  P0  1  0.00000000  0.00000000  0.00000000  1
  P  P1  1  0.33300000  0.66700000  0.25000000  1
  P  P2  1  0.66700000  0.33300000  0.50000000  1
  P  P3  1  0.00000000  0.00000000  0.75000000  1
  Li  Li4  1  0.33218956  0.67507410  0.90917679  1
  Li  Li5  1  0.08446830  0.70680359  0.02004629  1
  Cu  Cu6  1  0.90284733  0.83416421  0.63435021  1
  Cu  Cu7  1  0.59434804  0.58050451  0.62072195  1
  As  As8  1  0.22901113  0.31514986  0.15583180  1
  As  As9  1  0.12515389  0.18984419  0.58274158  1
  As  As10  1  0.26274762  0.51751914  0.79698815  1
  As  As11  1  0.12099293  0.23041667  0.92302148  1
  As  As12  1  0.26064172  0.86958717  0.72294354  1
  As  As13  1  0.27005475  0.79710074  0.38036156  1
