# generated using pymatgen
data_Li2MnSb4P2N
_symmetry_space_group_name_H-M   'P 1'
_cell_length_a   3.63285356
_cell_length_b   3.86321635
_cell_length_c   6.57618328
_cell_angle_alpha   101.97073902
_cell_angle_beta   101.23015233
_cell_angle_gamma   102.36747674
_symmetry_Int_Tables_number   1
_chemical_formula_structural   Li2MnSb4P2N
_chemical_formula_sum   'Li2 Mn1 Sb4 P2 N1'
_cell_volume   85.38394693
_cell_formula_units_Z   1
loop_
 _symmetry_equiv_pos_site_id
 _symmetry_equiv_pos_as_xyz
  1  'x, y, z'
loop_
 _atom_site_type_symbol
 _atom_site_label
 _atom_site_symmetry_multiplicity
 _atom_site_fract_x
 _atom_site_fract_y
 _atom_site_fract_z
 _atom_site_occupancy
  Mn  Mn0  1  0.00000000  0.00000000  0.00000000  1
  Sb  Sb1  1  0.50000000  0.50000000  0.50000000  1
  Sb  Sb2  1  0.25000000  0.25000000  0.25000000  1
  Sb  Sb3  1  0.75000000  0.25000000  0.00000000  1
  Sb  Sb4  1  0.25000000  0.75000000  0.50000000  1
  P  P5  1  0.56438657  0.21265235  0.75032039  1
  P  P6  1  0.49898559  0.88618222  0.92100022  1
  Li  Li7  1  0.46044608  0.47946610  0.95971867  1
  Li  Li8  1  0.20511516  0.64589931  0.91007490  1
  N  N9  1  0.11440343  0.70283262  0.70836915  1
