# generated using pymatgen
data_Li3LuCu2P3Cl2
_symmetry_space_group_name_H-M   'P 1'
_cell_length_a   7.05502207
_cell_length_b   6.76463218
_cell_length_c   7.31466894
_cell_angle_alpha   95.68659340
_cell_angle_beta   97.25863019
_cell_angle_gamma   95.42661461
_symmetry_Int_Tables_number   1
_chemical_formula_structural   Li3LuCu2P3Cl2
_chemical_formula_sum   'Li3 Lu1 Cu2 P3 Cl2'
_cell_volume   342.55416310
_cell_formula_units_Z   1
loop_
 _symmetry_equiv_pos_site_id
 _symmetry_equiv_pos_as_xyz
  1  'x, y, z'
loop_
 _atom_site_type_symbol
 _atom_site_label
 _atom_site_symmetry_multiplicity
 _atom_site_fract_x
 _atom_site_fract_y
 _atom_site_fract_z
 _atom_site_occupancy
  P  P0  1  0.12500000  0.00000000  0.25000000  1
  P  P1  1  0.00000000  0.00000000  0.00000000  1
  P  P2  1  0.37500000  0.00000000  0.25000000  1
  Lu  Lu3  1  0.25000000  0.25000000  0.25000000  1
  Li  Li4  1  0.00000000  0.25000000  0.12500000  1
  Li  Li5  1  0.34954022  0.91024909  0.03645875  1
  Li  Li6  1  0.83951042  0.52406231  0.29438186  1
  Cu  Cu7  1  0.06672557  0.82821024  0.69503387  1
  Cu  Cu8  1  0.58581747  0.77781522  0.33512393  1
  Cl  Cl9  1  0.92321742  0.42473353  0.63328565  1
  Cl  Cl10  1  0.11816291  0.35411728  0.07583443  1
