# generated using pymatgen
data_Li4Ti3(NiO2)2
_symmetry_space_group_name_H-M   'P 1'
_cell_length_a   6.15482035
_cell_length_b   6.26170210
_cell_length_c   7.39706779
_cell_angle_alpha   93.25392174
_cell_angle_beta   96.76779607
_cell_angle_gamma   96.60595525
_symmetry_Int_Tables_number   1
_chemical_formula_structural   Li4Ti3(NiO2)2
_chemical_formula_sum   'Li4 Ti3 Ni2 O4'
_cell_volume   280.49902308
_cell_formula_units_Z   1
loop_
 _symmetry_equiv_pos_site_id
 _symmetry_equiv_pos_as_xyz
  1  'x, y, z'
loop_
 _atom_site_type_symbol
 _atom_site_label
 _atom_site_symmetry_multiplicity
 _atom_site_fract_x
 _atom_site_fract_y
 _atom_site_fract_z
 _atom_site_occupancy
  Ni  Ni0  1  0.12500000  0.00000000  0.25000000  1
  Ni  Ni1  1  0.00000000  0.00000000  0.00000000  1
  O  O2  1  0.37500000  0.00000000  0.25000000  1
  O  O3  1  0.25000000  0.25000000  0.25000000  1
  O  O4  1  0.00000000  0.25000000  0.12500000  1
  O  O5  1  0.64528014  0.06003711  0.19508799  1
  Ti  Ti6  1  0.35837856  0.70827918  0.25014819  1
  Ti  Ti7  1  0.00222102  0.67239920  0.61399605  1
  Ti  Ti8  1  0.25129599  0.75372113  0.47250326  1
  Li  Li9  1  0.14224246  0.33924075  0.32142102  1
  Li  Li10  1  0.20405059  0.94681217  0.97961100  1
  Li  Li11  1  0.99745315  0.28787717  0.50746213  1
  Li  Li12  1  0.00598573  0.18707399  0.53010966  1
