# generated using pymatgen
data_LiP2S
_symmetry_space_group_name_H-M   'P 1'
_cell_length_a   6.68310091
_cell_length_b   6.71840290
_cell_length_c   7.61745288
_cell_angle_alpha   96.27466286
_cell_angle_beta   98.04371227
_cell_angle_gamma   96.18912476
_symmetry_Int_Tables_number   1
_chemical_formula_structural   LiP2S
_chemical_formula_sum   'Li2 P4 S2'
_cell_volume   333.98462040
_cell_formula_units_Z   2
loop_
 _symmetry_equiv_pos_site_id
 _symmetry_equiv_pos_as_xyz
  1  'x, y, z'
loop_
 _atom_site_type_symbol
 _atom_site_label
 _atom_site_symmetry_multiplicity
 _atom_site_fract_x
 _atom_site_fract_y
 _atom_site_fract_z
 _atom_site_occupancy
  P  P0  1  0.00000000  0.00000000  0.00000000  1
  P  P1  1  0.33300000  0.66700000  0.25000000  1
  P  P2  1  0.66700000  0.33300000  0.50000000  1
  P  P3  1  0.00000000  0.00000000  0.75000000  1
  Li  Li4  1  0.63416135  0.01815396  0.70823625  1
  Li  Li5  1  0.81425510  0.86917532  0.95620030  1
  S  S6  1  0.04334415  0.46546040  0.10500949  1
  S  S7  1  0.85658373  0.81639578  0.92708679  1
