# generated using pymatgen
data_Li2Ti2(BrO)3
_symmetry_space_group_name_H-M   'P 1'
_cell_length_a   7.94867385
_cell_length_b   7.92019443
_cell_length_c   7.36418467
_cell_angle_alpha   90.00000000
_cell_angle_beta   90.00000000
_cell_angle_gamma   90.00000000
_symmetry_Int_Tables_number   1
_chemical_formula_structural   Li2Ti2(BrO)3
_chemical_formula_sum   'Li2 Ti2 Br3 O3'
_cell_volume   463.61255764
_cell_formula_units_Z   1
loop_
 _symmetry_equiv_pos_site_id
 _symmetry_equiv_pos_as_xyz
  1  'x, y, z'
loop_
 _atom_site_type_symbol
 _atom_site_label
 _atom_site_symmetry_multiplicity
 _atom_site_fract_x
 _atom_site_fract_y
 _atom_site_fract_z
 _atom_site_occupancy
  Li  Li0  1  0.00000000  0.00000000  0.00000000  1
  Li  Li1  1  0.50000000  0.50000000  0.50000000  1
  Br  Br2  1  0.25000000  0.25000000  0.25000000  1
  Br  Br3  1  0.75000000  0.25000000  0.00000000  1
  Br  Br4  1  0.25000000  0.75000000  0.50000000  1
  Ti  Ti5  1  0.35763126  0.46860775  0.90150363  1
  Ti  Ti6  1  0.19122592  0.71183376  0.24817056  1
  O  O7  1  0.92600283  0.30964425  0.41692556  1
  O  O8  1  0.07923935  0.69394351  0.19232774  1
  O  O9  1  0.88167198  0.25158673  0.38614510  1
