# generated using pymatgen
data_Li2LuNi2(As3P2)2
_symmetry_space_group_name_H-M   'P 1'
_cell_length_a   7.31060745
_cell_length_b   7.18224099
_cell_length_c   8.11654429
_cell_angle_alpha   93.03191355
_cell_angle_beta   93.34978639
_cell_angle_gamma   93.08171737
_symmetry_Int_Tables_number   1
_chemical_formula_structural   Li2LuNi2(As3P2)2
_chemical_formula_sum   'Li2 Lu1 Ni2 As6 P4'
_cell_volume   424.15661774
_cell_formula_units_Z   1
loop_
 _symmetry_equiv_pos_site_id
 _symmetry_equiv_pos_as_xyz
  1  'x, y, z'
loop_
 _atom_site_type_symbol
 _atom_site_label
 _atom_site_symmetry_multiplicity
 _atom_site_fract_x
 _atom_site_fract_y
 _atom_site_fract_z
 _atom_site_occupancy
  P  P0  1  0.00000000  0.00000000  0.00000000  1
  P  P1  1  0.50000000  0.50000000  0.50000000  1
  P  P2  1  0.50000000  0.50000000  0.00000000  1
  P  P3  1  0.50000000  0.00000000  0.50000000  1
  Lu  Lu4  1  0.00000000  0.50000000  0.50000000  1
  Li  Li5  1  0.27910079  0.60457615  0.56883614  1
  Li  Li6  1  0.90645077  0.32510551  0.34639850  1
  Ni  Ni7  1  0.54956820  0.21811180  0.38389404  1
  Ni  Ni8  1  0.90734729  0.53466193  0.25819203  1
  As  As9  1  0.41737181  0.01698597  0.91006912  1
  As  As10  1  0.85554415  0.36606113  0.14343312  1
  As  As11  1  0.80598365  0.83367154  0.31075562  1
  As  As12  1  0.12714955  0.15358808  0.49619824  1
  As  As13  1  0.19368508  0.79977548  0.91136201  1
  As  As14  1  0.83315653  0.83637228  0.20103405  1
