# generated using pymatgen
data_Li4ZrTiSe
_symmetry_space_group_name_H-M   'P 1'
_cell_length_a   7.07153371
_cell_length_b   6.82410275
_cell_length_c   7.02897960
_cell_angle_alpha   96.13505155
_cell_angle_beta   97.31708636
_cell_angle_gamma   95.65398176
_symmetry_Int_Tables_number   1
_chemical_formula_structural   Li4ZrTiSe
_chemical_formula_sum   'Li4 Zr1 Ti1 Se1'
_cell_volume   332.33810586
_cell_formula_units_Z   1
loop_
 _symmetry_equiv_pos_site_id
 _symmetry_equiv_pos_as_xyz
  1  'x, y, z'
loop_
 _atom_site_type_symbol
 _atom_site_label
 _atom_site_symmetry_multiplicity
 _atom_site_fract_x
 _atom_site_fract_y
 _atom_site_fract_z
 _atom_site_occupancy
  Li  Li0  1  0.00000000  0.00000000  0.00000000  1
  Li  Li1  1  0.50000000  0.50000000  0.50000000  1
  Li  Li2  1  0.50000000  0.50000000  0.00000000  1
  Li  Li3  1  0.50000000  0.00000000  0.50000000  1
  Se  Se4  1  0.00000000  0.50000000  0.50000000  1
  Ti  Ti5  1  0.25192743  0.47255442  0.08385634  1
  Zr  Zr6  1  0.56893425  0.75542994  0.28119339  1
