# generated using pymatgen
data_Li3Lu(NiP2)2
_symmetry_space_group_name_H-M   'P 1'
_cell_length_a   7.21049901
_cell_length_b   6.99811741
_cell_length_c   8.44695632
_cell_angle_alpha   94.55602573
_cell_angle_beta   93.74234831
_cell_angle_gamma   94.79963974
_symmetry_Int_Tables_number   1
_chemical_formula_structural   Li3Lu(NiP2)2
_chemical_formula_sum   'Li3 Lu1 Ni2 P4'
_cell_volume   422.28491208
_cell_formula_units_Z   1
loop_
 _symmetry_equiv_pos_site_id
 _symmetry_equiv_pos_as_xyz
  1  'x, y, z'
loop_
 _atom_site_type_symbol
 _atom_site_label
 _atom_site_symmetry_multiplicity
 _atom_site_fract_x
 _atom_site_fract_y
 _atom_site_fract_z
 _atom_site_occupancy
  P  P0  1  0.12500000  0.12500000  0.12500000  1
  P  P1  1  0.50000000  0.50000000  0.50000000  1
  P  P2  1  0.25000000  0.25000000  0.25000000  1
  P  P3  1  0.75000000  0.75000000  0.75000000  1
  Lu  Lu4  1  0.25674295  0.73746959  0.66218056  1
  Li  Li5  1  0.75121681  0.45012123  0.01079603  1
  Li  Li6  1  0.71911744  0.36665222  0.53557161  1
  Li  Li7  1  0.89585347  0.68895852  0.55176592  1
  Ni  Ni8  1  0.65232309  0.16937536  0.24322562  1
  Ni  Ni9  1  0.48429617  0.07530258  0.80918351  1
