# generated using pymatgen
data_Li5Ti2O2
_symmetry_space_group_name_H-M   'P 1'
_cell_length_a   6.57830433
_cell_length_b   6.52338030
_cell_length_c   7.92025791
_cell_angle_alpha   92.53973207
_cell_angle_beta   95.28236083
_cell_angle_gamma   95.15604177
_symmetry_Int_Tables_number   1
_chemical_formula_structural   Li5Ti2O2
_chemical_formula_sum   'Li5 Ti2 O2'
_cell_volume   336.59322765
_cell_formula_units_Z   1
loop_
 _symmetry_equiv_pos_site_id
 _symmetry_equiv_pos_as_xyz
  1  'x, y, z'
loop_
 _atom_site_type_symbol
 _atom_site_label
 _atom_site_symmetry_multiplicity
 _atom_site_fract_x
 _atom_site_fract_y
 _atom_site_fract_z
 _atom_site_occupancy
  Li  Li0  1  0.12500000  0.12500000  0.12500000  1
  Li  Li1  1  0.50000000  0.50000000  0.50000000  1
  Li  Li2  1  0.25000000  0.25000000  0.25000000  1
  Li  Li3  1  0.75000000  0.75000000  0.75000000  1
  Li  Li4  1  0.46588157  0.09663304  0.49779639  1
  Ti  Ti5  1  0.72765217  0.07309275  0.13717446  1
  Ti  Ti6  1  0.32750140  0.08831956  0.83308024  1
  O  O7  1  0.27783407  0.92551318  0.04178949  1
  O  O8  1  0.24280528  0.32171526  0.96018597  1
