# generated using pymatgen
data_LiNi(IO)2
_symmetry_space_group_name_H-M   'P 1'
_cell_length_a   7.36748447
_cell_length_b   7.09191545
_cell_length_c   7.77775038
_cell_angle_alpha   92.39083525
_cell_angle_beta   92.73211822
_cell_angle_gamma   92.43319719
_symmetry_Int_Tables_number   1
_chemical_formula_structural   LiNi(IO)2
_chemical_formula_sum   'Li2 Ni2 I4 O4'
_cell_volume   405.16653856
_cell_formula_units_Z   2
loop_
 _symmetry_equiv_pos_site_id
 _symmetry_equiv_pos_as_xyz
  1  'x, y, z'
loop_
 _atom_site_type_symbol
 _atom_site_label
 _atom_site_symmetry_multiplicity
 _atom_site_fract_x
 _atom_site_fract_y
 _atom_site_fract_z
 _atom_site_occupancy
  I  I0  1  0.00000000  0.00000000  0.00000000  1
  I  I1  1  0.50000000  0.50000000  0.50000000  1
  I  I2  1  0.25000000  0.25000000  0.25000000  1
  I  I3  1  0.75000000  0.25000000  0.00000000  1
  Li  Li4  1  0.25000000  0.75000000  0.50000000  1
  Li  Li5  1  0.82276415  0.94767756  0.53765702  1
  Ni  Ni6  1  0.15802736  0.92096079  0.33071430  1
  Ni  Ni7  1  0.75935940  0.34497563  0.61012150  1
  O  O8  1  0.22121158  0.29497032  0.03982837  1
  O  O9  1  0.34664060  0.19966924  0.51849425  1
  O  O10  1  0.86785981  0.37902967  0.88124687  1
  O  O11  1  0.44785651  0.33039462  0.82471812  1
