# generated using pymatgen
data_LiCuAs3
_symmetry_space_group_name_H-M   'P 1'
_cell_length_a   7.54457017
_cell_length_b   7.55910953
_cell_length_c   8.23490444
_cell_angle_alpha   90.86708327
_cell_angle_beta   91.99311189
_cell_angle_gamma   90.95540596
_symmetry_Int_Tables_number   1
_chemical_formula_structural   LiCuAs3
_chemical_formula_sum   'Li2 Cu2 As6'
_cell_volume   469.23111520
_cell_formula_units_Z   2
loop_
 _symmetry_equiv_pos_site_id
 _symmetry_equiv_pos_as_xyz
  1  'x, y, z'
loop_
 _atom_site_type_symbol
 _atom_site_label
 _atom_site_symmetry_multiplicity
 _atom_site_fract_x
 _atom_site_fract_y
 _atom_site_fract_z
 _atom_site_occupancy
  As  As0  1  0.12500000  0.12500000  0.12500000  1
  As  As1  1  0.50000000  0.50000000  0.50000000  1
  As  As2  1  0.25000000  0.25000000  0.25000000  1
  As  As3  1  0.75000000  0.75000000  0.75000000  1
  As  As4  1  0.68479313  0.75861980  0.41370097  1
  As  As5  1  0.55386182  0.28671200  0.76194409  1
  Li  Li6  1  0.17648861  0.67077926  0.83743220  1
  Li  Li7  1  0.03664835  0.63292091  0.25495997  1
  Cu  Cu8  1  0.32917015  0.35546217  0.31179342  1
  Cu  Cu9  1  0.85771702  0.21938113  0.66402966  1
