# generated using pymatgen
data_Li5LuZrVSe
_symmetry_space_group_name_H-M   'P 1'
_cell_length_a   4.62786143
_cell_length_b   4.08676472
_cell_length_c   6.94473108
_cell_angle_alpha   106.77297364
_cell_angle_beta   107.00851035
_cell_angle_gamma   106.82470498
_symmetry_Int_Tables_number   1
_chemical_formula_structural   Li5LuZrVSe
_chemical_formula_sum   'Li5 Lu1 Zr1 V1 Se1'
_cell_volume   109.77479224
_cell_formula_units_Z   1
loop_
 _symmetry_equiv_pos_site_id
 _symmetry_equiv_pos_as_xyz
  1  'x, y, z'
loop_
 _atom_site_type_symbol
 _atom_site_label
 _atom_site_symmetry_multiplicity
 _atom_site_fract_x
 _atom_site_fract_y
 _atom_site_fract_z
 _atom_site_occupancy
  Lu  Lu0  1  0.12500000  0.00000000  0.25000000  1
  Li  Li1  1  0.00000000  0.00000000  0.00000000  1
  Li  Li2  1  0.37500000  0.00000000  0.25000000  1
  Li  Li3  1  0.25000000  0.25000000  0.25000000  1
  Li  Li4  1  0.00000000  0.25000000  0.12500000  1
  Li  Li5  1  0.12247368  0.14808995  0.92797673  1
  Se  Se6  1  0.40161607  0.54083658  0.85115536  1
  V  V7  1  0.18245580  0.46581793  0.48769659  1
  Zr  Zr8  1  0.20990826  0.37082123  0.95402675  1
