# generated using pymatgen
data_Li3LuCu2(NiP2)2
_symmetry_space_group_name_H-M   'P 1'
_cell_length_a   7.54132301
_cell_length_b   7.31396420
_cell_length_c   8.03571032
_cell_angle_alpha   91.74478326
_cell_angle_beta   91.48073858
_cell_angle_gamma   92.02047890
_symmetry_Int_Tables_number   1
_chemical_formula_structural   Li3LuCu2(NiP2)2
_chemical_formula_sum   'Li3 Lu1 Cu2 Ni2 P4'
_cell_volume   442.58374482
_cell_formula_units_Z   1
loop_
 _symmetry_equiv_pos_site_id
 _symmetry_equiv_pos_as_xyz
  1  'x, y, z'
loop_
 _atom_site_type_symbol
 _atom_site_label
 _atom_site_symmetry_multiplicity
 _atom_site_fract_x
 _atom_site_fract_y
 _atom_site_fract_z
 _atom_site_occupancy
  P  P0  1  0.12500000  0.00000000  0.25000000  1
  P  P1  1  0.00000000  0.00000000  0.00000000  1
  P  P2  1  0.37500000  0.00000000  0.25000000  1
  P  P3  1  0.25000000  0.25000000  0.25000000  1
  Lu  Lu4  1  0.00000000  0.25000000  0.12500000  1
  Li  Li5  1  0.11668773  0.31871009  0.20068804  1
  Li  Li6  1  0.89066455  0.22227614  0.70102930  1
  Li  Li7  1  0.96891657  0.99882775  0.67036971  1
  Cu  Cu8  1  0.99427892  0.14643579  0.40996815  1
  Cu  Cu9  1  0.88465371  0.78492795  0.88008806  1
  Ni  Ni10  1  0.95589857  0.25187607  0.42920567  1
  Ni  Ni11  1  0.41948147  0.85923060  0.79203665  1
