# generated using pymatgen
data_Li2Mn2Sb4Mo2P3
_symmetry_space_group_name_H-M   'P 1'
_cell_length_a   4.98218570
_cell_length_b   5.27357760
_cell_length_c   6.33316797
_cell_angle_alpha   101.46719971
_cell_angle_beta   91.66887801
_cell_angle_gamma   101.39175192
_symmetry_Int_Tables_number   1
_chemical_formula_structural   Li2Mn2Sb4Mo2P3
_chemical_formula_sum   'Li2 Mn2 Sb4 Mo2 P3'
_cell_volume   159.45756204
_cell_formula_units_Z   1
loop_
 _symmetry_equiv_pos_site_id
 _symmetry_equiv_pos_as_xyz
  1  'x, y, z'
loop_
 _atom_site_type_symbol
 _atom_site_label
 _atom_site_symmetry_multiplicity
 _atom_site_fract_x
 _atom_site_fract_y
 _atom_site_fract_z
 _atom_site_occupancy
  Mn  Mn0  1  0.00000000  0.00000000  0.00000000  1
  Mn  Mn1  1  0.50000000  0.50000000  0.50000000  1
  Sb  Sb2  1  0.25000000  0.25000000  0.25000000  1
  Sb  Sb3  1  0.75000000  0.25000000  0.00000000  1
  Sb  Sb4  1  0.25000000  0.75000000  0.50000000  1
  Sb  Sb5  1  0.93268376  0.83699509  0.31954355  1
  P  P6  1  0.53316292  0.15423817  0.92900332  1
  P  P7  1  0.50143926  0.83375647  0.41190585  1
  P  P8  1  0.18698069  0.29884271  0.93866034  1
  Mo  Mo9  1  0.31015968  0.93909596  0.73215804  1
  Mo  Mo10  1  0.90715181  0.66075904  0.56995807  1
  Li  Li11  1  0.93223119  0.27911848  0.18449343  1
  Li  Li12  1  0.15837329  0.01000967  0.94510401  1
