# generated using pymatgen
data_Li2TiCu2P4F2
_symmetry_space_group_name_H-M   'P 1'
_cell_length_a   7.54558988
_cell_length_b   7.37643386
_cell_length_c   7.36322900
_cell_angle_alpha   90.80418310
_cell_angle_beta   92.13723913
_cell_angle_gamma   90.62918730
_symmetry_Int_Tables_number   1
_chemical_formula_structural   Li2TiCu2P4F2
_chemical_formula_sum   'Li2 Ti1 Cu2 P4 F2'
_cell_volume   409.48139463
_cell_formula_units_Z   1
loop_
 _symmetry_equiv_pos_site_id
 _symmetry_equiv_pos_as_xyz
  1  'x, y, z'
loop_
 _atom_site_type_symbol
 _atom_site_label
 _atom_site_symmetry_multiplicity
 _atom_site_fract_x
 _atom_site_fract_y
 _atom_site_fract_z
 _atom_site_occupancy
  P  P0  1  0.00000000  0.00000000  0.00000000  1
  P  P1  1  0.50000000  0.50000000  0.50000000  1
  P  P2  1  0.50000000  0.50000000  0.00000000  1
  P  P3  1  0.50000000  0.00000000  0.50000000  1
  Li  Li4  1  0.00000000  0.50000000  0.50000000  1
  Li  Li5  1  0.88243716  0.86286759  0.25274510  1
  Cu  Cu6  1  0.91975124  0.58306882  0.95048730  1
  Cu  Cu7  1  0.16567548  0.03754392  0.96346438  1
  F  F8  1  0.67688224  0.09822366  0.26093230  1
  F  F9  1  0.67285569  0.10453999  0.59053564  1
  Ti  Ti10  1  0.60353903  0.61630747  0.90472699  1
