# generated using pymatgen
data_Li2LuTi2VN5
_symmetry_space_group_name_H-M   'P 1'
_cell_length_a   4.63049087
_cell_length_b   4.28984873
_cell_length_c   6.42356421
_cell_angle_alpha   96.11129470
_cell_angle_beta   102.59209884
_cell_angle_gamma   96.94260768
_symmetry_Int_Tables_number   1
_chemical_formula_structural   Li2LuTi2VN5
_chemical_formula_sum   'Li2 Lu1 Ti2 V1 N5'
_cell_volume   122.44901406
_cell_formula_units_Z   1
loop_
 _symmetry_equiv_pos_site_id
 _symmetry_equiv_pos_as_xyz
  1  'x, y, z'
loop_
 _atom_site_type_symbol
 _atom_site_label
 _atom_site_symmetry_multiplicity
 _atom_site_fract_x
 _atom_site_fract_y
 _atom_site_fract_z
 _atom_site_occupancy
  Lu  Lu0  1  0.00000000  0.00000000  0.00000000  1
  Li  Li1  1  0.50000000  0.50000000  0.50000000  1
  Li  Li2  1  0.50000000  0.50000000  0.00000000  1
  Ti  Ti3  1  0.50000000  0.00000000  0.50000000  1
  Ti  Ti4  1  0.00000000  0.50000000  0.50000000  1
  V  V5  1  0.54714058  0.51736388  0.87696004  1
  N  N6  1  0.09098720  0.97360445  0.92233197  1
  N  N7  1  0.25566405  0.11481586  0.70101275  1
  N  N8  1  0.37017160  0.75218861  0.72279651  1
  N  N9  1  0.61924283  0.02083379  0.24489044  1
  N  N10  1  0.88261912  0.26300514  0.18841770  1
