# generated using pymatgen
data_Li2Ni2As6O5
_symmetry_space_group_name_H-M   'P 1'
_cell_length_a   7.51726536
_cell_length_b   7.28097503
_cell_length_c   8.37685006
_cell_angle_alpha   92.18531671
_cell_angle_beta   92.21357963
_cell_angle_gamma   92.27067875
_symmetry_Int_Tables_number   1
_chemical_formula_structural   Li2Ni2As6O5
_chemical_formula_sum   'Li2 Ni2 As6 O5'
_cell_volume   457.42713039
_cell_formula_units_Z   1
loop_
 _symmetry_equiv_pos_site_id
 _symmetry_equiv_pos_as_xyz
  1  'x, y, z'
loop_
 _atom_site_type_symbol
 _atom_site_label
 _atom_site_symmetry_multiplicity
 _atom_site_fract_x
 _atom_site_fract_y
 _atom_site_fract_z
 _atom_site_occupancy
  Li  Li0  1  0.00000000  0.00000000  0.00000000  1
  Li  Li1  1  0.50000000  0.50000000  0.50000000  1
  Ni  Ni2  1  0.25000000  0.25000000  0.25000000  1
  Ni  Ni3  1  0.75000000  0.25000000  0.00000000  1
  As  As4  1  0.25000000  0.75000000  0.50000000  1
  As  As5  1  0.68557884  0.43900838  0.30512086  1
  As  As6  1  0.58034086  0.33785392  0.87060741  1
  As  As7  1  0.06788010  0.35186301  0.73937365  1
  As  As8  1  0.12475395  0.21888680  0.64606263  1
  As  As9  1  0.29065584  0.20429560  0.94508579  1
  O  O10  1  0.59498246  0.37235925  0.75980440  1
  O  O11  1  0.04572357  0.45516117  0.09460605  1
  O  O12  1  0.23073066  0.81595898  0.95741558  1
  O  O13  1  0.02583254  0.95459060  0.34767959  1
  O  O14  1  0.86852639  0.67967252  0.48488628  1
