# generated using pymatgen
data_Li3Ti3Br5O2
_symmetry_space_group_name_H-M   'P 1'
_cell_length_a   4.32965878
_cell_length_b   4.27034375
_cell_length_c   5.77618817
_cell_angle_alpha   96.87084006
_cell_angle_beta   102.21197230
_cell_angle_gamma   100.59264952
_symmetry_Int_Tables_number   1
_chemical_formula_structural   Li3Ti3Br5O2
_chemical_formula_sum   'Li3 Ti3 Br5 O2'
_cell_volume   101.19507002
_cell_formula_units_Z   1
loop_
 _symmetry_equiv_pos_site_id
 _symmetry_equiv_pos_as_xyz
  1  'x, y, z'
loop_
 _atom_site_type_symbol
 _atom_site_label
 _atom_site_symmetry_multiplicity
 _atom_site_fract_x
 _atom_site_fract_y
 _atom_site_fract_z
 _atom_site_occupancy
  Li  Li0  1  0.12500000  0.12500000  0.12500000  1
  Li  Li1  1  0.50000000  0.50000000  0.50000000  1
  Li  Li2  1  0.25000000  0.25000000  0.25000000  1
  Br  Br3  1  0.75000000  0.75000000  0.75000000  1
  Br  Br4  1  0.28993389  0.02291465  0.87069793  1
  Br  Br5  1  0.50381785  0.87036879  0.95834913  1
  Br  Br6  1  0.00206341  0.39060198  0.22942964  1
  Br  Br7  1  0.58798964  0.91169427  0.96634771  1
  Ti  Ti8  1  0.33448365  0.76293452  0.20182538  1
  Ti  Ti9  1  0.64476812  0.12654102  0.59516944  1
  Ti  Ti10  1  0.40980417  0.76788480  0.54680052  1
  O  O11  1  0.90792766  0.85149024  0.75365578  1
  O  O12  1  0.02564355  0.38107132  0.41843555  1
