# generated using pymatgen
data_LiMn3Mo2P2N
_symmetry_space_group_name_H-M   'P 1'
_cell_length_a   4.40738251
_cell_length_b   4.42580461
_cell_length_c   5.33169551
_cell_angle_alpha   99.17035710
_cell_angle_beta   92.98536848
_cell_angle_gamma   96.24181420
_symmetry_Int_Tables_number   1
_chemical_formula_structural   LiMn3Mo2P2N
_chemical_formula_sum   'Li1 Mn3 Mo2 P2 N1'
_cell_volume   101.80769528
_cell_formula_units_Z   1
loop_
 _symmetry_equiv_pos_site_id
 _symmetry_equiv_pos_as_xyz
  1  'x, y, z'
loop_
 _atom_site_type_symbol
 _atom_site_label
 _atom_site_symmetry_multiplicity
 _atom_site_fract_x
 _atom_site_fract_y
 _atom_site_fract_z
 _atom_site_occupancy
  N  N0  1  0.12500000  0.00000000  0.25000000  1
  Mn  Mn1  1  0.00000000  0.00000000  0.00000000  1
  Mn  Mn2  1  0.37500000  0.00000000  0.25000000  1
  Mn  Mn3  1  0.25000000  0.25000000  0.25000000  1
  P  P4  1  0.00000000  0.25000000  0.12500000  1
  P  P5  1  0.42568791  0.96488844  0.13071103  1
  Mo  Mo6  1  0.82877034  0.04724935  0.79446721  1
  Mo  Mo7  1  0.59645310  0.71514659  0.46300729  1
  Li  Li8  1  0.65211540  0.48152690  0.23350850  1
