# generated using pymatgen
data_Li2LuCu2(As3P2)2
_symmetry_space_group_name_H-M   'P 1'
_cell_length_a   7.33164150
_cell_length_b   7.27482822
_cell_length_c   8.31721740
_cell_angle_alpha   92.78250258
_cell_angle_beta   93.82038133
_cell_angle_gamma   92.82972736
_symmetry_Int_Tables_number   1
_chemical_formula_structural   Li2LuCu2(As3P2)2
_chemical_formula_sum   'Li2 Lu1 Cu2 As6 P4'
_cell_volume   441.48681234
_cell_formula_units_Z   1
loop_
 _symmetry_equiv_pos_site_id
 _symmetry_equiv_pos_as_xyz
  1  'x, y, z'
loop_
 _atom_site_type_symbol
 _atom_site_label
 _atom_site_symmetry_multiplicity
 _atom_site_fract_x
 _atom_site_fract_y
 _atom_site_fract_z
 _atom_site_occupancy
  P  P0  1  0.00000000  0.00000000  0.00000000  1
  P  P1  1  0.50000000  0.50000000  0.50000000  1
  P  P2  1  0.25000000  0.25000000  0.25000000  1
  P  P3  1  0.75000000  0.25000000  0.00000000  1
  Lu  Lu4  1  0.25000000  0.75000000  0.50000000  1
  Li  Li5  1  0.58862678  0.57541312  0.24409313  1
  Li  Li6  1  0.73183835  0.96452788  0.54831569  1
  Cu  Cu7  1  0.04729832  0.16333437  0.76828824  1
  Cu  Cu8  1  0.93231242  0.52247591  0.45346861  1
  As  As9  1  0.98687947  0.45994604  0.73907105  1
  As  As10  1  0.51086641  0.63177259  0.48620990  1
  As  As11  1  0.66670295  0.87901581  0.43997861  1
  As  As12  1  0.26456446  0.88719330  0.28847430  1
  As  As13  1  0.44099771  0.19573802  0.02907357  1
  As  As14  1  0.00144434  0.78928992  0.56410870  1
