# generated using pymatgen
data_Li5Ti2SeO4F3
_symmetry_space_group_name_H-M   'P 1'
_cell_length_a   4.36707186
_cell_length_b   4.01636783
_cell_length_c   6.66143356
_cell_angle_alpha   107.32019578
_cell_angle_beta   112.36720788
_cell_angle_gamma   106.24625117
_symmetry_Int_Tables_number   1
_chemical_formula_structural   Li5Ti2SeO4F3
_chemical_formula_sum   'Li5 Ti2 Se1 O4 F3'
_cell_volume   92.36251186
_cell_formula_units_Z   1
loop_
 _symmetry_equiv_pos_site_id
 _symmetry_equiv_pos_as_xyz
  1  'x, y, z'
loop_
 _atom_site_type_symbol
 _atom_site_label
 _atom_site_symmetry_multiplicity
 _atom_site_fract_x
 _atom_site_fract_y
 _atom_site_fract_z
 _atom_site_occupancy
  Li  Li0  1  0.00000000  0.00000000  0.00000000  1
  Li  Li1  1  0.50000000  0.50000000  0.50000000  1
  Li  Li2  1  0.50000000  0.50000000  0.00000000  1
  Li  Li3  1  0.50000000  0.00000000  0.50000000  1
  Li  Li4  1  0.00000000  0.50000000  0.50000000  1
  Se  Se5  1  0.16497651  0.95236045  0.04824005  1
  F  F6  1  0.88338613  0.40322112  0.78098183  1
  F  F7  1  0.90527922  0.55163792  0.10194718  1
  F  F8  1  0.08177564  0.83117976  0.88238324  1
  Ti  Ti9  1  0.16973671  0.47907643  0.90234050  1
  Ti  Ti10  1  0.92382828  0.50489315  0.42443513  1
  O  O11  1  0.89933286  0.12807024  0.68717628  1
  O  O12  1  0.16449185  0.93167003  0.02401062  1
  O  O13  1  0.48043672  0.06181860  0.09042658  1
  O  O14  1  0.20013035  0.32748400  0.91619049  1
