# generated using pymatgen
data_Li3LuNi2(OF)3
_symmetry_space_group_name_H-M   'P 1'
_cell_length_a   6.74652835
_cell_length_b   6.43125481
_cell_length_c   7.94841823
_cell_angle_alpha   96.50673927
_cell_angle_beta   96.86230311
_cell_angle_gamma   96.51712116
_symmetry_Int_Tables_number   1
_chemical_formula_structural   Li3LuNi2(OF)3
_chemical_formula_sum   'Li3 Lu1 Ni2 O3 F3'
_cell_volume   337.36190632
_cell_formula_units_Z   1
loop_
 _symmetry_equiv_pos_site_id
 _symmetry_equiv_pos_as_xyz
  1  'x, y, z'
loop_
 _atom_site_type_symbol
 _atom_site_label
 _atom_site_symmetry_multiplicity
 _atom_site_fract_x
 _atom_site_fract_y
 _atom_site_fract_z
 _atom_site_occupancy
  Lu  Lu0  1  0.00000000  0.00000000  0.00000000  1
  Li  Li1  1  0.50000000  0.50000000  0.50000000  1
  Li  Li2  1  0.50000000  0.50000000  0.00000000  1
  Li  Li3  1  0.50000000  0.00000000  0.50000000  1
  F  F4  1  0.00000000  0.50000000  0.50000000  1
  F  F5  1  0.65587596  0.27918873  0.70391436  1
  F  F6  1  0.63406266  0.40381053  0.57388022  1
  Ni  Ni7  1  0.03285041  0.36271585  0.83735562  1
  Ni  Ni8  1  0.19433935  0.02599377  0.24006275  1
  O  O9  1  0.02312988  0.46787356  0.23859294  1
  O  O10  1  0.46316254  0.01005212  0.50514880  1
  O  O11  1  0.91488271  0.55646077  0.66084880  1
