# generated using pymatgen
data_Li2LuAs6I4F3
_symmetry_space_group_name_H-M   'P 1'
_cell_length_a   7.45671837
_cell_length_b   7.21556900
_cell_length_c   7.82990139
_cell_angle_alpha   91.98337093
_cell_angle_beta   92.51489815
_cell_angle_gamma   91.99220168
_symmetry_Int_Tables_number   1
_chemical_formula_structural   Li2LuAs6I4F3
_chemical_formula_sum   'Li2 Lu1 As6 I4 F3'
_cell_volume   420.34794697
_cell_formula_units_Z   1
loop_
 _symmetry_equiv_pos_site_id
 _symmetry_equiv_pos_as_xyz
  1  'x, y, z'
loop_
 _atom_site_type_symbol
 _atom_site_label
 _atom_site_symmetry_multiplicity
 _atom_site_fract_x
 _atom_site_fract_y
 _atom_site_fract_z
 _atom_site_occupancy
  I  I0  1  0.12500000  0.00000000  0.25000000  1
  I  I1  1  0.00000000  0.00000000  0.00000000  1
  I  I2  1  0.37500000  0.00000000  0.25000000  1
  I  I3  1  0.25000000  0.25000000  0.25000000  1
  Lu  Lu4  1  0.00000000  0.25000000  0.12500000  1
  Li  Li5  1  0.26019665  0.96526594  0.40735040  1
  Li  Li6  1  0.90713910  0.59305936  0.10738880  1
  F  F7  1  0.20094995  0.41964024  0.62736018  1
  F  F8  1  0.25477605  0.39918599  0.03038941  1
  F  F9  1  0.98208131  0.80319748  0.64806464  1
  As  As10  1  0.15592176  0.88415599  0.16472410  1
  As  As11  1  0.76494685  0.23052839  0.40754294  1
  As  As12  1  0.31898941  0.25714183  0.39776347  1
  As  As13  1  0.84081063  0.24656665  0.36548996  1
  As  As14  1  0.30508894  0.71877056  0.83215534  1
  As  As15  1  0.91435214  0.55558348  0.34036026  1
