# generated using pymatgen
data_Li4As6P3O5
_symmetry_space_group_name_H-M   'P 1'
_cell_length_a   8.21723448
_cell_length_b   7.94577301
_cell_length_c   8.41975656
_cell_angle_alpha   90.00000000
_cell_angle_beta   90.00000000
_cell_angle_gamma   90.00000000
_symmetry_Int_Tables_number   1
_chemical_formula_structural   Li4As6P3O5
_chemical_formula_sum   'Li4 As6 P3 O5'
_cell_volume   549.74510209
_cell_formula_units_Z   1
loop_
 _symmetry_equiv_pos_site_id
 _symmetry_equiv_pos_as_xyz
  1  'x, y, z'
loop_
 _atom_site_type_symbol
 _atom_site_label
 _atom_site_symmetry_multiplicity
 _atom_site_fract_x
 _atom_site_fract_y
 _atom_site_fract_z
 _atom_site_occupancy
  P  P0  1  0.12500000  0.12500000  0.12500000  1
  P  P1  1  0.50000000  0.50000000  0.50000000  1
  P  P2  1  0.25000000  0.25000000  0.25000000  1
  Li  Li3  1  0.75000000  0.75000000  0.75000000  1
  Li  Li4  1  0.31817470  0.75534208  0.09246137  1
  Li  Li5  1  0.42992852  0.32512684  0.91169115  1
  Li  Li6  1  0.62990089  0.94790107  0.94904143  1
  As  As7  1  0.71854758  0.80786771  0.64607786  1
  As  As8  1  0.75102599  0.72088375  0.09896897  1
  As  As9  1  0.51016078  0.47971668  0.29021559  1
  As  As10  1  0.05856631  0.40846531  0.22269900  1
  As  As11  1  0.15695794  0.41317282  0.35228160  1
  As  As12  1  0.01442059  0.15232347  0.25502478  1
  O  O13  1  0.98405580  0.66783947  0.86413057  1
  O  O14  1  0.16855584  0.01884927  0.76965005  1
  O  O15  1  0.29440907  0.41559827  0.03246749  1
  O  O16  1  0.00576220  0.42853484  0.08437788  1
  O  O17  1  0.46106396  0.45890087  0.38251067  1
