# generated using pymatgen
data_Li3Ti2P3Se2O
_symmetry_space_group_name_H-M   'P 1'
_cell_length_a   7.62958023
_cell_length_b   7.20306003
_cell_length_c   6.79617395
_cell_angle_alpha   90.34574281
_cell_angle_beta   91.64493931
_cell_angle_gamma   90.39527636
_symmetry_Int_Tables_number   1
_chemical_formula_structural   Li3Ti2P3Se2O
_chemical_formula_sum   'Li3 Ti2 P3 Se2 O1'
_cell_volume   373.32268565
_cell_formula_units_Z   1
loop_
 _symmetry_equiv_pos_site_id
 _symmetry_equiv_pos_as_xyz
  1  'x, y, z'
loop_
 _atom_site_type_symbol
 _atom_site_label
 _atom_site_symmetry_multiplicity
 _atom_site_fract_x
 _atom_site_fract_y
 _atom_site_fract_z
 _atom_site_occupancy
  P  P0  1  0.12500000  0.00000000  0.25000000  1
  P  P1  1  0.00000000  0.00000000  0.00000000  1
  P  P2  1  0.37500000  0.00000000  0.25000000  1
  Li  Li3  1  0.25000000  0.25000000  0.25000000  1
  Li  Li4  1  0.00000000  0.25000000  0.12500000  1
  Li  Li5  1  0.25475081  0.72772535  0.92419959  1
  Se  Se6  1  0.21937741  0.15550735  0.42739726  1
  Se  Se7  1  0.76880305  0.02567114  0.95967992  1
  Ti  Ti8  1  0.26618496  0.92463385  0.15970698  1
  Ti  Ti9  1  0.70550794  0.67513336  0.63738641  1
  O  O10  1  0.12228925  0.86364291  0.74597578  1
