# generated using pymatgen
data_Li2MnP3
_symmetry_space_group_name_H-M   'P 1'
_cell_length_a   6.56733592
_cell_length_b   7.11603177
_cell_length_c   7.20338559
_cell_angle_alpha   93.68282383
_cell_angle_beta   91.72724256
_cell_angle_gamma   93.82449252
_symmetry_Int_Tables_number   1
_chemical_formula_structural   Li2MnP3
_chemical_formula_sum   'Li2 Mn1 P3'
_cell_volume   334.99477453
_cell_formula_units_Z   1
loop_
 _symmetry_equiv_pos_site_id
 _symmetry_equiv_pos_as_xyz
  1  'x, y, z'
loop_
 _atom_site_type_symbol
 _atom_site_label
 _atom_site_symmetry_multiplicity
 _atom_site_fract_x
 _atom_site_fract_y
 _atom_site_fract_z
 _atom_site_occupancy
  Mn  Mn0  1  0.00000000  0.00000000  0.00000000  1
  P  P1  1  0.33300000  0.66700000  0.25000000  1
  P  P2  1  0.66700000  0.33300000  0.50000000  1
  P  P3  1  0.00000000  0.00000000  0.75000000  1
  Li  Li4  1  0.66615099  0.45061832  0.19196297  1
  Li  Li5  1  0.88056968  0.42408283  0.05440047  1
