# generated using pymatgen
data_Li2TiAs6I4O3
_symmetry_space_group_name_H-M   'P 1'
_cell_length_a   8.17907694
_cell_length_b   8.02262786
_cell_length_c   7.66516442
_cell_angle_alpha   90.76602237
_cell_angle_beta   91.16719781
_cell_angle_gamma   90.83782312
_symmetry_Int_Tables_number   1
_chemical_formula_structural   Li2TiAs6I4O3
_chemical_formula_sum   'Li2 Ti1 As6 I4 O3'
_cell_volume   502.76527193
_cell_formula_units_Z   1
loop_
 _symmetry_equiv_pos_site_id
 _symmetry_equiv_pos_as_xyz
  1  'x, y, z'
loop_
 _atom_site_type_symbol
 _atom_site_label
 _atom_site_symmetry_multiplicity
 _atom_site_fract_x
 _atom_site_fract_y
 _atom_site_fract_z
 _atom_site_occupancy
  I  I0  1  0.12500000  0.00000000  0.25000000  1
  I  I1  1  0.00000000  0.00000000  0.00000000  1
  I  I2  1  0.37500000  0.00000000  0.25000000  1
  I  I3  1  0.25000000  0.25000000  0.25000000  1
  Li  Li4  1  0.00000000  0.25000000  0.12500000  1
  Li  Li5  1  0.13447515  0.93854750  0.97369871  1
  Ti  Ti6  1  0.05314616  0.07857950  0.15769834  1
  As  As7  1  0.52965343  0.89836794  0.11347896  1
  As  As8  1  0.51900329  0.01683418  0.07241522  1
  As  As9  1  0.44019194  0.88666758  0.99245793  1
  As  As10  1  0.03215560  0.92502446  0.94054409  1
  As  As11  1  0.68523876  0.62580557  0.74431778  1
  As  As12  1  0.90415967  0.77130673  0.86140143  1
  O  O13  1  0.26767094  0.03401813  0.22082417  1
  O  O14  1  0.77042077  0.25992631  0.26878634  1
  O  O15  1  0.44131397  0.71489972  0.25127410  1
