# generated using pymatgen
data_Li2MnSb4P3
_symmetry_space_group_name_H-M   'P 1'
_cell_length_a   4.89862316
_cell_length_b   5.22293398
_cell_length_c   6.61750130
_cell_angle_alpha   99.87675396
_cell_angle_beta   94.42975133
_cell_angle_gamma   100.22849435
_symmetry_Int_Tables_number   1
_chemical_formula_structural   Li2MnSb4P3
_chemical_formula_sum   'Li2 Mn1 Sb4 P3'
_cell_volume   163.13388736
_cell_formula_units_Z   1
loop_
 _symmetry_equiv_pos_site_id
 _symmetry_equiv_pos_as_xyz
  1  'x, y, z'
loop_
 _atom_site_type_symbol
 _atom_site_label
 _atom_site_symmetry_multiplicity
 _atom_site_fract_x
 _atom_site_fract_y
 _atom_site_fract_z
 _atom_site_occupancy
  Mn  Mn0  1  0.12500000  0.12500000  0.12500000  1
  Sb  Sb1  1  0.50000000  0.50000000  0.50000000  1
  Sb  Sb2  1  0.25000000  0.25000000  0.25000000  1
  Sb  Sb3  1  0.75000000  0.75000000  0.75000000  1
  Sb  Sb4  1  0.73614763  0.97921597  0.58225282  1
  P  P5  1  0.37018720  0.20672335  0.92309880  1
  P  P6  1  0.44602003  0.47307259  0.34553204  1
  P  P7  1  0.82569717  0.25831459  0.95779890  1
  Li  Li8  1  0.45967238  0.59184039  0.26542384  1
  Li  Li9  1  0.12884404  0.51624585  0.55042625  1
