# generated using pymatgen
data_Li2Mn2Sb4Mo2P3
_symmetry_space_group_name_H-M   'P 1'
_cell_length_a   5.04010769
_cell_length_b   5.34911792
_cell_length_c   6.42333368
_cell_angle_alpha   100.82909245
_cell_angle_beta   92.15956753
_cell_angle_gamma   100.83911123
_symmetry_Int_Tables_number   1
_chemical_formula_structural   Li2Mn2Sb4Mo2P3
_chemical_formula_sum   'Li2 Mn2 Sb4 Mo2 P3'
_cell_volume   166.57628165
_cell_formula_units_Z   1
loop_
 _symmetry_equiv_pos_site_id
 _symmetry_equiv_pos_as_xyz
  1  'x, y, z'
loop_
 _atom_site_type_symbol
 _atom_site_label
 _atom_site_symmetry_multiplicity
 _atom_site_fract_x
 _atom_site_fract_y
 _atom_site_fract_z
 _atom_site_occupancy
  Mn  Mn0  1  0.00000000  0.00000000  0.00000000  1
  Mn  Mn1  1  0.50000000  0.50000000  0.50000000  1
  Sb  Sb2  1  0.25000000  0.25000000  0.25000000  1
  Sb  Sb3  1  0.75000000  0.25000000  0.00000000  1
  Sb  Sb4  1  0.25000000  0.75000000  0.50000000  1
  Sb  Sb5  1  0.31909370  0.17897392  0.71652953  1
  P  P6  1  0.71817653  0.56587514  0.74341938  1
  P  P7  1  0.12867304  0.36203758  0.01378856  1
  P  P8  1  0.56127185  0.69422158  0.99578210  1
  Mo  Mo9  1  0.76085099  0.10133428  0.10324395  1
  Mo  Mo10  1  0.72231707  0.58596269  0.79251877  1
  Li  Li11  1  0.01773362  0.88783166  0.35177147  1
  Li  Li12  1  0.09380492  0.73563004  0.49747174  1
