# generated using pymatgen
data_Li3LuNi2P4N5
_symmetry_space_group_name_H-M   'P 1'
_cell_length_a   7.45063298
_cell_length_b   7.33020635
_cell_length_c   8.67109374
_cell_angle_alpha   92.13471302
_cell_angle_beta   91.71729045
_cell_angle_gamma   92.47237795
_symmetry_Int_Tables_number   1
_chemical_formula_structural   Li3LuNi2P4N5
_chemical_formula_sum   'Li3 Lu1 Ni2 P4 N5'
_cell_volume   472.56330080
_cell_formula_units_Z   1
loop_
 _symmetry_equiv_pos_site_id
 _symmetry_equiv_pos_as_xyz
  1  'x, y, z'
loop_
 _atom_site_type_symbol
 _atom_site_label
 _atom_site_symmetry_multiplicity
 _atom_site_fract_x
 _atom_site_fract_y
 _atom_site_fract_z
 _atom_site_occupancy
  Ni  Ni0  1  0.12500000  0.00000000  0.25000000  1
  Ni  Ni1  1  0.00000000  0.00000000  0.00000000  1
  P  P2  1  0.37500000  0.00000000  0.25000000  1
  P  P3  1  0.25000000  0.25000000  0.25000000  1
  P  P4  1  0.00000000  0.25000000  0.12500000  1
  P  P5  1  0.78632692  0.19696602  0.87547302  1
  Lu  Lu6  1  0.71344817  0.36656603  0.21092769  1
  Li  Li7  1  0.24899359  0.51082981  0.53572549  1
  Li  Li8  1  0.83408354  0.01678185  0.59256555  1
  Li  Li9  1  0.62740638  0.99766906  0.56771917  1
  N  N10  1  0.47651637  0.14888132  0.68571429  1
  N  N11  1  0.44797542  0.38789943  0.31515408  1
  N  N12  1  0.98098184  0.25131194  0.95686291  1
  N  N13  1  0.52974908  0.05544717  0.70313617  1
  N  N14  1  0.34457886  0.89363718  0.78929016  1
