# generated using pymatgen
data_LiTi2Se2Br3O
_symmetry_space_group_name_H-M   'P 1'
_cell_length_a   7.62283587
_cell_length_b   7.79459658
_cell_length_c   7.62015126
_cell_angle_alpha   90.19475819
_cell_angle_beta   90.92660034
_cell_angle_gamma   90.22266062
_symmetry_Int_Tables_number   1
_chemical_formula_structural   LiTi2Se2Br3O
_chemical_formula_sum   'Li1 Ti2 Se2 Br3 O1'
_cell_volume   452.70065731
_cell_formula_units_Z   1
loop_
 _symmetry_equiv_pos_site_id
 _symmetry_equiv_pos_as_xyz
  1  'x, y, z'
loop_
 _atom_site_type_symbol
 _atom_site_label
 _atom_site_symmetry_multiplicity
 _atom_site_fract_x
 _atom_site_fract_y
 _atom_site_fract_z
 _atom_site_occupancy
  Li  Li0  1  0.00000000  0.00000000  0.00000000  1
  Br  Br1  1  0.50000000  0.50000000  0.50000000  1
  Br  Br2  1  0.25000000  0.25000000  0.25000000  1
  Br  Br3  1  0.75000000  0.25000000  0.00000000  1
  Se  Se4  1  0.25000000  0.75000000  0.50000000  1
  Se  Se5  1  0.28095656  0.66658702  0.62946397  1
  Ti  Ti6  1  0.55068793  0.90279959  0.60289762  1
  Ti  Ti7  1  0.44658743  0.99403402  0.85462753  1
  O  O8  1  0.83468835  0.30229602  0.78828772  1
