# generated using pymatgen
data_Li2LuP5I4
_symmetry_space_group_name_H-M   'P 1'
_cell_length_a   7.62825916
_cell_length_b   7.44783425
_cell_length_c   8.00890136
_cell_angle_alpha   92.22536664
_cell_angle_beta   92.45359650
_cell_angle_gamma   92.36313796
_symmetry_Int_Tables_number   1
_chemical_formula_structural   Li2LuP5I4
_chemical_formula_sum   'Li2 Lu1 P5 I4'
_cell_volume   453.83829117
_cell_formula_units_Z   1
loop_
 _symmetry_equiv_pos_site_id
 _symmetry_equiv_pos_as_xyz
  1  'x, y, z'
loop_
 _atom_site_type_symbol
 _atom_site_label
 _atom_site_symmetry_multiplicity
 _atom_site_fract_x
 _atom_site_fract_y
 _atom_site_fract_z
 _atom_site_occupancy
  I  I0  1  0.12500000  0.00000000  0.25000000  1
  I  I1  1  0.00000000  0.00000000  0.00000000  1
  I  I2  1  0.37500000  0.00000000  0.25000000  1
  I  I3  1  0.25000000  0.25000000  0.25000000  1
  P  P4  1  0.00000000  0.25000000  0.12500000  1
  P  P5  1  0.02170378  0.14930541  0.77313102  1
  P  P6  1  0.05021575  0.76652073  0.19804890  1
  P  P7  1  0.33156302  0.72338336  0.55903212  1
  P  P8  1  0.44684816  0.11526165  0.54284334  1
  Lu  Lu9  1  0.70365068  0.48053708  0.23769367  1
  Li  Li10  1  0.13430582  0.05367164  0.87547130  1
  Li  Li11  1  0.03952760  0.92403792  0.37727501  1
