# generated using pymatgen
data_Li2Mn2(SbP)3
_symmetry_space_group_name_H-M   'P 1'
_cell_length_a   6.09872651
_cell_length_b   6.60688345
_cell_length_c   7.21960945
_cell_angle_alpha   93.71525353
_cell_angle_beta   94.27967034
_cell_angle_gamma   94.17470226
_symmetry_Int_Tables_number   1
_chemical_formula_structural   Li2Mn2(SbP)3
_chemical_formula_sum   'Li2 Mn2 Sb3 P3'
_cell_volume   288.60080611
_cell_formula_units_Z   1
loop_
 _symmetry_equiv_pos_site_id
 _symmetry_equiv_pos_as_xyz
  1  'x, y, z'
loop_
 _atom_site_type_symbol
 _atom_site_label
 _atom_site_symmetry_multiplicity
 _atom_site_fract_x
 _atom_site_fract_y
 _atom_site_fract_z
 _atom_site_occupancy
  Mn  Mn0  1  0.00000000  0.00000000  0.00000000  1
  Mn  Mn1  1  0.50000000  0.50000000  0.50000000  1
  Sb  Sb2  1  0.25000000  0.25000000  0.25000000  1
  Sb  Sb3  1  0.75000000  0.25000000  0.00000000  1
  Sb  Sb4  1  0.25000000  0.75000000  0.50000000  1
  P  P5  1  0.14676011  0.57608201  0.13088156  1
  P  P6  1  0.54644964  0.36114164  0.36652490  1
  P  P7  1  0.25220825  0.63878686  0.07968427  1
  Li  Li8  1  0.26426146  0.29831763  0.22708030  1
  Li  Li9  1  0.12074124  0.21343112  0.33204420  1
