# generated using pymatgen
data_Li2Mn2Sb4P3
_symmetry_space_group_name_H-M   'P 1'
_cell_length_a   7.04048872
_cell_length_b   7.24984014
_cell_length_c   7.61172607
_cell_angle_alpha   91.98823371
_cell_angle_beta   92.35524654
_cell_angle_gamma   92.26285545
_symmetry_Int_Tables_number   1
_chemical_formula_structural   Li2Mn2Sb4P3
_chemical_formula_sum   'Li2 Mn2 Sb4 P3'
_cell_volume   387.63326593
_cell_formula_units_Z   1
loop_
 _symmetry_equiv_pos_site_id
 _symmetry_equiv_pos_as_xyz
  1  'x, y, z'
loop_
 _atom_site_type_symbol
 _atom_site_label
 _atom_site_symmetry_multiplicity
 _atom_site_fract_x
 _atom_site_fract_y
 _atom_site_fract_z
 _atom_site_occupancy
  Mn  Mn0  1  0.00000000  0.00000000  0.00000000  1
  Mn  Mn1  1  0.50000000  0.50000000  0.50000000  1
  Sb  Sb2  1  0.25000000  0.25000000  0.25000000  1
  Sb  Sb3  1  0.75000000  0.25000000  0.00000000  1
  Sb  Sb4  1  0.25000000  0.75000000  0.50000000  1
  Sb  Sb5  1  0.99586992  0.23079336  0.00063989  1
  P  P6  1  0.51799463  0.79189546  0.71755691  1
  P  P7  1  0.27540870  0.77568669  0.60371186  1
  P  P8  1  0.84208483  0.34580845  0.00185907  1
  Li  Li9  1  0.74802771  0.69649051  0.77263910  1
  Li  Li10  1  0.71984024  0.25730377  0.61247788  1
