# generated using pymatgen
data_LiTi3Nb2P4F3
_symmetry_space_group_name_H-M   'P 1'
_cell_length_a   6.68544918
_cell_length_b   6.63761603
_cell_length_c   7.73023816
_cell_angle_alpha   94.42186045
_cell_angle_beta   96.66166820
_cell_angle_gamma   94.29520744
_symmetry_Int_Tables_number   1
_chemical_formula_structural   LiTi3Nb2P4F3
_chemical_formula_sum   'Li1 Ti3 Nb2 P4 F3'
_cell_volume   338.48298614
_cell_formula_units_Z   1
loop_
 _symmetry_equiv_pos_site_id
 _symmetry_equiv_pos_as_xyz
  1  'x, y, z'
loop_
 _atom_site_type_symbol
 _atom_site_label
 _atom_site_symmetry_multiplicity
 _atom_site_fract_x
 _atom_site_fract_y
 _atom_site_fract_z
 _atom_site_occupancy
  F  F0  1  0.12500000  0.00000000  0.25000000  1
  F  F1  1  0.00000000  0.00000000  0.00000000  1
  F  F2  1  0.37500000  0.00000000  0.25000000  1
  Ti  Ti3  1  0.25000000  0.25000000  0.25000000  1
  Ti  Ti4  1  0.00000000  0.25000000  0.12500000  1
  Ti  Ti5  1  0.18539893  0.02283006  0.85158024  1
  P  P6  1  0.49906205  0.98972669  0.11007273  1
  P  P7  1  0.68111819  0.41594147  0.80348571  1
  P  P8  1  0.04543162  0.77226731  0.75771817  1
  P  P9  1  0.33309142  0.01166624  0.97011839  1
  Li  Li10  1  0.20032346  0.80321817  0.27628210  1
  Nb  Nb11  1  0.91806107  0.21442225  0.83020020  1
  Nb  Nb12  1  0.43169818  0.55423081  0.01627584  1
