# generated using pymatgen
data_Li2Sb2Mo2P3
_symmetry_space_group_name_H-M   'P 1'
_cell_length_a   5.45082052
_cell_length_b   5.78524771
_cell_length_c   6.40344884
_cell_angle_alpha   98.91697267
_cell_angle_beta   90.75469655
_cell_angle_gamma   98.69952817
_symmetry_Int_Tables_number   1
_chemical_formula_structural   Li2Sb2Mo2P3
_chemical_formula_sum   'Li2 Sb2 Mo2 P3'
_cell_volume   197.05431616
_cell_formula_units_Z   1
loop_
 _symmetry_equiv_pos_site_id
 _symmetry_equiv_pos_as_xyz
  1  'x, y, z'
loop_
 _atom_site_type_symbol
 _atom_site_label
 _atom_site_symmetry_multiplicity
 _atom_site_fract_x
 _atom_site_fract_y
 _atom_site_fract_z
 _atom_site_occupancy
  Sb  Sb0  1  0.12500000  0.00000000  0.25000000  1
  Sb  Sb1  1  0.00000000  0.00000000  0.00000000  1
  P  P2  1  0.37500000  0.00000000  0.25000000  1
  P  P3  1  0.25000000  0.25000000  0.25000000  1
  P  P4  1  0.00000000  0.25000000  0.12500000  1
  Mo  Mo5  1  0.66027907  0.47659167  0.34933473  1
  Mo  Mo6  1  0.50933700  0.01648689  0.53999691  1
  Li  Li7  1  0.37632938  0.14734058  0.22662761  1
  Li  Li8  1  0.97856681  0.06650910  0.14031446  1
