# generated using pymatgen
data_Li2Mn2Sb4P3
_symmetry_space_group_name_H-M   'P 1'
_cell_length_a   6.79700794
_cell_length_b   7.39467177
_cell_length_c   7.41249584
_cell_angle_alpha   92.05188170
_cell_angle_beta   92.43064346
_cell_angle_gamma   92.33529471
_symmetry_Int_Tables_number   1
_chemical_formula_structural   Li2Mn2Sb4P3
_chemical_formula_sum   'Li2 Mn2 Sb4 P3'
_cell_volume   371.65691412
_cell_formula_units_Z   1
loop_
 _symmetry_equiv_pos_site_id
 _symmetry_equiv_pos_as_xyz
  1  'x, y, z'
loop_
 _atom_site_type_symbol
 _atom_site_label
 _atom_site_symmetry_multiplicity
 _atom_site_fract_x
 _atom_site_fract_y
 _atom_site_fract_z
 _atom_site_occupancy
  Mn  Mn0  1  0.12500000  0.12500000  0.12500000  1
  Mn  Mn1  1  0.50000000  0.50000000  0.50000000  1
  Sb  Sb2  1  0.25000000  0.25000000  0.25000000  1
  Sb  Sb3  1  0.75000000  0.75000000  0.75000000  1
  Sb  Sb4  1  0.48897496  0.14312843  0.26171028  1
  Sb  Sb5  1  0.41655126  0.11659470  0.03570866  1
  P  P6  1  0.58715997  0.29547138  0.17386571  1
  P  P7  1  0.90189952  0.59919543  0.40670300  1
  P  P8  1  0.80434878  0.40945307  0.23779378  1
  Li  Li9  1  0.46641164  0.18754955  0.33255319  1
  Li  Li10  1  0.61081692  0.50195739  0.32797449  1
