# generated using pymatgen
data_Li2Mn2Sb4P3
_symmetry_space_group_name_H-M   'P 1'
_cell_length_a   5.49911306
_cell_length_b   5.88123161
_cell_length_c   6.66538705
_cell_angle_alpha   98.63518294
_cell_angle_beta   92.09333431
_cell_angle_gamma   98.69487809
_symmetry_Int_Tables_number   1
_chemical_formula_structural   Li2Mn2Sb4P3
_chemical_formula_sum   'Li2 Mn2 Sb4 P3'
_cell_volume   210.28882570
_cell_formula_units_Z   1
loop_
 _symmetry_equiv_pos_site_id
 _symmetry_equiv_pos_as_xyz
  1  'x, y, z'
loop_
 _atom_site_type_symbol
 _atom_site_label
 _atom_site_symmetry_multiplicity
 _atom_site_fract_x
 _atom_site_fract_y
 _atom_site_fract_z
 _atom_site_occupancy
  Mn  Mn0  1  0.00000000  0.00000000  0.00000000  1
  Mn  Mn1  1  0.33300000  0.66700000  0.25000000  1
  Sb  Sb2  1  0.66700000  0.33300000  0.50000000  1
  Sb  Sb3  1  0.00000000  0.00000000  0.75000000  1
  Sb  Sb4  1  0.12735966  0.26704951  0.87691914  1
  Sb  Sb5  1  0.18249686  0.10658519  0.85795575  1
  P  P6  1  0.83701856  0.81073767  0.47821377  1
  P  P7  1  0.04393667  0.99389158  0.94747708  1
  P  P8  1  0.88304707  0.33151166  0.73236391  1
  Li  Li9  1  0.77674331  0.01203520  0.59625145  1
  Li  Li10  1  0.92095059  0.92086176  0.45702424  1
