# generated using pymatgen
data_LiMnSb2P
_symmetry_space_group_name_H-M   'P 1'
_cell_length_a   5.25121982
_cell_length_b   5.65828625
_cell_length_c   6.85236713
_cell_angle_alpha   97.73149756
_cell_angle_beta   96.17869208
_cell_angle_gamma   97.53005111
_symmetry_Int_Tables_number   1
_chemical_formula_structural   LiMnSb2P
_chemical_formula_sum   'Li2 Mn2 Sb4 P2'
_cell_volume   198.38038751
_cell_formula_units_Z   2
loop_
 _symmetry_equiv_pos_site_id
 _symmetry_equiv_pos_as_xyz
  1  'x, y, z'
loop_
 _atom_site_type_symbol
 _atom_site_label
 _atom_site_symmetry_multiplicity
 _atom_site_fract_x
 _atom_site_fract_y
 _atom_site_fract_z
 _atom_site_occupancy
  Mn  Mn0  1  0.00000000  0.00000000  0.00000000  1
  Mn  Mn1  1  0.50000000  0.50000000  0.50000000  1
  Sb  Sb2  1  0.25000000  0.25000000  0.25000000  1
  Sb  Sb3  1  0.75000000  0.25000000  0.00000000  1
  Sb  Sb4  1  0.25000000  0.75000000  0.50000000  1
  Sb  Sb5  1  0.43546107  0.19883769  0.67454671  1
  P  P6  1  0.05916576  0.36545297  0.73567879  1
  P  P7  1  0.45468892  0.16833688  0.49859478  1
  Li  Li8  1  0.05121003  0.84164383  0.63017801  1
  Li  Li9  1  0.31355475  0.45688801  0.52606571  1
