# generated using pymatgen
data_Li2MnMo2P3N
_symmetry_space_group_name_H-M   'P 1'
_cell_length_a   4.82983433
_cell_length_b   5.14808971
_cell_length_c   6.25655536
_cell_angle_alpha   98.38234034
_cell_angle_beta   95.60442694
_cell_angle_gamma   97.69926981
_symmetry_Int_Tables_number   1
_chemical_formula_structural   Li2MnMo2P3N
_chemical_formula_sum   'Li2 Mn1 Mo2 P3 N1'
_cell_volume   151.42279585
_cell_formula_units_Z   1
loop_
 _symmetry_equiv_pos_site_id
 _symmetry_equiv_pos_as_xyz
  1  'x, y, z'
loop_
 _atom_site_type_symbol
 _atom_site_label
 _atom_site_symmetry_multiplicity
 _atom_site_fract_x
 _atom_site_fract_y
 _atom_site_fract_z
 _atom_site_occupancy
  N  N0  1  0.00000000  0.00000000  0.00000000  1
  Mn  Mn1  1  0.50000000  0.50000000  0.50000000  1
  P  P2  1  0.25000000  0.25000000  0.25000000  1
  P  P3  1  0.75000000  0.25000000  0.00000000  1
  P  P4  1  0.25000000  0.75000000  0.50000000  1
  Mo  Mo5  1  0.13455665  0.95025414  0.74089699  1
  Mo  Mo6  1  0.95241546  0.39076570  0.48252421  1
  Li  Li7  1  0.25556479  0.17715794  0.69066616  1
  Li  Li8  1  0.02830232  0.23771653  0.63912383  1
