# generated using pymatgen
data_LiMnSbMoP2
_symmetry_space_group_name_H-M   'P 1'
_cell_length_a   5.54022035
_cell_length_b   5.91510223
_cell_length_c   6.63883864
_cell_angle_alpha   97.29065835
_cell_angle_beta   92.34425123
_cell_angle_gamma   97.33472967
_symmetry_Int_Tables_number   1
_chemical_formula_structural   LiMnSbMoP2
_chemical_formula_sum   'Li2 Mn2 Sb2 Mo2 P4'
_cell_volume   213.67549908
_cell_formula_units_Z   2
loop_
 _symmetry_equiv_pos_site_id
 _symmetry_equiv_pos_as_xyz
  1  'x, y, z'
loop_
 _atom_site_type_symbol
 _atom_site_label
 _atom_site_symmetry_multiplicity
 _atom_site_fract_x
 _atom_site_fract_y
 _atom_site_fract_z
 _atom_site_occupancy
  Mn  Mn0  1  0.12500000  0.00000000  0.25000000  1
  Mn  Mn1  1  0.00000000  0.00000000  0.00000000  1
  Sb  Sb2  1  0.37500000  0.00000000  0.25000000  1
  Sb  Sb3  1  0.25000000  0.25000000  0.25000000  1
  P  P4  1  0.00000000  0.25000000  0.12500000  1
  P  P5  1  0.81886505  0.19213232  0.85648644  1
  P  P6  1  0.59621641  0.33317199  0.50984648  1
  P  P7  1  0.20715534  0.24318392  0.45862359  1
  Mo  Mo8  1  0.94185155  0.89523266  0.95106326  1
  Mo  Mo9  1  0.88050331  0.41885054  0.07057842  1
  Li  Li10  1  0.37799920  0.85712441  0.03252144  1
  Li  Li11  1  0.28522740  0.73565093  0.02503735  1
