# generated using pymatgen
data_Li2Mn2Sb4P3
_symmetry_space_group_name_H-M   'P 1'
_cell_length_a   5.98493681
_cell_length_b   6.02354006
_cell_length_c   7.45065978
_cell_angle_alpha   94.84062041
_cell_angle_beta   95.73416214
_cell_angle_gamma   95.50922369
_symmetry_Int_Tables_number   1
_chemical_formula_structural   Li2Mn2Sb4P3
_chemical_formula_sum   'Li2 Mn2 Sb4 P3'
_cell_volume   264.82122327
_cell_formula_units_Z   1
loop_
 _symmetry_equiv_pos_site_id
 _symmetry_equiv_pos_as_xyz
  1  'x, y, z'
loop_
 _atom_site_type_symbol
 _atom_site_label
 _atom_site_symmetry_multiplicity
 _atom_site_fract_x
 _atom_site_fract_y
 _atom_site_fract_z
 _atom_site_occupancy
  Mn  Mn0  1  0.00000000  0.00000000  0.00000000  1
  Mn  Mn1  1  0.50000000  0.50000000  0.50000000  1
  Sb  Sb2  1  0.25000000  0.25000000  0.25000000  1
  Sb  Sb3  1  0.75000000  0.25000000  0.00000000  1
  Sb  Sb4  1  0.25000000  0.75000000  0.50000000  1
  Sb  Sb5  1  0.53753310  0.00914942  0.11749367  1
  P  P6  1  0.79337762  0.33213985  0.45898608  1
  P  P7  1  0.18269419  0.85559082  0.54875950  1
  P  P8  1  0.25286066  0.06408650  0.04551003  1
  Li  Li9  1  0.90292671  0.22024466  0.96397822  1
  Li  Li10  1  0.58146827  0.14035340  0.22114544  1
