# generated using pymatgen
data_LiTiCu2(I2F)2
_symmetry_space_group_name_H-M   'P 1'
_cell_length_a   7.62824588
_cell_length_b   7.53050407
_cell_length_c   7.68134637
_cell_angle_alpha   91.03937052
_cell_angle_beta   92.72524455
_cell_angle_gamma   91.23454844
_symmetry_Int_Tables_number   1
_chemical_formula_structural   LiTiCu2(I2F)2
_chemical_formula_sum   'Li1 Ti1 Cu2 I4 F2'
_cell_volume   440.56888400
_cell_formula_units_Z   1
loop_
 _symmetry_equiv_pos_site_id
 _symmetry_equiv_pos_as_xyz
  1  'x, y, z'
loop_
 _atom_site_type_symbol
 _atom_site_label
 _atom_site_symmetry_multiplicity
 _atom_site_fract_x
 _atom_site_fract_y
 _atom_site_fract_z
 _atom_site_occupancy
  I  I0  1  0.00000000  0.00000000  0.00000000  1
  I  I1  1  0.50000000  0.50000000  0.50000000  1
  I  I2  1  0.25000000  0.25000000  0.25000000  1
  I  I3  1  0.75000000  0.25000000  0.00000000  1
  Li  Li4  1  0.25000000  0.75000000  0.50000000  1
  Cu  Cu5  1  0.38450453  0.79252293  0.47609743  1
  Cu  Cu6  1  0.57897158  0.17353104  0.56418804  1
  F  F7  1  0.78466200  0.70290641  0.43905110  1
  F  F8  1  0.83016208  0.33603282  0.96062817  1
  Ti  Ti9  1  0.50279888  0.61448296  0.55228982  1
