# generated using pymatgen
data_Li(MnP)2
_symmetry_space_group_name_H-M   'P 1'
_cell_length_a   5.81631433
_cell_length_b   6.13902525
_cell_length_c   6.82395272
_cell_angle_alpha   96.67088203
_cell_angle_beta   94.75442022
_cell_angle_gamma   96.55473985
_symmetry_Int_Tables_number   1
_chemical_formula_structural   Li(MnP)2
_chemical_formula_sum   'Li1 Mn2 P2'
_cell_volume   239.28384038
_cell_formula_units_Z   1
loop_
 _symmetry_equiv_pos_site_id
 _symmetry_equiv_pos_as_xyz
  1  'x, y, z'
loop_
 _atom_site_type_symbol
 _atom_site_label
 _atom_site_symmetry_multiplicity
 _atom_site_fract_x
 _atom_site_fract_y
 _atom_site_fract_z
 _atom_site_occupancy
  Mn  Mn0  1  0.00000000  0.00000000  0.00000000  1
  Mn  Mn1  1  0.33300000  0.66700000  0.25000000  1
  P  P2  1  0.66700000  0.33300000  0.50000000  1
  P  P3  1  0.00000000  0.00000000  0.75000000  1
  Li  Li4  1  0.02464293  0.69265411  0.14741089  1
