# generated using pymatgen
data_Li3TiNi2(IO)4
_symmetry_space_group_name_H-M   'P 1'
_cell_length_a   8.72663566
_cell_length_b   8.74260863
_cell_length_c   7.58657075
_cell_angle_alpha   90.00000000
_cell_angle_beta   90.00000000
_cell_angle_gamma   90.00000000
_symmetry_Int_Tables_number   1
_chemical_formula_structural   Li3TiNi2(IO)4
_chemical_formula_sum   'Li3 Ti1 Ni2 I4 O4'
_cell_volume   578.80649210
_cell_formula_units_Z   1
loop_
 _symmetry_equiv_pos_site_id
 _symmetry_equiv_pos_as_xyz
  1  'x, y, z'
loop_
 _atom_site_type_symbol
 _atom_site_label
 _atom_site_symmetry_multiplicity
 _atom_site_fract_x
 _atom_site_fract_y
 _atom_site_fract_z
 _atom_site_occupancy
  I  I0  1  0.00000000  0.00000000  0.00000000  1
  I  I1  1  0.50000000  0.50000000  0.50000000  1
  I  I2  1  0.50000000  0.50000000  0.00000000  1
  I  I3  1  0.50000000  0.00000000  0.50000000  1
  Li  Li4  1  0.00000000  0.50000000  0.50000000  1
  Li  Li5  1  0.32870566  0.27914618  0.78303839  1
  Li  Li6  1  0.95303448  0.83547643  0.13614183  1
  Ni  Ni7  1  0.79656536  0.65383540  0.34617215  1
  Ni  Ni8  1  0.23856155  0.76691418  0.24254808  1
  Ti  Ti9  1  0.70506049  0.64929851  0.36850889  1
  O  O10  1  0.55285316  0.33317771  0.82570470  1
  O  O11  1  0.29050784  0.07392741  0.13414647  1
  O  O12  1  0.43041640  0.53343442  0.94186728  1
  O  O13  1  0.92955192  0.58544446  0.45537058  1
