# generated using pymatgen
data_Li3LuCu2P4N5
_symmetry_space_group_name_H-M   'P 1'
_cell_length_a   7.44177178
_cell_length_b   7.23252607
_cell_length_c   8.21417103
_cell_angle_alpha   92.69583460
_cell_angle_beta   92.33961336
_cell_angle_gamma   92.93374599
_symmetry_Int_Tables_number   1
_chemical_formula_structural   Li3LuCu2P4N5
_chemical_formula_sum   'Li3 Lu1 Cu2 P4 N5'
_cell_volume   440.62736841
_cell_formula_units_Z   1
loop_
 _symmetry_equiv_pos_site_id
 _symmetry_equiv_pos_as_xyz
  1  'x, y, z'
loop_
 _atom_site_type_symbol
 _atom_site_label
 _atom_site_symmetry_multiplicity
 _atom_site_fract_x
 _atom_site_fract_y
 _atom_site_fract_z
 _atom_site_occupancy
  P  P0  1  0.00000000  0.00000000  0.00000000  1
  P  P1  1  0.50000000  0.50000000  0.50000000  1
  P  P2  1  0.25000000  0.25000000  0.25000000  1
  P  P3  1  0.75000000  0.25000000  0.00000000  1
  Lu  Lu4  1  0.25000000  0.75000000  0.50000000  1
  Li  Li5  1  0.53520279  0.80673985  0.50258116  1
  Li  Li6  1  0.61454832  0.16235378  0.28139229  1
  Li  Li7  1  0.17385632  0.06841411  0.39728716  1
  Cu  Cu8  1  0.23931924  0.03215466  0.84624478  1
  Cu  Cu9  1  0.99352290  0.50416734  0.26105119  1
  N  N10  1  0.35108906  0.14074667  0.64281270  1
  N  N11  1  0.89888232  0.96687978  0.51631643  1
  N  N12  1  0.57291884  0.46041568  0.79241781  1
  N  N13  1  0.63584388  0.61334756  0.44245733  1
  N  N14  1  0.32617374  0.76020088  0.57772517  1
