# generated using pymatgen
data_LiMn2(MoP)2
_symmetry_space_group_name_H-M   'P 1'
_cell_length_a   5.34159316
_cell_length_b   5.67533999
_cell_length_c   6.42575414
_cell_angle_alpha   96.64250743
_cell_angle_beta   93.34949687
_cell_angle_gamma   96.16990893
_symmetry_Int_Tables_number   1
_chemical_formula_structural   LiMn2(MoP)2
_chemical_formula_sum   'Li1 Mn2 Mo2 P2'
_cell_volume   191.87474736
_cell_formula_units_Z   1
loop_
 _symmetry_equiv_pos_site_id
 _symmetry_equiv_pos_as_xyz
  1  'x, y, z'
loop_
 _atom_site_type_symbol
 _atom_site_label
 _atom_site_symmetry_multiplicity
 _atom_site_fract_x
 _atom_site_fract_y
 _atom_site_fract_z
 _atom_site_occupancy
  Mn  Mn0  1  0.12500000  0.12500000  0.12500000  1
  Mn  Mn1  1  0.50000000  0.50000000  0.50000000  1
  P  P2  1  0.25000000  0.25000000  0.25000000  1
  P  P3  1  0.75000000  0.75000000  0.75000000  1
  Mo  Mo4  1  0.42587230  0.73905857  0.63143393  1
  Mo  Mo5  1  0.36133621  0.01388366  0.30185005  1
  Li  Li6  1  0.90233507  0.66591880  0.48974413  1
