# generated using pymatgen
data_Li2Mn2Sb4P3
_symmetry_space_group_name_H-M   'P 1'
_cell_length_a   5.75947457
_cell_length_b   6.22354754
_cell_length_c   7.09028764
_cell_angle_alpha   95.64809154
_cell_angle_beta   94.46308079
_cell_angle_gamma   96.11800111
_symmetry_Int_Tables_number   1
_chemical_formula_structural   Li2Mn2Sb4P3
_chemical_formula_sum   'Li2 Mn2 Sb4 P3'
_cell_volume   250.46909267
_cell_formula_units_Z   1
loop_
 _symmetry_equiv_pos_site_id
 _symmetry_equiv_pos_as_xyz
  1  'x, y, z'
loop_
 _atom_site_type_symbol
 _atom_site_label
 _atom_site_symmetry_multiplicity
 _atom_site_fract_x
 _atom_site_fract_y
 _atom_site_fract_z
 _atom_site_occupancy
  Mn  Mn0  1  0.12500000  0.12500000  0.12500000  1
  Mn  Mn1  1  0.50000000  0.50000000  0.50000000  1
  Sb  Sb2  1  0.25000000  0.25000000  0.25000000  1
  Sb  Sb3  1  0.75000000  0.75000000  0.75000000  1
  Sb  Sb4  1  0.90057403  0.46200282  0.83151351  1
  Sb  Sb5  1  0.60962359  0.66025494  0.88835374  1
  P  P6  1  0.37640886  0.44232920  0.99135912  1
  P  P7  1  0.36103675  0.27964467  0.27559531  1
  P  P8  1  0.74874672  0.73256905  0.80249861  1
  Li  Li9  1  0.39994514  0.44379195  0.46130920  1
  Li  Li10  1  0.16106127  0.83772419  0.14876044  1
