# generated using pymatgen
data_Li2MnSb4P3
_symmetry_space_group_name_H-M   'P 1'
_cell_length_a   5.81209424
_cell_length_b   6.28257705
_cell_length_c   7.10403324
_cell_angle_alpha   95.48143281
_cell_angle_beta   94.33827774
_cell_angle_gamma   95.93843618
_symmetry_Int_Tables_number   1
_chemical_formula_structural   Li2MnSb4P3
_chemical_formula_sum   'Li2 Mn1 Sb4 P3'
_cell_volume   255.87132989
_cell_formula_units_Z   1
loop_
 _symmetry_equiv_pos_site_id
 _symmetry_equiv_pos_as_xyz
  1  'x, y, z'
loop_
 _atom_site_type_symbol
 _atom_site_label
 _atom_site_symmetry_multiplicity
 _atom_site_fract_x
 _atom_site_fract_y
 _atom_site_fract_z
 _atom_site_occupancy
  Mn  Mn0  1  0.12500000  0.12500000  0.12500000  1
  Sb  Sb1  1  0.50000000  0.50000000  0.50000000  1
  Sb  Sb2  1  0.25000000  0.25000000  0.25000000  1
  Sb  Sb3  1  0.75000000  0.75000000  0.75000000  1
  Sb  Sb4  1  0.99190794  0.25230527  0.74440001  1
  P  P5  1  0.07253710  0.48731425  0.22364948  1
  P  P6  1  0.50054034  0.50406757  0.61638301  1
  P  P7  1  0.71215716  0.79553534  0.70396245  1
  Li  Li8  1  0.19394808  0.05462064  0.01455846  1
  Li  Li9  1  0.53951411  0.73938937  0.35667697  1
