# generated using pymatgen
data_Li3Ni2As6I4O5
_symmetry_space_group_name_H-M   'P 1'
_cell_length_a   8.41053977
_cell_length_b   8.48590165
_cell_length_c   8.81777132
_cell_angle_alpha   90.00000000
_cell_angle_beta   90.00000000
_cell_angle_gamma   90.00000000
_symmetry_Int_Tables_number   1
_chemical_formula_structural   Li3Ni2As6I4O5
_chemical_formula_sum   'Li3 Ni2 As6 I4 O5'
_cell_volume   629.33327471
_cell_formula_units_Z   1
loop_
 _symmetry_equiv_pos_site_id
 _symmetry_equiv_pos_as_xyz
  1  'x, y, z'
loop_
 _atom_site_type_symbol
 _atom_site_label
 _atom_site_symmetry_multiplicity
 _atom_site_fract_x
 _atom_site_fract_y
 _atom_site_fract_z
 _atom_site_occupancy
  I  I0  1  0.12500000  0.00000000  0.25000000  1
  I  I1  1  0.00000000  0.00000000  0.00000000  1
  I  I2  1  0.37500000  0.00000000  0.25000000  1
  I  I3  1  0.25000000  0.25000000  0.25000000  1
  Li  Li4  1  0.00000000  0.25000000  0.12500000  1
  Li  Li5  1  0.87435526  0.31434346  0.08342402  1
  Li  Li6  1  0.31511322  0.90179879  0.51834307  1
  Ni  Ni7  1  0.92524800  0.47922397  0.96005934  1
  Ni  Ni8  1  0.57845975  0.58090896  0.71572039  1
  As  As9  1  0.85139990  0.30793241  0.42815620  1
  As  As10  1  0.44199410  0.85651498  0.54336595  1
  As  As11  1  0.16270739  0.79645620  0.23128673  1
  As  As12  1  0.50939332  0.25204469  0.84138170  1
  As  As13  1  0.43159252  0.46676342  0.52869941  1
  As  As14  1  0.19154688  0.11725507  0.70105530  1
  O  O15  1  0.35830606  0.93105156  0.40953435  1
  O  O16  1  0.42651751  0.97292165  0.90689260  1
  O  O17  1  0.72408301  0.58368223  0.60015131  1
  O  O18  1  0.60766692  0.38677276  0.08604709  1
  O  O19  1  0.50867126  0.92858204  0.13307086  1
