# generated using pymatgen
data_Li4VP2N5O3
_symmetry_space_group_name_H-M   'P 1'
_cell_length_a   7.06290026
_cell_length_b   6.50194067
_cell_length_c   8.60466850
_cell_angle_alpha   94.79060846
_cell_angle_beta   91.69368125
_cell_angle_gamma   95.55652588
_symmetry_Int_Tables_number   1
_chemical_formula_structural   Li4VP2N5O3
_chemical_formula_sum   'Li4 V1 P2 N5 O3'
_cell_volume   391.63534726
_cell_formula_units_Z   1
loop_
 _symmetry_equiv_pos_site_id
 _symmetry_equiv_pos_as_xyz
  1  'x, y, z'
loop_
 _atom_site_type_symbol
 _atom_site_label
 _atom_site_symmetry_multiplicity
 _atom_site_fract_x
 _atom_site_fract_y
 _atom_site_fract_z
 _atom_site_occupancy
  P  P0  1  0.12500000  0.00000000  0.25000000  1
  P  P1  1  0.00000000  0.00000000  0.00000000  1
  Li  Li2  1  0.37500000  0.00000000  0.25000000  1
  Li  Li3  1  0.25000000  0.25000000  0.25000000  1
  Li  Li4  1  0.00000000  0.25000000  0.12500000  1
  Li  Li5  1  0.17315164  0.39108124  0.04065924  1
  V  V6  1  0.47259871  0.87320532  0.75446026  1
  O  O7  1  0.60639438  0.71775614  0.14998194  1
  O  O8  1  0.72347761  0.10159411  0.13915109  1
  O  O9  1  0.39844106  0.57021469  0.85317835  1
  N  N10  1  0.83753606  0.97610064  0.12593886  1
  N  N11  1  0.76023632  0.98991489  0.51700469  1
  N  N12  1  0.62017814  0.95699733  0.95084937  1
  N  N13  1  0.97393517  0.95642322  0.51558368  1
  N  N14  1  0.77118396  0.91342234  0.46806818  1
