# generated using pymatgen
data_Li3Ni2P5O3
_symmetry_space_group_name_H-M   'P 1'
_cell_length_a   8.12759470
_cell_length_b   7.77129779
_cell_length_c   7.64275224
_cell_angle_alpha   90.00000000
_cell_angle_beta   90.00000000
_cell_angle_gamma   90.00000000
_symmetry_Int_Tables_number   1
_chemical_formula_structural   Li3Ni2P5O3
_chemical_formula_sum   'Li3 Ni2 P5 O3'
_cell_volume   482.73120154
_cell_formula_units_Z   1
loop_
 _symmetry_equiv_pos_site_id
 _symmetry_equiv_pos_as_xyz
  1  'x, y, z'
loop_
 _atom_site_type_symbol
 _atom_site_label
 _atom_site_symmetry_multiplicity
 _atom_site_fract_x
 _atom_site_fract_y
 _atom_site_fract_z
 _atom_site_occupancy
  P  P0  1  0.00000000  0.00000000  0.00000000  1
  P  P1  1  0.50000000  0.50000000  0.50000000  1
  P  P2  1  0.50000000  0.50000000  0.00000000  1
  P  P3  1  0.50000000  0.00000000  0.50000000  1
  P  P4  1  0.00000000  0.50000000  0.50000000  1
  Li  Li5  1  0.28467646  0.66466182  0.95158676  1
  Li  Li6  1  0.41298792  0.97589690  0.21785500  1
  Li  Li7  1  0.55464874  0.03861257  0.12950537  1
  Ni  Ni8  1  0.39171802  0.99386619  0.35593889  1
  Ni  Ni9  1  0.77969187  0.66287975  0.09545320  1
  O  O10  1  0.14366692  0.57740417  0.92149342  1
  O  O11  1  0.60696056  0.98411439  0.18950286  1
  O  O12  1  0.52138904  0.46148107  0.10417432  1
