# generated using pymatgen
data_Li2MnMo2P2N
_symmetry_space_group_name_H-M   'P 1'
_cell_length_a   4.84566770
_cell_length_b   5.16671099
_cell_length_c   6.41955777
_cell_angle_alpha   100.91863941
_cell_angle_beta   95.06710990
_cell_angle_gamma   100.06969060
_symmetry_Int_Tables_number   1
_chemical_formula_structural   Li2MnMo2P2N
_chemical_formula_sum   'Li2 Mn1 Mo2 P2 N1'
_cell_volume   154.14987658
_cell_formula_units_Z   1
loop_
 _symmetry_equiv_pos_site_id
 _symmetry_equiv_pos_as_xyz
  1  'x, y, z'
loop_
 _atom_site_type_symbol
 _atom_site_label
 _atom_site_symmetry_multiplicity
 _atom_site_fract_x
 _atom_site_fract_y
 _atom_site_fract_z
 _atom_site_occupancy
  N  N0  1  0.00000000  0.00000000  0.00000000  1
  Mn  Mn1  1  0.50000000  0.50000000  0.50000000  1
  P  P2  1  0.25000000  0.25000000  0.25000000  1
  P  P3  1  0.75000000  0.25000000  0.00000000  1
  Mo  Mo4  1  0.25000000  0.75000000  0.50000000  1
  Mo  Mo5  1  0.58656427  0.43251025  0.13994245  1
  Li  Li6  1  0.53019310  0.57195972  0.26088517  1
  Li  Li7  1  0.94041979  0.12065046  0.05967126  1
