# generated using pymatgen
data_Li2Ti2Sb3I4O
_symmetry_space_group_name_H-M   'P 1'
_cell_length_a   7.63944345
_cell_length_b   7.79847390
_cell_length_c   7.01068642
_cell_angle_alpha   92.41387412
_cell_angle_beta   93.26946572
_cell_angle_gamma   93.10643579
_symmetry_Int_Tables_number   1
_chemical_formula_structural   Li2Ti2Sb3I4O
_chemical_formula_sum   'Li2 Ti2 Sb3 I4 O1'
_cell_volume   415.94775407
_cell_formula_units_Z   1
loop_
 _symmetry_equiv_pos_site_id
 _symmetry_equiv_pos_as_xyz
  1  'x, y, z'
loop_
 _atom_site_type_symbol
 _atom_site_label
 _atom_site_symmetry_multiplicity
 _atom_site_fract_x
 _atom_site_fract_y
 _atom_site_fract_z
 _atom_site_occupancy
  I  I0  1  0.12500000  0.00000000  0.25000000  1
  I  I1  1  0.00000000  0.00000000  0.00000000  1
  I  I2  1  0.37500000  0.00000000  0.25000000  1
  I  I3  1  0.25000000  0.25000000  0.25000000  1
  Li  Li4  1  0.00000000  0.25000000  0.12500000  1
  Li  Li5  1  0.54120491  0.09090209  0.44868607  1
  Sb  Sb6  1  0.15191305  0.55529228  0.44772792  1
  Sb  Sb7  1  0.83471765  0.39636268  0.86782131  1
  Sb  Sb8  1  0.68231558  0.56850725  0.11684765  1
  Ti  Ti9  1  0.09111858  0.69881726  0.26535756  1
  Ti  Ti10  1  0.76804568  0.38696334  0.18363844  1
  O  O11  1  0.72806060  0.30805346  0.68779641  1
