# generated using pymatgen
data_Li2Se3O4
_symmetry_space_group_name_H-M   'P 1'
_cell_length_a   7.95813063
_cell_length_b   8.23783180
_cell_length_c   8.64772757
_cell_angle_alpha   90.00000000
_cell_angle_beta   90.00000000
_cell_angle_gamma   90.00000000
_symmetry_Int_Tables_number   1
_chemical_formula_structural   Li2Se3O4
_chemical_formula_sum   'Li2 Se3 O4'
_cell_volume   566.92548947
_cell_formula_units_Z   1
loop_
 _symmetry_equiv_pos_site_id
 _symmetry_equiv_pos_as_xyz
  1  'x, y, z'
loop_
 _atom_site_type_symbol
 _atom_site_label
 _atom_site_symmetry_multiplicity
 _atom_site_fract_x
 _atom_site_fract_y
 _atom_site_fract_z
 _atom_site_occupancy
  Li  Li0  1  0.00000000  0.00000000  0.00000000  1
  Li  Li1  1  0.50000000  0.50000000  0.50000000  1
  Se  Se2  1  0.25000000  0.25000000  0.25000000  1
  Se  Se3  1  0.75000000  0.25000000  0.00000000  1
  Se  Se4  1  0.25000000  0.75000000  0.50000000  1
  O  O5  1  0.68113025  0.71479066  0.58298212  1
  O  O6  1  0.39537898  0.63763129  0.94307122  1
  O  O7  1  0.90473422  0.22220313  0.46249109  1
  O  O8  1  0.35319141  0.05443854  0.23494111  1
