# generated using pymatgen
data_Li2Ni2P8I4O5
_symmetry_space_group_name_H-M   'P 1'
_cell_length_a   8.35131233
_cell_length_b   8.38068323
_cell_length_c   8.40824969
_cell_angle_alpha   90.00000000
_cell_angle_beta   90.00000000
_cell_angle_gamma   90.00000000
_symmetry_Int_Tables_number   1
_chemical_formula_structural   Li2Ni2P8I4O5
_chemical_formula_sum   'Li2 Ni2 P8 I4 O5'
_cell_volume   588.49090027
_cell_formula_units_Z   1
loop_
 _symmetry_equiv_pos_site_id
 _symmetry_equiv_pos_as_xyz
  1  'x, y, z'
loop_
 _atom_site_type_symbol
 _atom_site_label
 _atom_site_symmetry_multiplicity
 _atom_site_fract_x
 _atom_site_fract_y
 _atom_site_fract_z
 _atom_site_occupancy
  P  P0  1  0.00000000  0.00000000  0.00000000  1
  P  P1  1  0.50000000  0.50000000  0.50000000  1
  P  P2  1  0.50000000  0.50000000  0.00000000  1
  P  P3  1  0.50000000  0.00000000  0.50000000  1
  P  P4  1  0.00000000  0.50000000  0.50000000  1
  P  P5  1  0.07052568  0.14653816  0.12756438  1
  P  P6  1  0.87518459  0.26936735  0.66846437  1
  P  P7  1  0.37355223  0.02557114  0.56231723  1
  I  I8  1  0.89558738  0.07469590  0.61689332  1
  I  I9  1  0.29773383  0.74640948  0.41529550  1
  I  I10  1  0.53352715  0.16059569  0.83251791  1
  I  I11  1  0.02929154  0.71905580  0.41188727  1
  Li  Li12  1  0.06560487  0.18513399  0.91379625  1
  Li  Li13  1  0.12935734  0.11842413  0.01834034  1
  Ni  Ni14  1  0.16344421  0.86642811  0.30628502  1
  Ni  Ni15  1  0.12182406  0.24535939  0.17305254  1
  O  O16  1  0.17423273  0.79459571  0.07298242  1
  O  O17  1  0.38112905  0.42951018  0.09070171  1
  O  O18  1  0.59573168  0.19169323  0.25345745  1
  O  O19  1  0.09148396  0.96134649  0.26699876  1
  O  O20  1  0.14736049  0.41978139  0.09947723  1
