# generated using pymatgen
data_Li2TiCl2O3
_symmetry_space_group_name_H-M   'P 1'
_cell_length_a   6.84817560
_cell_length_b   6.73782615
_cell_length_c   7.70056418
_cell_angle_alpha   96.11956234
_cell_angle_beta   97.74694959
_cell_angle_gamma   95.89092730
_symmetry_Int_Tables_number   1
_chemical_formula_structural   Li2TiCl2O3
_chemical_formula_sum   'Li2 Ti1 Cl2 O3'
_cell_volume   347.59137876
_cell_formula_units_Z   1
loop_
 _symmetry_equiv_pos_site_id
 _symmetry_equiv_pos_as_xyz
  1  'x, y, z'
loop_
 _atom_site_type_symbol
 _atom_site_label
 _atom_site_symmetry_multiplicity
 _atom_site_fract_x
 _atom_site_fract_y
 _atom_site_fract_z
 _atom_site_occupancy
  Li  Li0  1  0.12500000  0.12500000  0.12500000  1
  Li  Li1  1  0.50000000  0.50000000  0.50000000  1
  Cl  Cl2  1  0.25000000  0.25000000  0.25000000  1
  Cl  Cl3  1  0.75000000  0.75000000  0.75000000  1
  Ti  Ti4  1  0.14460411  0.58343897  0.99733333  1
  O  O5  1  0.70789692  0.94922748  0.27310501  1
  O  O6  1  0.28062301  0.37660465  0.63256531  1
  O  O7  1  0.16870224  0.93231460  0.75745585  1
