# generated using pymatgen
data_Li6ZrTi2SeCl2
_symmetry_space_group_name_H-M   'P 1'
_cell_length_a   3.71074968
_cell_length_b   3.22775339
_cell_length_c   6.59482230
_cell_angle_alpha   111.25620067
_cell_angle_beta   116.64343982
_cell_angle_gamma   109.88326308
_symmetry_Int_Tables_number   1
_chemical_formula_structural   Li6ZrTi2SeCl2
_chemical_formula_sum   'Li6 Zr1 Ti2 Se1 Cl2'
_cell_volume   52.46736154
_cell_formula_units_Z   1
loop_
 _symmetry_equiv_pos_site_id
 _symmetry_equiv_pos_as_xyz
  1  'x, y, z'
loop_
 _atom_site_type_symbol
 _atom_site_label
 _atom_site_symmetry_multiplicity
 _atom_site_fract_x
 _atom_site_fract_y
 _atom_site_fract_z
 _atom_site_occupancy
  Li  Li0  1  0.00000000  0.00000000  0.00000000  1
  Li  Li1  1  0.50000000  0.50000000  0.50000000  1
  Li  Li2  1  0.25000000  0.25000000  0.25000000  1
  Li  Li3  1  0.75000000  0.25000000  0.00000000  1
  Li  Li4  1  0.25000000  0.75000000  0.50000000  1
  Li  Li5  1  0.60215831  0.37920976  0.38531245  1
  Se  Se6  1  0.74797505  0.78691726  0.60672273  1
  Cl  Cl7  1  0.27387815  0.10929092  0.78589944  1
  Cl  Cl8  1  0.13907012  0.49703986  0.93155447  1
  Ti  Ti9  1  0.52924982  0.59538319  0.12135521  1
  Ti  Ti10  1  0.21993764  0.60014392  0.70428270  1
  Zr  Zr11  1  0.64399801  0.67560245  0.97968615  1
