# generated using pymatgen
data_Li2TiTe6(SF)2
_symmetry_space_group_name_H-M   'P 1'
_cell_length_a   6.87389972
_cell_length_b   7.10973357
_cell_length_c   7.82069542
_cell_angle_alpha   93.18221481
_cell_angle_beta   95.36854965
_cell_angle_gamma   92.98789126
_symmetry_Int_Tables_number   1
_chemical_formula_structural   Li2TiTe6(SF)2
_chemical_formula_sum   'Li2 Ti1 Te6 S2 F2'
_cell_volume   379.31439573
_cell_formula_units_Z   1
loop_
 _symmetry_equiv_pos_site_id
 _symmetry_equiv_pos_as_xyz
  1  'x, y, z'
loop_
 _atom_site_type_symbol
 _atom_site_label
 _atom_site_symmetry_multiplicity
 _atom_site_fract_x
 _atom_site_fract_y
 _atom_site_fract_z
 _atom_site_occupancy
  Li  Li0  1  0.12500000  0.00000000  0.25000000  1
  Li  Li1  1  0.00000000  0.00000000  0.00000000  1
  F  F2  1  0.37500000  0.00000000  0.25000000  1
  F  F3  1  0.25000000  0.25000000  0.25000000  1
  S  S4  1  0.00000000  0.25000000  0.12500000  1
  S  S5  1  0.07353764  0.96831573  0.62840595  1
  Ti  Ti6  1  0.30193268  0.12413618  0.92481709  1
  Te  Te7  1  0.81568878  0.00960105  0.58193758  1
  Te  Te8  1  0.78415122  0.52761473  0.19297367  1
  Te  Te9  1  0.27669915  0.75747284  0.19836041  1
  Te  Te10  1  0.19155677  0.44177163  0.20672802  1
  Te  Te11  1  0.87518966  0.82432034  0.24217104  1
  Te  Te12  1  0.01417098  0.82020397  0.48345942  1
