# generated using pymatgen
data_LiTiS3I4F
_symmetry_space_group_name_H-M   'P 1'
_cell_length_a   7.58847381
_cell_length_b   7.97288066
_cell_length_c   8.01907348
_cell_angle_alpha   90.66340266
_cell_angle_beta   93.15626836
_cell_angle_gamma   90.75844638
_symmetry_Int_Tables_number   1
_chemical_formula_structural   LiTiS3I4F
_chemical_formula_sum   'Li1 Ti1 S3 I4 F1'
_cell_volume   484.35474212
_cell_formula_units_Z   1
loop_
 _symmetry_equiv_pos_site_id
 _symmetry_equiv_pos_as_xyz
  1  'x, y, z'
loop_
 _atom_site_type_symbol
 _atom_site_label
 _atom_site_symmetry_multiplicity
 _atom_site_fract_x
 _atom_site_fract_y
 _atom_site_fract_z
 _atom_site_occupancy
  I  I0  1  0.00000000  0.00000000  0.00000000  1
  I  I1  1  0.50000000  0.50000000  0.50000000  1
  I  I2  1  0.25000000  0.25000000  0.25000000  1
  I  I3  1  0.75000000  0.25000000  0.00000000  1
  Li  Li4  1  0.25000000  0.75000000  0.50000000  1
  F  F5  1  0.17035763  0.02631149  0.14646916  1
  S  S6  1  0.23192821  0.06719849  0.77329175  1
  S  S7  1  0.82068311  0.72321851  0.01952941  1
  S  S8  1  0.23039065  0.87132482  0.83826168  1
  Ti  Ti9  1  0.21462899  0.89840590  0.04474630  1
