# generated using pymatgen
data_Li2Mn2Sb4P3N
_symmetry_space_group_name_H-M   'P 1'
_cell_length_a   4.69671491
_cell_length_b   4.96167306
_cell_length_c   5.56549417
_cell_angle_alpha   98.63813161
_cell_angle_beta   94.66966620
_cell_angle_gamma   96.46449015
_symmetry_Int_Tables_number   1
_chemical_formula_structural   Li2Mn2Sb4P3N
_chemical_formula_sum   'Li2 Mn2 Sb4 P3 N1'
_cell_volume   126.76964865
_cell_formula_units_Z   1
loop_
 _symmetry_equiv_pos_site_id
 _symmetry_equiv_pos_as_xyz
  1  'x, y, z'
loop_
 _atom_site_type_symbol
 _atom_site_label
 _atom_site_symmetry_multiplicity
 _atom_site_fract_x
 _atom_site_fract_y
 _atom_site_fract_z
 _atom_site_occupancy
  Mn  Mn0  1  0.00000000  0.00000000  0.00000000  1
  Mn  Mn1  1  0.50000000  0.50000000  0.50000000  1
  Sb  Sb2  1  0.50000000  0.50000000  0.00000000  1
  Sb  Sb3  1  0.50000000  0.00000000  0.50000000  1
  Sb  Sb4  1  0.00000000  0.50000000  0.50000000  1
  Sb  Sb5  1  0.21377005  0.30253410  0.31592391  1
  P  P6  1  0.14024617  0.39546011  0.50896038  1
  P  P7  1  0.04403648  0.12273172  0.12795387  1
  P  P8  1  0.00663620  0.28335825  0.10331385  1
  Li  Li9  1  0.33276044  0.37578389  0.10500106  1
  Li  Li10  1  0.95429973  0.04456751  0.97054682  1
  N  N11  1  0.50474621  0.75830826  0.72634180  1
