# generated using pymatgen
data_Li2Sb4Mo2P3
_symmetry_space_group_name_H-M   'P 1'
_cell_length_a   5.14751070
_cell_length_b   5.49640289
_cell_length_c   6.64176422
_cell_angle_alpha   99.33540025
_cell_angle_beta   93.49832620
_cell_angle_gamma   99.57196082
_symmetry_Int_Tables_number   1
_chemical_formula_structural   Li2Sb4Mo2P3
_chemical_formula_sum   'Li2 Sb4 Mo2 P3'
_cell_volume   182.09448664
_cell_formula_units_Z   1
loop_
 _symmetry_equiv_pos_site_id
 _symmetry_equiv_pos_as_xyz
  1  'x, y, z'
loop_
 _atom_site_type_symbol
 _atom_site_label
 _atom_site_symmetry_multiplicity
 _atom_site_fract_x
 _atom_site_fract_y
 _atom_site_fract_z
 _atom_site_occupancy
  Sb  Sb0  1  0.12500000  0.00000000  0.25000000  1
  Sb  Sb1  1  0.00000000  0.00000000  0.00000000  1
  Sb  Sb2  1  0.37500000  0.00000000  0.25000000  1
  Sb  Sb3  1  0.25000000  0.25000000  0.25000000  1
  P  P4  1  0.00000000  0.25000000  0.12500000  1
  P  P5  1  0.00634297  0.53895250  0.12227455  1
  P  P6  1  0.89666514  0.08879607  0.95112034  1
  Mo  Mo7  1  0.06684953  0.73956525  0.71489323  1
  Mo  Mo8  1  0.52266093  0.44372357  0.90594413  1
  Li  Li9  1  0.20365973  0.09216733  0.40685583  1
  Li  Li10  1  0.65887694  0.05480668  0.51414962  1
