# generated using pymatgen
data_LiZnNi(P2O)2
_symmetry_space_group_name_H-M   'P 1'
_cell_length_a   8.35259956
_cell_length_b   8.41612051
_cell_length_c   8.07010618
_cell_angle_alpha   90.00000000
_cell_angle_beta   90.00000000
_cell_angle_gamma   90.00000000
_symmetry_Int_Tables_number   1
_chemical_formula_structural   LiZnNi(P2O)2
_chemical_formula_sum   'Li2 Zn2 Ni2 P8 O4'
_cell_volume   567.30009420
_cell_formula_units_Z   2
loop_
 _symmetry_equiv_pos_site_id
 _symmetry_equiv_pos_as_xyz
  1  'x, y, z'
loop_
 _atom_site_type_symbol
 _atom_site_label
 _atom_site_symmetry_multiplicity
 _atom_site_fract_x
 _atom_site_fract_y
 _atom_site_fract_z
 _atom_site_occupancy
  P  P0  1  0.12500000  0.00000000  0.25000000  1
  P  P1  1  0.00000000  0.00000000  0.00000000  1
  P  P2  1  0.37500000  0.00000000  0.25000000  1
  P  P3  1  0.25000000  0.25000000  0.25000000  1
  P  P4  1  0.00000000  0.25000000  0.12500000  1
  P  P5  1  0.70505707  0.82486433  0.32374473  1
  P  P6  1  0.39308273  0.08439489  0.09716189  1
  P  P7  1  0.56184045  0.07034123  0.16792229  1
  Li  Li8  1  0.05273692  0.99600895  0.51038920  1
  Li  Li9  1  0.95454254  0.33259201  0.26919864  1
  Zn  Zn10  1  0.37927723  0.30198210  0.07075785  1
  Zn  Zn11  1  0.10583675  0.10964390  0.27586903  1
  Ni  Ni12  1  0.43456668  0.04462156  0.73058285  1
  Ni  Ni13  1  0.35823312  0.30473060  0.69008172  1
  O  O14  1  0.31841710  0.88102363  0.10569827  1
  O  O15  1  0.72545650  0.93781873  0.98720415  1
  O  O16  1  0.29062722  0.27852572  0.15745558  1
  O  O17  1  0.01422465  0.29193187  0.72734705  1
