# generated using pymatgen
data_Li2LuCu2(As3P2)2
_symmetry_space_group_name_H-M   'P 1'
_cell_length_a   7.19498922
_cell_length_b   7.14501573
_cell_length_c   7.87616799
_cell_angle_alpha   94.05998845
_cell_angle_beta   95.06604739
_cell_angle_gamma   93.96041968
_symmetry_Int_Tables_number   1
_chemical_formula_structural   Li2LuCu2(As3P2)2
_chemical_formula_sum   'Li2 Lu1 Cu2 As6 P4'
_cell_volume   401.14906656
_cell_formula_units_Z   1
loop_
 _symmetry_equiv_pos_site_id
 _symmetry_equiv_pos_as_xyz
  1  'x, y, z'
loop_
 _atom_site_type_symbol
 _atom_site_label
 _atom_site_symmetry_multiplicity
 _atom_site_fract_x
 _atom_site_fract_y
 _atom_site_fract_z
 _atom_site_occupancy
  P  P0  1  0.00000000  0.00000000  0.00000000  1
  P  P1  1  0.50000000  0.50000000  0.50000000  1
  P  P2  1  0.25000000  0.25000000  0.25000000  1
  P  P3  1  0.75000000  0.25000000  0.00000000  1
  Lu  Lu4  1  0.25000000  0.75000000  0.50000000  1
  As  As5  1  0.11630801  0.50431036  0.62340921  1
  As  As6  1  0.67760824  0.98629892  0.26689790  1
  As  As7  1  0.48427167  0.41612999  0.75624626  1
  As  As8  1  0.35644331  0.03661421  0.30649553  1
  As  As9  1  0.76834356  0.18813883  0.01869898  1
  As  As10  1  0.96870825  0.83784480  0.02460937  1
  Li  Li11  1  0.15863780  0.80199620  0.83856633  1
  Li  Li12  1  0.20789367  0.81040063  0.17453726  1
  Cu  Cu13  1  0.97072264  0.61244063  0.95840716  1
  Cu  Cu14  1  0.31335628  0.42425527  0.22781575  1
