# generated using pymatgen
data_Li2MnSb4Mo2P3
_symmetry_space_group_name_H-M   'P 1'
_cell_length_a   5.16842120
_cell_length_b   5.51421607
_cell_length_c   6.60712866
_cell_angle_alpha   99.51213453
_cell_angle_beta   93.11309759
_cell_angle_gamma   99.69030195
_symmetry_Int_Tables_number   1
_chemical_formula_structural   Li2MnSb4Mo2P3
_chemical_formula_sum   'Li2 Mn1 Sb4 Mo2 P3'
_cell_volume   182.40868202
_cell_formula_units_Z   1
loop_
 _symmetry_equiv_pos_site_id
 _symmetry_equiv_pos_as_xyz
  1  'x, y, z'
loop_
 _atom_site_type_symbol
 _atom_site_label
 _atom_site_symmetry_multiplicity
 _atom_site_fract_x
 _atom_site_fract_y
 _atom_site_fract_z
 _atom_site_occupancy
  Mn  Mn0  1  0.12500000  0.00000000  0.25000000  1
  Sb  Sb1  1  0.00000000  0.00000000  0.00000000  1
  Sb  Sb2  1  0.37500000  0.00000000  0.25000000  1
  Sb  Sb3  1  0.25000000  0.25000000  0.25000000  1
  Sb  Sb4  1  0.00000000  0.25000000  0.12500000  1
  P  P5  1  0.10433628  0.62326148  0.46709818  1
  P  P6  1  0.66126717  0.94228050  0.24542109  1
  P  P7  1  0.32087068  0.42394053  0.47898030  1
  Mo  Mo8  1  0.53638855  0.89550184  0.72586656  1
  Mo  Mo9  1  0.70459257  0.96908828  0.18352767  1
  Li  Li10  1  0.47645389  0.32691418  0.67428100  1
  Li  Li11  1  0.70655001  0.15340107  0.05915260  1
