# generated using pymatgen
data_Li2Ti(P2O)4
_symmetry_space_group_name_H-M   'P 1'
_cell_length_a   8.42004869
_cell_length_b   8.21456939
_cell_length_c   8.16699169
_cell_angle_alpha   90.00000000
_cell_angle_beta   90.00000000
_cell_angle_gamma   90.00000000
_symmetry_Int_Tables_number   1
_chemical_formula_structural   Li2Ti(P2O)4
_chemical_formula_sum   'Li2 Ti1 P8 O4'
_cell_volume   564.88692050
_cell_formula_units_Z   1
loop_
 _symmetry_equiv_pos_site_id
 _symmetry_equiv_pos_as_xyz
  1  'x, y, z'
loop_
 _atom_site_type_symbol
 _atom_site_label
 _atom_site_symmetry_multiplicity
 _atom_site_fract_x
 _atom_site_fract_y
 _atom_site_fract_z
 _atom_site_occupancy
  P  P0  1  0.00000000  0.00000000  0.00000000  1
  P  P1  1  0.50000000  0.50000000  0.50000000  1
  P  P2  1  0.25000000  0.25000000  0.25000000  1
  P  P3  1  0.75000000  0.25000000  0.00000000  1
  P  P4  1  0.25000000  0.75000000  0.50000000  1
  P  P5  1  0.02364646  0.22899587  0.80412009  1
  P  P6  1  0.11240838  0.45527795  0.44713781  1
  P  P7  1  0.51853365  0.41125909  0.44539020  1
  Li  Li8  1  0.52361864  0.95774798  0.62885266  1
  Li  Li9  1  0.78393916  0.11127096  0.41029016  1
  Ti  Ti10  1  0.82696892  0.09664852  0.47282122  1
  O  O11  1  0.17981843  0.56121337  0.30977959  1
  O  O12  1  0.94306481  0.17191693  0.85437992  1
  O  O13  1  0.23781200  0.45492020  0.52105436  1
  O  O14  1  0.17874229  0.74055911  0.11034602  1
