# generated using pymatgen
data_Li3Ti2P3S2
_symmetry_space_group_name_H-M   'P 1'
_cell_length_a   5.59337360
_cell_length_b   5.10459581
_cell_length_c   6.65426644
_cell_angle_alpha   94.69510125
_cell_angle_beta   97.92086196
_cell_angle_gamma   94.40839254
_symmetry_Int_Tables_number   1
_chemical_formula_structural   Li3Ti2P3S2
_chemical_formula_sum   'Li3 Ti2 P3 S2'
_cell_volume   186.79873397
_cell_formula_units_Z   1
loop_
 _symmetry_equiv_pos_site_id
 _symmetry_equiv_pos_as_xyz
  1  'x, y, z'
loop_
 _atom_site_type_symbol
 _atom_site_label
 _atom_site_symmetry_multiplicity
 _atom_site_fract_x
 _atom_site_fract_y
 _atom_site_fract_z
 _atom_site_occupancy
  P  P0  1  0.12500000  0.00000000  0.25000000  1
  P  P1  1  0.00000000  0.00000000  0.00000000  1
  P  P2  1  0.37500000  0.00000000  0.25000000  1
  Li  Li3  1  0.25000000  0.25000000  0.25000000  1
  Li  Li4  1  0.00000000  0.25000000  0.12500000  1
  Li  Li5  1  0.51926258  0.43200876  0.89763803  1
  S  S6  1  0.38931443  0.14995553  0.35128402  1
  S  S7  1  0.99796467  0.25040482  0.59307760  1
  Ti  Ti8  1  0.90074209  0.08182717  0.36959410  1
  Ti  Ti9  1  0.08348624  0.70185020  0.94921688  1
