# generated using pymatgen
data_Li2LuCu2As5P4
_symmetry_space_group_name_H-M   'P 1'
_cell_length_a   7.48573541
_cell_length_b   7.29611782
_cell_length_c   8.19873715
_cell_angle_alpha   92.44889012
_cell_angle_beta   92.40016003
_cell_angle_gamma   92.60590034
_symmetry_Int_Tables_number   1
_chemical_formula_structural   Li2LuCu2As5P4
_chemical_formula_sum   'Li2 Lu1 Cu2 As5 P4'
_cell_volume   446.48627115
_cell_formula_units_Z   1
loop_
 _symmetry_equiv_pos_site_id
 _symmetry_equiv_pos_as_xyz
  1  'x, y, z'
loop_
 _atom_site_type_symbol
 _atom_site_label
 _atom_site_symmetry_multiplicity
 _atom_site_fract_x
 _atom_site_fract_y
 _atom_site_fract_z
 _atom_site_occupancy
  P  P0  1  0.00000000  0.00000000  0.00000000  1
  P  P1  1  0.50000000  0.50000000  0.50000000  1
  P  P2  1  0.25000000  0.25000000  0.25000000  1
  P  P3  1  0.75000000  0.25000000  0.00000000  1
  Lu  Lu4  1  0.25000000  0.75000000  0.50000000  1
  Li  Li5  1  0.93185030  0.88728962  0.53988056  1
  Li  Li6  1  0.57566202  0.85051678  0.57030458  1
  Cu  Cu7  1  0.15573937  0.49192235  0.40475235  1
  Cu  Cu8  1  0.72320835  0.49549215  0.77586402  1
  As  As9  1  0.72614718  0.46920330  0.04583963  1
  As  As10  1  0.28128347  0.71686622  0.22997468  1
  As  As11  1  0.96118454  0.90409592  0.82555435  1
  As  As12  1  0.19273679  0.47281022  0.31767163  1
  As  As13  1  0.17700411  0.28705016  0.82104733  1
