# generated using pymatgen
data_LiCu2I4O7F2
_symmetry_space_group_name_H-M   'P 1'
_cell_length_a   7.39772340
_cell_length_b   7.31008372
_cell_length_c   8.50630463
_cell_angle_alpha   91.86694110
_cell_angle_beta   92.78930506
_cell_angle_gamma   92.20428959
_symmetry_Int_Tables_number   1
_chemical_formula_structural   LiCu2I4O7F2
_chemical_formula_sum   'Li1 Cu2 I4 O7 F2'
_cell_volume   458.84519555
_cell_formula_units_Z   1
loop_
 _symmetry_equiv_pos_site_id
 _symmetry_equiv_pos_as_xyz
  1  'x, y, z'
loop_
 _atom_site_type_symbol
 _atom_site_label
 _atom_site_symmetry_multiplicity
 _atom_site_fract_x
 _atom_site_fract_y
 _atom_site_fract_z
 _atom_site_occupancy
  I  I0  1  0.12500000  0.00000000  0.25000000  1
  I  I1  1  0.00000000  0.00000000  0.00000000  1
  I  I2  1  0.37500000  0.00000000  0.25000000  1
  I  I3  1  0.25000000  0.25000000  0.25000000  1
  Li  Li4  1  0.00000000  0.25000000  0.12500000  1
  Cu  Cu5  1  0.09827273  0.19241168  0.15039687  1
  Cu  Cu6  1  0.06202459  0.89468355  0.71135411  1
  F  F7  1  0.66154039  0.20378991  0.92214002  1
  F  F8  1  0.66609237  0.23905342  0.17662168  1
  O  O9  1  0.08945623  0.86767745  0.42936172  1
  O  O10  1  0.08377068  0.62742288  0.32769809  1
  O  O11  1  0.20067150  0.76924618  0.21852146  1
  O  O12  1  0.71086329  0.13126494  0.49530618  1
  O  O13  1  0.90525382  0.99940432  0.24462966  1
  O  O14  1  0.64730594  0.30939996  0.90017268  1
  O  O15  1  0.27905139  0.98277491  0.50737048  1
