# generated using pymatgen
data_Li2Mn2Sb4P3
_symmetry_space_group_name_H-M   'P 1'
_cell_length_a   7.34896461
_cell_length_b   7.61178217
_cell_length_c   7.65744477
_cell_angle_alpha   91.14969270
_cell_angle_beta   91.36191723
_cell_angle_gamma   91.30849224
_symmetry_Int_Tables_number   1
_chemical_formula_structural   Li2Mn2Sb4P3
_chemical_formula_sum   'Li2 Mn2 Sb4 P3'
_cell_volume   428.02396067
_cell_formula_units_Z   1
loop_
 _symmetry_equiv_pos_site_id
 _symmetry_equiv_pos_as_xyz
  1  'x, y, z'
loop_
 _atom_site_type_symbol
 _atom_site_label
 _atom_site_symmetry_multiplicity
 _atom_site_fract_x
 _atom_site_fract_y
 _atom_site_fract_z
 _atom_site_occupancy
  Mn  Mn0  1  0.00000000  0.00000000  0.00000000  1
  Mn  Mn1  1  0.33300000  0.66700000  0.25000000  1
  Sb  Sb2  1  0.66700000  0.33300000  0.50000000  1
  Sb  Sb3  1  0.00000000  0.00000000  0.75000000  1
  Sb  Sb4  1  0.17672200  0.09511232  0.10266663  1
  Sb  Sb5  1  0.71494969  0.68837394  0.82608599  1
  P  P6  1  0.95936393  0.48240752  0.06312756  1
  P  P7  1  0.48771027  0.38092354  0.05834699  1
  P  P8  1  0.66540190  0.17443542  0.22498305  1
  Li  Li9  1  0.22673849  0.40489475  0.47509708  1
  Li  Li10  1  0.01994123  0.52062101  0.99842230  1
