# generated using pymatgen
data_Li3Ti2P3(SeO)2
_symmetry_space_group_name_H-M   'P 1'
_cell_length_a   7.60235597
_cell_length_b   7.17664283
_cell_length_c   6.79561911
_cell_angle_alpha   90.36616970
_cell_angle_beta   91.74212423
_cell_angle_gamma   90.41862974
_symmetry_Int_Tables_number   1
_chemical_formula_structural   Li3Ti2P3(SeO)2
_chemical_formula_sum   'Li3 Ti2 P3 Se2 O2'
_cell_volume   370.57547911
_cell_formula_units_Z   1
loop_
 _symmetry_equiv_pos_site_id
 _symmetry_equiv_pos_as_xyz
  1  'x, y, z'
loop_
 _atom_site_type_symbol
 _atom_site_label
 _atom_site_symmetry_multiplicity
 _atom_site_fract_x
 _atom_site_fract_y
 _atom_site_fract_z
 _atom_site_occupancy
  P  P0  1  0.12500000  0.00000000  0.25000000  1
  P  P1  1  0.00000000  0.00000000  0.00000000  1
  P  P2  1  0.37500000  0.00000000  0.25000000  1
  Li  Li3  1  0.25000000  0.25000000  0.25000000  1
  Li  Li4  1  0.00000000  0.25000000  0.12500000  1
  Li  Li5  1  0.92964440  0.01655188  0.91832753  1
  Se  Se6  1  0.75744646  0.12151990  0.47424511  1
  Se  Se7  1  0.60060807  0.43930390  0.02917573  1
  Ti  Ti8  1  0.45009286  0.51570895  0.36311745  1
  Ti  Ti9  1  0.11489244  0.44187166  0.54583277  1
  O  O10  1  0.53804586  0.42567968  0.12833509  1
  O  O11  1  0.45376804  0.01316787  0.70263121  1
