# generated using pymatgen
data_LiMn2Ni2(P2O)4
_symmetry_space_group_name_H-M   'P 1'
_cell_length_a   8.11720522
_cell_length_b   7.82112736
_cell_length_c   8.29349239
_cell_angle_alpha   90.00000000
_cell_angle_beta   90.00000000
_cell_angle_gamma   90.00000000
_symmetry_Int_Tables_number   1
_chemical_formula_structural   LiMn2Ni2(P2O)4
_chemical_formula_sum   'Li1 Mn2 Ni2 P8 O4'
_cell_volume   526.51813499
_cell_formula_units_Z   1
loop_
 _symmetry_equiv_pos_site_id
 _symmetry_equiv_pos_as_xyz
  1  'x, y, z'
loop_
 _atom_site_type_symbol
 _atom_site_label
 _atom_site_symmetry_multiplicity
 _atom_site_fract_x
 _atom_site_fract_y
 _atom_site_fract_z
 _atom_site_occupancy
  P  P0  1  0.00000000  0.00000000  0.00000000  1
  P  P1  1  0.50000000  0.50000000  0.50000000  1
  P  P2  1  0.50000000  0.50000000  0.00000000  1
  P  P3  1  0.50000000  0.00000000  0.50000000  1
  P  P4  1  0.00000000  0.50000000  0.50000000  1
  P  P5  1  0.19856006  0.20940477  0.73970091  1
  P  P6  1  0.13707661  0.99078293  0.49582636  1
  P  P7  1  0.88875578  0.47970667  0.52148807  1
  Li  Li8  1  0.13228279  0.30915152  0.57722361  1
  Ni  Ni9  1  0.66350681  0.22344136  0.62151966  1
  Ni  Ni10  1  0.17632990  0.86444379  0.98440446  1
  Mn  Mn11  1  0.59112469  0.13821348  0.71201912  1
  Mn  Mn12  1  0.71890717  0.73102719  0.85778453  1
  O  O13  1  0.61912429  0.93907870  0.79765691  1
  O  O14  1  0.27383746  0.52699656  0.20203820  1
  O  O15  1  0.64118063  0.81982693  0.57506744  1
  O  O16  1  0.73740167  0.57301815  0.88115388  1
