# generated using pymatgen
data_Li2TiZn2(As2O)3
_symmetry_space_group_name_H-M   'P 1'
_cell_length_a   8.10031915
_cell_length_b   8.18052261
_cell_length_c   7.56311162
_cell_angle_alpha   90.25048534
_cell_angle_beta   91.19173319
_cell_angle_gamma   90.28637163
_symmetry_Int_Tables_number   1
_chemical_formula_structural   Li2TiZn2(As2O)3
_chemical_formula_sum   'Li2 Ti1 Zn2 As6 O3'
_cell_volume   501.04872677
_cell_formula_units_Z   1
loop_
 _symmetry_equiv_pos_site_id
 _symmetry_equiv_pos_as_xyz
  1  'x, y, z'
loop_
 _atom_site_type_symbol
 _atom_site_label
 _atom_site_symmetry_multiplicity
 _atom_site_fract_x
 _atom_site_fract_y
 _atom_site_fract_z
 _atom_site_occupancy
  Li  Li0  1  0.00000000  0.00000000  0.00000000  1
  Li  Li1  1  0.50000000  0.50000000  0.50000000  1
  Zn  Zn2  1  0.50000000  0.50000000  0.00000000  1
  Zn  Zn3  1  0.50000000  0.00000000  0.50000000  1
  Ti  Ti4  1  0.00000000  0.50000000  0.50000000  1
  As  As5  1  0.07284539  0.00390346  0.98552492  1
  As  As6  1  0.09611766  0.38552017  0.90809798  1
  As  As7  1  0.01693646  0.05420764  0.40236495  1
  As  As8  1  0.38892556  0.33207002  0.97286006  1
  As  As9  1  0.41653471  0.06920062  0.84811739  1
  As  As10  1  0.07561894  0.12795350  0.86115325  1
  O  O11  1  0.42733983  0.34788123  0.01112767  1
  O  O12  1  0.77921457  0.95287950  0.89075671  1
  O  O13  1  0.09611849  0.37831552  0.73365744  1
