# generated using pymatgen
data_Li3Ti3Sb3I4O
_symmetry_space_group_name_H-M   'P 1'
_cell_length_a   6.24845973
_cell_length_b   6.46313283
_cell_length_c   6.22030498
_cell_angle_alpha   93.12263642
_cell_angle_beta   96.49473718
_cell_angle_gamma   96.33942611
_symmetry_Int_Tables_number   1
_chemical_formula_structural   Li3Ti3Sb3I4O
_chemical_formula_sum   'Li3 Ti3 Sb3 I4 O1'
_cell_volume   247.49532300
_cell_formula_units_Z   1
loop_
 _symmetry_equiv_pos_site_id
 _symmetry_equiv_pos_as_xyz
  1  'x, y, z'
loop_
 _atom_site_type_symbol
 _atom_site_label
 _atom_site_symmetry_multiplicity
 _atom_site_fract_x
 _atom_site_fract_y
 _atom_site_fract_z
 _atom_site_occupancy
  Sb  Sb0  1  0.00000000  0.00000000  0.00000000  1
  Sb  Sb1  1  0.50000000  0.50000000  0.50000000  1
  Sb  Sb2  1  0.50000000  0.50000000  0.00000000  1
  O  O3  1  0.50000000  0.00000000  0.50000000  1
  I  I4  1  0.00000000  0.50000000  0.50000000  1
  I  I5  1  0.63056173  0.75566374  0.38107870  1
  I  I6  1  0.37175600  0.13536513  0.72557125  1
  I  I7  1  0.72485480  0.36895685  0.09715942  1
  Ti  Ti8  1  0.01899789  0.27147068  0.21324273  1
  Ti  Ti9  1  0.98638090  0.21643185  0.85987973  1
  Ti  Ti10  1  0.38861074  0.77939973  0.47693673  1
  Li  Li11  1  0.71150719  0.87842147  0.51536327  1
  Li  Li12  1  0.82435019  0.90684376  0.86547950  1
  Li  Li13  1  0.52380263  0.80896019  0.32303686  1
