# generated using pymatgen
data_Li2LuCu2As6N5
_symmetry_space_group_name_H-M   'P 1'
_cell_length_a   7.88020881
_cell_length_b   7.70701580
_cell_length_c   7.93147640
_cell_angle_alpha   91.22001383
_cell_angle_beta   91.37480314
_cell_angle_gamma   91.32270807
_symmetry_Int_Tables_number   1
_chemical_formula_structural   Li2LuCu2As6N5
_chemical_formula_sum   'Li2 Lu1 Cu2 As6 N5'
_cell_volume   481.31951526
_cell_formula_units_Z   1
loop_
 _symmetry_equiv_pos_site_id
 _symmetry_equiv_pos_as_xyz
  1  'x, y, z'
loop_
 _atom_site_type_symbol
 _atom_site_label
 _atom_site_symmetry_multiplicity
 _atom_site_fract_x
 _atom_site_fract_y
 _atom_site_fract_z
 _atom_site_occupancy
  Lu  Lu0  1  0.12500000  0.00000000  0.25000000  1
  Li  Li1  1  0.00000000  0.00000000  0.00000000  1
  Li  Li2  1  0.37500000  0.00000000  0.25000000  1
  Cu  Cu3  1  0.25000000  0.25000000  0.25000000  1
  Cu  Cu4  1  0.00000000  0.25000000  0.12500000  1
  As  As5  1  0.50730979  0.16707234  0.73367968  1
  As  As6  1  0.25689417  0.39012743  0.87847110  1
  As  As7  1  0.44363224  0.87067248  0.23033152  1
  As  As8  1  0.27324712  0.55317722  0.54307165  1
  As  As9  1  0.48952509  0.76022995  0.79548656  1
  As  As10  1  0.91692800  0.25116687  0.66695239  1
  N  N11  1  0.89300008  0.67748969  0.15783229  1
  N  N12  1  0.63555212  0.79315421  0.58883712  1
  N  N13  1  0.87167082  0.63687968  0.26667428  1
  N  N14  1  0.91319011  0.00243400  0.33207795  1
  N  N15  1  0.39524228  0.72287577  0.07967832  1
