# generated using pymatgen
data_LiMn2Sb4Mo2P3
_symmetry_space_group_name_H-M   'P 1'
_cell_length_a   6.14848561
_cell_length_b   6.59132561
_cell_length_c   6.87598338
_cell_angle_alpha   94.85092424
_cell_angle_beta   91.37396153
_cell_angle_gamma   94.82937476
_symmetry_Int_Tables_number   1
_chemical_formula_structural   LiMn2Sb4Mo2P3
_chemical_formula_sum   'Li1 Mn2 Sb4 Mo2 P3'
_cell_volume   276.54109035
_cell_formula_units_Z   1
loop_
 _symmetry_equiv_pos_site_id
 _symmetry_equiv_pos_as_xyz
  1  'x, y, z'
loop_
 _atom_site_type_symbol
 _atom_site_label
 _atom_site_symmetry_multiplicity
 _atom_site_fract_x
 _atom_site_fract_y
 _atom_site_fract_z
 _atom_site_occupancy
  Mn  Mn0  1  0.00000000  0.00000000  0.00000000  1
  Mn  Mn1  1  0.50000000  0.50000000  0.50000000  1
  Sb  Sb2  1  0.50000000  0.50000000  0.00000000  1
  Sb  Sb3  1  0.50000000  0.00000000  0.50000000  1
  Sb  Sb4  1  0.00000000  0.50000000  0.50000000  1
  Sb  Sb5  1  0.15011120  0.02678563  0.98574510  1
  P  P6  1  0.32030154  0.09983011  0.60687474  1
  P  P7  1  0.18215868  0.89203625  0.11471087  1
  P  P8  1  0.78472868  0.41788930  0.89028746  1
  Mo  Mo9  1  0.75564331  0.95200698  0.83326336  1
  Mo  Mo10  1  0.30627193  0.00661754  0.12927173  1
  Li  Li11  1  0.53409003  0.06884648  0.58915456  1
