# generated using pymatgen
data_Li3LuCu2As6Se
_symmetry_space_group_name_H-M   'P 1'
_cell_length_a   6.52734412
_cell_length_b   6.28546484
_cell_length_c   7.55839055
_cell_angle_alpha   96.69492113
_cell_angle_beta   98.63026278
_cell_angle_gamma   96.40578687
_symmetry_Int_Tables_number   1
_chemical_formula_structural   Li3LuCu2As6Se
_chemical_formula_sum   'Li3 Lu1 Cu2 As6 Se1'
_cell_volume   301.85751173
_cell_formula_units_Z   1
loop_
 _symmetry_equiv_pos_site_id
 _symmetry_equiv_pos_as_xyz
  1  'x, y, z'
loop_
 _atom_site_type_symbol
 _atom_site_label
 _atom_site_symmetry_multiplicity
 _atom_site_fract_x
 _atom_site_fract_y
 _atom_site_fract_z
 _atom_site_occupancy
  Lu  Lu0  1  0.00000000  0.00000000  0.00000000  1
  Li  Li1  1  0.50000000  0.50000000  0.50000000  1
  Li  Li2  1  0.50000000  0.50000000  0.00000000  1
  Li  Li3  1  0.50000000  0.00000000  0.50000000  1
  Cu  Cu4  1  0.00000000  0.50000000  0.50000000  1
  Cu  Cu5  1  0.53031155  0.54557851  0.19060597  1
  Se  Se6  1  0.39085824  0.06337350  0.87867813  1
  As  As7  1  0.93700374  0.21448148  0.08422165  1
  As  As8  1  0.22131653  0.85827374  0.40984392  1
  As  As9  1  0.97846747  0.34570404  0.79903062  1
  As  As10  1  0.53392493  0.05991606  0.51096841  1
  As  As11  1  0.80853897  0.75227974  0.35319692  1
  As  As12  1  0.26135792  0.35358999  0.78890355  1
