# generated using pymatgen
data_Li2Mn2Sb4P3
_symmetry_space_group_name_H-M   'P 1'
_cell_length_a   5.39497198
_cell_length_b   5.74223632
_cell_length_c   6.46953070
_cell_angle_alpha   99.98462824
_cell_angle_beta   90.92205366
_cell_angle_gamma   99.84497782
_symmetry_Int_Tables_number   1
_chemical_formula_structural   Li2Mn2Sb4P3
_chemical_formula_sum   'Li2 Mn2 Sb4 P3'
_cell_volume   194.26253463
_cell_formula_units_Z   1
loop_
 _symmetry_equiv_pos_site_id
 _symmetry_equiv_pos_as_xyz
  1  'x, y, z'
loop_
 _atom_site_type_symbol
 _atom_site_label
 _atom_site_symmetry_multiplicity
 _atom_site_fract_x
 _atom_site_fract_y
 _atom_site_fract_z
 _atom_site_occupancy
  Mn  Mn0  1  0.00000000  0.00000000  0.00000000  1
  Mn  Mn1  1  0.50000000  0.50000000  0.50000000  1
  Sb  Sb2  1  0.50000000  0.50000000  0.00000000  1
  Sb  Sb3  1  0.50000000  0.00000000  0.50000000  1
  Sb  Sb4  1  0.00000000  0.50000000  0.50000000  1
  Sb  Sb5  1  0.80074878  0.11589960  0.41120011  1
  P  P6  1  0.46169612  0.65757461  0.40103579  1
  P  P7  1  0.14225511  0.31689019  0.67830854  1
  P  P8  1  0.90951741  0.74752112  0.05022615  1
  Li  Li9  1  0.60876683  0.05622920  0.61131800  1
  Li  Li10  1  0.85994010  0.78117436  0.05053484  1
