# generated using pymatgen
data_Li5ZrTi2Zn2O4
_symmetry_space_group_name_H-M   'P 1'
_cell_length_a   6.85768299
_cell_length_b   7.01058188
_cell_length_c   7.04800290
_cell_angle_alpha   96.22746759
_cell_angle_beta   97.42730811
_cell_angle_gamma   95.73915115
_symmetry_Int_Tables_number   1
_chemical_formula_structural   Li5ZrTi2Zn2O4
_chemical_formula_sum   'Li5 Zr1 Ti2 Zn2 O4'
_cell_volume   331.77453370
_cell_formula_units_Z   1
loop_
 _symmetry_equiv_pos_site_id
 _symmetry_equiv_pos_as_xyz
  1  'x, y, z'
loop_
 _atom_site_type_symbol
 _atom_site_label
 _atom_site_symmetry_multiplicity
 _atom_site_fract_x
 _atom_site_fract_y
 _atom_site_fract_z
 _atom_site_occupancy
  Li  Li0  1  0.00000000  0.00000000  0.00000000  1
  Li  Li1  1  0.50000000  0.50000000  0.50000000  1
  Li  Li2  1  0.25000000  0.25000000  0.25000000  1
  Li  Li3  1  0.75000000  0.25000000  0.00000000  1
  Li  Li4  1  0.25000000  0.75000000  0.50000000  1
  Zn  Zn5  1  0.71995131  0.37392876  0.99784960  1
  Zn  Zn6  1  0.62949474  0.91002687  0.33167706  1
  Ti  Ti7  1  0.31761210  0.00446929  0.75492350  1
  Ti  Ti8  1  0.98006465  0.34754212  0.07924107  1
  O  O9  1  0.02454931  0.44630232  0.88626663  1
  O  O10  1  0.47222218  0.41531731  0.14804197  1
  O  O11  1  0.40543464  0.84586031  0.81279501  1
  O  O12  1  0.92023042  0.33787493  0.95209725  1
  Zr  Zr13  1  0.15401875  0.79561728  0.37839962  1
