# generated using pymatgen
data_Li2As6I4O4F3
_symmetry_space_group_name_H-M   'P 1'
_cell_length_a   6.57971719
_cell_length_b   6.34882544
_cell_length_c   7.32843757
_cell_angle_alpha   94.25500275
_cell_angle_beta   95.69892323
_cell_angle_gamma   93.98226375
_symmetry_Int_Tables_number   1
_chemical_formula_structural   Li2As6I4O4F3
_chemical_formula_sum   'Li2 As6 I4 O4 F3'
_cell_volume   302.87004674
_cell_formula_units_Z   1
loop_
 _symmetry_equiv_pos_site_id
 _symmetry_equiv_pos_as_xyz
  1  'x, y, z'
loop_
 _atom_site_type_symbol
 _atom_site_label
 _atom_site_symmetry_multiplicity
 _atom_site_fract_x
 _atom_site_fract_y
 _atom_site_fract_z
 _atom_site_occupancy
  I  I0  1  0.12500000  0.00000000  0.25000000  1
  I  I1  1  0.00000000  0.00000000  0.00000000  1
  I  I2  1  0.37500000  0.00000000  0.25000000  1
  I  I3  1  0.25000000  0.25000000  0.25000000  1
  Li  Li4  1  0.00000000  0.25000000  0.12500000  1
  Li  Li5  1  0.92814643  0.04632171  0.62745980  1
  F  F6  1  0.02989590  0.26034690  0.02842621  1
  F  F7  1  0.74433773  0.78805436  0.71886601  1
  F  F8  1  0.11439531  0.49490124  0.36236021  1
  As  As9  1  0.07177247  0.92634495  0.42179538  1
  As  As10  1  0.19044158  0.53192935  0.74796123  1
  As  As11  1  0.65655565  0.99494096  0.13279252  1
  As  As12  1  0.88446140  0.86008079  0.79132361  1
  As  As13  1  0.35485572  0.71056773  0.04492455  1
  As  As14  1  0.10822775  0.34541641  0.04486526  1
  O  O15  1  0.58541082  0.35259814  0.84894986  1
  O  O16  1  0.15393880  0.73459308  0.27635148  1
  O  O17  1  0.90755913  0.36447486  0.87068824  1
  O  O18  1  0.89023311  0.29143898  0.18906717  1
