# generated using pymatgen
data_Li2MnSb4Mo2P3
_symmetry_space_group_name_H-M   'P 1'
_cell_length_a   4.16453164
_cell_length_b   4.25325904
_cell_length_c   6.29040854
_cell_angle_alpha   103.46655044
_cell_angle_beta   94.85397337
_cell_angle_gamma   103.78099368
_symmetry_Int_Tables_number   1
_chemical_formula_structural   Li2MnSb4Mo2P3
_chemical_formula_sum   'Li2 Mn1 Sb4 Mo2 P3'
_cell_volume   104.07428629
_cell_formula_units_Z   1
loop_
 _symmetry_equiv_pos_site_id
 _symmetry_equiv_pos_as_xyz
  1  'x, y, z'
loop_
 _atom_site_type_symbol
 _atom_site_label
 _atom_site_symmetry_multiplicity
 _atom_site_fract_x
 _atom_site_fract_y
 _atom_site_fract_z
 _atom_site_occupancy
  Mn  Mn0  1  0.00000000  0.00000000  0.00000000  1
  Sb  Sb1  1  0.50000000  0.50000000  0.50000000  1
  Sb  Sb2  1  0.25000000  0.25000000  0.25000000  1
  Sb  Sb3  1  0.75000000  0.25000000  0.00000000  1
  Sb  Sb4  1  0.25000000  0.75000000  0.50000000  1
  P  P5  1  0.07203348  0.49643616  0.46527997  1
  P  P6  1  0.88008465  0.73508245  0.03203294  1
  P  P7  1  0.48702264  0.80204744  0.60806925  1
  Mo  Mo8  1  0.10209103  0.12003578  0.62386059  1
  Mo  Mo9  1  0.63198848  0.74288081  0.59906708  1
  Li  Li10  1  0.81223635  0.01600374  0.84188867  1
  Li  Li11  1  0.73714393  0.79238030  0.09094431  1
