# generated using pymatgen
data_Li2Cu2As6P4F3
_symmetry_space_group_name_H-M   'P 1'
_cell_length_a   7.12440350
_cell_length_b   7.16578501
_cell_length_c   8.06459386
_cell_angle_alpha   93.94832652
_cell_angle_beta   95.73262263
_cell_angle_gamma   93.80732286
_symmetry_Int_Tables_number   1
_chemical_formula_structural   Li2Cu2As6P4F3
_chemical_formula_sum   'Li2 Cu2 As6 P4 F3'
_cell_volume   407.56672519
_cell_formula_units_Z   1
loop_
 _symmetry_equiv_pos_site_id
 _symmetry_equiv_pos_as_xyz
  1  'x, y, z'
loop_
 _atom_site_type_symbol
 _atom_site_label
 _atom_site_symmetry_multiplicity
 _atom_site_fract_x
 _atom_site_fract_y
 _atom_site_fract_z
 _atom_site_occupancy
  P  P0  1  0.00000000  0.00000000  0.00000000  1
  P  P1  1  0.50000000  0.50000000  0.50000000  1
  P  P2  1  0.50000000  0.50000000  0.00000000  1
  P  P3  1  0.50000000  0.00000000  0.50000000  1
  Li  Li4  1  0.00000000  0.50000000  0.50000000  1
  Li  Li5  1  0.20196590  0.87689304  0.50535512  1
  Cu  Cu6  1  0.98223424  0.80410545  0.26524303  1
  Cu  Cu7  1  0.32557377  0.92536923  0.91948394  1
  F  F8  1  0.92560674  0.29630546  0.19021491  1
  F  F9  1  0.45105972  0.57440082  0.30202465  1
  F  F10  1  0.53908831  0.94393973  0.57809866  1
  As  As11  1  0.27469947  0.24014258  0.63867445  1
  As  As12  1  0.04103300  0.99322672  0.49061384  1
  As  As13  1  0.69285944  0.97004309  0.20227669  1
  As  As14  1  0.13603263  0.85821478  0.99849479  1
  As  As15  1  0.95025926  0.27168592  0.21226057  1
  As  As16  1  0.27462837  0.96298578  0.18252859  1
