# generated using pymatgen
data_LiScSe3Br2O3
_symmetry_space_group_name_H-M   'P 1'
_cell_length_a   7.76465980
_cell_length_b   8.78279761
_cell_length_c   8.56024213
_cell_angle_alpha   90.00000000
_cell_angle_beta   90.00000000
_cell_angle_gamma   90.00000000
_symmetry_Int_Tables_number   1
_chemical_formula_structural   LiScSe3Br2O3
_chemical_formula_sum   'Li1 Sc1 Se3 Br2 O3'
_cell_volume   583.76943959
_cell_formula_units_Z   1
loop_
 _symmetry_equiv_pos_site_id
 _symmetry_equiv_pos_as_xyz
  1  'x, y, z'
loop_
 _atom_site_type_symbol
 _atom_site_label
 _atom_site_symmetry_multiplicity
 _atom_site_fract_x
 _atom_site_fract_y
 _atom_site_fract_z
 _atom_site_occupancy
  Sc  Sc0  1  0.00000000  0.00000000  0.00000000  1
  Li  Li1  1  0.50000000  0.50000000  0.50000000  1
  Br  Br2  1  0.25000000  0.25000000  0.25000000  1
  Br  Br3  1  0.75000000  0.25000000  0.00000000  1
  Se  Se4  1  0.25000000  0.75000000  0.50000000  1
  Se  Se5  1  0.48851609  0.83709731  0.38498969  1
  Se  Se6  1  0.67911299  0.98243455  0.28517091  1
  O  O7  1  0.71126868  0.62235616  0.79049207  1
  O  O8  1  0.59658455  0.07584256  0.86315761  1
  O  O9  1  0.28268443  0.92597331  0.40526029  1
