# generated using pymatgen
data_Li5ZrTi2SeF3
_symmetry_space_group_name_H-M   'P 1'
_cell_length_a   5.02579181
_cell_length_b   4.53769134
_cell_length_c   6.64966432
_cell_angle_alpha   99.51464002
_cell_angle_beta   103.10771973
_cell_angle_gamma   98.87799964
_symmetry_Int_Tables_number   1
_chemical_formula_structural   Li5ZrTi2SeF3
_chemical_formula_sum   'Li5 Zr1 Ti2 Se1 F3'
_cell_volume   142.73186320
_cell_formula_units_Z   1
loop_
 _symmetry_equiv_pos_site_id
 _symmetry_equiv_pos_as_xyz
  1  'x, y, z'
loop_
 _atom_site_type_symbol
 _atom_site_label
 _atom_site_symmetry_multiplicity
 _atom_site_fract_x
 _atom_site_fract_y
 _atom_site_fract_z
 _atom_site_occupancy
  Li  Li0  1  0.12500000  0.00000000  0.25000000  1
  Li  Li1  1  0.00000000  0.00000000  0.00000000  1
  Li  Li2  1  0.37500000  0.00000000  0.25000000  1
  Li  Li3  1  0.25000000  0.25000000  0.25000000  1
  Li  Li4  1  0.00000000  0.25000000  0.12500000  1
  Se  Se5  1  0.06922644  0.48765546  0.05731726  1
  F  F6  1  0.71396180  0.49926591  0.08314096  1
  F  F7  1  0.02364598  0.07420787  0.81349317  1
  F  F8  1  0.01376842  0.34819886  0.93050673  1
  Ti  Ti9  1  0.60860281  0.23061845  0.83147004  1
  Ti  Ti10  1  0.58749447  0.58287664  0.73158992  1
  Zr  Zr11  1  0.10223750  0.09211420  0.46661457  1
