# generated using pymatgen
data_Li3Zn2Te6(IO)4
_symmetry_space_group_name_H-M   'P 1'
_cell_length_a   8.75228294
_cell_length_b   8.90152584
_cell_length_c   7.22142453
_cell_angle_alpha   90.00000000
_cell_angle_beta   90.00000000
_cell_angle_gamma   90.00000000
_symmetry_Int_Tables_number   1
_chemical_formula_structural   Li3Zn2Te6(IO)4
_chemical_formula_sum   'Li3 Zn2 Te6 I4 O4'
_cell_volume   562.61160018
_cell_formula_units_Z   1
loop_
 _symmetry_equiv_pos_site_id
 _symmetry_equiv_pos_as_xyz
  1  'x, y, z'
loop_
 _atom_site_type_symbol
 _atom_site_label
 _atom_site_symmetry_multiplicity
 _atom_site_fract_x
 _atom_site_fract_y
 _atom_site_fract_z
 _atom_site_occupancy
  I  I0  1  0.12500000  0.00000000  0.25000000  1
  I  I1  1  0.00000000  0.00000000  0.00000000  1
  I  I2  1  0.37500000  0.00000000  0.25000000  1
  I  I3  1  0.25000000  0.25000000  0.25000000  1
  Li  Li4  1  0.00000000  0.25000000  0.12500000  1
  Li  Li5  1  0.05004291  0.84850461  0.69658463  1
  Li  Li6  1  0.00743634  0.53414160  0.15451225  1
  Zn  Zn7  1  0.20711954  0.76452426  0.22288226  1
  Zn  Zn8  1  0.25371087  0.81428438  0.83086922  1
  Te  Te9  1  0.13662386  0.54014168  0.94600220  1
  Te  Te10  1  0.34502896  0.79948193  0.23210347  1
  Te  Te11  1  0.71526965  0.64640730  0.59562701  1
  Te  Te12  1  0.79453339  0.94835115  0.37933109  1
  Te  Te13  1  0.10759483  0.11546159  0.54734925  1
  Te  Te14  1  0.08983542  0.33368791  0.49351200  1
  O  O15  1  0.16862703  0.29184719  0.93637555  1
  O  O16  1  0.62910912  0.16241701  0.54457179  1
  O  O17  1  0.74717885  0.92946730  0.97720122  1
  O  O18  1  0.07381597  0.55815784  0.37987543  1
