# generated using pymatgen
data_Li2TiSeS
_symmetry_space_group_name_H-M   'P 1'
_cell_length_a   6.10220357
_cell_length_b   5.65086283
_cell_length_c   6.78327113
_cell_angle_alpha   94.99561683
_cell_angle_beta   96.82657620
_cell_angle_gamma   94.58400242
_symmetry_Int_Tables_number   1
_chemical_formula_structural   Li2TiSeS
_chemical_formula_sum   'Li4 Ti2 Se2 S2'
_cell_volume   230.39958915
_cell_formula_units_Z   2
loop_
 _symmetry_equiv_pos_site_id
 _symmetry_equiv_pos_as_xyz
  1  'x, y, z'
loop_
 _atom_site_type_symbol
 _atom_site_label
 _atom_site_symmetry_multiplicity
 _atom_site_fract_x
 _atom_site_fract_y
 _atom_site_fract_z
 _atom_site_occupancy
  Li  Li0  1  0.00000000  0.00000000  0.00000000  1
  Li  Li1  1  0.33300000  0.66700000  0.25000000  1
  Li  Li2  1  0.66700000  0.33300000  0.50000000  1
  Li  Li3  1  0.00000000  0.00000000  0.75000000  1
  Se  Se4  1  0.95054011  0.93244208  0.33207185  1
  Se  Se5  1  0.65111240  0.06626064  0.51354580  1
  S  S6  1  0.12977664  0.49957907  0.22048070  1
  S  S7  1  0.59518456  0.16403282  0.91889441  1
  Ti  Ti8  1  0.78164603  0.42748278  0.42743942  1
  Ti  Ti9  1  0.62888559  0.19652347  0.63445543  1
