# generated using pymatgen
data_Li2MnSb4P3
_symmetry_space_group_name_H-M   'P 1'
_cell_length_a   6.28500163
_cell_length_b   6.79927785
_cell_length_c   7.12943929
_cell_angle_alpha   94.57821415
_cell_angle_beta   92.39526246
_cell_angle_gamma   94.78887502
_symmetry_Int_Tables_number   1
_chemical_formula_structural   Li2MnSb4P3
_chemical_formula_sum   'Li2 Mn1 Sb4 P3'
_cell_volume   302.27312960
_cell_formula_units_Z   1
loop_
 _symmetry_equiv_pos_site_id
 _symmetry_equiv_pos_as_xyz
  1  'x, y, z'
loop_
 _atom_site_type_symbol
 _atom_site_label
 _atom_site_symmetry_multiplicity
 _atom_site_fract_x
 _atom_site_fract_y
 _atom_site_fract_z
 _atom_site_occupancy
  Mn  Mn0  1  0.00000000  0.00000000  0.00000000  1
  Sb  Sb1  1  0.50000000  0.50000000  0.50000000  1
  Sb  Sb2  1  0.50000000  0.50000000  0.00000000  1
  Sb  Sb3  1  0.50000000  0.00000000  0.50000000  1
  Sb  Sb4  1  0.00000000  0.50000000  0.50000000  1
  P  P5  1  0.56817146  0.48430068  0.12497679  1
  P  P6  1  0.52574460  0.70522310  0.56354643  1
  P  P7  1  0.82392107  0.88751072  0.59583427  1
  Li  Li8  1  0.41047865  0.41514454  0.75269079  1
  Li  Li9  1  0.62366148  0.24103418  0.26878742  1
