# generated using pymatgen
data_Li4Ti2SeO4F3
_symmetry_space_group_name_H-M   'P 1'
_cell_length_a   4.90654444
_cell_length_b   4.65054027
_cell_length_c   6.96906886
_cell_angle_alpha   104.39542074
_cell_angle_beta   108.88123313
_cell_angle_gamma   103.52006444
_symmetry_Int_Tables_number   1
_chemical_formula_structural   Li4Ti2SeO4F3
_chemical_formula_sum   'Li4 Ti2 Se1 O4 F3'
_cell_volume   136.90541928
_cell_formula_units_Z   1
loop_
 _symmetry_equiv_pos_site_id
 _symmetry_equiv_pos_as_xyz
  1  'x, y, z'
loop_
 _atom_site_type_symbol
 _atom_site_label
 _atom_site_symmetry_multiplicity
 _atom_site_fract_x
 _atom_site_fract_y
 _atom_site_fract_z
 _atom_site_occupancy
  Li  Li0  1  0.00000000  0.00000000  0.00000000  1
  Li  Li1  1  0.50000000  0.50000000  0.50000000  1
  Li  Li2  1  0.50000000  0.50000000  0.00000000  1
  Li  Li3  1  0.50000000  0.00000000  0.50000000  1
  Se  Se4  1  0.00000000  0.50000000  0.50000000  1
  F  F5  1  0.83857536  0.90636368  0.73454329  1
  F  F6  1  0.27451075  0.84449041  0.77311432  1
  F  F7  1  0.73622465  0.27311412  0.27499082  1
  Ti  Ti8  1  0.65882601  0.31741675  0.72051784  1
  Ti  Ti9  1  0.63782128  0.51011159  0.73951791  1
  O  O10  1  0.65792049  0.94265903  0.95100009  1
  O  O11  1  0.30685466  0.82742554  0.83962298  1
  O  O12  1  0.20170559  0.71667251  0.09513436  1
  O  O13  1  0.48405490  0.94780102  0.46102303  1
