# generated using pymatgen
data_Li4LuVP4O7
_symmetry_space_group_name_H-M   'P 1'
_cell_length_a   6.59566972
_cell_length_b   5.99005209
_cell_length_c   8.12684261
_cell_angle_alpha   96.81856907
_cell_angle_beta   92.41065048
_cell_angle_gamma   97.90871468
_symmetry_Int_Tables_number   1
_chemical_formula_structural   Li4LuVP4O7
_chemical_formula_sum   'Li4 Lu1 V1 P4 O7'
_cell_volume   315.21813655
_cell_formula_units_Z   1
loop_
 _symmetry_equiv_pos_site_id
 _symmetry_equiv_pos_as_xyz
  1  'x, y, z'
loop_
 _atom_site_type_symbol
 _atom_site_label
 _atom_site_symmetry_multiplicity
 _atom_site_fract_x
 _atom_site_fract_y
 _atom_site_fract_z
 _atom_site_occupancy
  P  P0  1  0.12500000  0.00000000  0.25000000  1
  P  P1  1  0.00000000  0.00000000  0.00000000  1
  P  P2  1  0.37500000  0.00000000  0.25000000  1
  P  P3  1  0.25000000  0.25000000  0.25000000  1
  Lu  Lu4  1  0.00000000  0.25000000  0.12500000  1
  Li  Li5  1  0.33846911  0.20646456  0.42528817  1
  Li  Li6  1  0.34503260  0.97281299  0.52076934  1
  Li  Li7  1  0.23127636  0.27190318  0.11889989  1
  Li  Li8  1  0.47456174  0.27935871  0.70316374  1
  V  V9  1  0.34411237  0.87955593  0.11990522  1
  O  O10  1  0.59817758  0.56876982  0.48557146  1
  O  O11  1  0.02832385  0.21885185  0.82088658  1
  O  O12  1  0.47559132  0.26341782  0.32045028  1
  O  O13  1  0.50464306  0.99903764  0.24929258  1
  O  O14  1  0.06794485  0.08097239  0.81654071  1
  O  O15  1  0.17689763  0.99211805  0.20771477  1
  O  O16  1  0.88147572  0.60441084  0.26608630  1
