# generated using pymatgen
data_Li4LuNi2P4N5
_symmetry_space_group_name_H-M   'P 1'
_cell_length_a   7.43249497
_cell_length_b   7.05219556
_cell_length_c   8.86811598
_cell_angle_alpha   93.49759716
_cell_angle_beta   91.23654746
_cell_angle_gamma   94.05678930
_symmetry_Int_Tables_number   1
_chemical_formula_structural   Li4LuNi2P4N5
_chemical_formula_sum   'Li4 Lu1 Ni2 P4 N5'
_cell_volume   462.64105756
_cell_formula_units_Z   1
loop_
 _symmetry_equiv_pos_site_id
 _symmetry_equiv_pos_as_xyz
  1  'x, y, z'
loop_
 _atom_site_type_symbol
 _atom_site_label
 _atom_site_symmetry_multiplicity
 _atom_site_fract_x
 _atom_site_fract_y
 _atom_site_fract_z
 _atom_site_occupancy
  P  P0  1  0.00000000  0.00000000  0.00000000  1
  P  P1  1  0.50000000  0.50000000  0.50000000  1
  P  P2  1  0.50000000  0.50000000  0.00000000  1
  P  P3  1  0.50000000  0.00000000  0.50000000  1
  Lu  Lu4  1  0.00000000  0.50000000  0.50000000  1
  Li  Li5  1  0.01863836  0.15027847  0.16903965  1
  Li  Li6  1  0.47064967  0.44188107  0.80427560  1
  Li  Li7  1  0.05970327  0.26297967  0.10125064  1
  Li  Li8  1  0.88534821  0.72273976  0.13132627  1
  Ni  Ni9  1  0.97721029  0.25025222  0.52883293  1
  Ni  Ni10  1  0.11565116  0.27059473  0.14119101  1
  N  N11  1  0.71132604  0.88682515  0.28422467  1
  N  N12  1  0.20846156  0.68296662  0.73336669  1
  N  N13  1  0.69242839  0.39567852  0.72669441  1
  N  N14  1  0.78788157  0.08194923  0.56644324  1
  N  N15  1  0.85000642  0.79605331  0.48012544  1
