# generated using pymatgen
data_LiMn2Mo2P3
_symmetry_space_group_name_H-M   'P 1'
_cell_length_a   4.58269349
_cell_length_b   4.74035617
_cell_length_c   5.87577190
_cell_angle_alpha   95.39329277
_cell_angle_beta   92.64536129
_cell_angle_gamma   96.02679543
_symmetry_Int_Tables_number   1
_chemical_formula_structural   LiMn2Mo2P3
_chemical_formula_sum   'Li1 Mn2 Mo2 P3'
_cell_volume   126.17298939
_cell_formula_units_Z   1
loop_
 _symmetry_equiv_pos_site_id
 _symmetry_equiv_pos_as_xyz
  1  'x, y, z'
loop_
 _atom_site_type_symbol
 _atom_site_label
 _atom_site_symmetry_multiplicity
 _atom_site_fract_x
 _atom_site_fract_y
 _atom_site_fract_z
 _atom_site_occupancy
  Mn  Mn0  1  0.00000000  0.00000000  0.00000000  1
  Mn  Mn1  1  0.33300000  0.66700000  0.25000000  1
  P  P2  1  0.66700000  0.33300000  0.50000000  1
  P  P3  1  0.00000000  0.00000000  0.75000000  1
  P  P4  1  0.43256660  0.74174750  0.16219261  1
  Mo  Mo5  1  0.84950203  0.89998887  0.35252187  1
  Mo  Mo6  1  0.83438861  0.57064123  0.85080536  1
  Li  Li7  1  0.77702034  0.81403894  0.49671399  1
