# generated using pymatgen
data_Li3Ni2O5
_symmetry_space_group_name_H-M   'P 1'
_cell_length_a   8.40936654
_cell_length_b   8.48207949
_cell_length_c   8.82785274
_cell_angle_alpha   90.00000000
_cell_angle_beta   90.00000000
_cell_angle_gamma   90.00000000
_symmetry_Int_Tables_number   1
_chemical_formula_structural   Li3Ni2O5
_chemical_formula_sum   'Li3 Ni2 O5'
_cell_volume   629.68116159
_cell_formula_units_Z   1
loop_
 _symmetry_equiv_pos_site_id
 _symmetry_equiv_pos_as_xyz
  1  'x, y, z'
loop_
 _atom_site_type_symbol
 _atom_site_label
 _atom_site_symmetry_multiplicity
 _atom_site_fract_x
 _atom_site_fract_y
 _atom_site_fract_z
 _atom_site_occupancy
  Li  Li0  1  0.12500000  0.00000000  0.25000000  1
  Li  Li1  1  0.00000000  0.00000000  0.00000000  1
  Li  Li2  1  0.37500000  0.00000000  0.25000000  1
  Ni  Ni3  1  0.25000000  0.25000000  0.25000000  1
  Ni  Ni4  1  0.00000000  0.25000000  0.12500000  1
  O  O5  1  0.51540010  0.73239439  0.54715589  1
  O  O6  1  0.88116022  0.59708771  0.56133597  1
  O  O7  1  0.19396990  0.60468127  0.22584867  1
  O  O8  1  0.75225280  0.43409437  0.84792886  1
  O  O9  1  0.47677998  0.02964181  0.08378987  1
