# generated using pymatgen
data_LiMnSb2P
_symmetry_space_group_name_H-M   'P 1'
_cell_length_a   5.35682176
_cell_length_b   5.75871374
_cell_length_c   6.62389541
_cell_angle_alpha   98.79916915
_cell_angle_beta   95.05518379
_cell_angle_gamma   97.63201690
_symmetry_Int_Tables_number   1
_chemical_formula_structural   LiMnSb2P
_chemical_formula_sum   'Li2 Mn2 Sb4 P2'
_cell_volume   198.91268030
_cell_formula_units_Z   2
loop_
 _symmetry_equiv_pos_site_id
 _symmetry_equiv_pos_as_xyz
  1  'x, y, z'
loop_
 _atom_site_type_symbol
 _atom_site_label
 _atom_site_symmetry_multiplicity
 _atom_site_fract_x
 _atom_site_fract_y
 _atom_site_fract_z
 _atom_site_occupancy
  Mn  Mn0  1  0.00000000  0.00000000  0.00000000  1
  Mn  Mn1  1  0.50000000  0.50000000  0.50000000  1
  Sb  Sb2  1  0.25000000  0.25000000  0.25000000  1
  Sb  Sb3  1  0.75000000  0.25000000  0.00000000  1
  Sb  Sb4  1  0.25000000  0.75000000  0.50000000  1
  Sb  Sb5  1  0.57893599  0.35033070  0.37328047  1
  P  P6  1  0.09812565  0.30076913  0.37487426  1
  P  P7  1  0.06163524  0.11092826  0.94503168  1
  Li  Li8  1  0.85106880  0.47942677  0.96171338  1
  Li  Li9  1  0.76647091  0.78627427  0.38478847  1
