# generated using pymatgen
data_Li3Ti2P3Se3O2
_symmetry_space_group_name_H-M   'P 1'
_cell_length_a   7.60235597
_cell_length_b   7.17664283
_cell_length_c   6.79561911
_cell_angle_alpha   90.36616970
_cell_angle_beta   91.74212423
_cell_angle_gamma   90.41862974
_symmetry_Int_Tables_number   1
_chemical_formula_structural   Li3Ti2P3Se3O2
_chemical_formula_sum   'Li3 Ti2 P3 Se3 O2'
_cell_volume   370.57547911
_cell_formula_units_Z   1
loop_
 _symmetry_equiv_pos_site_id
 _symmetry_equiv_pos_as_xyz
  1  'x, y, z'
loop_
 _atom_site_type_symbol
 _atom_site_label
 _atom_site_symmetry_multiplicity
 _atom_site_fract_x
 _atom_site_fract_y
 _atom_site_fract_z
 _atom_site_occupancy
  P  P0  1  0.00000000  0.00000000  0.00000000  1
  P  P1  1  0.50000000  0.50000000  0.50000000  1
  P  P2  1  0.25000000  0.25000000  0.25000000  1
  Li  Li3  1  0.75000000  0.25000000  0.00000000  1
  Li  Li4  1  0.25000000  0.75000000  0.50000000  1
  Li  Li5  1  0.54552904  0.09456008  0.89923865  1
  Se  Se6  1  0.34737298  0.25181177  0.61833053  1
  Se  Se7  1  0.99362994  0.57486535  0.29195298  1
  Se  Se8  1  0.29719051  0.03913294  0.52693714  1
  Ti  Ti9  1  0.23806017  0.53182708  0.58555262  1
  Ti  Ti10  1  0.24524183  0.82468383  0.96660981  1
  O  O11  1  0.12245762  0.26451796  0.62714390  1
  O  O12  1  0.36973449  0.16673413  0.67151526  1
