# generated using pymatgen
data_LiCuAs3O
_symmetry_space_group_name_H-M   'P 1'
_cell_length_a   6.69728170
_cell_length_b   6.65932738
_cell_length_c   7.70749241
_cell_angle_alpha   93.19217554
_cell_angle_beta   95.80945086
_cell_angle_gamma   93.65107736
_symmetry_Int_Tables_number   1
_chemical_formula_structural   LiCuAs3O
_chemical_formula_sum   'Li2 Cu2 As6 O2'
_cell_volume   340.62096034
_cell_formula_units_Z   2
loop_
 _symmetry_equiv_pos_site_id
 _symmetry_equiv_pos_as_xyz
  1  'x, y, z'
loop_
 _atom_site_type_symbol
 _atom_site_label
 _atom_site_symmetry_multiplicity
 _atom_site_fract_x
 _atom_site_fract_y
 _atom_site_fract_z
 _atom_site_occupancy
  Li  Li0  1  0.12500000  0.00000000  0.25000000  1
  Li  Li1  1  0.00000000  0.00000000  0.00000000  1
  Cu  Cu2  1  0.37500000  0.00000000  0.25000000  1
  Cu  Cu3  1  0.25000000  0.25000000  0.25000000  1
  As  As4  1  0.00000000  0.25000000  0.12500000  1
  As  As5  1  0.44416249  0.98298482  0.59536371  1
  As  As6  1  0.78588683  0.69143500  0.47001913  1
  As  As7  1  0.93761900  0.49593412  0.79285428  1
  As  As8  1  0.42806840  0.38298660  0.79640638  1
  As  As9  1  0.00035485  0.77913483  0.12149133  1
  O  O10  1  0.82562605  0.45359737  0.54023014  1
  O  O11  1  0.42372204  0.07040155  0.66751519  1
