# generated using pymatgen
data_Li2Mn3Sb4P3
_symmetry_space_group_name_H-M   'P 1'
_cell_length_a   6.92741783
_cell_length_b   7.51644054
_cell_length_c   7.27232668
_cell_angle_alpha   92.69457750
_cell_angle_beta   90.66292723
_cell_angle_gamma   92.71455738
_symmetry_Int_Tables_number   1
_chemical_formula_structural   Li2Mn3Sb4P3
_chemical_formula_sum   'Li2 Mn3 Sb4 P3'
_cell_volume   377.78734690
_cell_formula_units_Z   1
loop_
 _symmetry_equiv_pos_site_id
 _symmetry_equiv_pos_as_xyz
  1  'x, y, z'
loop_
 _atom_site_type_symbol
 _atom_site_label
 _atom_site_symmetry_multiplicity
 _atom_site_fract_x
 _atom_site_fract_y
 _atom_site_fract_z
 _atom_site_occupancy
  Mn  Mn0  1  0.12500000  0.12500000  0.12500000  1
  Mn  Mn1  1  0.50000000  0.50000000  0.50000000  1
  Mn  Mn2  1  0.25000000  0.25000000  0.25000000  1
  Sb  Sb3  1  0.75000000  0.75000000  0.75000000  1
  Sb  Sb4  1  0.14823088  0.88593838  0.06264746  1
  Sb  Sb5  1  0.77044792  0.77003737  0.05394750  1
  Sb  Sb6  1  0.33901830  0.33086575  0.22065982  1
  P  P7  1  0.91391529  0.27873423  0.46594632  1
  P  P8  1  0.40721508  0.84407200  0.55197938  1
  P  P9  1  0.41635146  0.40253572  0.78801374  1
  Li  Li10  1  0.90731565  0.96281851  0.65366234  1
  Li  Li11  1  0.65800121  0.25736454  0.36652348  1
