# generated using pymatgen
data_LiMo2P3N
_symmetry_space_group_name_H-M   'P 1'
_cell_length_a   4.48809088
_cell_length_b   4.67652670
_cell_length_c   5.76546447
_cell_angle_alpha   99.15568669
_cell_angle_beta   94.24901001
_cell_angle_gamma   97.98964931
_symmetry_Int_Tables_number   1
_chemical_formula_structural   LiMo2P3N
_chemical_formula_sum   'Li1 Mo2 P3 N1'
_cell_volume   117.73390629
_cell_formula_units_Z   1
loop_
 _symmetry_equiv_pos_site_id
 _symmetry_equiv_pos_as_xyz
  1  'x, y, z'
loop_
 _atom_site_type_symbol
 _atom_site_label
 _atom_site_symmetry_multiplicity
 _atom_site_fract_x
 _atom_site_fract_y
 _atom_site_fract_z
 _atom_site_occupancy
  N  N0  1  0.00000000  0.00000000  0.00000000  1
  P  P1  1  0.50000000  0.50000000  0.50000000  1
  P  P2  1  0.25000000  0.25000000  0.25000000  1
  P  P3  1  0.75000000  0.25000000  0.00000000  1
  Mo  Mo4  1  0.25000000  0.75000000  0.50000000  1
  Mo  Mo5  1  0.89769084  0.58271672  0.45417805  1
  Li  Li6  1  0.92065038  0.67263835  0.93999632  1
