# generated using pymatgen
data_Li2TiI4(OF)3
_symmetry_space_group_name_H-M   'P 1'
_cell_length_a   8.47586916
_cell_length_b   8.33620699
_cell_length_c   7.43491960
_cell_angle_alpha   90.13841808
_cell_angle_beta   90.65855120
_cell_angle_gamma   90.15824883
_symmetry_Int_Tables_number   1
_chemical_formula_structural   Li2TiI4(OF)3
_chemical_formula_sum   'Li2 Ti1 I4 O3 F3'
_cell_volume   525.28786091
_cell_formula_units_Z   1
loop_
 _symmetry_equiv_pos_site_id
 _symmetry_equiv_pos_as_xyz
  1  'x, y, z'
loop_
 _atom_site_type_symbol
 _atom_site_label
 _atom_site_symmetry_multiplicity
 _atom_site_fract_x
 _atom_site_fract_y
 _atom_site_fract_z
 _atom_site_occupancy
  I  I0  1  0.12500000  0.00000000  0.25000000  1
  I  I1  1  0.00000000  0.00000000  0.00000000  1
  I  I2  1  0.37500000  0.00000000  0.25000000  1
  I  I3  1  0.25000000  0.25000000  0.25000000  1
  Li  Li4  1  0.00000000  0.25000000  0.12500000  1
  Li  Li5  1  0.85934152  0.68250937  0.62484534  1
  F  F6  1  0.14330396  0.40945097  0.26767950  1
  F  F7  1  0.99979956  0.33003464  0.05318848  1
  F  F8  1  0.19056742  0.08996496  0.20798432  1
  Ti  Ti9  1  0.69336268  0.56566752  0.47080924  1
  O  O10  1  0.07738798  0.60453940  0.77215134  1
  O  O11  1  0.03400654  0.50519081  0.31709462  1
  O  O12  1  0.78003362  0.33074662  0.49633163  1
