# generated using pymatgen
data_LiMnSb2P
_symmetry_space_group_name_H-M   'P 1'
_cell_length_a   5.73260455
_cell_length_b   6.22145626
_cell_length_c   6.74911440
_cell_angle_alpha   97.13499237
_cell_angle_beta   97.02695475
_cell_angle_gamma   94.66690649
_symmetry_Int_Tables_number   1
_chemical_formula_structural   LiMnSb2P
_chemical_formula_sum   'Li2 Mn2 Sb4 P2'
_cell_volume   235.90797806
_cell_formula_units_Z   2
loop_
 _symmetry_equiv_pos_site_id
 _symmetry_equiv_pos_as_xyz
  1  'x, y, z'
loop_
 _atom_site_type_symbol
 _atom_site_label
 _atom_site_symmetry_multiplicity
 _atom_site_fract_x
 _atom_site_fract_y
 _atom_site_fract_z
 _atom_site_occupancy
  Mn  Mn0  1  0.00000000  0.00000000  0.00000000  1
  Mn  Mn1  1  0.33300000  0.66700000  0.25000000  1
  Sb  Sb2  1  0.66700000  0.33300000  0.50000000  1
  Sb  Sb3  1  0.00000000  0.00000000  0.75000000  1
  Sb  Sb4  1  0.16022806  0.50450894  0.55543034  1
  Sb  Sb5  1  0.12029571  0.06730090  0.12407771  1
  P  P6  1  0.39958400  0.19840407  0.47990178  1
  P  P7  1  0.20266058  0.20065746  0.93446056  1
  Li  Li8  1  0.19493073  0.77151592  0.25536202  1
  Li  Li9  1  0.93502291  0.76353605  0.52962916  1
