# generated using pymatgen
data_Li2LuCu2P4N5
_symmetry_space_group_name_H-M   'P 1'
_cell_length_a   7.51418558
_cell_length_b   7.32518775
_cell_length_c   8.16103254
_cell_angle_alpha   92.21340207
_cell_angle_beta   92.24698604
_cell_angle_gamma   92.36073656
_symmetry_Int_Tables_number   1
_chemical_formula_structural   Li2LuCu2P4N5
_chemical_formula_sum   'Li2 Lu1 Cu2 P4 N5'
_cell_volume   448.11553531
_cell_formula_units_Z   1
loop_
 _symmetry_equiv_pos_site_id
 _symmetry_equiv_pos_as_xyz
  1  'x, y, z'
loop_
 _atom_site_type_symbol
 _atom_site_label
 _atom_site_symmetry_multiplicity
 _atom_site_fract_x
 _atom_site_fract_y
 _atom_site_fract_z
 _atom_site_occupancy
  P  P0  1  0.00000000  0.00000000  0.00000000  1
  P  P1  1  0.50000000  0.50000000  0.50000000  1
  P  P2  1  0.50000000  0.50000000  0.00000000  1
  P  P3  1  0.50000000  0.00000000  0.50000000  1
  Lu  Lu4  1  0.00000000  0.50000000  0.50000000  1
  Li  Li5  1  0.14947969  0.14799141  0.26477063  1
  Li  Li6  1  0.64052628  0.88580958  0.37370597  1
  Cu  Cu7  1  0.09403965  0.45632590  0.06682904  1
  Cu  Cu8  1  0.80098002  0.65206194  0.66128834  1
  N  N9  1  0.84775610  0.09445870  0.44527115  1
  N  N10  1  0.45108665  0.60106709  0.84698614  1
  N  N11  1  0.82723381  0.69084049  0.59917417  1
  N  N12  1  0.74455638  0.78946632  0.73491765  1
  N  N13  1  0.23195357  0.11942046  0.19972846  1
