# generated using pymatgen
data_Li2LuP4
_symmetry_space_group_name_H-M   'P 1'
_cell_length_a   7.20025904
_cell_length_b   7.09864388
_cell_length_c   8.05122183
_cell_angle_alpha   94.18535024
_cell_angle_beta   94.56658591
_cell_angle_gamma   94.22060822
_symmetry_Int_Tables_number   1
_chemical_formula_structural   Li2LuP4
_chemical_formula_sum   'Li2 Lu1 P4'
_cell_volume   407.80721636
_cell_formula_units_Z   1
loop_
 _symmetry_equiv_pos_site_id
 _symmetry_equiv_pos_as_xyz
  1  'x, y, z'
loop_
 _atom_site_type_symbol
 _atom_site_label
 _atom_site_symmetry_multiplicity
 _atom_site_fract_x
 _atom_site_fract_y
 _atom_site_fract_z
 _atom_site_occupancy
  P  P0  1  0.00000000  0.00000000  0.00000000  1
  P  P1  1  0.50000000  0.50000000  0.50000000  1
  P  P2  1  0.25000000  0.25000000  0.25000000  1
  P  P3  1  0.75000000  0.25000000  0.00000000  1
  Lu  Lu4  1  0.25000000  0.75000000  0.50000000  1
  Li  Li5  1  0.11257277  0.74365800  0.48350879  1
  Li  Li6  1  0.27672067  0.58660660  0.44066122  1
