# generated using pymatgen
data_Li2TiTe6Se
_symmetry_space_group_name_H-M   'P 1'
_cell_length_a   6.30068305
_cell_length_b   6.40424763
_cell_length_c   7.64743705
_cell_angle_alpha   98.65040303
_cell_angle_beta   100.31706831
_cell_angle_gamma   97.97209616
_symmetry_Int_Tables_number   1
_chemical_formula_structural   Li2TiTe6Se
_chemical_formula_sum   'Li2 Ti1 Te6 Se1'
_cell_volume   295.75629344
_cell_formula_units_Z   1
loop_
 _symmetry_equiv_pos_site_id
 _symmetry_equiv_pos_as_xyz
  1  'x, y, z'
loop_
 _atom_site_type_symbol
 _atom_site_label
 _atom_site_symmetry_multiplicity
 _atom_site_fract_x
 _atom_site_fract_y
 _atom_site_fract_z
 _atom_site_occupancy
  Li  Li0  1  0.00000000  0.00000000  0.00000000  1
  Li  Li1  1  0.50000000  0.50000000  0.50000000  1
  Se  Se2  1  0.25000000  0.25000000  0.25000000  1
  Te  Te3  1  0.75000000  0.25000000  0.00000000  1
  Te  Te4  1  0.25000000  0.75000000  0.50000000  1
  Te  Te5  1  0.08156001  0.10383898  0.85764556  1
  Te  Te6  1  0.09643661  0.54063010  0.19833554  1
  Te  Te7  1  0.82333297  0.69902320  0.16729354  1
  Te  Te8  1  0.76895834  0.25378719  0.37684655  1
  Ti  Ti9  1  0.49920791  0.07952582  0.11812155  1
