# generated using pymatgen
data_LiMnSb2P
_symmetry_space_group_name_H-M   'P 1'
_cell_length_a   5.73044645
_cell_length_b   6.21877121
_cell_length_c   6.76724256
_cell_angle_alpha   97.05258721
_cell_angle_beta   96.98428672
_cell_angle_gamma   94.70628145
_symmetry_Int_Tables_number   1
_chemical_formula_structural   LiMnSb2P
_chemical_formula_sum   'Li2 Mn2 Sb4 P2'
_cell_volume   236.40510430
_cell_formula_units_Z   2
loop_
 _symmetry_equiv_pos_site_id
 _symmetry_equiv_pos_as_xyz
  1  'x, y, z'
loop_
 _atom_site_type_symbol
 _atom_site_label
 _atom_site_symmetry_multiplicity
 _atom_site_fract_x
 _atom_site_fract_y
 _atom_site_fract_z
 _atom_site_occupancy
  Mn  Mn0  1  0.12500000  0.12500000  0.12500000  1
  Mn  Mn1  1  0.50000000  0.50000000  0.50000000  1
  Sb  Sb2  1  0.25000000  0.25000000  0.25000000  1
  Sb  Sb3  1  0.75000000  0.75000000  0.75000000  1
  Sb  Sb4  1  0.51558811  0.01820346  0.26248405  1
  Sb  Sb5  1  0.42597647  0.31344080  0.20101598  1
  P  P6  1  0.87210792  0.03703086  0.74869329  1
  P  P7  1  0.49806051  0.92156973  0.08597114  1
  Li  Li8  1  0.43799076  0.99764778  0.44644071  1
  Li  Li9  1  0.55184592  0.77078371  0.37686673  1
