# generated using pymatgen
data_Li2La3Ti(SO2)2
_symmetry_space_group_name_H-M   'P 1'
_cell_length_a   7.98218409
_cell_length_b   7.73579594
_cell_length_c   7.75693718
_cell_angle_alpha   93.61775407
_cell_angle_beta   93.96517247
_cell_angle_gamma   93.25455333
_symmetry_Int_Tables_number   1
_chemical_formula_structural   Li2La3Ti(SO2)2
_chemical_formula_sum   'Li2 La3 Ti1 S2 O4'
_cell_volume   475.98094594
_cell_formula_units_Z   1
loop_
 _symmetry_equiv_pos_site_id
 _symmetry_equiv_pos_as_xyz
  1  'x, y, z'
loop_
 _atom_site_type_symbol
 _atom_site_label
 _atom_site_symmetry_multiplicity
 _atom_site_fract_x
 _atom_site_fract_y
 _atom_site_fract_z
 _atom_site_occupancy
  Li  Li0  1  0.12500000  0.00000000  0.25000000  1
  Li  Li1  1  0.00000000  0.00000000  0.00000000  1
  La  La2  1  0.37500000  0.00000000  0.25000000  1
  La  La3  1  0.25000000  0.25000000  0.25000000  1
  La  La4  1  0.00000000  0.25000000  0.12500000  1
  S  S5  1  0.93550322  0.43554094  0.32532175  1
  S  S6  1  0.97477499  0.88438596  0.53973441  1
  Ti  Ti7  1  0.05688134  0.63146919  0.28759245  1
  O  O8  1  0.38697998  0.30999204  0.91405812  1
  O  O9  1  0.36905149  0.03001659  0.71392142  1
  O  O10  1  0.30902601  0.43123608  0.72119782  1
  O  O11  1  0.97274367  0.29849707  0.49437714  1
