# generated using pymatgen
data_Li2Cu2(As2P)3
_symmetry_space_group_name_H-M   'P 1'
_cell_length_a   7.06839756
_cell_length_b   6.98767047
_cell_length_c   7.63790429
_cell_angle_alpha   94.57648807
_cell_angle_beta   96.69609457
_cell_angle_gamma   94.35480840
_symmetry_Int_Tables_number   1
_chemical_formula_structural   Li2Cu2(As2P)3
_chemical_formula_sum   'Li2 Cu2 As6 P3'
_cell_volume   372.09382710
_cell_formula_units_Z   1
loop_
 _symmetry_equiv_pos_site_id
 _symmetry_equiv_pos_as_xyz
  1  'x, y, z'
loop_
 _atom_site_type_symbol
 _atom_site_label
 _atom_site_symmetry_multiplicity
 _atom_site_fract_x
 _atom_site_fract_y
 _atom_site_fract_z
 _atom_site_occupancy
  P  P0  1  0.12500000  0.12500000  0.12500000  1
  P  P1  1  0.50000000  0.50000000  0.50000000  1
  P  P2  1  0.25000000  0.25000000  0.25000000  1
  Li  Li3  1  0.75000000  0.75000000  0.75000000  1
  Li  Li4  1  0.57855387  0.58407418  0.86627430  1
  Cu  Cu5  1  0.07258378  0.20595228  0.84081843  1
  Cu  Cu6  1  0.91280757  0.18265633  0.19100433  1
  As  As7  1  0.10707519  0.15200989  0.42565658  1
  As  As8  1  0.22892464  0.64690815  0.16706418  1
  As  As9  1  0.18356662  0.59350962  0.93285766  1
  As  As10  1  0.53861186  0.17857814  0.13340382  1
  As  As11  1  0.04991167  0.81561946  0.19674604  1
  As  As12  1  0.76675557  0.99989093  0.64217858  1
