# generated using pymatgen
data_LiNiP4I2O
_symmetry_space_group_name_H-M   'P 1'
_cell_length_a   8.24457794
_cell_length_b   8.14856000
_cell_length_c   7.99728915
_cell_angle_alpha   90.00000000
_cell_angle_beta   90.00000000
_cell_angle_gamma   90.00000000
_symmetry_Int_Tables_number   1
_chemical_formula_structural   LiNiP4I2O
_chemical_formula_sum   'Li2 Ni2 P8 I4 O2'
_cell_volume   537.26938557
_cell_formula_units_Z   2
loop_
 _symmetry_equiv_pos_site_id
 _symmetry_equiv_pos_as_xyz
  1  'x, y, z'
loop_
 _atom_site_type_symbol
 _atom_site_label
 _atom_site_symmetry_multiplicity
 _atom_site_fract_x
 _atom_site_fract_y
 _atom_site_fract_z
 _atom_site_occupancy
  I  I0  1  0.00000000  0.00000000  0.00000000  1
  I  I1  1  0.50000000  0.50000000  0.50000000  1
  I  I2  1  0.25000000  0.25000000  0.25000000  1
  I  I3  1  0.75000000  0.25000000  0.00000000  1
  P  P4  1  0.25000000  0.75000000  0.50000000  1
  P  P5  1  0.58806351  0.02100920  0.28128690  1
  P  P6  1  0.57897985  0.61646808  0.58706787  1
  P  P7  1  0.89523770  0.23647534  0.35944293  1
  P  P8  1  0.45862382  0.92277757  0.65169544  1
  P  P9  1  0.64986785  0.33054912  0.44490697  1
  P  P10  1  0.45622840  0.48953737  0.24516941  1
  P  P11  1  0.54220123  0.61531970  0.59039047  1
  Li  Li12  1  0.81618555  0.29497677  0.46783370  1
  Li  Li13  1  0.07760029  0.99550281  0.98606396  1
  Ni  Ni14  1  0.92468121  0.28219139  0.69622495  1
  Ni  Ni15  1  0.71303228  0.05891975  0.72536590  1
  O  O16  1  0.86531131  0.36958167  0.42828929  1
  O  O17  1  0.30051055  0.73162314  0.50730060  1
