# generated using pymatgen
data_Li2Ti2P3S3F2
_symmetry_space_group_name_H-M   'P 1'
_cell_length_a   5.89834585
_cell_length_b   5.78763387
_cell_length_c   6.72251294
_cell_angle_alpha   91.48583901
_cell_angle_beta   98.72783317
_cell_angle_gamma   91.64238961
_symmetry_Int_Tables_number   1
_chemical_formula_structural   Li2Ti2P3S3F2
_chemical_formula_sum   'Li2 Ti2 P3 S3 F2'
_cell_volume   226.63244893
_cell_formula_units_Z   1
loop_
 _symmetry_equiv_pos_site_id
 _symmetry_equiv_pos_as_xyz
  1  'x, y, z'
loop_
 _atom_site_type_symbol
 _atom_site_label
 _atom_site_symmetry_multiplicity
 _atom_site_fract_x
 _atom_site_fract_y
 _atom_site_fract_z
 _atom_site_occupancy
  P  P0  1  0.00000000  0.00000000  0.00000000  1
  P  P1  1  0.50000000  0.50000000  0.50000000  1
  P  P2  1  0.25000000  0.25000000  0.25000000  1
  Li  Li3  1  0.75000000  0.25000000  0.00000000  1
  Li  Li4  1  0.25000000  0.75000000  0.50000000  1
  F  F5  1  0.12072533  0.25686338  0.79384419  1
  F  F6  1  0.36640935  0.77690703  0.65267237  1
  S  S7  1  0.68022862  0.81097019  0.20950906  1
  S  S8  1  0.66403043  0.93502798  0.10803545  1
  S  S9  1  0.17026183  0.71986760  0.34599170  1
  Ti  Ti10  1  0.94636610  0.69130588  0.67623073  1
  Ti  Ti11  1  0.06843808  0.30583107  0.10891036  1
