# generated using pymatgen
data_Li4LuNi2N5O7
_symmetry_space_group_name_H-M   'P 1'
_cell_length_a   6.54510765
_cell_length_b   5.92587599
_cell_length_c   8.08205390
_cell_angle_alpha   97.01922654
_cell_angle_beta   92.48159132
_cell_angle_gamma   98.14145305
_symmetry_Int_Tables_number   1
_chemical_formula_structural   Li4LuNi2N5O7
_chemical_formula_sum   'Li4 Lu1 Ni2 N5 O7'
_cell_volume   307.39502084
_cell_formula_units_Z   1
loop_
 _symmetry_equiv_pos_site_id
 _symmetry_equiv_pos_as_xyz
  1  'x, y, z'
loop_
 _atom_site_type_symbol
 _atom_site_label
 _atom_site_symmetry_multiplicity
 _atom_site_fract_x
 _atom_site_fract_y
 _atom_site_fract_z
 _atom_site_occupancy
  Lu  Lu0  1  0.00000000  0.00000000  0.00000000  1
  Li  Li1  1  0.50000000  0.50000000  0.50000000  1
  Li  Li2  1  0.25000000  0.25000000  0.25000000  1
  Li  Li3  1  0.75000000  0.25000000  0.00000000  1
  Li  Li4  1  0.25000000  0.75000000  0.50000000  1
  Ni  Ni5  1  0.47585309  0.02935905  0.64136703  1
  Ni  Ni6  1  0.53326147  0.75865553  0.00436788  1
  O  O7  1  0.99134462  0.08917639  0.71796794  1
  O  O8  1  0.55512396  0.98281808  0.99218297  1
  O  O9  1  0.85440626  0.05625418  0.90332570  1
  O  O10  1  0.03665585  0.88741431  0.51635032  1
  O  O11  1  0.57786976  0.93842505  0.02375560  1
  O  O12  1  0.06334356  0.43759808  0.32531614  1
  O  O13  1  0.96134305  0.88412334  0.97288319  1
  N  N14  1  0.25969399  0.37400399  0.91704302  1
  N  N15  1  0.41409042  0.21924354  0.74253225  1
  N  N16  1  0.49784790  0.32742441  0.55968965  1
  N  N17  1  0.65608982  0.51562706  0.95866398  1
  N  N18  1  0.32052309  0.57046849  0.40998911  1
