# generated using pymatgen
data_LiSbI2O
_symmetry_space_group_name_H-M   'P 1'
_cell_length_a   7.40997560
_cell_length_b   7.54833653
_cell_length_c   7.33465748
_cell_angle_alpha   90.65076401
_cell_angle_beta   95.37379012
_cell_angle_gamma   90.66665763
_symmetry_Int_Tables_number   1
_chemical_formula_structural   LiSbI2O
_chemical_formula_sum   'Li2 Sb2 I4 O2'
_cell_volume   408.38666462
_cell_formula_units_Z   2
loop_
 _symmetry_equiv_pos_site_id
 _symmetry_equiv_pos_as_xyz
  1  'x, y, z'
loop_
 _atom_site_type_symbol
 _atom_site_label
 _atom_site_symmetry_multiplicity
 _atom_site_fract_x
 _atom_site_fract_y
 _atom_site_fract_z
 _atom_site_occupancy
  I  I0  1  0.12500000  0.00000000  0.25000000  1
  I  I1  1  0.00000000  0.00000000  0.00000000  1
  I  I2  1  0.37500000  0.00000000  0.25000000  1
  I  I3  1  0.25000000  0.25000000  0.25000000  1
  Sb  Sb4  1  0.00000000  0.25000000  0.12500000  1
  Sb  Sb5  1  0.66043167  0.09881377  0.15800813  1
  Li  Li6  1  0.44814379  0.41349580  0.18586962  1
  Li  Li7  1  0.64410547  0.46115366  0.64944733  1
  O  O8  1  0.86859898  0.06852415  0.79735116  1
  O  O9  1  0.95217367  0.26635277  0.32848282  1
