# generated using pymatgen
data_LiLuCu2P5I4
_symmetry_space_group_name_H-M   'P 1'
_cell_length_a   7.21581945
_cell_length_b   7.10850578
_cell_length_c   8.19590253
_cell_angle_alpha   92.91417189
_cell_angle_beta   93.75635578
_cell_angle_gamma   93.21212529
_symmetry_Int_Tables_number   1
_chemical_formula_structural   LiLuCu2P5I4
_chemical_formula_sum   'Li1 Lu1 Cu2 P5 I4'
_cell_volume   418.20851189
_cell_formula_units_Z   1
loop_
 _symmetry_equiv_pos_site_id
 _symmetry_equiv_pos_as_xyz
  1  'x, y, z'
loop_
 _atom_site_type_symbol
 _atom_site_label
 _atom_site_symmetry_multiplicity
 _atom_site_fract_x
 _atom_site_fract_y
 _atom_site_fract_z
 _atom_site_occupancy
  I  I0  1  0.00000000  0.00000000  0.00000000  1
  I  I1  1  0.50000000  0.50000000  0.50000000  1
  I  I2  1  0.25000000  0.25000000  0.25000000  1
  I  I3  1  0.75000000  0.25000000  0.00000000  1
  P  P4  1  0.25000000  0.75000000  0.50000000  1
  P  P5  1  0.86485499  0.45148535  0.37790660  1
  P  P6  1  0.11525744  0.17073023  0.88105649  1
  P  P7  1  0.65102081  0.78831485  0.55316220  1
  P  P8  1  0.59582992  0.70933608  0.22432623  1
  Lu  Lu9  1  0.58794480  0.01987345  0.61035048  1
  Li  Li10  1  0.59352430  0.50762694  0.31138837  1
  Cu  Cu11  1  0.70955347  0.06782283  0.66932659  1
  Cu  Cu12  1  0.97524774  0.18069549  0.67907147  1
