# generated using pymatgen
data_Li2TiCu2P4F2
_symmetry_space_group_name_H-M   'P 1'
_cell_length_a   7.34669508
_cell_length_b   7.17504798
_cell_length_c   7.31293156
_cell_angle_alpha   91.00839787
_cell_angle_beta   92.40566590
_cell_angle_gamma   90.74182663
_symmetry_Int_Tables_number   1
_chemical_formula_structural   Li2TiCu2P4F2
_chemical_formula_sum   'Li2 Ti1 Cu2 P4 F2'
_cell_volume   385.05023147
_cell_formula_units_Z   1
loop_
 _symmetry_equiv_pos_site_id
 _symmetry_equiv_pos_as_xyz
  1  'x, y, z'
loop_
 _atom_site_type_symbol
 _atom_site_label
 _atom_site_symmetry_multiplicity
 _atom_site_fract_x
 _atom_site_fract_y
 _atom_site_fract_z
 _atom_site_occupancy
  P  P0  1  0.00000000  0.00000000  0.00000000  1
  P  P1  1  0.50000000  0.50000000  0.50000000  1
  P  P2  1  0.25000000  0.25000000  0.25000000  1
  P  P3  1  0.75000000  0.25000000  0.00000000  1
  Li  Li4  1  0.25000000  0.75000000  0.50000000  1
  Li  Li5  1  0.67354210  0.49960307  0.39338810  1
  Cu  Cu6  1  0.26326591  0.73665925  0.32611498  1
  Cu  Cu7  1  0.69959640  0.12909772  0.15022611  1
  F  F8  1  0.67616443  0.14075740  0.96417898  1
  F  F9  1  0.15248501  0.55960424  0.38700927  1
  Ti  Ti10  1  0.71030872  0.74420078  0.61472919  1
