# generated using pymatgen
data_Li5Ti2P3S2
_symmetry_space_group_name_H-M   'P 1'
_cell_length_a   5.06321257
_cell_length_b   4.57095925
_cell_length_c   6.78074129
_cell_angle_alpha   99.35971622
_cell_angle_beta   100.25854395
_cell_angle_gamma   98.42005703
_symmetry_Int_Tables_number   1
_chemical_formula_structural   Li5Ti2P3S2
_chemical_formula_sum   'Li5 Ti2 P3 S2'
_cell_volume   149.86040158
_cell_formula_units_Z   1
loop_
 _symmetry_equiv_pos_site_id
 _symmetry_equiv_pos_as_xyz
  1  'x, y, z'
loop_
 _atom_site_type_symbol
 _atom_site_label
 _atom_site_symmetry_multiplicity
 _atom_site_fract_x
 _atom_site_fract_y
 _atom_site_fract_z
 _atom_site_occupancy
  Li  Li0  1  0.00000000  0.00000000  0.00000000  1
  Li  Li1  1  0.33300000  0.66700000  0.25000000  1
  Li  Li2  1  0.66700000  0.33300000  0.50000000  1
  Li  Li3  1  0.00000000  0.00000000  0.75000000  1
  Li  Li4  1  0.80285801  0.34043025  0.05279435  1
  Ti  Ti5  1  0.24089496  0.44809914  0.98118338  1
  Ti  Ti6  1  0.63465213  0.66037752  0.07608413  1
  P  P7  1  0.48979594  0.70569487  0.92476252  1
  P  P8  1  0.74429529  0.64349065  0.13702178  1
  P  P9  1  0.84078977  0.04907550  0.56795844  1
  S  S10  1  0.90496471  0.43440903  0.11492440  1
  S  S11  1  0.18757812  0.61459694  0.41256493  1
