# generated using pymatgen
data_Li2MnSb4Mo2P3
_symmetry_space_group_name_H-M   'P 1'
_cell_length_a   5.35285180
_cell_length_b   5.39169121
_cell_length_c   6.79116719
_cell_angle_alpha   99.32437016
_cell_angle_beta   93.30794246
_cell_angle_gamma   99.53471332
_symmetry_Int_Tables_number   1
_chemical_formula_structural   Li2MnSb4Mo2P3
_chemical_formula_sum   'Li2 Mn1 Sb4 Mo2 P3'
_cell_volume   190.01662441
_cell_formula_units_Z   1
loop_
 _symmetry_equiv_pos_site_id
 _symmetry_equiv_pos_as_xyz
  1  'x, y, z'
loop_
 _atom_site_type_symbol
 _atom_site_label
 _atom_site_symmetry_multiplicity
 _atom_site_fract_x
 _atom_site_fract_y
 _atom_site_fract_z
 _atom_site_occupancy
  Mn  Mn0  1  0.00000000  0.00000000  0.00000000  1
  Sb  Sb1  1  0.50000000  0.50000000  0.50000000  1
  Sb  Sb2  1  0.50000000  0.50000000  0.00000000  1
  Sb  Sb3  1  0.50000000  0.00000000  0.50000000  1
  Sb  Sb4  1  0.00000000  0.50000000  0.50000000  1
  P  P5  1  0.74814240  0.15888040  0.76208627  1
  P  P6  1  0.98290980  0.54540049  0.22295635  1
  P  P7  1  0.93996614  0.29702983  0.36331681  1
  Mo  Mo8  1  0.48185341  0.68129419  0.23382303  1
  Mo  Mo9  1  0.56143085  0.89367229  0.77479976  1
  Li  Li10  1  0.98635178  0.61816639  0.40079738  1
  Li  Li11  1  0.20760255  0.00880213  0.18178544  1
