# generated using pymatgen
data_Li2TiI4(OF)3
_symmetry_space_group_name_H-M   'P 1'
_cell_length_a   6.90552185
_cell_length_b   6.69727613
_cell_length_c   7.18875214
_cell_angle_alpha   95.54451569
_cell_angle_beta   97.83878790
_cell_angle_gamma   95.24091419
_symmetry_Int_Tables_number   1
_chemical_formula_structural   Li2TiI4(OF)3
_chemical_formula_sum   'Li2 Ti1 I4 O3 F3'
_cell_volume   325.97216314
_cell_formula_units_Z   1
loop_
 _symmetry_equiv_pos_site_id
 _symmetry_equiv_pos_as_xyz
  1  'x, y, z'
loop_
 _atom_site_type_symbol
 _atom_site_label
 _atom_site_symmetry_multiplicity
 _atom_site_fract_x
 _atom_site_fract_y
 _atom_site_fract_z
 _atom_site_occupancy
  I  I0  1  0.00000000  0.00000000  0.00000000  1
  I  I1  1  0.50000000  0.50000000  0.50000000  1
  I  I2  1  0.50000000  0.50000000  0.00000000  1
  I  I3  1  0.50000000  0.00000000  0.50000000  1
  Li  Li4  1  0.00000000  0.50000000  0.50000000  1
  Li  Li5  1  0.77624137  0.00661600  0.01077832  1
  F  F6  1  0.11002145  0.29961519  0.62501073  1
  F  F7  1  0.54928374  0.62507726  0.85727984  1
  F  F8  1  0.21949289  0.97009767  0.69035609  1
  Ti  Ti9  1  0.03240821  0.68406266  0.73096926  1
  O  O10  1  0.22097865  0.31032607  0.91641727  1
  O  O11  1  0.53754655  0.65429170  0.25931466  1
  O  O12  1  0.42317869  0.33877441  0.94706240  1
