# generated using pymatgen
data_Li3TiO4F3
_symmetry_space_group_name_H-M   'P 1'
_cell_length_a   7.83775757
_cell_length_b   7.74775557
_cell_length_c   7.50130414
_cell_angle_alpha   92.83759058
_cell_angle_beta   94.02204892
_cell_angle_gamma   92.68282166
_symmetry_Int_Tables_number   1
_chemical_formula_structural   Li3TiO4F3
_chemical_formula_sum   'Li3 Ti1 O4 F3'
_cell_volume   453.25962103
_cell_formula_units_Z   1
loop_
 _symmetry_equiv_pos_site_id
 _symmetry_equiv_pos_as_xyz
  1  'x, y, z'
loop_
 _atom_site_type_symbol
 _atom_site_label
 _atom_site_symmetry_multiplicity
 _atom_site_fract_x
 _atom_site_fract_y
 _atom_site_fract_z
 _atom_site_occupancy
  Li  Li0  1  0.00000000  0.00000000  0.00000000  1
  Li  Li1  1  0.50000000  0.50000000  0.50000000  1
  Li  Li2  1  0.25000000  0.25000000  0.25000000  1
  F  F3  1  0.75000000  0.25000000  0.00000000  1
  F  F4  1  0.25000000  0.75000000  0.50000000  1
  F  F5  1  0.16591463  0.92966141  0.73630822  1
  Ti  Ti6  1  0.78034623  0.83786078  0.74559478  1
  O  O7  1  0.06966945  0.73775066  0.26382767  1
  O  O8  1  0.26503444  0.18889327  0.94008755  1
  O  O9  1  0.56868986  0.96293134  0.54662164  1
  O  O10  1  0.21800926  0.18341390  0.07213989  1
