# generated using pymatgen
data_LiMn3Sb4P3
_symmetry_space_group_name_H-M   'P 1'
_cell_length_a   5.25146572
_cell_length_b   5.49399294
_cell_length_c   6.07707716
_cell_angle_alpha   93.02100790
_cell_angle_beta   91.31111806
_cell_angle_gamma   93.53640657
_symmetry_Int_Tables_number   1
_chemical_formula_structural   LiMn3Sb4P3
_chemical_formula_sum   'Li1 Mn3 Sb4 P3'
_cell_volume   174.69574410
_cell_formula_units_Z   1
loop_
 _symmetry_equiv_pos_site_id
 _symmetry_equiv_pos_as_xyz
  1  'x, y, z'
loop_
 _atom_site_type_symbol
 _atom_site_label
 _atom_site_symmetry_multiplicity
 _atom_site_fract_x
 _atom_site_fract_y
 _atom_site_fract_z
 _atom_site_occupancy
  Mn  Mn0  1  0.00000000  0.00000000  0.00000000  1
  Mn  Mn1  1  0.50000000  0.50000000  0.50000000  1
  Mn  Mn2  1  0.25000000  0.25000000  0.25000000  1
  Sb  Sb3  1  0.75000000  0.25000000  0.00000000  1
  Sb  Sb4  1  0.25000000  0.75000000  0.50000000  1
  Sb  Sb5  1  0.93553799  0.08683428  0.95860265  1
  Sb  Sb6  1  0.25423787  0.06195318  0.83793553  1
  P  P7  1  0.46780594  0.76116577  0.18543522  1
  P  P8  1  0.88673622  0.83712533  0.12126672  1
  P  P9  1  0.96078667  0.36064464  0.25269950  1
  Li  Li10  1  0.60160550  0.85100030  0.92673933  1
