# generated using pymatgen
data_Li2TiCu2F3
_symmetry_space_group_name_H-M   'P 1'
_cell_length_a   6.45003185
_cell_length_b   6.29828262
_cell_length_c   7.40176391
_cell_angle_alpha   97.22762454
_cell_angle_beta   100.00647734
_cell_angle_gamma   96.82395429
_symmetry_Int_Tables_number   1
_chemical_formula_structural   Li2TiCu2F3
_chemical_formula_sum   'Li2 Ti1 Cu2 F3'
_cell_volume   290.70163877
_cell_formula_units_Z   1
loop_
 _symmetry_equiv_pos_site_id
 _symmetry_equiv_pos_as_xyz
  1  'x, y, z'
loop_
 _atom_site_type_symbol
 _atom_site_label
 _atom_site_symmetry_multiplicity
 _atom_site_fract_x
 _atom_site_fract_y
 _atom_site_fract_z
 _atom_site_occupancy
  Li  Li0  1  0.00000000  0.00000000  0.00000000  1
  Li  Li1  1  0.50000000  0.50000000  0.50000000  1
  Cu  Cu2  1  0.50000000  0.50000000  0.00000000  1
  Cu  Cu3  1  0.50000000  0.00000000  0.50000000  1
  F  F4  1  0.00000000  0.50000000  0.50000000  1
  F  F5  1  0.90410983  0.56153226  0.57590081  1
  F  F6  1  0.42199475  0.87114799  0.81089000  1
  Ti  Ti7  1  0.26126615  0.70678803  0.52938713  1
