# generated using pymatgen
data_Li3TiP3(I2Cl)2
_symmetry_space_group_name_H-M   'P 1'
_cell_length_a   6.76264230
_cell_length_b   6.59869202
_cell_length_c   7.22620860
_cell_angle_alpha   94.90292325
_cell_angle_beta   96.61833226
_cell_angle_gamma   94.54556367
_symmetry_Int_Tables_number   1
_chemical_formula_structural   Li3TiP3(I2Cl)2
_chemical_formula_sum   'Li3 Ti1 P3 I4 Cl2'
_cell_volume   317.84960098
_cell_formula_units_Z   1
loop_
 _symmetry_equiv_pos_site_id
 _symmetry_equiv_pos_as_xyz
  1  'x, y, z'
loop_
 _atom_site_type_symbol
 _atom_site_label
 _atom_site_symmetry_multiplicity
 _atom_site_fract_x
 _atom_site_fract_y
 _atom_site_fract_z
 _atom_site_occupancy
  I  I0  1  0.12500000  0.00000000  0.25000000  1
  I  I1  1  0.00000000  0.00000000  0.00000000  1
  I  I2  1  0.37500000  0.00000000  0.25000000  1
  I  I3  1  0.25000000  0.25000000  0.25000000  1
  P  P4  1  0.00000000  0.25000000  0.12500000  1
  P  P5  1  0.65956132  0.81584044  0.38896196  1
  P  P6  1  0.04684864  0.47129744  0.39237338  1
  Li  Li7  1  0.66335268  0.35035453  0.54986609  1
  Li  Li8  1  0.48600009  0.99352580  0.19291911  1
  Li  Li9  1  0.15046356  0.59072397  0.09764602  1
  Cl  Cl10  1  0.60400442  0.60667550  0.36140635  1
  Cl  Cl11  1  0.53751364  0.09064408  0.06041307  1
  Ti  Ti12  1  0.89346788  0.55372584  0.84929037  1
