# generated using pymatgen
data_Li5LuTi2(P2S)2
_symmetry_space_group_name_H-M   'P 1'
_cell_length_a   3.77240825
_cell_length_b   3.18201435
_cell_length_c   6.89883016
_cell_angle_alpha   103.98442231
_cell_angle_beta   103.69901902
_cell_angle_gamma   103.15127317
_symmetry_Int_Tables_number   1
_chemical_formula_structural   Li5LuTi2(P2S)2
_chemical_formula_sum   'Li5 Lu1 Ti2 P4 S2'
_cell_volume   74.42579803
_cell_formula_units_Z   1
loop_
 _symmetry_equiv_pos_site_id
 _symmetry_equiv_pos_as_xyz
  1  'x, y, z'
loop_
 _atom_site_type_symbol
 _atom_site_label
 _atom_site_symmetry_multiplicity
 _atom_site_fract_x
 _atom_site_fract_y
 _atom_site_fract_z
 _atom_site_occupancy
  S  S0  1  0.00000000  0.00000000  0.00000000  1
  S  S1  1  0.50000000  0.50000000  0.50000000  1
  Ti  Ti2  1  0.50000000  0.50000000  0.00000000  1
  Ti  Ti3  1  0.50000000  0.00000000  0.50000000  1
  P  P4  1  0.00000000  0.50000000  0.50000000  1
  P  P5  1  0.43301702  0.89769627  0.09682330  1
  P  P6  1  0.47061804  0.75344100  0.73412906  1
  P  P7  1  0.87134768  0.46034096  0.65446099  1
  Lu  Lu8  1  0.31160901  0.12538989  0.94253982  1
  Li  Li9  1  0.92528968  0.27641349  0.38167929  1
  Li  Li10  1  0.39529288  0.39370550  0.85448465  1
  Li  Li11  1  0.80323753  0.93012479  0.10268183  1
  Li  Li12  1  0.09420386  0.41680848  0.42928836  1
  Li  Li13  1  0.14641351  0.93716780  0.47696849  1
