# generated using pymatgen
data_Li2MnSb4Mo2P3
_symmetry_space_group_name_H-M   'P 1'
_cell_length_a   3.89987645
_cell_length_b   4.06746747
_cell_length_c   6.10755652
_cell_angle_alpha   104.54905032
_cell_angle_beta   94.71396659
_cell_angle_gamma   104.81493366
_symmetry_Int_Tables_number   1
_chemical_formula_structural   Li2MnSb4Mo2P3
_chemical_formula_sum   'Li2 Mn1 Sb4 Mo2 P3'
_cell_volume   89.54113215
_cell_formula_units_Z   1
loop_
 _symmetry_equiv_pos_site_id
 _symmetry_equiv_pos_as_xyz
  1  'x, y, z'
loop_
 _atom_site_type_symbol
 _atom_site_label
 _atom_site_symmetry_multiplicity
 _atom_site_fract_x
 _atom_site_fract_y
 _atom_site_fract_z
 _atom_site_occupancy
  Mn  Mn0  1  0.00000000  0.00000000  0.00000000  1
  Sb  Sb1  1  0.50000000  0.50000000  0.50000000  1
  Sb  Sb2  1  0.25000000  0.25000000  0.25000000  1
  Sb  Sb3  1  0.75000000  0.25000000  0.00000000  1
  Sb  Sb4  1  0.25000000  0.75000000  0.50000000  1
  P  P5  1  0.33855840  0.14021501  0.19017081  1
  P  P6  1  0.65317233  0.72934023  0.38410670  1
  P  P7  1  0.01247924  0.10936194  0.87029732  1
  Mo  Mo8  1  0.25854696  0.60693237  0.46786270  1
  Mo  Mo9  1  0.92004594  0.36312278  0.13879089  1
  Li  Li10  1  0.87031386  0.69020439  0.66399811  1
  Li  Li11  1  0.73218858  0.69366116  0.91657788  1
