# generated using pymatgen
data_Li4Ti2Cu2P3O2
_symmetry_space_group_name_H-M   'P 1'
_cell_length_a   5.95739579
_cell_length_b   6.10379802
_cell_length_c   6.66782029
_cell_angle_alpha   98.34111271
_cell_angle_beta   101.29759910
_cell_angle_gamma   100.73425116
_symmetry_Int_Tables_number   1
_chemical_formula_structural   Li4Ti2Cu2P3O2
_chemical_formula_sum   'Li4 Ti2 Cu2 P3 O2'
_cell_volume   229.41658337
_cell_formula_units_Z   1
loop_
 _symmetry_equiv_pos_site_id
 _symmetry_equiv_pos_as_xyz
  1  'x, y, z'
loop_
 _atom_site_type_symbol
 _atom_site_label
 _atom_site_symmetry_multiplicity
 _atom_site_fract_x
 _atom_site_fract_y
 _atom_site_fract_z
 _atom_site_occupancy
  P  P0  1  0.00000000  0.00000000  0.00000000  1
  P  P1  1  0.50000000  0.50000000  0.50000000  1
  P  P2  1  0.25000000  0.25000000  0.25000000  1
  Li  Li3  1  0.75000000  0.25000000  0.00000000  1
  Li  Li4  1  0.25000000  0.75000000  0.50000000  1
  Li  Li5  1  0.13550633  0.15127629  0.23072364  1
  Li  Li6  1  0.43595233  0.79771404  0.51745698  1
  Cu  Cu7  1  0.46205514  0.45841230  0.55977385  1
  Cu  Cu8  1  0.44350097  0.61250114  0.11393674  1
  Ti  Ti9  1  0.17886588  0.57213575  0.12469589  1
  Ti  Ti10  1  0.12791310  0.78989856  0.71532470  1
  O  O11  1  0.41646658  0.26915041  0.47374844  1
  O  O12  1  0.60836914  0.53172006  0.82363472  1
