# generated using pymatgen
data_Li3Ti2P5Cl2O3
_symmetry_space_group_name_H-M   'P 1'
_cell_length_a   6.18342966
_cell_length_b   5.77419963
_cell_length_c   7.15393251
_cell_angle_alpha   100.21724014
_cell_angle_beta   103.04506900
_cell_angle_gamma   99.61152009
_symmetry_Int_Tables_number   1
_chemical_formula_structural   Li3Ti2P5Cl2O3
_chemical_formula_sum   'Li3 Ti2 P5 Cl2 O3'
_cell_volume   239.11250600
_cell_formula_units_Z   1
loop_
 _symmetry_equiv_pos_site_id
 _symmetry_equiv_pos_as_xyz
  1  'x, y, z'
loop_
 _atom_site_type_symbol
 _atom_site_label
 _atom_site_symmetry_multiplicity
 _atom_site_fract_x
 _atom_site_fract_y
 _atom_site_fract_z
 _atom_site_occupancy
  Cl  Cl0  1  0.12500000  0.00000000  0.25000000  1
  Cl  Cl1  1  0.00000000  0.00000000  0.00000000  1
  Li  Li2  1  0.37500000  0.00000000  0.25000000  1
  Li  Li3  1  0.25000000  0.25000000  0.25000000  1
  Li  Li4  1  0.00000000  0.25000000  0.12500000  1
  Ti  Ti5  1  0.59398308  0.30124746  0.08225294  1
  Ti  Ti6  1  0.35970314  0.25903229  0.93908022  1
  P  P7  1  0.29102782  0.72104808  0.56864737  1
  P  P8  1  0.03066147  0.61601328  0.36843574  1
  P  P9  1  0.18219429  0.58847578  0.38359091  1
  P  P10  1  0.54198260  0.26857212  0.53446290  1
  P  P11  1  0.35586313  0.56691556  0.12965408  1
  O  O12  1  0.86136871  0.30859105  0.14452842  1
  O  O13  1  0.65874897  0.89029242  0.48346532  1
  O  O14  1  0.35888685  0.80494603  0.99869773  1
