# generated using pymatgen
data_Li2Mn3Sb4P3N
_symmetry_space_group_name_H-M   'P 1'
_cell_length_a   7.01352584
_cell_length_b   6.98418411
_cell_length_c   7.22242940
_cell_angle_alpha   93.60676724
_cell_angle_beta   91.30981224
_cell_angle_gamma   93.21088065
_symmetry_Int_Tables_number   1
_chemical_formula_structural   Li2Mn3Sb4P3N
_chemical_formula_sum   'Li2 Mn3 Sb4 P3 N1'
_cell_volume   352.40311946
_cell_formula_units_Z   1
loop_
 _symmetry_equiv_pos_site_id
 _symmetry_equiv_pos_as_xyz
  1  'x, y, z'
loop_
 _atom_site_type_symbol
 _atom_site_label
 _atom_site_symmetry_multiplicity
 _atom_site_fract_x
 _atom_site_fract_y
 _atom_site_fract_z
 _atom_site_occupancy
  N  N0  1  0.00000000  0.00000000  0.00000000  1
  Mn  Mn1  1  0.50000000  0.50000000  0.50000000  1
  Mn  Mn2  1  0.25000000  0.25000000  0.25000000  1
  Mn  Mn3  1  0.75000000  0.25000000  0.00000000  1
  Sb  Sb4  1  0.25000000  0.75000000  0.50000000  1
  Sb  Sb5  1  0.89120980  0.34139226  0.79644190  1
  Sb  Sb6  1  0.87045814  0.49254450  0.06536688  1
  Sb  Sb7  1  0.83220183  0.55862990  0.34432651  1
  P  P8  1  0.42694984  0.09302089  0.13575351  1
  P  P9  1  0.52829972  0.27028418  0.27192403  1
  P  P10  1  0.25292978  0.20375301  0.76536015  1
  Li  Li11  1  0.63946543  0.39889757  0.23171181  1
  Li  Li12  1  0.13710828  0.53016423  0.11647064  1
