# generated using pymatgen
data_LiTi2Sb3I4F3
_symmetry_space_group_name_H-M   'P 1'
_cell_length_a   5.74618688
_cell_length_b   5.81539078
_cell_length_c   6.33104873
_cell_angle_alpha   91.58950911
_cell_angle_beta   101.13585121
_cell_angle_gamma   91.69589419
_symmetry_Int_Tables_number   1
_chemical_formula_structural   LiTi2Sb3I4F3
_chemical_formula_sum   'Li1 Ti2 Sb3 I4 F3'
_cell_volume   207.36543612
_cell_formula_units_Z   1
loop_
 _symmetry_equiv_pos_site_id
 _symmetry_equiv_pos_as_xyz
  1  'x, y, z'
loop_
 _atom_site_type_symbol
 _atom_site_label
 _atom_site_symmetry_multiplicity
 _atom_site_fract_x
 _atom_site_fract_y
 _atom_site_fract_z
 _atom_site_occupancy
  F  F0  1  0.00000000  0.00000000  0.00000000  1
  F  F1  1  0.50000000  0.50000000  0.50000000  1
  F  F2  1  0.50000000  0.50000000  0.00000000  1
  Sb  Sb3  1  0.50000000  0.00000000  0.50000000  1
  Sb  Sb4  1  0.00000000  0.50000000  0.50000000  1
  Sb  Sb5  1  0.74181211  0.86131496  0.81910135  1
  I  I6  1  0.40261549  0.15761875  0.35672868  1
  I  I7  1  0.23165662  0.59786435  0.68825243  1
  I  I8  1  0.55515672  0.15236732  0.20442884  1
  I  I9  1  0.34072606  0.69186603  0.07136283  1
  Ti  Ti10  1  0.75628839  0.73451553  0.87257004  1
  Ti  Ti11  1  0.26164715  0.80511909  0.20387030  1
  Li  Li12  1  0.63603990  0.76757276  0.74491547  1
