# generated using pymatgen
data_Li2Mn2(SbP)3
_symmetry_space_group_name_H-M   'P 1'
_cell_length_a   4.63172718
_cell_length_b   4.93011466
_cell_length_c   6.62413513
_cell_angle_alpha   99.40297950
_cell_angle_beta   96.09465842
_cell_angle_gamma   99.94776550
_symmetry_Int_Tables_number   1
_chemical_formula_structural   Li2Mn2(SbP)3
_chemical_formula_sum   'Li2 Mn2 Sb3 P3'
_cell_volume   145.57322874
_cell_formula_units_Z   1
loop_
 _symmetry_equiv_pos_site_id
 _symmetry_equiv_pos_as_xyz
  1  'x, y, z'
loop_
 _atom_site_type_symbol
 _atom_site_label
 _atom_site_symmetry_multiplicity
 _atom_site_fract_x
 _atom_site_fract_y
 _atom_site_fract_z
 _atom_site_occupancy
  Mn  Mn0  1  0.00000000  0.00000000  0.00000000  1
  Mn  Mn1  1  0.50000000  0.50000000  0.50000000  1
  Sb  Sb2  1  0.50000000  0.50000000  0.00000000  1
  Sb  Sb3  1  0.50000000  0.00000000  0.50000000  1
  Sb  Sb4  1  0.00000000  0.50000000  0.50000000  1
  P  P5  1  0.44770775  0.01737168  0.06582903  1
  P  P6  1  0.89900181  0.71522848  0.73715992  1
  P  P7  1  0.16354398  0.96416908  0.16926514  1
  Li  Li8  1  0.63746491  0.36959711  0.08802325  1
  Li  Li9  1  0.17333416  0.68357534  0.47805593  1
