# generated using pymatgen
data_Li2MnSb4P3N
_symmetry_space_group_name_H-M   'P 1'
_cell_length_a   5.50801327
_cell_length_b   5.55183700
_cell_length_c   6.51995287
_cell_angle_alpha   98.14296661
_cell_angle_beta   94.47850186
_cell_angle_gamma   97.70827518
_symmetry_Int_Tables_number   1
_chemical_formula_structural   Li2MnSb4P3N
_chemical_formula_sum   'Li2 Mn1 Sb4 P3 N1'
_cell_volume   194.62370395
_cell_formula_units_Z   1
loop_
 _symmetry_equiv_pos_site_id
 _symmetry_equiv_pos_as_xyz
  1  'x, y, z'
loop_
 _atom_site_type_symbol
 _atom_site_label
 _atom_site_symmetry_multiplicity
 _atom_site_fract_x
 _atom_site_fract_y
 _atom_site_fract_z
 _atom_site_occupancy
  N  N0  1  0.00000000  0.00000000  0.00000000  1
  Mn  Mn1  1  0.50000000  0.50000000  0.50000000  1
  Sb  Sb2  1  0.25000000  0.25000000  0.25000000  1
  Sb  Sb3  1  0.75000000  0.25000000  0.00000000  1
  Sb  Sb4  1  0.25000000  0.75000000  0.50000000  1
  Sb  Sb5  1  0.34425501  0.25996758  0.83088926  1
  P  P6  1  0.83269434  0.97587994  0.75535705  1
  P  P7  1  0.74537511  0.09292128  0.83899258  1
  P  P8  1  0.82480463  0.27504373  0.48932641  1
  Li  Li9  1  0.23766665  0.71569859  0.70873434  1
  Li  Li10  1  0.33827288  0.44663824  0.91495582  1
