# generated using pymatgen
data_Li4Ti2P4O3
_symmetry_space_group_name_H-M   'P 1'
_cell_length_a   6.58463253
_cell_length_b   6.14734749
_cell_length_c   6.67473044
_cell_angle_alpha   94.69543165
_cell_angle_beta   95.14634107
_cell_angle_gamma   94.22403857
_symmetry_Int_Tables_number   1
_chemical_formula_structural   Li4Ti2P4O3
_chemical_formula_sum   'Li4 Ti2 P4 O3'
_cell_volume   267.29328543
_cell_formula_units_Z   1
loop_
 _symmetry_equiv_pos_site_id
 _symmetry_equiv_pos_as_xyz
  1  'x, y, z'
loop_
 _atom_site_type_symbol
 _atom_site_label
 _atom_site_symmetry_multiplicity
 _atom_site_fract_x
 _atom_site_fract_y
 _atom_site_fract_z
 _atom_site_occupancy
  Li  Li0  1  0.12500000  0.12500000  0.12500000  1
  Li  Li1  1  0.50000000  0.50000000  0.50000000  1
  Li  Li2  1  0.25000000  0.25000000  0.25000000  1
  Li  Li3  1  0.75000000  0.75000000  0.75000000  1
  Ti  Ti4  1  0.16591005  0.45664909  0.73133676  1
  Ti  Ti5  1  0.16231469  0.00483795  0.70797964  1
  P  P6  1  0.95409108  0.69500121  0.85162194  1
  P  P7  1  0.60725600  0.48300908  0.54279841  1
  P  P8  1  0.61853567  0.54457339  0.29661093  1
  P  P9  1  0.57604073  0.94042165  0.56125038  1
  O  O10  1  0.78426880  0.86809067  0.24296555  1
  O  O11  1  0.80058954  0.61018447  0.59740841  1
  O  O12  1  0.17677996  0.88827892  0.29591225  1
