# generated using pymatgen
data_LiMnSb4Mo2P3
_symmetry_space_group_name_H-M   'P 1'
_cell_length_a   5.37198971
_cell_length_b   5.66865098
_cell_length_c   6.46283219
_cell_angle_alpha   94.75136689
_cell_angle_beta   93.03563868
_cell_angle_gamma   94.75648719
_symmetry_Int_Tables_number   1
_chemical_formula_structural   LiMnSb4Mo2P3
_chemical_formula_sum   'Li1 Mn1 Sb4 Mo2 P3'
_cell_volume   195.09902784
_cell_formula_units_Z   1
loop_
 _symmetry_equiv_pos_site_id
 _symmetry_equiv_pos_as_xyz
  1  'x, y, z'
loop_
 _atom_site_type_symbol
 _atom_site_label
 _atom_site_symmetry_multiplicity
 _atom_site_fract_x
 _atom_site_fract_y
 _atom_site_fract_z
 _atom_site_occupancy
  Mn  Mn0  1  0.00000000  0.00000000  0.00000000  1
  Sb  Sb1  1  0.50000000  0.50000000  0.50000000  1
  Sb  Sb2  1  0.50000000  0.50000000  0.00000000  1
  Sb  Sb3  1  0.50000000  0.00000000  0.50000000  1
  Sb  Sb4  1  0.00000000  0.50000000  0.50000000  1
  P  P5  1  0.19843595  0.64494737  0.82180766  1
  P  P6  1  0.08878854  0.36492538  0.77329862  1
  P  P7  1  0.71497492  0.22634528  0.30551844  1
  Mo  Mo8  1  0.65815760  0.68348474  0.05259053  1
  Mo  Mo9  1  0.41610707  0.83497917  0.51590644  1
  Li  Li10  1  0.21650013  0.21882932  0.35569730  1
