# generated using pymatgen
data_LiTi2P8F2
_symmetry_space_group_name_H-M   'P 1'
_cell_length_a   4.95711051
_cell_length_b   4.65963931
_cell_length_c   7.20557706
_cell_angle_alpha   96.18856056
_cell_angle_beta   100.36398283
_cell_angle_gamma   95.80556793
_symmetry_Int_Tables_number   1
_chemical_formula_structural   LiTi2P8F2
_chemical_formula_sum   'Li1 Ti2 P8 F2'
_cell_volume   161.52609371
_cell_formula_units_Z   1
loop_
 _symmetry_equiv_pos_site_id
 _symmetry_equiv_pos_as_xyz
  1  'x, y, z'
loop_
 _atom_site_type_symbol
 _atom_site_label
 _atom_site_symmetry_multiplicity
 _atom_site_fract_x
 _atom_site_fract_y
 _atom_site_fract_z
 _atom_site_occupancy
  F  F0  1  0.00000000  0.00000000  0.00000000  1
  F  F1  1  0.50000000  0.50000000  0.50000000  1
  Ti  Ti2  1  0.25000000  0.25000000  0.25000000  1
  Ti  Ti3  1  0.75000000  0.25000000  0.00000000  1
  P  P4  1  0.25000000  0.75000000  0.50000000  1
  P  P5  1  0.16746403  0.21274878  0.96098172  1
  P  P6  1  0.08478471  0.83743736  0.50319496  1
  P  P7  1  0.84304797  0.85961940  0.26740838  1
  P  P8  1  0.59147294  0.97269026  0.02306116  1
  P  P9  1  0.61514266  0.06679111  0.56735218  1
  P  P10  1  0.16196858  0.29451753  0.89060315  1
  P  P11  1  0.93790719  0.07814328  0.60036537  1
  Li  Li12  1  0.26744327  0.62620013  0.87214346  1
