# generated using pymatgen
data_LiLa3Ti2S3F2
_symmetry_space_group_name_H-M   'P 1'
_cell_length_a   7.06155434
_cell_length_b   7.10988083
_cell_length_c   8.27342823
_cell_angle_alpha   91.61406784
_cell_angle_beta   101.83333125
_cell_angle_gamma   91.70425541
_symmetry_Int_Tables_number   1
_chemical_formula_structural   LiLa3Ti2S3F2
_chemical_formula_sum   'Li1 La3 Ti2 S3 F2'
_cell_volume   406.12565888
_cell_formula_units_Z   1
loop_
 _symmetry_equiv_pos_site_id
 _symmetry_equiv_pos_as_xyz
  1  'x, y, z'
loop_
 _atom_site_type_symbol
 _atom_site_label
 _atom_site_symmetry_multiplicity
 _atom_site_fract_x
 _atom_site_fract_y
 _atom_site_fract_z
 _atom_site_occupancy
  Li  Li0  1  0.00000000  0.00000000  0.00000000  1
  F  F1  1  0.50000000  0.50000000  0.50000000  1
  F  F2  1  0.25000000  0.25000000  0.25000000  1
  La  La3  1  0.75000000  0.25000000  0.00000000  1
  La  La4  1  0.25000000  0.75000000  0.50000000  1
  La  La5  1  0.48569013  0.99921307  0.03609506  1
  S  S6  1  0.60557064  0.81118614  0.30033370  1
  S  S7  1  0.97042941  0.16529937  0.95974474  1
  S  S8  1  0.58375143  0.64632241  0.26540176  1
  Ti  Ti9  1  0.73454108  0.17280205  0.00070642  1
  Ti  Ti10  1  0.73934443  0.08690372  0.93613532  1
