# generated using pymatgen
data_Li2Ti3Ni2P8O3
_symmetry_space_group_name_H-M   'P 1'
_cell_length_a   6.56239366
_cell_length_b   6.64710746
_cell_length_c   7.63542848
_cell_angle_alpha   96.13713866
_cell_angle_beta   98.31243200
_cell_angle_gamma   97.89793761
_symmetry_Int_Tables_number   1
_chemical_formula_structural   Li2Ti3Ni2P8O3
_chemical_formula_sum   'Li2 Ti3 Ni2 P8 O3'
_cell_volume   323.69710340
_cell_formula_units_Z   1
loop_
 _symmetry_equiv_pos_site_id
 _symmetry_equiv_pos_as_xyz
  1  'x, y, z'
loop_
 _atom_site_type_symbol
 _atom_site_label
 _atom_site_symmetry_multiplicity
 _atom_site_fract_x
 _atom_site_fract_y
 _atom_site_fract_z
 _atom_site_occupancy
  P  P0  1  0.00000000  0.00000000  0.00000000  1
  P  P1  1  0.50000000  0.50000000  0.50000000  1
  P  P2  1  0.50000000  0.50000000  0.00000000  1
  P  P3  1  0.50000000  0.00000000  0.50000000  1
  P  P4  1  0.00000000  0.50000000  0.50000000  1
  P  P5  1  0.85298428  0.43037560  0.43639921  1
  P  P6  1  0.51436373  0.93016824  0.67713515  1
  P  P7  1  0.72279783  0.55975267  0.10349107  1
  Li  Li8  1  0.31335432  0.75505654  0.07125865  1
  Li  Li9  1  0.11957884  0.18750432  0.75881690  1
  Ni  Ni10  1  0.47042576  0.16329529  0.02134244  1
  Ni  Ni11  1  0.30683590  0.24006993  0.94420632  1
  Ti  Ti12  1  0.13767453  0.14601179  0.13700354  1
  Ti  Ti13  1  0.03296087  0.46006516  0.88874466  1
  Ti  Ti14  1  0.10146486  0.09318899  0.44171459  1
  O  O15  1  0.77746521  0.84108939  0.38885389  1
  O  O16  1  0.34584990  0.48939655  0.37743162  1
  O  O17  1  0.48714274  0.70837052  0.41534313  1
