# generated using pymatgen
data_Li2MnSb4P2N
_symmetry_space_group_name_H-M   'P 1'
_cell_length_a   5.29943602
_cell_length_b   5.47712074
_cell_length_c   6.77358671
_cell_angle_alpha   98.85546680
_cell_angle_beta   95.77171263
_cell_angle_gamma   98.06877037
_symmetry_Int_Tables_number   1
_chemical_formula_structural   Li2MnSb4P2N
_chemical_formula_sum   'Li2 Mn1 Sb4 P2 N1'
_cell_volume   190.83526394
_cell_formula_units_Z   1
loop_
 _symmetry_equiv_pos_site_id
 _symmetry_equiv_pos_as_xyz
  1  'x, y, z'
loop_
 _atom_site_type_symbol
 _atom_site_label
 _atom_site_symmetry_multiplicity
 _atom_site_fract_x
 _atom_site_fract_y
 _atom_site_fract_z
 _atom_site_occupancy
  N  N0  1  0.12500000  0.00000000  0.25000000  1
  Mn  Mn1  1  0.00000000  0.00000000  0.00000000  1
  Sb  Sb2  1  0.37500000  0.00000000  0.25000000  1
  Sb  Sb3  1  0.25000000  0.25000000  0.25000000  1
  Sb  Sb4  1  0.00000000  0.25000000  0.12500000  1
  Sb  Sb5  1  0.00342222  0.39191184  0.59781150  1
  P  P6  1  0.43846716  0.67480463  0.06846990  1
  P  P7  1  0.29090438  0.22541567  0.30757485  1
  Li  Li8  1  0.44626990  0.01288097  0.73152801  1
  Li  Li9  1  0.16958355  0.46995208  0.84413056  1
