# generated using pymatgen
data_LiMnMo2P3N
_symmetry_space_group_name_H-M   'P 1'
_cell_length_a   4.30106679
_cell_length_b   4.39366185
_cell_length_c   5.66408712
_cell_angle_alpha   98.41183731
_cell_angle_beta   93.87397972
_cell_angle_gamma   97.47398659
_symmetry_Int_Tables_number   1
_chemical_formula_structural   LiMnMo2P3N
_chemical_formula_sum   'Li1 Mn1 Mo2 P3 N1'
_cell_volume   104.57570394
_cell_formula_units_Z   1
loop_
 _symmetry_equiv_pos_site_id
 _symmetry_equiv_pos_as_xyz
  1  'x, y, z'
loop_
 _atom_site_type_symbol
 _atom_site_label
 _atom_site_symmetry_multiplicity
 _atom_site_fract_x
 _atom_site_fract_y
 _atom_site_fract_z
 _atom_site_occupancy
  Mn  Mn0  1  0.00000000  0.00000000  0.00000000  1
  P  P1  1  0.50000000  0.50000000  0.50000000  1
  P  P2  1  0.25000000  0.25000000  0.25000000  1
  P  P3  1  0.75000000  0.25000000  0.00000000  1
  Mo  Mo4  1  0.25000000  0.75000000  0.50000000  1
  Mo  Mo5  1  0.60230116  0.70500032  0.79300689  1
  Li  Li6  1  0.64820013  0.24592379  0.03704363  1
  N  N7  1  0.12766111  0.82775178  0.72239340  1
