# generated using pymatgen
data_LiMn3Sb4Mo2P3
_symmetry_space_group_name_H-M   'P 1'
_cell_length_a   5.89523794
_cell_length_b   6.32461245
_cell_length_c   6.85527926
_cell_angle_alpha   93.32963876
_cell_angle_beta   92.98761562
_cell_angle_gamma   93.80885403
_symmetry_Int_Tables_number   1
_chemical_formula_structural   LiMn3Sb4Mo2P3
_chemical_formula_sum   'Li1 Mn3 Sb4 Mo2 P3'
_cell_volume   254.20229951
_cell_formula_units_Z   1
loop_
 _symmetry_equiv_pos_site_id
 _symmetry_equiv_pos_as_xyz
  1  'x, y, z'
loop_
 _atom_site_type_symbol
 _atom_site_label
 _atom_site_symmetry_multiplicity
 _atom_site_fract_x
 _atom_site_fract_y
 _atom_site_fract_z
 _atom_site_occupancy
  Mn  Mn0  1  0.12500000  0.00000000  0.25000000  1
  Mn  Mn1  1  0.00000000  0.00000000  0.00000000  1
  Mn  Mn2  1  0.37500000  0.00000000  0.25000000  1
  Sb  Sb3  1  0.25000000  0.25000000  0.25000000  1
  Sb  Sb4  1  0.00000000  0.25000000  0.12500000  1
  Sb  Sb5  1  0.06399852  0.66685972  0.58602186  1
  Sb  Sb6  1  0.28240995  0.61816105  0.15943629  1
  P  P7  1  0.89941469  0.72390731  0.92715194  1
  P  P8  1  0.59939915  0.77181457  0.35905209  1
  P  P9  1  0.28194966  0.99610933  0.53937581  1
  Mo  Mo10  1  0.45723034  0.17589675  0.84416432  1
  Mo  Mo11  1  0.43487214  0.67757841  0.56373750  1
  Li  Li12  1  0.57632125  0.13104299  0.72138197  1
