# generated using pymatgen
data_Li2Mo2P3N
_symmetry_space_group_name_H-M   'P 1'
_cell_length_a   3.64331039
_cell_length_b   3.73793662
_cell_length_c   5.38877401
_cell_angle_alpha   104.92055733
_cell_angle_beta   94.41355903
_cell_angle_gamma   103.69595005
_symmetry_Int_Tables_number   1
_chemical_formula_structural   Li2Mo2P3N
_chemical_formula_sum   'Li2 Mo2 P3 N1'
_cell_volume   68.14864734
_cell_formula_units_Z   1
loop_
 _symmetry_equiv_pos_site_id
 _symmetry_equiv_pos_as_xyz
  1  'x, y, z'
loop_
 _atom_site_type_symbol
 _atom_site_label
 _atom_site_symmetry_multiplicity
 _atom_site_fract_x
 _atom_site_fract_y
 _atom_site_fract_z
 _atom_site_occupancy
  N  N0  1  0.00000000  0.00000000  0.00000000  1
  P  P1  1  0.33300000  0.66700000  0.25000000  1
  P  P2  1  0.66700000  0.33300000  0.50000000  1
  P  P3  1  0.00000000  0.00000000  0.75000000  1
  Mo  Mo4  1  0.14706620  0.19402964  0.87166991  1
  Mo  Mo5  1  0.84181029  0.31402695  0.61594171  1
  Li  Li6  1  0.00788983  0.62820333  0.93528244  1
  Li  Li7  1  0.52258343  0.27525870  0.30554668  1
