# generated using pymatgen
data_Li4Ti2P5O3
_symmetry_space_group_name_H-M   'P 1'
_cell_length_a   6.61241671
_cell_length_b   6.17507825
_cell_length_c   7.07761220
_cell_angle_alpha   94.60879083
_cell_angle_beta   95.05137999
_cell_angle_gamma   94.14609596
_symmetry_Int_Tables_number   1
_chemical_formula_structural   Li4Ti2P5O3
_chemical_formula_sum   'Li4 Ti2 P5 O3'
_cell_volume   286.02281246
_cell_formula_units_Z   1
loop_
 _symmetry_equiv_pos_site_id
 _symmetry_equiv_pos_as_xyz
  1  'x, y, z'
loop_
 _atom_site_type_symbol
 _atom_site_label
 _atom_site_symmetry_multiplicity
 _atom_site_fract_x
 _atom_site_fract_y
 _atom_site_fract_z
 _atom_site_occupancy
  O  O0  1  0.12500000  0.12500000  0.12500000  1
  O  O1  1  0.50000000  0.50000000  0.50000000  1
  O  O2  1  0.25000000  0.25000000  0.25000000  1
  P  P3  1  0.75000000  0.75000000  0.75000000  1
  P  P4  1  0.61930127  0.59717231  0.89774106  1
  P  P5  1  0.17333185  0.85746011  0.53735938  1
  P  P6  1  0.28103673  0.24881883  0.74715459  1
  P  P7  1  0.93200523  0.17085597  0.94002170  1
  Ti  Ti8  1  0.98712471  0.91380560  0.20051889  1
  Ti  Ti9  1  0.11080363  0.52389908  0.47364935  1
  Li  Li10  1  0.86652548  0.99493571  0.68022923  1
  Li  Li11  1  0.88414281  0.91031424  0.46289389  1
  Li  Li12  1  0.39488811  0.82253464  0.87321706  1
  Li  Li13  1  0.42300262  0.55708916  0.67680191  1
