# generated using pymatgen
data_Li4LuVP4N5
_symmetry_space_group_name_H-M   'P 1'
_cell_length_a   5.75505057
_cell_length_b   4.92309317
_cell_length_c   7.38220853
_cell_angle_alpha   100.15459724
_cell_angle_beta   93.59007653
_cell_angle_gamma   101.77810351
_symmetry_Int_Tables_number   1
_chemical_formula_structural   Li4LuVP4N5
_chemical_formula_sum   'Li4 Lu1 V1 P4 N5'
_cell_volume   200.48848124
_cell_formula_units_Z   1
loop_
 _symmetry_equiv_pos_site_id
 _symmetry_equiv_pos_as_xyz
  1  'x, y, z'
loop_
 _atom_site_type_symbol
 _atom_site_label
 _atom_site_symmetry_multiplicity
 _atom_site_fract_x
 _atom_site_fract_y
 _atom_site_fract_z
 _atom_site_occupancy
  P  P0  1  0.12500000  0.00000000  0.25000000  1
  P  P1  1  0.00000000  0.00000000  0.00000000  1
  P  P2  1  0.37500000  0.00000000  0.25000000  1
  P  P3  1  0.25000000  0.25000000  0.25000000  1
  Lu  Lu4  1  0.00000000  0.25000000  0.12500000  1
  Li  Li5  1  0.37837943  0.92477173  0.57653315  1
  Li  Li6  1  0.66451428  0.39521748  0.24710162  1
  Li  Li7  1  0.83564711  0.75549625  0.12724082  1
  Li  Li8  1  0.68828722  0.93657805  0.28401865  1
  V  V9  1  0.54526752  0.98387884  0.10224578  1
  N  N10  1  0.37073399  0.57389184  0.09061346  1
  N  N11  1  0.85590494  0.07939324  0.86576037  1
  N  N12  1  0.85652162  0.17216451  0.09703221  1
  N  N13  1  0.10866330  0.82875251  0.38754112  1
  N  N14  1  0.79919264  0.59826606  0.37663713  1
