# generated using pymatgen
data_Li3Ni2Sb3(IO)4
_symmetry_space_group_name_H-M   'P 1'
_cell_length_a   8.31921875
_cell_length_b   8.27354888
_cell_length_c   8.60214638
_cell_angle_alpha   90.00000000
_cell_angle_beta   90.00000000
_cell_angle_gamma   90.00000000
_symmetry_Int_Tables_number   1
_chemical_formula_structural   Li3Ni2Sb3(IO)4
_chemical_formula_sum   'Li3 Ni2 Sb3 I4 O4'
_cell_volume   592.08111566
_cell_formula_units_Z   1
loop_
 _symmetry_equiv_pos_site_id
 _symmetry_equiv_pos_as_xyz
  1  'x, y, z'
loop_
 _atom_site_type_symbol
 _atom_site_label
 _atom_site_symmetry_multiplicity
 _atom_site_fract_x
 _atom_site_fract_y
 _atom_site_fract_z
 _atom_site_occupancy
  I  I0  1  0.12500000  0.00000000  0.25000000  1
  I  I1  1  0.00000000  0.00000000  0.00000000  1
  I  I2  1  0.37500000  0.00000000  0.25000000  1
  I  I3  1  0.25000000  0.25000000  0.25000000  1
  Li  Li4  1  0.00000000  0.25000000  0.12500000  1
  Li  Li5  1  0.92675077  0.47101785  0.64636110  1
  Li  Li6  1  0.00952365  0.89511872  0.28631776  1
  Sb  Sb7  1  0.35911108  0.31938412  0.38957158  1
  Sb  Sb8  1  0.46554111  0.07569916  0.35784178  1
  Sb  Sb9  1  0.03495663  0.16233708  0.32285199  1
  Ni  Ni10  1  0.52848550  0.54551343  0.15719829  1
  Ni  Ni11  1  0.12710499  0.68963920  0.35633953  1
  O  O12  1  0.20293943  0.58306919  0.52554798  1
  O  O13  1  0.03320359  0.68255292  0.43307223  1
  O  O14  1  0.58775250  0.85053907  0.52650393  1
  O  O15  1  0.10826839  0.76639655  0.73941320  1
