# generated using pymatgen
data_Li2TiCuI2Cl
_symmetry_space_group_name_H-M   'P 1'
_cell_length_a   5.44646189
_cell_length_b   5.49983337
_cell_length_c   6.71421261
_cell_angle_alpha   102.65632041
_cell_angle_beta   106.64243479
_cell_angle_gamma   104.05962703
_symmetry_Int_Tables_number   1
_chemical_formula_structural   Li2TiCuI2Cl
_chemical_formula_sum   'Li4 Ti2 Cu2 I4 Cl2'
_cell_volume   177.67903759
_cell_formula_units_Z   2
loop_
 _symmetry_equiv_pos_site_id
 _symmetry_equiv_pos_as_xyz
  1  'x, y, z'
loop_
 _atom_site_type_symbol
 _atom_site_label
 _atom_site_symmetry_multiplicity
 _atom_site_fract_x
 _atom_site_fract_y
 _atom_site_fract_z
 _atom_site_occupancy
  I  I0  1  0.00000000  0.00000000  0.00000000  1
  I  I1  1  0.50000000  0.50000000  0.50000000  1
  I  I2  1  0.25000000  0.25000000  0.25000000  1
  I  I3  1  0.75000000  0.25000000  0.00000000  1
  Li  Li4  1  0.25000000  0.75000000  0.50000000  1
  Li  Li5  1  0.60123638  0.93847879  0.52432146  1
  Li  Li6  1  0.53513020  0.95092683  0.44053291  1
  Li  Li7  1  0.63278641  0.68959008  0.03588321  1
  Cu  Cu8  1  0.69898576  0.63554584  0.45583117  1
  Cu  Cu9  1  0.45275839  0.70361184  0.66748087  1
  Cl  Cl10  1  0.40339616  0.99645158  0.01164238  1
  Cl  Cl11  1  0.53625069  0.96927720  0.90899036  1
  Ti  Ti12  1  0.49551202  0.65534134  0.35206139  1
  Ti  Ti13  1  0.11550632  0.97449820  0.56367292  1
