# generated using pymatgen
data_Li4TiI4O3
_symmetry_space_group_name_H-M   'P 1'
_cell_length_a   8.42301433
_cell_length_b   8.11856442
_cell_length_c   6.97532083
_cell_angle_alpha   90.00000000
_cell_angle_beta   90.00000000
_cell_angle_gamma   90.00000000
_symmetry_Int_Tables_number   1
_chemical_formula_structural   Li4TiI4O3
_chemical_formula_sum   'Li4 Ti1 I4 O3'
_cell_volume   476.99186101
_cell_formula_units_Z   1
loop_
 _symmetry_equiv_pos_site_id
 _symmetry_equiv_pos_as_xyz
  1  'x, y, z'
loop_
 _atom_site_type_symbol
 _atom_site_label
 _atom_site_symmetry_multiplicity
 _atom_site_fract_x
 _atom_site_fract_y
 _atom_site_fract_z
 _atom_site_occupancy
  I  I0  1  0.12500000  0.00000000  0.25000000  1
  I  I1  1  0.00000000  0.00000000  0.00000000  1
  I  I2  1  0.37500000  0.00000000  0.25000000  1
  I  I3  1  0.25000000  0.25000000  0.25000000  1
  Li  Li4  1  0.00000000  0.25000000  0.12500000  1
  Li  Li5  1  0.88133879  0.71621800  0.89053000  1
  Li  Li6  1  0.58332283  0.70066412  0.82757951  1
  Li  Li7  1  0.74295604  0.48976417  0.69420914  1
  Ti  Ti8  1  0.46658999  0.07796687  0.37575172  1
  O  O9  1  0.63746043  0.11417692  0.94579772  1
  O  O10  1  0.42023766  0.38432043  0.98106185  1
  O  O11  1  0.02130382  0.27301954  0.41869680  1
