# generated using pymatgen
data_Li3Ti2P3S2
_symmetry_space_group_name_H-M   'P 1'
_cell_length_a   6.60937672
_cell_length_b   6.15166351
_cell_length_c   6.72507382
_cell_angle_alpha   92.52490808
_cell_angle_beta   94.78937379
_cell_angle_gamma   92.40597368
_symmetry_Int_Tables_number   1
_chemical_formula_structural   Li3Ti2P3S2
_chemical_formula_sum   'Li3 Ti2 P3 S2'
_cell_volume   271.92680887
_cell_formula_units_Z   1
loop_
 _symmetry_equiv_pos_site_id
 _symmetry_equiv_pos_as_xyz
  1  'x, y, z'
loop_
 _atom_site_type_symbol
 _atom_site_label
 _atom_site_symmetry_multiplicity
 _atom_site_fract_x
 _atom_site_fract_y
 _atom_site_fract_z
 _atom_site_occupancy
  P  P0  1  0.12500000  0.12500000  0.12500000  1
  P  P1  1  0.50000000  0.50000000  0.50000000  1
  P  P2  1  0.25000000  0.25000000  0.25000000  1
  Li  Li3  1  0.75000000  0.75000000  0.75000000  1
  Li  Li4  1  0.62633149  0.37318211  0.35176130  1
  Li  Li5  1  0.98270055  0.50223922  0.40412298  1
  S  S6  1  0.82143228  0.66404816  0.12322203  1
  S  S7  1  0.90085374  0.22106263  0.35653281  1
  Ti  Ti8  1  0.06643398  0.05152250  0.47112390  1
  Ti  Ti9  1  0.43850118  0.51623457  0.98345531  1
