# generated using pymatgen
data_Li3TiZn2O3
_symmetry_space_group_name_H-M   'P 1'
_cell_length_a   8.30983296
_cell_length_b   8.11712722
_cell_length_c   7.02345304
_cell_angle_alpha   90.00000000
_cell_angle_beta   90.00000000
_cell_angle_gamma   90.00000000
_symmetry_Int_Tables_number   1
_chemical_formula_structural   Li3TiZn2O3
_chemical_formula_sum   'Li3 Ti1 Zn2 O3'
_cell_volume   473.74575309
_cell_formula_units_Z   1
loop_
 _symmetry_equiv_pos_site_id
 _symmetry_equiv_pos_as_xyz
  1  'x, y, z'
loop_
 _atom_site_type_symbol
 _atom_site_label
 _atom_site_symmetry_multiplicity
 _atom_site_fract_x
 _atom_site_fract_y
 _atom_site_fract_z
 _atom_site_occupancy
  Li  Li0  1  0.00000000  0.00000000  0.00000000  1
  Li  Li1  1  0.33300000  0.66700000  0.25000000  1
  Li  Li2  1  0.66700000  0.33300000  0.50000000  1
  Zn  Zn3  1  0.00000000  0.00000000  0.75000000  1
  Zn  Zn4  1  0.14181450  0.58451420  0.81158179  1
  Ti  Ti5  1  0.79891430  0.63170015  0.13986920  1
  O  O6  1  0.56950892  0.50115695  0.17899208  1
  O  O7  1  0.70454233  0.67046467  0.50260825  1
  O  O8  1  0.33148919  0.89681884  0.45141309  1
