# generated using pymatgen
data_LiTi(IO)4
_symmetry_space_group_name_H-M   'P 1'
_cell_length_a   8.83732862
_cell_length_b   9.23840492
_cell_length_c   8.09845689
_cell_angle_alpha   90.00000000
_cell_angle_beta   90.00000000
_cell_angle_gamma   90.00000000
_symmetry_Int_Tables_number   1
_chemical_formula_structural   LiTi(IO)4
_chemical_formula_sum   'Li1 Ti1 I4 O4'
_cell_volume   661.18085973
_cell_formula_units_Z   1
loop_
 _symmetry_equiv_pos_site_id
 _symmetry_equiv_pos_as_xyz
  1  'x, y, z'
loop_
 _atom_site_type_symbol
 _atom_site_label
 _atom_site_symmetry_multiplicity
 _atom_site_fract_x
 _atom_site_fract_y
 _atom_site_fract_z
 _atom_site_occupancy
  I  I0  1  0.12500000  0.00000000  0.25000000  1
  I  I1  1  0.00000000  0.00000000  0.00000000  1
  I  I2  1  0.37500000  0.00000000  0.25000000  1
  I  I3  1  0.25000000  0.25000000  0.25000000  1
  Li  Li4  1  0.00000000  0.25000000  0.12500000  1
  Ti  Ti5  1  0.92837309  0.38081665  0.82505015  1
  O  O6  1  0.37348465  0.26776041  0.45203197  1
  O  O7  1  0.40009808  0.49936059  0.98605352  1
  O  O8  1  0.56704514  0.76453499  0.93161017  1
  O  O9  1  0.68894439  0.92177260  0.98648815  1
