# generated using pymatgen
data_Li2MnSb4P3
_symmetry_space_group_name_H-M   'P 1'
_cell_length_a   7.10506028
_cell_length_b   7.08263593
_cell_length_c   7.71336939
_cell_angle_alpha   92.15031908
_cell_angle_beta   92.54725163
_cell_angle_gamma   92.44732861
_symmetry_Int_Tables_number   1
_chemical_formula_structural   Li2MnSb4P3
_chemical_formula_sum   'Li2 Mn1 Sb4 P3'
_cell_volume   387.11697164
_cell_formula_units_Z   1
loop_
 _symmetry_equiv_pos_site_id
 _symmetry_equiv_pos_as_xyz
  1  'x, y, z'
loop_
 _atom_site_type_symbol
 _atom_site_label
 _atom_site_symmetry_multiplicity
 _atom_site_fract_x
 _atom_site_fract_y
 _atom_site_fract_z
 _atom_site_occupancy
  Mn  Mn0  1  0.12500000  0.12500000  0.12500000  1
  Sb  Sb1  1  0.50000000  0.50000000  0.50000000  1
  Sb  Sb2  1  0.25000000  0.25000000  0.25000000  1
  Sb  Sb3  1  0.75000000  0.75000000  0.75000000  1
  Sb  Sb4  1  0.19929540  0.53352365  0.87806415  1
  P  P5  1  0.64462252  0.47243544  0.83483254  1
  P  P6  1  0.51562855  0.32041003  0.20452284  1
  P  P7  1  0.44763137  0.90874602  0.88064261  1
  Li  Li8  1  0.69392214  0.09270813  0.53341668  1
  Li  Li9  1  0.72738429  0.86755794  0.26153128  1
