# generated using pymatgen
data_Li2Mn2Sb4P3
_symmetry_space_group_name_H-M   'P 1'
_cell_length_a   6.61091589
_cell_length_b   6.91078751
_cell_length_c   7.48554190
_cell_angle_alpha   92.92671748
_cell_angle_beta   93.46696728
_cell_angle_gamma   93.33096585
_symmetry_Int_Tables_number   1
_chemical_formula_structural   Li2Mn2Sb4P3
_chemical_formula_sum   'Li2 Mn2 Sb4 P3'
_cell_volume   340.27518193
_cell_formula_units_Z   1
loop_
 _symmetry_equiv_pos_site_id
 _symmetry_equiv_pos_as_xyz
  1  'x, y, z'
loop_
 _atom_site_type_symbol
 _atom_site_label
 _atom_site_symmetry_multiplicity
 _atom_site_fract_x
 _atom_site_fract_y
 _atom_site_fract_z
 _atom_site_occupancy
  Mn  Mn0  1  0.00000000  0.00000000  0.00000000  1
  Mn  Mn1  1  0.50000000  0.50000000  0.50000000  1
  Sb  Sb2  1  0.25000000  0.25000000  0.25000000  1
  Sb  Sb3  1  0.75000000  0.25000000  0.00000000  1
  Sb  Sb4  1  0.25000000  0.75000000  0.50000000  1
  Sb  Sb5  1  0.94391733  0.52380576  0.12075219  1
  P  P6  1  0.71977269  0.41947945  0.62444424  1
  P  P7  1  0.82145372  0.88959013  0.77884051  1
  P  P8  1  0.75423755  0.36823351  0.72138450  1
  Li  Li9  1  0.89072342  0.55665924  0.59796060  1
  Li  Li10  1  0.90320673  0.45217110  0.49752396  1
