# generated using pymatgen
data_LiMn2Sb4P3
_symmetry_space_group_name_H-M   'P 1'
_cell_length_a   6.35048004
_cell_length_b   6.88858563
_cell_length_c   7.01312609
_cell_angle_alpha   94.21506883
_cell_angle_beta   92.58651680
_cell_angle_gamma   93.93546236
_symmetry_Int_Tables_number   1
_chemical_formula_structural   LiMn2Sb4P3
_chemical_formula_sum   'Li1 Mn2 Sb4 P3'
_cell_volume   304.85534341
_cell_formula_units_Z   1
loop_
 _symmetry_equiv_pos_site_id
 _symmetry_equiv_pos_as_xyz
  1  'x, y, z'
loop_
 _atom_site_type_symbol
 _atom_site_label
 _atom_site_symmetry_multiplicity
 _atom_site_fract_x
 _atom_site_fract_y
 _atom_site_fract_z
 _atom_site_occupancy
  Mn  Mn0  1  0.00000000  0.00000000  0.00000000  1
  Mn  Mn1  1  0.33300000  0.66700000  0.25000000  1
  Sb  Sb2  1  0.66700000  0.33300000  0.50000000  1
  Sb  Sb3  1  0.00000000  0.00000000  0.75000000  1
  Sb  Sb4  1  0.08226806  0.11332917  0.15986487  1
  Sb  Sb5  1  0.84538178  0.98173838  0.56302356  1
  P  P6  1  0.02341741  0.47834019  0.47091535  1
  P  P7  1  0.20458333  0.33577913  0.60987043  1
  P  P8  1  0.18734727  0.30040994  0.06044493  1
  Li  Li9  1  0.62850156  0.44941462  0.73645170  1
