# generated using pymatgen
data_Li3TiI4
_symmetry_space_group_name_H-M   'P 1'
_cell_length_a   7.37035995
_cell_length_b   7.13302028
_cell_length_c   7.27932598
_cell_angle_alpha   93.77761794
_cell_angle_beta   94.14038832
_cell_angle_gamma   93.39836783
_symmetry_Int_Tables_number   1
_chemical_formula_structural   Li3TiI4
_chemical_formula_sum   'Li3 Ti1 I4'
_cell_volume   380.07817411
_cell_formula_units_Z   1
loop_
 _symmetry_equiv_pos_site_id
 _symmetry_equiv_pos_as_xyz
  1  'x, y, z'
loop_
 _atom_site_type_symbol
 _atom_site_label
 _atom_site_symmetry_multiplicity
 _atom_site_fract_x
 _atom_site_fract_y
 _atom_site_fract_z
 _atom_site_occupancy
  Ti  Ti0  1  0.00000000  0.00000000  0.00000000  1
  I  I1  1  0.33300000  0.66700000  0.25000000  1
  I  I2  1  0.66700000  0.33300000  0.50000000  1
  I  I3  1  0.00000000  0.00000000  0.75000000  1
  I  I4  1  0.76192544  0.54324966  0.96055691  1
  Li  Li5  1  0.50054521  0.06948754  0.20681579  1
  Li  Li6  1  0.69700237  0.08812077  0.79278938  1
  Li  Li7  1  0.71501668  0.18983374  0.80021178  1
