# generated using pymatgen
data_Li2Mn2Sb4P3
_symmetry_space_group_name_H-M   'P 1'
_cell_length_a   6.03479873
_cell_length_b   6.54913824
_cell_length_c   7.28104304
_cell_angle_alpha   94.05603427
_cell_angle_beta   94.80474736
_cell_angle_gamma   94.61626779
_symmetry_Int_Tables_number   1
_chemical_formula_structural   Li2Mn2Sb4P3
_chemical_formula_sum   'Li2 Mn2 Sb4 P3'
_cell_volume   284.95446120
_cell_formula_units_Z   1
loop_
 _symmetry_equiv_pos_site_id
 _symmetry_equiv_pos_as_xyz
  1  'x, y, z'
loop_
 _atom_site_type_symbol
 _atom_site_label
 _atom_site_symmetry_multiplicity
 _atom_site_fract_x
 _atom_site_fract_y
 _atom_site_fract_z
 _atom_site_occupancy
  Mn  Mn0  1  0.12500000  0.00000000  0.25000000  1
  Mn  Mn1  1  0.00000000  0.00000000  0.00000000  1
  Sb  Sb2  1  0.37500000  0.00000000  0.25000000  1
  Sb  Sb3  1  0.25000000  0.25000000  0.25000000  1
  Sb  Sb4  1  0.00000000  0.25000000  0.12500000  1
  Sb  Sb5  1  0.66794587  0.52152721  0.10298090  1
  P  P6  1  0.04595317  0.48970138  0.25550291  1
  P  P7  1  0.71797961  0.05855454  0.58569814  1
  P  P8  1  0.75423268  0.66103615  0.41613636  1
  Li  Li9  1  0.63460491  0.01163424  0.47271773  1
  Li  Li10  1  0.30591515  0.97281297  0.69640695  1
