# generated using pymatgen
data_Li3Ti2Te6(SO)2
_symmetry_space_group_name_H-M   'P 1'
_cell_length_a   5.84723832
_cell_length_b   6.08269964
_cell_length_c   7.27968136
_cell_angle_alpha   97.66228266
_cell_angle_beta   100.49587425
_cell_angle_gamma   98.70509277
_symmetry_Int_Tables_number   1
_chemical_formula_structural   Li3Ti2Te6(SO)2
_chemical_formula_sum   'Li3 Ti2 Te6 S2 O2'
_cell_volume   248.17909620
_cell_formula_units_Z   1
loop_
 _symmetry_equiv_pos_site_id
 _symmetry_equiv_pos_as_xyz
  1  'x, y, z'
loop_
 _atom_site_type_symbol
 _atom_site_label
 _atom_site_symmetry_multiplicity
 _atom_site_fract_x
 _atom_site_fract_y
 _atom_site_fract_z
 _atom_site_occupancy
  Li  Li0  1  0.00000000  0.00000000  0.00000000  1
  Li  Li1  1  0.50000000  0.50000000  0.50000000  1
  Li  Li2  1  0.50000000  0.50000000  0.00000000  1
  Te  Te3  1  0.50000000  0.00000000  0.50000000  1
  Te  Te4  1  0.00000000  0.50000000  0.50000000  1
  Te  Te5  1  0.99882586  0.27148573  0.36197580  1
  Te  Te6  1  0.69190348  0.46448894  0.54899484  1
  Te  Te7  1  0.14638494  0.63386720  0.68337253  1
  Te  Te8  1  0.14491982  0.82917970  0.11410443  1
  Ti  Ti9  1  0.67781579  0.60006829  0.43429317  1
  Ti  Ti10  1  0.05684152  0.61400454  0.20109768  1
  S  S11  1  0.46958361  0.06740868  0.47831637  1
  S  S12  1  0.43658966  0.96315715  0.34257525  1
  O  O13  1  0.21992776  0.43562783  0.54949181  1
  O  O14  1  0.62450900  0.89862296  0.03632834  1
