# generated using pymatgen
data_Li4TiP3SeCl2
_symmetry_space_group_name_H-M   'P 1'
_cell_length_a   6.65282009
_cell_length_b   6.28918187
_cell_length_c   6.82109780
_cell_angle_alpha   98.78468099
_cell_angle_beta   101.21601999
_cell_angle_gamma   98.26388894
_symmetry_Int_Tables_number   1
_chemical_formula_structural   Li4TiP3SeCl2
_chemical_formula_sum   'Li4 Ti1 P3 Se1 Cl2'
_cell_volume   272.20115892
_cell_formula_units_Z   1
loop_
 _symmetry_equiv_pos_site_id
 _symmetry_equiv_pos_as_xyz
  1  'x, y, z'
loop_
 _atom_site_type_symbol
 _atom_site_label
 _atom_site_symmetry_multiplicity
 _atom_site_fract_x
 _atom_site_fract_y
 _atom_site_fract_z
 _atom_site_occupancy
  P  P0  1  0.00000000  0.00000000  0.00000000  1
  P  P1  1  0.50000000  0.50000000  0.50000000  1
  P  P2  1  0.25000000  0.25000000  0.25000000  1
  Li  Li3  1  0.75000000  0.25000000  0.00000000  1
  Li  Li4  1  0.25000000  0.75000000  0.50000000  1
  Li  Li5  1  0.08180534  0.16360719  0.97117242  1
  Li  Li6  1  0.70231989  0.72006732  0.65475294  1
  Se  Se7  1  0.28091773  0.54944772  0.87435365  1
  Cl  Cl8  1  0.10326185  0.96782671  0.52511277  1
  Cl  Cl9  1  0.34360765  0.48022093  0.38604755  1
  Ti  Ti10  1  0.71780737  0.22629226  0.39964047  1
