# generated using pymatgen
data_Li2MnSb4P3N
_symmetry_space_group_name_H-M   'P 1'
_cell_length_a   4.34320127
_cell_length_b   4.59701282
_cell_length_c   6.07098557
_cell_angle_alpha   100.04835369
_cell_angle_beta   96.50436775
_cell_angle_gamma   99.37092140
_symmetry_Int_Tables_number   1
_chemical_formula_structural   Li2MnSb4P3N
_chemical_formula_sum   'Li2 Mn1 Sb4 P3 N1'
_cell_volume   116.50063733
_cell_formula_units_Z   1
loop_
 _symmetry_equiv_pos_site_id
 _symmetry_equiv_pos_as_xyz
  1  'x, y, z'
loop_
 _atom_site_type_symbol
 _atom_site_label
 _atom_site_symmetry_multiplicity
 _atom_site_fract_x
 _atom_site_fract_y
 _atom_site_fract_z
 _atom_site_occupancy
  N  N0  1  0.00000000  0.00000000  0.00000000  1
  Mn  Mn1  1  0.50000000  0.50000000  0.50000000  1
  Sb  Sb2  1  0.50000000  0.50000000  0.00000000  1
  Sb  Sb3  1  0.50000000  0.00000000  0.50000000  1
  Sb  Sb4  1  0.00000000  0.50000000  0.50000000  1
  Sb  Sb5  1  0.42605801  0.00828275  0.32127010  1
  P  P6  1  0.78155414  0.94767775  0.56206216  1
  P  P7  1  0.65705776  0.35864877  0.54368346  1
  P  P8  1  0.76805784  0.78145804  0.24501100  1
  Li  Li9  1  0.53544280  0.66497967  0.59653255  1
  Li  Li10  1  0.49561961  0.28514413  0.89819175  1
