# generated using pymatgen
data_Li2MnSb4P3
_symmetry_space_group_name_H-M   'P 1'
_cell_length_a   5.71322777
_cell_length_b   6.15241048
_cell_length_c   6.94140983
_cell_angle_alpha   96.62345110
_cell_angle_beta   93.42773135
_cell_angle_gamma   96.92298852
_symmetry_Int_Tables_number   1
_chemical_formula_structural   Li2MnSb4P3
_chemical_formula_sum   'Li2 Mn1 Sb4 P3'
_cell_volume   239.92306633
_cell_formula_units_Z   1
loop_
 _symmetry_equiv_pos_site_id
 _symmetry_equiv_pos_as_xyz
  1  'x, y, z'
loop_
 _atom_site_type_symbol
 _atom_site_label
 _atom_site_symmetry_multiplicity
 _atom_site_fract_x
 _atom_site_fract_y
 _atom_site_fract_z
 _atom_site_occupancy
  Mn  Mn0  1  0.00000000  0.00000000  0.00000000  1
  Sb  Sb1  1  0.50000000  0.50000000  0.50000000  1
  Sb  Sb2  1  0.50000000  0.50000000  0.00000000  1
  Sb  Sb3  1  0.50000000  0.00000000  0.50000000  1
  Sb  Sb4  1  0.00000000  0.50000000  0.50000000  1
  P  P5  1  0.55353095  0.58080851  0.45836722  1
  P  P6  1  0.84280350  0.40485715  0.15868320  1
  P  P7  1  0.80073870  0.13903806  0.66984162  1
  Li  Li8  1  0.41436469  0.50649094  0.39331169  1
  Li  Li9  1  0.23760725  0.45597295  0.11825242  1
