# generated using pymatgen
data_LiMn2Sb4P3
_symmetry_space_group_name_H-M   'P 1'
_cell_length_a   6.38720843
_cell_length_b   6.84536623
_cell_length_c   6.96647728
_cell_angle_alpha   92.83866733
_cell_angle_beta   91.39400032
_cell_angle_gamma   92.81326783
_symmetry_Int_Tables_number   1
_chemical_formula_structural   LiMn2Sb4P3
_chemical_formula_sum   'Li1 Mn2 Sb4 P3'
_cell_volume   303.74402950
_cell_formula_units_Z   1
loop_
 _symmetry_equiv_pos_site_id
 _symmetry_equiv_pos_as_xyz
  1  'x, y, z'
loop_
 _atom_site_type_symbol
 _atom_site_label
 _atom_site_symmetry_multiplicity
 _atom_site_fract_x
 _atom_site_fract_y
 _atom_site_fract_z
 _atom_site_occupancy
  Mn  Mn0  1  0.12500000  0.12500000  0.12500000  1
  Mn  Mn1  1  0.50000000  0.50000000  0.50000000  1
  Sb  Sb2  1  0.25000000  0.25000000  0.25000000  1
  Sb  Sb3  1  0.75000000  0.75000000  0.75000000  1
  Sb  Sb4  1  0.51777156  0.24676374  0.89119655  1
  Sb  Sb5  1  0.53959813  0.35044587  0.52628370  1
  P  P6  1  0.93051681  0.04375827  0.11912006  1
  P  P7  1  0.20321479  0.12696114  0.09854514  1
  P  P8  1  0.09173313  0.44977831  0.64011704  1
  Li  Li9  1  0.91633959  0.69676396  0.22775498  1
