# generated using pymatgen
data_Li2MnSb4P3
_symmetry_space_group_name_H-M   'P 1'
_cell_length_a   5.41683392
_cell_length_b   5.81277997
_cell_length_c   6.81332248
_cell_angle_alpha   97.86917087
_cell_angle_beta   93.70666051
_cell_angle_gamma   98.17410893
_symmetry_Int_Tables_number   1
_chemical_formula_structural   Li2MnSb4P3
_chemical_formula_sum   'Li2 Mn1 Sb4 P3'
_cell_volume   209.57556993
_cell_formula_units_Z   1
loop_
 _symmetry_equiv_pos_site_id
 _symmetry_equiv_pos_as_xyz
  1  'x, y, z'
loop_
 _atom_site_type_symbol
 _atom_site_label
 _atom_site_symmetry_multiplicity
 _atom_site_fract_x
 _atom_site_fract_y
 _atom_site_fract_z
 _atom_site_occupancy
  Mn  Mn0  1  0.00000000  0.00000000  0.00000000  1
  Sb  Sb1  1  0.50000000  0.50000000  0.50000000  1
  Sb  Sb2  1  0.50000000  0.50000000  0.00000000  1
  Sb  Sb3  1  0.50000000  0.00000000  0.50000000  1
  Sb  Sb4  1  0.00000000  0.50000000  0.50000000  1
  P  P5  1  0.28148869  0.77930519  0.72619942  1
  P  P6  1  0.50152739  0.07085813  0.02664351  1
  P  P7  1  0.58899963  0.01523309  0.67640538  1
  Li  Li8  1  0.95041567  0.26160638  0.62954046  1
  Li  Li9  1  0.78136120  0.77186573  0.56641481  1
