# generated using pymatgen
data_Li2Mn2Sb4P3
_symmetry_space_group_name_H-M   'P 1'
_cell_length_a   7.75378321
_cell_length_b   7.69601455
_cell_length_c   7.86551847
_cell_angle_alpha   90.59222283
_cell_angle_beta   90.70154266
_cell_angle_gamma   90.67402270
_symmetry_Int_Tables_number   1
_chemical_formula_structural   Li2Mn2Sb4P3
_chemical_formula_sum   'Li2 Mn2 Sb4 P3'
_cell_volume   469.26744235
_cell_formula_units_Z   1
loop_
 _symmetry_equiv_pos_site_id
 _symmetry_equiv_pos_as_xyz
  1  'x, y, z'
loop_
 _atom_site_type_symbol
 _atom_site_label
 _atom_site_symmetry_multiplicity
 _atom_site_fract_x
 _atom_site_fract_y
 _atom_site_fract_z
 _atom_site_occupancy
  Mn  Mn0  1  0.00000000  0.00000000  0.00000000  1
  Mn  Mn1  1  0.33300000  0.66700000  0.25000000  1
  Sb  Sb2  1  0.66700000  0.33300000  0.50000000  1
  Sb  Sb3  1  0.00000000  0.00000000  0.75000000  1
  Sb  Sb4  1  0.96584235  0.87843709  0.75743973  1
  Sb  Sb5  1  0.40167951  0.90324057  0.57443676  1
  P  P6  1  0.05466068  0.25587309  0.97719511  1
  P  P7  1  0.68163188  0.78788592  0.67803271  1
  P  P8  1  0.99991656  0.07716623  0.85139712  1
  Li  Li9  1  0.75893674  0.58694635  0.39391398  1
  Li  Li10  1  0.40562537  0.24850620  0.43125108  1
