# generated using pymatgen
data_Li3Ti2P3Se2O
_symmetry_space_group_name_H-M   'P 1'
_cell_length_a   7.83553895
_cell_length_b   7.40291314
_cell_length_c   6.80037142
_cell_angle_alpha   90.19120801
_cell_angle_beta   90.90970964
_cell_angle_gamma   90.21860181
_symmetry_Int_Tables_number   1
_chemical_formula_structural   Li3Ti2P3Se2O
_chemical_formula_sum   'Li3 Ti2 P3 Se2 O1'
_cell_volume   394.40621440
_cell_formula_units_Z   1
loop_
 _symmetry_equiv_pos_site_id
 _symmetry_equiv_pos_as_xyz
  1  'x, y, z'
loop_
 _atom_site_type_symbol
 _atom_site_label
 _atom_site_symmetry_multiplicity
 _atom_site_fract_x
 _atom_site_fract_y
 _atom_site_fract_z
 _atom_site_occupancy
  P  P0  1  0.00000000  0.00000000  0.00000000  1
  P  P1  1  0.50000000  0.50000000  0.50000000  1
  P  P2  1  0.50000000  0.50000000  0.00000000  1
  Li  Li3  1  0.50000000  0.00000000  0.50000000  1
  Li  Li4  1  0.00000000  0.50000000  0.50000000  1
  Li  Li5  1  0.99431374  0.18415180  0.09835503  1
  Se  Se6  1  0.77453706  0.13000099  0.58088848  1
  Se  Se7  1  0.97779204  0.71167007  0.93222493  1
  Ti  Ti8  1  0.85552509  0.72347116  0.03383099  1
  Ti  Ti9  1  0.44034219  0.68406241  0.40943431  1
  O  O10  1  0.17163676  0.84450209  0.99591466  1
