# generated using pymatgen
data_LiMnSb4P3
_symmetry_space_group_name_H-M   'P 1'
_cell_length_a   6.03554755
_cell_length_b   6.37747690
_cell_length_c   6.77647996
_cell_angle_alpha   93.66931786
_cell_angle_beta   91.63149623
_cell_angle_gamma   93.96013439
_symmetry_Int_Tables_number   1
_chemical_formula_structural   LiMnSb4P3
_chemical_formula_sum   'Li1 Mn1 Sb4 P3'
_cell_volume   259.53934233
_cell_formula_units_Z   1
loop_
 _symmetry_equiv_pos_site_id
 _symmetry_equiv_pos_as_xyz
  1  'x, y, z'
loop_
 _atom_site_type_symbol
 _atom_site_label
 _atom_site_symmetry_multiplicity
 _atom_site_fract_x
 _atom_site_fract_y
 _atom_site_fract_z
 _atom_site_occupancy
  Mn  Mn0  1  0.12500000  0.12500000  0.12500000  1
  Sb  Sb1  1  0.50000000  0.50000000  0.50000000  1
  Sb  Sb2  1  0.25000000  0.25000000  0.25000000  1
  Sb  Sb3  1  0.75000000  0.75000000  0.75000000  1
  Sb  Sb4  1  0.14189245  0.68142957  0.01810332  1
  P  P5  1  0.41593186  0.51199320  0.96167825  1
  P  P6  1  0.99321452  0.53449187  0.44271326  1
  P  P7  1  0.75584447  0.38762813  0.36701900  1
  Li  Li8  1  0.43055995  0.02886808  0.52439679  1
