# generated using pymatgen
data_Li2MnSb4P3
_symmetry_space_group_name_H-M   'P 1'
_cell_length_a   6.33624945
_cell_length_b   6.35571216
_cell_length_c   7.53305535
_cell_angle_alpha   93.99684123
_cell_angle_beta   94.73462773
_cell_angle_gamma   94.54889880
_symmetry_Int_Tables_number   1
_chemical_formula_structural   Li2MnSb4P3
_chemical_formula_sum   'Li2 Mn1 Sb4 P3'
_cell_volume   300.49002254
_cell_formula_units_Z   1
loop_
 _symmetry_equiv_pos_site_id
 _symmetry_equiv_pos_as_xyz
  1  'x, y, z'
loop_
 _atom_site_type_symbol
 _atom_site_label
 _atom_site_symmetry_multiplicity
 _atom_site_fract_x
 _atom_site_fract_y
 _atom_site_fract_z
 _atom_site_occupancy
  Mn  Mn0  1  0.00000000  0.00000000  0.00000000  1
  Sb  Sb1  1  0.50000000  0.50000000  0.50000000  1
  Sb  Sb2  1  0.50000000  0.50000000  0.00000000  1
  Sb  Sb3  1  0.50000000  0.00000000  0.50000000  1
  Sb  Sb4  1  0.00000000  0.50000000  0.50000000  1
  P  P5  1  0.64385881  0.93898962  0.51922120  1
  P  P6  1  0.46475690  0.68456187  0.92890266  1
  P  P7  1  0.48820169  0.00174314  0.85468870  1
  Li  Li8  1  0.40340504  0.91889619  0.06771599  1
  Li  Li9  1  0.32347025  0.11644399  0.20884923  1
