# generated using pymatgen
data_Li3Ti2Ni2O5
_symmetry_space_group_name_H-M   'P 1'
_cell_length_a   7.92594016
_cell_length_b   7.66824321
_cell_length_c   8.46174547
_cell_angle_alpha   90.22139435
_cell_angle_beta   91.05332709
_cell_angle_gamma   90.25311286
_symmetry_Int_Tables_number   1
_chemical_formula_structural   Li3Ti2Ni2O5
_chemical_formula_sum   'Li3 Ti2 Ni2 O5'
_cell_volume   514.19235181
_cell_formula_units_Z   1
loop_
 _symmetry_equiv_pos_site_id
 _symmetry_equiv_pos_as_xyz
  1  'x, y, z'
loop_
 _atom_site_type_symbol
 _atom_site_label
 _atom_site_symmetry_multiplicity
 _atom_site_fract_x
 _atom_site_fract_y
 _atom_site_fract_z
 _atom_site_occupancy
  Li  Li0  1  0.12500000  0.00000000  0.25000000  1
  Li  Li1  1  0.00000000  0.00000000  0.00000000  1
  Li  Li2  1  0.37500000  0.00000000  0.25000000  1
  Ni  Ni3  1  0.25000000  0.25000000  0.25000000  1
  Ni  Ni4  1  0.00000000  0.25000000  0.12500000  1
  Ti  Ti5  1  0.40474974  0.35556985  0.66935260  1
  Ti  Ti6  1  0.82033825  0.71179374  0.83198047  1
  O  O7  1  0.00627495  0.63580339  0.73518935  1
  O  O8  1  0.39733924  0.84368519  0.51865778  1
  O  O9  1  0.70792503  0.63911259  0.62866956  1
  O  O10  1  0.39531146  0.66622453  0.48076015  1
  O  O11  1  0.54077648  0.97390659  0.15470098  1
