# generated using pymatgen
data_Li2Sb4P3
_symmetry_space_group_name_H-M   'P 1'
_cell_length_a   6.26045702
_cell_length_b   6.76428033
_cell_length_c   7.14856081
_cell_angle_alpha   96.82267314
_cell_angle_beta   90.34083867
_cell_angle_gamma   96.68697014
_symmetry_Int_Tables_number   1
_chemical_formula_structural   Li2Sb4P3
_chemical_formula_sum   'Li2 Sb4 P3'
_cell_volume   298.47499945
_cell_formula_units_Z   1
loop_
 _symmetry_equiv_pos_site_id
 _symmetry_equiv_pos_as_xyz
  1  'x, y, z'
loop_
 _atom_site_type_symbol
 _atom_site_label
 _atom_site_symmetry_multiplicity
 _atom_site_fract_x
 _atom_site_fract_y
 _atom_site_fract_z
 _atom_site_occupancy
  Sb  Sb0  1  0.12500000  0.00000000  0.25000000  1
  Sb  Sb1  1  0.00000000  0.00000000  0.00000000  1
  Sb  Sb2  1  0.37500000  0.00000000  0.25000000  1
  Sb  Sb3  1  0.25000000  0.25000000  0.25000000  1
  P  P4  1  0.00000000  0.25000000  0.12500000  1
  P  P5  1  0.22125594  0.34285116  0.34580028  1
  P  P6  1  0.69449638  0.92448020  0.95864816  1
  Li  Li7  1  0.89974344  0.14155401  0.89436658  1
  Li  Li8  1  0.02812260  0.23509030  0.91229412  1
