# generated using pymatgen
data_Li2Mn2Sb4P3
_symmetry_space_group_name_H-M   'P 1'
_cell_length_a   5.65523373
_cell_length_b   5.95698047
_cell_length_c   6.58603115
_cell_angle_alpha   99.26413395
_cell_angle_beta   91.20544609
_cell_angle_gamma   99.22389032
_symmetry_Int_Tables_number   1
_chemical_formula_structural   Li2Mn2Sb4P3
_chemical_formula_sum   'Li2 Mn2 Sb4 P3'
_cell_volume   215.89556642
_cell_formula_units_Z   1
loop_
 _symmetry_equiv_pos_site_id
 _symmetry_equiv_pos_as_xyz
  1  'x, y, z'
loop_
 _atom_site_type_symbol
 _atom_site_label
 _atom_site_symmetry_multiplicity
 _atom_site_fract_x
 _atom_site_fract_y
 _atom_site_fract_z
 _atom_site_occupancy
  Mn  Mn0  1  0.12500000  0.00000000  0.25000000  1
  Mn  Mn1  1  0.00000000  0.00000000  0.00000000  1
  Sb  Sb2  1  0.37500000  0.00000000  0.25000000  1
  Sb  Sb3  1  0.25000000  0.25000000  0.25000000  1
  Sb  Sb4  1  0.00000000  0.25000000  0.12500000  1
  Sb  Sb5  1  0.14356515  0.56731066  0.74911433  1
  P  P6  1  0.15105240  0.72282532  0.26988128  1
  P  P7  1  0.25195106  0.12160578  0.89712622  1
  P  P8  1  0.13525082  0.32683958  0.47525862  1
  Li  Li9  1  0.64851858  0.91258249  0.88948753  1
  Li  Li10  1  0.25764530  0.92973835  0.05046918  1
