# generated using pymatgen
data_Li2Ti2Ni2P5
_symmetry_space_group_name_H-M   'P 1'
_cell_length_a   6.94129413
_cell_length_b   6.57622812
_cell_length_c   7.71463766
_cell_angle_alpha   92.24264710
_cell_angle_beta   93.78345367
_cell_angle_gamma   92.10569872
_symmetry_Int_Tables_number   1
_chemical_formula_structural   Li2Ti2Ni2P5
_chemical_formula_sum   'Li2 Ti2 Ni2 P5'
_cell_volume   350.84433725
_cell_formula_units_Z   1
loop_
 _symmetry_equiv_pos_site_id
 _symmetry_equiv_pos_as_xyz
  1  'x, y, z'
loop_
 _atom_site_type_symbol
 _atom_site_label
 _atom_site_symmetry_multiplicity
 _atom_site_fract_x
 _atom_site_fract_y
 _atom_site_fract_z
 _atom_site_occupancy
  P  P0  1  0.00000000  0.00000000  0.00000000  1
  P  P1  1  0.50000000  0.50000000  0.50000000  1
  P  P2  1  0.25000000  0.25000000  0.25000000  1
  P  P3  1  0.75000000  0.25000000  0.00000000  1
  P  P4  1  0.25000000  0.75000000  0.50000000  1
  Li  Li5  1  0.70086307  0.16044857  0.59238567  1
  Li  Li6  1  0.54768061  0.63077513  0.73159023  1
  Ti  Ti7  1  0.94107057  0.00421686  0.05597354  1
  Ti  Ti8  1  0.67201480  0.98362532  0.41519253  1
  Ni  Ni9  1  0.19622673  0.99430585  0.80763626  1
  Ni  Ni10  1  0.16792852  0.30803300  0.73605285  1
