# generated using pymatgen
data_LiNi3Mo2P3
_symmetry_space_group_name_H-M   'P 1'
_cell_length_a   5.04555822
_cell_length_b   5.22865837
_cell_length_c   6.60253725
_cell_angle_alpha   95.64205394
_cell_angle_beta   95.33488438
_cell_angle_gamma   95.90377525
_symmetry_Int_Tables_number   1
_chemical_formula_structural   LiNi3Mo2P3
_chemical_formula_sum   'Li1 Ni3 Mo2 P3'
_cell_volume   171.48403010
_cell_formula_units_Z   1
loop_
 _symmetry_equiv_pos_site_id
 _symmetry_equiv_pos_as_xyz
  1  'x, y, z'
loop_
 _atom_site_type_symbol
 _atom_site_label
 _atom_site_symmetry_multiplicity
 _atom_site_fract_x
 _atom_site_fract_y
 _atom_site_fract_z
 _atom_site_occupancy
  P  P0  1  0.00000000  0.00000000  0.00000000  1
  P  P1  1  0.50000000  0.50000000  0.50000000  1
  P  P2  1  0.25000000  0.25000000  0.25000000  1
  Mo  Mo3  1  0.75000000  0.25000000  0.00000000  1
  Mo  Mo4  1  0.25000000  0.75000000  0.50000000  1
  Li  Li5  1  0.42033258  0.34831357  0.52509974  1
  Ni  Ni6  1  0.47037210  0.18257273  0.69176438  1
  Ni  Ni7  1  0.58868907  0.93069694  0.74541378  1
  Ni  Ni8  1  0.46196147  0.65465265  0.34179724  1
