# generated using pymatgen
data_Li3As6(SeO)2
_symmetry_space_group_name_H-M   'P 1'
_cell_length_a   7.90590534
_cell_length_b   7.59388248
_cell_length_c   7.94818008
_cell_angle_alpha   90.20611852
_cell_angle_beta   90.98064930
_cell_angle_gamma   90.23564850
_symmetry_Int_Tables_number   1
_chemical_formula_structural   Li3As6(SeO)2
_chemical_formula_sum   'Li3 As6 Se2 O2'
_cell_volume   477.10390406
_cell_formula_units_Z   1
loop_
 _symmetry_equiv_pos_site_id
 _symmetry_equiv_pos_as_xyz
  1  'x, y, z'
loop_
 _atom_site_type_symbol
 _atom_site_label
 _atom_site_symmetry_multiplicity
 _atom_site_fract_x
 _atom_site_fract_y
 _atom_site_fract_z
 _atom_site_occupancy
  Li  Li0  1  0.12500000  0.12500000  0.12500000  1
  Li  Li1  1  0.50000000  0.50000000  0.50000000  1
  Li  Li2  1  0.25000000  0.25000000  0.25000000  1
  Se  Se3  1  0.75000000  0.75000000  0.75000000  1
  Se  Se4  1  0.40766915  0.74047823  0.57532298  1
  As  As5  1  0.13633636  0.01089154  0.86019640  1
  As  As6  1  0.63327540  0.66593614  0.33394799  1
  As  As7  1  0.63432783  0.89005261  0.63831412  1
  As  As8  1  0.36803559  0.52280476  0.84490871  1
  As  As9  1  0.64858854  0.52713418  0.49164521  1
  As  As10  1  0.47484119  0.16704450  0.39617187  1
  O  O11  1  0.95105168  0.79666990  0.96677114  1
  O  O12  1  0.42623791  0.73166957  0.02704237  1
