# generated using pymatgen
data_Li2TiP8(IO)4
_symmetry_space_group_name_H-M   'P 1'
_cell_length_a   8.57355441
_cell_length_b   8.39704803
_cell_length_c   7.84438588
_cell_angle_alpha   90.00000000
_cell_angle_beta   90.00000000
_cell_angle_gamma   90.00000000
_symmetry_Int_Tables_number   1
_chemical_formula_structural   Li2TiP8(IO)4
_chemical_formula_sum   'Li2 Ti1 P8 I4 O4'
_cell_volume   564.73732884
_cell_formula_units_Z   1
loop_
 _symmetry_equiv_pos_site_id
 _symmetry_equiv_pos_as_xyz
  1  'x, y, z'
loop_
 _atom_site_type_symbol
 _atom_site_label
 _atom_site_symmetry_multiplicity
 _atom_site_fract_x
 _atom_site_fract_y
 _atom_site_fract_z
 _atom_site_occupancy
  I  I0  1  0.12500000  0.00000000  0.25000000  1
  I  I1  1  0.00000000  0.00000000  0.00000000  1
  I  I2  1  0.37500000  0.00000000  0.25000000  1
  I  I3  1  0.25000000  0.25000000  0.25000000  1
  P  P4  1  0.00000000  0.25000000  0.12500000  1
  P  P5  1  0.80180384  0.46166791  0.19120947  1
  P  P6  1  0.00786592  0.47783015  0.47181140  1
  P  P7  1  0.66183977  0.43646489  0.34616298  1
  P  P8  1  0.13387000  0.16577883  0.22392083  1
  P  P9  1  0.55715420  0.34948386  0.54126016  1
  P  P10  1  0.46941109  0.10179752  0.25490580  1
  P  P11  1  0.98255992  0.34188279  0.34025782  1
  Li  Li12  1  0.88950670  0.03057998  0.60113477  1
  Li  Li13  1  0.10972390  0.07155450  0.67399592  1
  Ti  Ti14  1  0.89461921  0.61934891  0.73849644  1
  O  O15  1  0.32767452  0.79305600  0.68069707  1
  O  O16  1  0.40767459  0.52776501  0.12342984  1
  O  O17  1  0.68400497  0.91589398  0.83852688  1
  O  O18  1  0.86684370  0.44623334  0.17571483  1
