# generated using pymatgen
data_Li5Ti2P3F3
_symmetry_space_group_name_H-M   'P 1'
_cell_length_a   5.43866168
_cell_length_b   4.95433978
_cell_length_c   6.64282558
_cell_angle_alpha   97.15571405
_cell_angle_beta   100.76520054
_cell_angle_gamma   96.73332631
_symmetry_Int_Tables_number   1
_chemical_formula_structural   Li5Ti2P3F3
_chemical_formula_sum   'Li5 Ti2 P3 F3'
_cell_volume   172.64879081
_cell_formula_units_Z   1
loop_
 _symmetry_equiv_pos_site_id
 _symmetry_equiv_pos_as_xyz
  1  'x, y, z'
loop_
 _atom_site_type_symbol
 _atom_site_label
 _atom_site_symmetry_multiplicity
 _atom_site_fract_x
 _atom_site_fract_y
 _atom_site_fract_z
 _atom_site_occupancy
  P  P0  1  0.00000000  0.00000000  0.00000000  1
  P  P1  1  0.50000000  0.50000000  0.50000000  1
  P  P2  1  0.25000000  0.25000000  0.25000000  1
  Li  Li3  1  0.75000000  0.25000000  0.00000000  1
  Li  Li4  1  0.25000000  0.75000000  0.50000000  1
  Li  Li5  1  0.64528126  0.34380740  0.47498194  1
  Li  Li6  1  0.95752996  0.45570421  0.26739151  1
  Li  Li7  1  0.64579628  0.61472568  0.44229893  1
  F  F8  1  0.43289187  0.88259899  0.51158750  1
  F  F9  1  0.80341348  0.59339049  0.05380891  1
  F  F10  1  0.46701398  0.34013247  0.45967014  1
  Ti  Ti11  1  0.63351808  0.81689690  0.08866180  1
  Ti  Ti12  1  0.75768990  0.53248066  0.86164109  1
