# generated using pymatgen
data_Li3LuVP6N5
_symmetry_space_group_name_H-M   'P 1'
_cell_length_a   5.16166632
_cell_length_b   4.59405590
_cell_length_c   7.39393859
_cell_angle_alpha   100.09720020
_cell_angle_beta   98.53512110
_cell_angle_gamma   99.97097638
_symmetry_Int_Tables_number   1
_chemical_formula_structural   Li3LuVP6N5
_chemical_formula_sum   'Li3 Lu1 V1 P6 N5'
_cell_volume   167.09501829
_cell_formula_units_Z   1
loop_
 _symmetry_equiv_pos_site_id
 _symmetry_equiv_pos_as_xyz
  1  'x, y, z'
loop_
 _atom_site_type_symbol
 _atom_site_label
 _atom_site_symmetry_multiplicity
 _atom_site_fract_x
 _atom_site_fract_y
 _atom_site_fract_z
 _atom_site_occupancy
  P  P0  1  0.12500000  0.00000000  0.25000000  1
  P  P1  1  0.00000000  0.00000000  0.00000000  1
  P  P2  1  0.37500000  0.00000000  0.25000000  1
  P  P3  1  0.25000000  0.25000000  0.25000000  1
  P  P4  1  0.00000000  0.25000000  0.12500000  1
  P  P5  1  0.36274731  0.00357566  0.58510800  1
  Lu  Lu6  1  0.49055803  0.39367676  0.11434990  1
  V  V7  1  0.79932819  0.02996775  0.36518836  1
  Li  Li8  1  0.95451740  0.02737375  0.10796321  1
  Li  Li9  1  0.14314564  0.66710784  0.81420262  1
  Li  Li10  1  0.24082746  0.45608836  0.54989930  1
  N  N11  1  0.32200734  0.02454883  0.07361258  1
  N  N12  1  0.17356711  0.49667023  0.49119402  1
  N  N13  1  0.18227078  0.25106569  0.81114706  1
  N  N14  1  0.44554505  0.57033916  0.34827071  1
  N  N15  1  0.91910704  0.41301661  0.26067243  1
