# generated using pymatgen
data_LiSb4P3
_symmetry_space_group_name_H-M   'P 1'
_cell_length_a   4.92244149
_cell_length_b   5.23891260
_cell_length_c   6.71913574
_cell_angle_alpha   97.74236500
_cell_angle_beta   95.65029985
_cell_angle_gamma   98.23864377
_symmetry_Int_Tables_number   1
_chemical_formula_structural   LiSb4P3
_chemical_formula_sum   'Li1 Sb4 P3'
_cell_volume   168.69355796
_cell_formula_units_Z   1
loop_
 _symmetry_equiv_pos_site_id
 _symmetry_equiv_pos_as_xyz
  1  'x, y, z'
loop_
 _atom_site_type_symbol
 _atom_site_label
 _atom_site_symmetry_multiplicity
 _atom_site_fract_x
 _atom_site_fract_y
 _atom_site_fract_z
 _atom_site_occupancy
  Sb  Sb0  1  0.00000000  0.00000000  0.00000000  1
  Sb  Sb1  1  0.33300000  0.66700000  0.25000000  1
  Sb  Sb2  1  0.66700000  0.33300000  0.50000000  1
  Sb  Sb3  1  0.00000000  0.00000000  0.75000000  1
  P  P4  1  0.15907592  0.79060467  0.66836148  1
  P  P5  1  0.23853194  0.69888923  0.86896065  1
  P  P6  1  0.63050842  0.36722181  0.03301406  1
  Li  Li7  1  0.13121294  0.67455597  0.58473632  1
