# generated using pymatgen
data_Li2Mn2Sb4P3
_symmetry_space_group_name_H-M   'P 1'
_cell_length_a   4.79405908
_cell_length_b   5.06783372
_cell_length_c   5.94753599
_cell_angle_alpha   100.15699749
_cell_angle_beta   93.33909632
_cell_angle_gamma   99.06033929
_symmetry_Int_Tables_number   1
_chemical_formula_structural   Li2Mn2Sb4P3
_chemical_formula_sum   'Li2 Mn2 Sb4 P3'
_cell_volume   139.90814219
_cell_formula_units_Z   1
loop_
 _symmetry_equiv_pos_site_id
 _symmetry_equiv_pos_as_xyz
  1  'x, y, z'
loop_
 _atom_site_type_symbol
 _atom_site_label
 _atom_site_symmetry_multiplicity
 _atom_site_fract_x
 _atom_site_fract_y
 _atom_site_fract_z
 _atom_site_occupancy
  Mn  Mn0  1  0.00000000  0.00000000  0.00000000  1
  Mn  Mn1  1  0.50000000  0.50000000  0.50000000  1
  Sb  Sb2  1  0.25000000  0.25000000  0.25000000  1
  Sb  Sb3  1  0.75000000  0.25000000  0.00000000  1
  Sb  Sb4  1  0.25000000  0.75000000  0.50000000  1
  Sb  Sb5  1  0.54893148  0.86663405  0.66245868  1
  P  P6  1  0.59867203  0.72744564  0.41839360  1
  P  P7  1  0.05770042  0.26915755  0.45304202  1
  P  P8  1  0.92310782  0.67763330  0.08183130  1
  Li  Li9  1  0.42727425  0.58971554  0.76519668  1
  Li  Li10  1  0.93813289  0.37279097  0.41188403  1
