# generated using pymatgen
data_LiMn2(Sb2P)2
_symmetry_space_group_name_H-M   'P 1'
_cell_length_a   5.33277275
_cell_length_b   5.70028362
_cell_length_c   6.46692832
_cell_angle_alpha   99.33637361
_cell_angle_beta   92.35123337
_cell_angle_gamma   98.99537135
_symmetry_Int_Tables_number   1
_chemical_formula_structural   LiMn2(Sb2P)2
_chemical_formula_sum   'Li1 Mn2 Sb4 P2'
_cell_volume   191.14877489
_cell_formula_units_Z   1
loop_
 _symmetry_equiv_pos_site_id
 _symmetry_equiv_pos_as_xyz
  1  'x, y, z'
loop_
 _atom_site_type_symbol
 _atom_site_label
 _atom_site_symmetry_multiplicity
 _atom_site_fract_x
 _atom_site_fract_y
 _atom_site_fract_z
 _atom_site_occupancy
  Mn  Mn0  1  0.00000000  0.00000000  0.00000000  1
  Mn  Mn1  1  0.33300000  0.66700000  0.25000000  1
  Sb  Sb2  1  0.66700000  0.33300000  0.50000000  1
  Sb  Sb3  1  0.00000000  0.00000000  0.75000000  1
  Sb  Sb4  1  0.89213367  0.84686596  0.07477710  1
  Sb  Sb5  1  0.39713097  0.40765370  0.68992768  1
  P  P6  1  0.11329935  0.21549111  0.67317722  1
  P  P7  1  0.87759006  0.07279526  0.87980511  1
  Li  Li8  1  0.23630097  0.76410234  0.03243112  1
