# generated using pymatgen
data_LiSbMo2P3
_symmetry_space_group_name_H-M   'P 1'
_cell_length_a   5.09330450
_cell_length_b   5.26474200
_cell_length_c   6.01836255
_cell_angle_alpha   97.22706847
_cell_angle_beta   90.60297287
_cell_angle_gamma   96.77870806
_symmetry_Int_Tables_number   1
_chemical_formula_structural   LiSbMo2P3
_chemical_formula_sum   'Li1 Sb1 Mo2 P3'
_cell_volume   158.92794852
_cell_formula_units_Z   1
loop_
 _symmetry_equiv_pos_site_id
 _symmetry_equiv_pos_as_xyz
  1  'x, y, z'
loop_
 _atom_site_type_symbol
 _atom_site_label
 _atom_site_symmetry_multiplicity
 _atom_site_fract_x
 _atom_site_fract_y
 _atom_site_fract_z
 _atom_site_occupancy
  Sb  Sb0  1  0.00000000  0.00000000  0.00000000  1
  P  P1  1  0.50000000  0.50000000  0.50000000  1
  P  P2  1  0.25000000  0.25000000  0.25000000  1
  P  P3  1  0.75000000  0.25000000  0.00000000  1
  Mo  Mo4  1  0.25000000  0.75000000  0.50000000  1
  Mo  Mo5  1  0.76335115  0.79131265  0.04328111  1
  Li  Li6  1  0.33155371  0.68198810  0.69014022  1
