# generated using pymatgen
data_Li2Mn3(SbP)4
_symmetry_space_group_name_H-M   'P 1'
_cell_length_a   7.57736925
_cell_length_b   8.26034177
_cell_length_c   7.54707920
_cell_angle_alpha   90.00000000
_cell_angle_beta   90.00000000
_cell_angle_gamma   90.00000000
_symmetry_Int_Tables_number   1
_chemical_formula_structural   Li2Mn3(SbP)4
_chemical_formula_sum   'Li2 Mn3 Sb4 P4'
_cell_volume   472.38421297
_cell_formula_units_Z   1
loop_
 _symmetry_equiv_pos_site_id
 _symmetry_equiv_pos_as_xyz
  1  'x, y, z'
loop_
 _atom_site_type_symbol
 _atom_site_label
 _atom_site_symmetry_multiplicity
 _atom_site_fract_x
 _atom_site_fract_y
 _atom_site_fract_z
 _atom_site_occupancy
  Mn  Mn0  1  0.00000000  0.00000000  0.00000000  1
  Mn  Mn1  1  0.50000000  0.50000000  0.50000000  1
  Mn  Mn2  1  0.50000000  0.50000000  0.00000000  1
  Sb  Sb3  1  0.50000000  0.00000000  0.50000000  1
  Sb  Sb4  1  0.00000000  0.50000000  0.50000000  1
  Sb  Sb5  1  0.76872720  0.00198399  0.40482312  1
  Sb  Sb6  1  0.61547380  0.50555717  0.89114310  1
  P  P7  1  0.55176004  0.87468088  0.34260004  1
  P  P8  1  0.36455405  0.37366162  0.55123623  1
  P  P9  1  0.43498209  0.06346675  0.16898086  1
  P  P10  1  0.74762656  0.51420884  0.34269647  1
  Li  Li11  1  0.04694399  0.29295048  0.34614284  1
  Li  Li12  1  0.67892629  0.40710518  0.95744743  1
