# generated using pymatgen
data_Li2Ti2P5(SeO)2
_symmetry_space_group_name_H-M   'P 1'
_cell_length_a   7.64573195
_cell_length_b   7.28256396
_cell_length_c   7.42471912
_cell_angle_alpha   90.35459902
_cell_angle_beta   91.68707446
_cell_angle_gamma   90.40540137
_symmetry_Int_Tables_number   1
_chemical_formula_structural   Li2Ti2P5(SeO)2
_chemical_formula_sum   'Li2 Ti2 P5 Se2 O2'
_cell_volume   413.21430001
_cell_formula_units_Z   1
loop_
 _symmetry_equiv_pos_site_id
 _symmetry_equiv_pos_as_xyz
  1  'x, y, z'
loop_
 _atom_site_type_symbol
 _atom_site_label
 _atom_site_symmetry_multiplicity
 _atom_site_fract_x
 _atom_site_fract_y
 _atom_site_fract_z
 _atom_site_occupancy
  P  P0  1  0.00000000  0.00000000  0.00000000  1
  P  P1  1  0.50000000  0.50000000  0.50000000  1
  P  P2  1  0.50000000  0.50000000  0.00000000  1
  P  P3  1  0.50000000  0.00000000  0.50000000  1
  P  P4  1  0.00000000  0.50000000  0.50000000  1
  Li  Li5  1  0.91892591  0.67715982  0.87467996  1
  Li  Li6  1  0.20166452  0.36053896  0.76297157  1
  Se  Se7  1  0.56422901  0.60913319  0.07373482  1
  Se  Se8  1  0.92931757  0.86195830  0.67014005  1
  Ti  Ti9  1  0.95192321  0.53338803  0.86110569  1
  Ti  Ti10  1  0.42029249  0.12883745  0.16366286  1
  O  O11  1  0.04718475  0.53146148  0.99412767  1
  O  O12  1  0.35705314  0.56105300  0.02420918  1
