# generated using pymatgen
data_Li4TiSe(I2Cl)2
_symmetry_space_group_name_H-M   'P 1'
_cell_length_a   5.93578643
_cell_length_b   5.61032644
_cell_length_c   6.82884536
_cell_angle_alpha   103.16636705
_cell_angle_beta   106.81042671
_cell_angle_gamma   102.38581061
_symmetry_Int_Tables_number   1
_chemical_formula_structural   Li4TiSe(I2Cl)2
_chemical_formula_sum   'Li4 Ti1 Se1 I4 Cl2'
_cell_volume   202.15513863
_cell_formula_units_Z   1
loop_
 _symmetry_equiv_pos_site_id
 _symmetry_equiv_pos_as_xyz
  1  'x, y, z'
loop_
 _atom_site_type_symbol
 _atom_site_label
 _atom_site_symmetry_multiplicity
 _atom_site_fract_x
 _atom_site_fract_y
 _atom_site_fract_z
 _atom_site_occupancy
  I  I0  1  0.12500000  0.00000000  0.25000000  1
  I  I1  1  0.00000000  0.00000000  0.00000000  1
  I  I2  1  0.37500000  0.00000000  0.25000000  1
  I  I3  1  0.25000000  0.25000000  0.25000000  1
  Li  Li4  1  0.00000000  0.25000000  0.12500000  1
  Li  Li5  1  0.51011414  0.06965579  0.14101271  1
  Li  Li6  1  0.54942386  0.51236372  0.16403767  1
  Li  Li7  1  0.15193086  0.92348622  0.67556853  1
  Se  Se8  1  0.92364992  0.11440346  0.72361276  1
  Cl  Cl9  1  0.94300812  0.62559658  0.97590117  1
  Cl  Cl10  1  0.20109437  0.92733058  0.47002529  1
  Ti  Ti11  1  0.68759943  0.67059115  0.13555661  1
