# generated using pymatgen
data_Li2La3Ti2P3S2
_symmetry_space_group_name_H-M   'P 1'
_cell_length_a   7.28339736
_cell_length_b   6.83146454
_cell_length_c   7.73702060
_cell_angle_alpha   94.82786421
_cell_angle_beta   95.29149133
_cell_angle_gamma   94.34317569
_symmetry_Int_Tables_number   1
_chemical_formula_structural   Li2La3Ti2P3S2
_chemical_formula_sum   'Li2 La3 Ti2 P3 S2'
_cell_volume   380.60999048
_cell_formula_units_Z   1
loop_
 _symmetry_equiv_pos_site_id
 _symmetry_equiv_pos_as_xyz
  1  'x, y, z'
loop_
 _atom_site_type_symbol
 _atom_site_label
 _atom_site_symmetry_multiplicity
 _atom_site_fract_x
 _atom_site_fract_y
 _atom_site_fract_z
 _atom_site_occupancy
  P  P0  1  0.12500000  0.00000000  0.25000000  1
  P  P1  1  0.00000000  0.00000000  0.00000000  1
  P  P2  1  0.37500000  0.00000000  0.25000000  1
  Li  Li3  1  0.25000000  0.25000000  0.25000000  1
  Li  Li4  1  0.00000000  0.25000000  0.12500000  1
  La  La5  1  0.30383637  0.41736385  0.13345098  1
  La  La6  1  0.76397087  0.83086886  0.93047863  1
  La  La7  1  0.58575526  0.07219053  0.36082025  1
  S  S8  1  0.33187033  0.20439822  0.54124674  1
  S  S9  1  0.47430968  0.23677848  0.77130510  1
  Ti  Ti10  1  0.53171025  0.86684921  0.93430984  1
  Ti  Ti11  1  0.98016655  0.42017444  0.08679975  1
