# generated using pymatgen
data_Li4As6N5
_symmetry_space_group_name_H-M   'P 1'
_cell_length_a   6.65782198
_cell_length_b   6.06893907
_cell_length_c   8.18189809
_cell_angle_alpha   96.57191553
_cell_angle_beta   92.32344810
_cell_angle_gamma   97.62262644
_symmetry_Int_Tables_number   1
_chemical_formula_structural   Li4As6N5
_chemical_formula_sum   'Li4 As6 N5'
_cell_volume   325.00084879
_cell_formula_units_Z   1
loop_
 _symmetry_equiv_pos_site_id
 _symmetry_equiv_pos_as_xyz
  1  'x, y, z'
loop_
 _atom_site_type_symbol
 _atom_site_label
 _atom_site_symmetry_multiplicity
 _atom_site_fract_x
 _atom_site_fract_y
 _atom_site_fract_z
 _atom_site_occupancy
  Li  Li0  1  0.12500000  0.00000000  0.25000000  1
  Li  Li1  1  0.00000000  0.00000000  0.00000000  1
  Li  Li2  1  0.37500000  0.00000000  0.25000000  1
  Li  Li3  1  0.25000000  0.25000000  0.25000000  1
  As  As4  1  0.00000000  0.25000000  0.12500000  1
  As  As5  1  0.53764461  0.38189589  0.86552954  1
  As  As6  1  0.67350479  0.45373679  0.97611999  1
  As  As7  1  0.38792877  0.21363405  0.06438743  1
  As  As8  1  0.45328302  0.38271433  0.71466055  1
  As  As9  1  0.16331330  0.71906888  0.11691473  1
  N  N10  1  0.07108046  0.97181320  0.32038120  1
  N  N11  1  0.96667628  0.01404636  0.19872607  1
  N  N12  1  0.53005244  0.00338556  0.24392648  1
  N  N13  1  0.29577907  0.30363893  0.41140029  1
  N  N14  1  0.64958614  0.38502686  0.32717446  1
