# generated using pymatgen
data_Li2MnSb4P3
_symmetry_space_group_name_H-M   'P 1'
_cell_length_a   4.14863330
_cell_length_b   4.35840574
_cell_length_c   6.85403625
_cell_angle_alpha   100.03485445
_cell_angle_beta   100.32566521
_cell_angle_gamma   101.24480997
_symmetry_Int_Tables_number   1
_chemical_formula_structural   Li2MnSb4P3
_chemical_formula_sum   'Li2 Mn1 Sb4 P3'
_cell_volume   116.73879401
_cell_formula_units_Z   1
loop_
 _symmetry_equiv_pos_site_id
 _symmetry_equiv_pos_as_xyz
  1  'x, y, z'
loop_
 _atom_site_type_symbol
 _atom_site_label
 _atom_site_symmetry_multiplicity
 _atom_site_fract_x
 _atom_site_fract_y
 _atom_site_fract_z
 _atom_site_occupancy
  Mn  Mn0  1  0.00000000  0.00000000  0.00000000  1
  Sb  Sb1  1  0.50000000  0.50000000  0.50000000  1
  Sb  Sb2  1  0.50000000  0.50000000  0.00000000  1
  Sb  Sb3  1  0.50000000  0.00000000  0.50000000  1
  Sb  Sb4  1  0.00000000  0.50000000  0.50000000  1
  P  P5  1  0.44681148  0.81897666  0.56095638  1
  P  P6  1  0.89661186  0.72602396  0.75540155  1
  P  P7  1  0.70418021  0.02258014  0.74472154  1
  Li  Li8  1  0.61895964  0.26918392  0.03933026  1
  Li  Li9  1  0.93885201  0.65959168  0.37281835  1
