# generated using pymatgen
data_Li3Ti2I4O3
_symmetry_space_group_name_H-M   'P 1'
_cell_length_a   7.87150600
_cell_length_b   7.73645661
_cell_length_c   7.60511626
_cell_angle_alpha   93.60214159
_cell_angle_beta   95.60298170
_cell_angle_gamma   93.93875208
_symmetry_Int_Tables_number   1
_chemical_formula_structural   Li3Ti2I4O3
_chemical_formula_sum   'Li3 Ti2 I4 O3'
_cell_volume   458.70263068
_cell_formula_units_Z   1
loop_
 _symmetry_equiv_pos_site_id
 _symmetry_equiv_pos_as_xyz
  1  'x, y, z'
loop_
 _atom_site_type_symbol
 _atom_site_label
 _atom_site_symmetry_multiplicity
 _atom_site_fract_x
 _atom_site_fract_y
 _atom_site_fract_z
 _atom_site_occupancy
  I  I0  1  0.12500000  0.00000000  0.25000000  1
  I  I1  1  0.00000000  0.00000000  0.00000000  1
  I  I2  1  0.37500000  0.00000000  0.25000000  1
  I  I3  1  0.25000000  0.25000000  0.25000000  1
  Li  Li4  1  0.00000000  0.25000000  0.12500000  1
  Li  Li5  1  0.03301594  0.57837269  0.08364876  1
  Li  Li6  1  0.56977922  0.55419220  0.18772529  1
  Ti  Ti7  1  0.74167416  0.29461093  0.88424280  1
  Ti  Ti8  1  0.70965336  0.91560802  0.26214397  1
  O  O9  1  0.85635092  0.16560922  0.38520285  1
  O  O10  1  0.68205888  0.50868541  0.53750563  1
  O  O11  1  0.17297654  0.51531475  0.79007970  1
