# generated using pymatgen
data_LiMn3Sb4Mo2P3
_symmetry_space_group_name_H-M   'P 1'
_cell_length_a   5.74839269
_cell_length_b   6.16661184
_cell_length_c   6.85292486
_cell_angle_alpha   94.02252355
_cell_angle_beta   93.49688057
_cell_angle_gamma   94.53477334
_symmetry_Int_Tables_number   1
_chemical_formula_structural   LiMn3Sb4Mo2P3
_chemical_formula_sum   'Li1 Mn3 Sb4 Mo2 P3'
_cell_volume   241.02477647
_cell_formula_units_Z   1
loop_
 _symmetry_equiv_pos_site_id
 _symmetry_equiv_pos_as_xyz
  1  'x, y, z'
loop_
 _atom_site_type_symbol
 _atom_site_label
 _atom_site_symmetry_multiplicity
 _atom_site_fract_x
 _atom_site_fract_y
 _atom_site_fract_z
 _atom_site_occupancy
  Mn  Mn0  1  0.12500000  0.00000000  0.25000000  1
  Mn  Mn1  1  0.00000000  0.00000000  0.00000000  1
  Mn  Mn2  1  0.37500000  0.00000000  0.25000000  1
  Sb  Sb3  1  0.25000000  0.25000000  0.25000000  1
  Sb  Sb4  1  0.00000000  0.25000000  0.12500000  1
  Sb  Sb5  1  0.99987119  0.11740815  0.98309582  1
  Sb  Sb6  1  0.83951985  0.19089693  0.73511894  1
  P  P7  1  0.46114547  0.60921526  0.63853170  1
  P  P8  1  0.73243840  0.51363937  0.87067059  1
  P  P9  1  0.29108432  0.78192032  0.03382121  1
  Mo  Mo10  1  0.83969255  0.06156794  0.32151266  1
  Mo  Mo11  1  0.86489214  0.77061982  0.13977353  1
  Li  Li12  1  0.14701109  0.46233946  0.63433239  1
