# generated using pymatgen
data_Li2Ni2P8O5
_symmetry_space_group_name_H-M   'P 1'
_cell_length_a   8.17390027
_cell_length_b   7.92196251
_cell_length_c   8.68429430
_cell_angle_alpha   90.00000000
_cell_angle_beta   90.00000000
_cell_angle_gamma   90.00000000
_symmetry_Int_Tables_number   1
_chemical_formula_structural   Li2Ni2P8O5
_chemical_formula_sum   'Li2 Ni2 P8 O5'
_cell_volume   562.33698766
_cell_formula_units_Z   1
loop_
 _symmetry_equiv_pos_site_id
 _symmetry_equiv_pos_as_xyz
  1  'x, y, z'
loop_
 _atom_site_type_symbol
 _atom_site_label
 _atom_site_symmetry_multiplicity
 _atom_site_fract_x
 _atom_site_fract_y
 _atom_site_fract_z
 _atom_site_occupancy
  P  P0  1  0.00000000  0.00000000  0.00000000  1
  P  P1  1  0.33300000  0.66700000  0.25000000  1
  P  P2  1  0.66700000  0.33300000  0.50000000  1
  P  P3  1  0.00000000  0.00000000  0.75000000  1
  P  P4  1  0.27557652  0.43717003  0.76712396  1
  P  P5  1  0.64477534  0.90413276  0.20460693  1
  P  P6  1  0.01387445  0.87765926  0.21527728  1
  P  P7  1  0.39449342  0.65015922  0.06075217  1
  Li  Li8  1  0.90832797  0.32601667  0.98639657  1
  Li  Li9  1  0.95077708  0.64395799  0.12488995  1
  Ni  Ni10  1  0.00954311  0.00011756  0.11405736  1
  Ni  Ni11  1  0.53200316  0.57264303  0.78213429  1
  O  O12  1  0.94685475  0.60533293  0.62018306  1
  O  O13  1  0.73343311  0.05792244  0.40556173  1
  O  O14  1  0.52459520  0.38551026  0.53255486  1
  O  O15  1  0.81952856  0.93573497  0.14332567  1
  O  O16  1  0.51089835  0.38503711  0.21004097  1
