# generated using pymatgen
data_Li2Mn2Sb4P3
_symmetry_space_group_name_H-M   'P 1'
_cell_length_a   6.90176027
_cell_length_b   7.31692223
_cell_length_c   7.50406093
_cell_angle_alpha   92.04595142
_cell_angle_beta   92.42361850
_cell_angle_gamma   92.32854533
_symmetry_Int_Tables_number   1
_chemical_formula_structural   Li2Mn2Sb4P3
_chemical_formula_sum   'Li2 Mn2 Sb4 P3'
_cell_volume   378.03493667
_cell_formula_units_Z   1
loop_
 _symmetry_equiv_pos_site_id
 _symmetry_equiv_pos_as_xyz
  1  'x, y, z'
loop_
 _atom_site_type_symbol
 _atom_site_label
 _atom_site_symmetry_multiplicity
 _atom_site_fract_x
 _atom_site_fract_y
 _atom_site_fract_z
 _atom_site_occupancy
  Mn  Mn0  1  0.00000000  0.00000000  0.00000000  1
  Mn  Mn1  1  0.33300000  0.66700000  0.25000000  1
  Sb  Sb2  1  0.66700000  0.33300000  0.50000000  1
  Sb  Sb3  1  0.00000000  0.00000000  0.75000000  1
  Sb  Sb4  1  0.15338576  0.98618781  0.76167019  1
  Sb  Sb5  1  0.57408747  0.31605002  0.02652917  1
  P  P6  1  0.55403083  0.64278925  0.36529837  1
  P  P7  1  0.91852066  0.75053030  0.56002605  1
  P  P8  1  0.25651453  0.34197991  0.97651583  1
  Li  Li9  1  0.51218129  0.21980086  0.00792565  1
  Li  Li10  1  0.42221304  0.23225373  0.92346366  1
