# generated using pymatgen
data_Li2MnSb4P2N
_symmetry_space_group_name_H-M   'P 1'
_cell_length_a   4.44858032
_cell_length_b   4.73047783
_cell_length_c   6.39545750
_cell_angle_alpha   101.71027543
_cell_angle_beta   96.53547905
_cell_angle_gamma   101.13057207
_symmetry_Int_Tables_number   1
_chemical_formula_structural   Li2MnSb4P2N
_chemical_formula_sum   'Li2 Mn1 Sb4 P2 N1'
_cell_volume   127.65524587
_cell_formula_units_Z   1
loop_
 _symmetry_equiv_pos_site_id
 _symmetry_equiv_pos_as_xyz
  1  'x, y, z'
loop_
 _atom_site_type_symbol
 _atom_site_label
 _atom_site_symmetry_multiplicity
 _atom_site_fract_x
 _atom_site_fract_y
 _atom_site_fract_z
 _atom_site_occupancy
  N  N0  1  0.12500000  0.00000000  0.25000000  1
  Mn  Mn1  1  0.00000000  0.00000000  0.00000000  1
  Sb  Sb2  1  0.37500000  0.00000000  0.25000000  1
  Sb  Sb3  1  0.25000000  0.25000000  0.25000000  1
  Sb  Sb4  1  0.00000000  0.25000000  0.12500000  1
  Sb  Sb5  1  0.74102301  0.79018471  0.14368184  1
  P  P6  1  0.09516936  0.99482474  0.75179417  1
  P  P7  1  0.32360245  0.38146139  0.95495591  1
  Li  Li8  1  0.67321736  0.04087694  0.39639483  1
  Li  Li9  1  0.95103083  0.85448245  0.08496589  1
