# generated using pymatgen
data_LiMnSb4Mo2P3
_symmetry_space_group_name_H-M   'P 1'
_cell_length_a   5.33069939
_cell_length_b   5.72984467
_cell_length_c   6.89029861
_cell_angle_alpha   95.23777636
_cell_angle_beta   95.80104251
_cell_angle_gamma   95.78265016
_symmetry_Int_Tables_number   1
_chemical_formula_structural   LiMnSb4Mo2P3
_chemical_formula_sum   'Li1 Mn1 Sb4 Mo2 P3'
_cell_volume   207.21701094
_cell_formula_units_Z   1
loop_
 _symmetry_equiv_pos_site_id
 _symmetry_equiv_pos_as_xyz
  1  'x, y, z'
loop_
 _atom_site_type_symbol
 _atom_site_label
 _atom_site_symmetry_multiplicity
 _atom_site_fract_x
 _atom_site_fract_y
 _atom_site_fract_z
 _atom_site_occupancy
  Mn  Mn0  1  0.00000000  0.00000000  0.00000000  1
  Sb  Sb1  1  0.50000000  0.50000000  0.50000000  1
  Sb  Sb2  1  0.25000000  0.25000000  0.25000000  1
  Sb  Sb3  1  0.75000000  0.25000000  0.00000000  1
  Sb  Sb4  1  0.25000000  0.75000000  0.50000000  1
  P  P5  1  0.71625925  0.52722858  0.04615882  1
  P  P6  1  0.07656856  0.64801918  0.99158032  1
  P  P7  1  0.99788320  0.92721986  0.56914028  1
  Mo  Mo8  1  0.66265994  0.50969521  0.67340032  1
  Mo  Mo9  1  0.60264969  0.57532966  0.52833501  1
  Li  Li10  1  0.99147540  0.82392486  0.50719688  1
