# generated using pymatgen
data_Li2Mn2Sb4P2N
_symmetry_space_group_name_H-M   'P 1'
_cell_length_a   4.74494831
_cell_length_b   5.07151127
_cell_length_c   6.14630086
_cell_angle_alpha   102.29800384
_cell_angle_beta   96.94610114
_cell_angle_gamma   99.39563373
_symmetry_Int_Tables_number   1
_chemical_formula_structural   Li2Mn2Sb4P2N
_chemical_formula_sum   'Li2 Mn2 Sb4 P2 N1'
_cell_volume   140.69997932
_cell_formula_units_Z   1
loop_
 _symmetry_equiv_pos_site_id
 _symmetry_equiv_pos_as_xyz
  1  'x, y, z'
loop_
 _atom_site_type_symbol
 _atom_site_label
 _atom_site_symmetry_multiplicity
 _atom_site_fract_x
 _atom_site_fract_y
 _atom_site_fract_z
 _atom_site_occupancy
  N  N0  1  0.12500000  0.00000000  0.25000000  1
  Mn  Mn1  1  0.00000000  0.00000000  0.00000000  1
  Mn  Mn2  1  0.37500000  0.00000000  0.25000000  1
  Sb  Sb3  1  0.25000000  0.25000000  0.25000000  1
  Sb  Sb4  1  0.00000000  0.25000000  0.12500000  1
  Sb  Sb5  1  0.40045058  0.52624489  0.08985149  1
  Sb  Sb6  1  0.35947974  0.89877093  0.44360733  1
  P  P7  1  0.23967042  0.73118222  0.34512806  1
  P  P8  1  0.05779775  0.56819931  0.18584152  1
  Li  Li9  1  0.63370369  0.70210947  0.44100384  1
  Li  Li10  1  0.72890697  0.35216017  0.26829915  1
