# generated using pymatgen
data_LiTiSF
_symmetry_space_group_name_H-M   'P 1'
_cell_length_a   4.43918294
_cell_length_b   4.16198906
_cell_length_c   6.91884152
_cell_angle_alpha   96.42993617
_cell_angle_beta   101.95838202
_cell_angle_gamma   96.11120372
_symmetry_Int_Tables_number   1
_chemical_formula_structural   LiTiSF
_chemical_formula_sum   'Li2 Ti2 S2 F2'
_cell_volume   123.16020340
_cell_formula_units_Z   2
loop_
 _symmetry_equiv_pos_site_id
 _symmetry_equiv_pos_as_xyz
  1  'x, y, z'
loop_
 _atom_site_type_symbol
 _atom_site_label
 _atom_site_symmetry_multiplicity
 _atom_site_fract_x
 _atom_site_fract_y
 _atom_site_fract_z
 _atom_site_occupancy
  F  F0  1  0.00000000  0.00000000  0.00000000  1
  F  F1  1  0.50000000  0.50000000  0.50000000  1
  S  S2  1  0.50000000  0.50000000  0.00000000  1
  S  S3  1  0.50000000  0.00000000  0.50000000  1
  Ti  Ti4  1  0.00000000  0.50000000  0.50000000  1
  Ti  Ti5  1  0.87199642  0.96515469  0.85988981  1
  Li  Li6  1  0.65489171  0.23639652  0.40224072  1
  Li  Li7  1  0.58701878  0.87951395  0.52938127  1
