# generated using pymatgen
data_Li2Mn2Sb4P3
_symmetry_space_group_name_H-M   'P 1'
_cell_length_a   5.40925200
_cell_length_b   5.78881768
_cell_length_c   6.70153920
_cell_angle_alpha   98.55850497
_cell_angle_beta   92.80555733
_cell_angle_gamma   98.71944547
_symmetry_Int_Tables_number   1
_chemical_formula_structural   Li2Mn2Sb4P3
_chemical_formula_sum   'Li2 Mn2 Sb4 P3'
_cell_volume   204.56178177
_cell_formula_units_Z   1
loop_
 _symmetry_equiv_pos_site_id
 _symmetry_equiv_pos_as_xyz
  1  'x, y, z'
loop_
 _atom_site_type_symbol
 _atom_site_label
 _atom_site_symmetry_multiplicity
 _atom_site_fract_x
 _atom_site_fract_y
 _atom_site_fract_z
 _atom_site_occupancy
  Mn  Mn0  1  0.12500000  0.12500000  0.12500000  1
  Mn  Mn1  1  0.50000000  0.50000000  0.50000000  1
  Sb  Sb2  1  0.25000000  0.25000000  0.25000000  1
  Sb  Sb3  1  0.75000000  0.75000000  0.75000000  1
  Sb  Sb4  1  0.75184587  0.45087878  0.88603200  1
  Sb  Sb5  1  0.61238895  0.22469130  0.14710425  1
  P  P6  1  0.31796032  0.39054923  0.78498791  1
  P  P7  1  0.34924754  0.86968722  0.78359787  1
  P  P8  1  0.05137701  0.18086223  0.06681614  1
  Li  Li9  1  0.51917691  0.35650045  0.62805452  1
  Li  Li10  1  0.92759693  0.19177194  0.78918410  1
