# generated using pymatgen
data_LiTiP3F
_symmetry_space_group_name_H-M   'P 1'
_cell_length_a   8.41367138
_cell_length_b   8.10241285
_cell_length_c   7.94469854
_cell_angle_alpha   90.17530082
_cell_angle_beta   90.83402806
_cell_angle_gamma   90.20041565
_symmetry_Int_Tables_number   1
_chemical_formula_structural   LiTiP3F
_chemical_formula_sum   'Li2 Ti2 P6 F2'
_cell_volume   541.53504245
_cell_formula_units_Z   2
loop_
 _symmetry_equiv_pos_site_id
 _symmetry_equiv_pos_as_xyz
  1  'x, y, z'
loop_
 _atom_site_type_symbol
 _atom_site_label
 _atom_site_symmetry_multiplicity
 _atom_site_fract_x
 _atom_site_fract_y
 _atom_site_fract_z
 _atom_site_occupancy
  P  P0  1  0.12500000  0.00000000  0.25000000  1
  P  P1  1  0.00000000  0.00000000  0.00000000  1
  P  P2  1  0.37500000  0.00000000  0.25000000  1
  P  P3  1  0.25000000  0.25000000  0.25000000  1
  P  P4  1  0.00000000  0.25000000  0.12500000  1
  P  P5  1  0.75310233  0.06162900  0.10583467  1
  Li  Li6  1  0.27372972  0.39844361  0.14209056  1
  Li  Li7  1  0.29941231  0.63919188  0.94638637  1
  F  F8  1  0.36643446  0.79500084  0.17201432  1
  F  F9  1  0.83336388  0.31539891  0.38023068  1
  Ti  Ti10  1  0.67516017  0.16713651  0.18282078  1
  Ti  Ti11  1  0.21496161  0.93361705  0.94346503  1
