# generated using pymatgen
data_Li4LuNi2P4N5
_symmetry_space_group_name_H-M   'P 1'
_cell_length_a   7.43249497
_cell_length_b   7.05219556
_cell_length_c   8.86811598
_cell_angle_alpha   93.49759716
_cell_angle_beta   91.23654746
_cell_angle_gamma   94.05678930
_symmetry_Int_Tables_number   1
_chemical_formula_structural   Li4LuNi2P4N5
_chemical_formula_sum   'Li4 Lu1 Ni2 P4 N5'
_cell_volume   462.64105756
_cell_formula_units_Z   1
loop_
 _symmetry_equiv_pos_site_id
 _symmetry_equiv_pos_as_xyz
  1  'x, y, z'
loop_
 _atom_site_type_symbol
 _atom_site_label
 _atom_site_symmetry_multiplicity
 _atom_site_fract_x
 _atom_site_fract_y
 _atom_site_fract_z
 _atom_site_occupancy
  P  P0  1  0.00000000  0.00000000  0.00000000  1
  P  P1  1  0.50000000  0.50000000  0.50000000  1
  P  P2  1  0.50000000  0.50000000  0.00000000  1
  P  P3  1  0.50000000  0.00000000  0.50000000  1
  Lu  Lu4  1  0.00000000  0.50000000  0.50000000  1
  Li  Li5  1  0.69937119  0.76232024  0.33987605  1
  Li  Li6  1  0.91477848  0.64315897  0.10357410  1
  Li  Li7  1  0.57387832  0.36224999  0.61869634  1
  Li  Li8  1  0.71617414  0.82402719  0.45276901  1
  Ni  Ni9  1  0.36004899  0.87232800  0.15606551  1
  Ni  Ni10  1  0.51114727  0.67327678  0.70947176  1
  N  N11  1  0.32850918  0.07527899  0.08766229  1
  N  N12  1  0.41840891  0.95841903  0.50505978  1
  N  N13  1  0.69837051  0.94750145  0.66511890  1
  N  N14  1  0.35406506  0.01989386  0.76697241  1
  N  N15  1  0.29935482  0.59162197  0.54468532  1
