# generated using pymatgen
data_Li2Ni2P8O3
_symmetry_space_group_name_H-M   'P 1'
_cell_length_a   6.77971587
_cell_length_b   6.81903001
_cell_length_c   7.77687490
_cell_angle_alpha   95.30950535
_cell_angle_beta   97.19144614
_cell_angle_gamma   96.83284904
_symmetry_Int_Tables_number   1
_chemical_formula_structural   Li2Ni2P8O3
_chemical_formula_sum   'Li2 Ni2 P8 O3'
_cell_volume   352.05914406
_cell_formula_units_Z   1
loop_
 _symmetry_equiv_pos_site_id
 _symmetry_equiv_pos_as_xyz
  1  'x, y, z'
loop_
 _atom_site_type_symbol
 _atom_site_label
 _atom_site_symmetry_multiplicity
 _atom_site_fract_x
 _atom_site_fract_y
 _atom_site_fract_z
 _atom_site_occupancy
  P  P0  1  0.00000000  0.00000000  0.00000000  1
  P  P1  1  0.50000000  0.50000000  0.50000000  1
  P  P2  1  0.25000000  0.25000000  0.25000000  1
  P  P3  1  0.75000000  0.25000000  0.00000000  1
  P  P4  1  0.25000000  0.75000000  0.50000000  1
  P  P5  1  0.54112000  0.59863691  0.12876601  1
  P  P6  1  0.28480301  0.36300390  0.07861314  1
  P  P7  1  0.31884656  0.67649924  0.75899705  1
  Li  Li8  1  0.17096168  0.77116641  0.21017444  1
  Li  Li9  1  0.02413127  0.14993300  0.08137250  1
  Ni  Ni10  1  0.76003660  0.10255947  0.41461562  1
  Ni  Ni11  1  0.81741796  0.18707362  0.97982045  1
  O  O12  1  0.45300208  0.37464749  0.33015338  1
  O  O13  1  0.88343161  0.41230407  0.34910629  1
  O  O14  1  0.72074824  0.25058903  0.45699222  1
