# generated using pymatgen
data_LiTi2S3F2
_symmetry_space_group_name_H-M   'P 1'
_cell_length_a   7.85531086
_cell_length_b   7.74324032
_cell_length_c   9.16284538
_cell_angle_alpha   90.83972722
_cell_angle_beta   93.99516707
_cell_angle_gamma   90.96003244
_symmetry_Int_Tables_number   1
_chemical_formula_structural   LiTi2S3F2
_chemical_formula_sum   'Li1 Ti2 S3 F2'
_cell_volume   555.83283889
_cell_formula_units_Z   1
loop_
 _symmetry_equiv_pos_site_id
 _symmetry_equiv_pos_as_xyz
  1  'x, y, z'
loop_
 _atom_site_type_symbol
 _atom_site_label
 _atom_site_symmetry_multiplicity
 _atom_site_fract_x
 _atom_site_fract_y
 _atom_site_fract_z
 _atom_site_occupancy
  Li  Li0  1  0.12500000  0.12500000  0.12500000  1
  F  F1  1  0.50000000  0.50000000  0.50000000  1
  F  F2  1  0.25000000  0.25000000  0.25000000  1
  S  S3  1  0.75000000  0.75000000  0.75000000  1
  S  S4  1  0.51836358  0.58384910  0.66936627  1
  S  S5  1  0.95070051  0.41486875  0.59502957  1
  Ti  Ti6  1  0.37699589  0.29506344  0.32629766  1
  Ti  Ti7  1  0.96498128  0.43284686  0.81614538  1
