# generated using pymatgen
data_Li2Mn2Sb4P3
_symmetry_space_group_name_H-M   'P 1'
_cell_length_a   5.05026399
_cell_length_b   5.38243206
_cell_length_c   6.58170778
_cell_angle_alpha   99.85337466
_cell_angle_beta   93.43891687
_cell_angle_gamma   100.06775553
_symmetry_Int_Tables_number   1
_chemical_formula_structural   Li2Mn2Sb4P3
_chemical_formula_sum   'Li2 Mn2 Sb4 P3'
_cell_volume   172.80839017
_cell_formula_units_Z   1
loop_
 _symmetry_equiv_pos_site_id
 _symmetry_equiv_pos_as_xyz
  1  'x, y, z'
loop_
 _atom_site_type_symbol
 _atom_site_label
 _atom_site_symmetry_multiplicity
 _atom_site_fract_x
 _atom_site_fract_y
 _atom_site_fract_z
 _atom_site_occupancy
  Mn  Mn0  1  0.00000000  0.00000000  0.00000000  1
  Mn  Mn1  1  0.50000000  0.50000000  0.50000000  1
  Sb  Sb2  1  0.50000000  0.50000000  0.00000000  1
  Sb  Sb3  1  0.50000000  0.00000000  0.50000000  1
  Sb  Sb4  1  0.00000000  0.50000000  0.50000000  1
  Sb  Sb5  1  0.50319979  0.78359468  0.98295544  1
  P  P6  1  0.52179459  0.79927178  0.41325206  1
  P  P7  1  0.07369202  0.80480454  0.50606238  1
  P  P8  1  0.06372039  0.19029019  0.57084129  1
  Li  Li9  1  0.37592105  0.73789800  0.22165920  1
  Li  Li10  1  0.21653849  0.70056031  0.22121502  1
