# generated using pymatgen
data_Li3Ti2(OF)2
_symmetry_space_group_name_H-M   'P 1'
_cell_length_a   5.01058518
_cell_length_b   5.20212453
_cell_length_c   6.75982184
_cell_angle_alpha   98.15887091
_cell_angle_beta   103.77834016
_cell_angle_gamma   100.38459903
_symmetry_Int_Tables_number   1
_chemical_formula_structural   Li3Ti2(OF)2
_chemical_formula_sum   'Li3 Ti2 O2 F2'
_cell_volume   165.14490111
_cell_formula_units_Z   1
loop_
 _symmetry_equiv_pos_site_id
 _symmetry_equiv_pos_as_xyz
  1  'x, y, z'
loop_
 _atom_site_type_symbol
 _atom_site_label
 _atom_site_symmetry_multiplicity
 _atom_site_fract_x
 _atom_site_fract_y
 _atom_site_fract_z
 _atom_site_occupancy
  Li  Li0  1  0.00000000  0.00000000  0.00000000  1
  Li  Li1  1  0.50000000  0.50000000  0.50000000  1
  Li  Li2  1  0.50000000  0.50000000  0.00000000  1
  F  F3  1  0.50000000  0.00000000  0.50000000  1
  F  F4  1  0.00000000  0.50000000  0.50000000  1
  Ti  Ti5  1  0.42608686  0.24491704  0.07141185  1
  Ti  Ti6  1  0.16600607  0.57411244  0.02405003  1
  O  O7  1  0.92237011  0.19534752  0.64734719  1
  O  O8  1  0.41797228  0.56284914  0.48230326  1
