# generated using pymatgen
data_LiLa3Ti2S3F2
_symmetry_space_group_name_H-M   'P 1'
_cell_length_a   6.07875193
_cell_length_b   6.22690275
_cell_length_c   7.33872180
_cell_angle_alpha   91.97339222
_cell_angle_beta   105.27839327
_cell_angle_gamma   92.05612873
_symmetry_Int_Tables_number   1
_chemical_formula_structural   LiLa3Ti2S3F2
_chemical_formula_sum   'Li1 La3 Ti2 S3 F2'
_cell_volume   267.51585523
_cell_formula_units_Z   1
loop_
 _symmetry_equiv_pos_site_id
 _symmetry_equiv_pos_as_xyz
  1  'x, y, z'
loop_
 _atom_site_type_symbol
 _atom_site_label
 _atom_site_symmetry_multiplicity
 _atom_site_fract_x
 _atom_site_fract_y
 _atom_site_fract_z
 _atom_site_occupancy
  F  F0  1  0.00000000  0.00000000  0.00000000  1
  F  F1  1  0.50000000  0.50000000  0.50000000  1
  La  La2  1  0.50000000  0.50000000  0.00000000  1
  La  La3  1  0.50000000  0.00000000  0.50000000  1
  La  La4  1  0.00000000  0.50000000  0.50000000  1
  S  S5  1  0.66972349  0.92469028  0.46946353  1
  S  S6  1  0.04300968  0.03044521  0.13272472  1
  S  S7  1  0.85312835  0.32994028  0.46441686  1
  Ti  Ti8  1  0.43324512  0.36649384  0.40452790  1
  Ti  Ti9  1  0.87407735  0.95866127  0.46996722  1
  Li  Li10  1  0.21144023  0.14963914  0.13934969  1
