# generated using pymatgen
data_Li2La3Ti(SO2)2
_symmetry_space_group_name_H-M   'P 1'
_cell_length_a   7.43674111
_cell_length_b   7.11284840
_cell_length_c   8.09224235
_cell_angle_alpha   95.82330407
_cell_angle_beta   96.38252478
_cell_angle_gamma   95.23867938
_symmetry_Int_Tables_number   1
_chemical_formula_structural   Li2La3Ti(SO2)2
_chemical_formula_sum   'Li2 La3 Ti1 S2 O4'
_cell_volume   420.91796781
_cell_formula_units_Z   1
loop_
 _symmetry_equiv_pos_site_id
 _symmetry_equiv_pos_as_xyz
  1  'x, y, z'
loop_
 _atom_site_type_symbol
 _atom_site_label
 _atom_site_symmetry_multiplicity
 _atom_site_fract_x
 _atom_site_fract_y
 _atom_site_fract_z
 _atom_site_occupancy
  Li  Li0  1  0.12500000  0.00000000  0.25000000  1
  Li  Li1  1  0.00000000  0.00000000  0.00000000  1
  La  La2  1  0.37500000  0.00000000  0.25000000  1
  La  La3  1  0.25000000  0.25000000  0.25000000  1
  La  La4  1  0.00000000  0.25000000  0.12500000  1
  S  S5  1  0.67642282  0.22840855  0.53813268  1
  S  S6  1  0.34408605  0.11748844  0.74995109  1
  Ti  Ti7  1  0.93633455  0.28621047  0.15603969  1
  O  O8  1  0.01366162  0.89967097  0.06455542  1
  O  O9  1  0.98387667  0.56927405  0.12600842  1
  O  O10  1  0.38784922  0.85417295  0.24884704  1
  O  O11  1  0.19979568  0.09461763  0.80745132  1
