# generated using pymatgen
data_Li2Mn2(SbP)3
_symmetry_space_group_name_H-M   'P 1'
_cell_length_a   6.83176675
_cell_length_b   7.42112075
_cell_length_c   7.35187128
_cell_angle_alpha   91.80171521
_cell_angle_beta   92.02269053
_cell_angle_gamma   92.00118840
_symmetry_Int_Tables_number   1
_chemical_formula_structural   Li2Mn2(SbP)3
_chemical_formula_sum   'Li2 Mn2 Sb3 P3'
_cell_volume   372.07652992
_cell_formula_units_Z   1
loop_
 _symmetry_equiv_pos_site_id
 _symmetry_equiv_pos_as_xyz
  1  'x, y, z'
loop_
 _atom_site_type_symbol
 _atom_site_label
 _atom_site_symmetry_multiplicity
 _atom_site_fract_x
 _atom_site_fract_y
 _atom_site_fract_z
 _atom_site_occupancy
  Mn  Mn0  1  0.00000000  0.00000000  0.00000000  1
  Mn  Mn1  1  0.50000000  0.50000000  0.50000000  1
  Sb  Sb2  1  0.50000000  0.50000000  0.00000000  1
  Sb  Sb3  1  0.50000000  0.00000000  0.50000000  1
  Sb  Sb4  1  0.00000000  0.50000000  0.50000000  1
  P  P5  1  0.79086199  0.91087093  0.35060533  1
  P  P6  1  0.51059686  0.33100374  0.19402959  1
  P  P7  1  0.43451959  0.15961723  0.90524782  1
  Li  Li8  1  0.46663208  0.05402261  0.30508481  1
  Li  Li9  1  0.06942954  0.53809829  0.84369464  1
