# generated using pymatgen
data_Li3TiTe6(PO)3
_symmetry_space_group_name_H-M   'P 1'
_cell_length_a   8.32281186
_cell_length_b   8.14474192
_cell_length_c   7.03633907
_cell_angle_alpha   90.00000000
_cell_angle_beta   90.00000000
_cell_angle_gamma   90.00000000
_symmetry_Int_Tables_number   1
_chemical_formula_structural   Li3TiTe6(PO)3
_chemical_formula_sum   'Li3 Ti1 Te6 P3 O3'
_cell_volume   476.97340474
_cell_formula_units_Z   1
loop_
 _symmetry_equiv_pos_site_id
 _symmetry_equiv_pos_as_xyz
  1  'x, y, z'
loop_
 _atom_site_type_symbol
 _atom_site_label
 _atom_site_symmetry_multiplicity
 _atom_site_fract_x
 _atom_site_fract_y
 _atom_site_fract_z
 _atom_site_occupancy
  P  P0  1  0.00000000  0.00000000  0.00000000  1
  P  P1  1  0.50000000  0.50000000  0.50000000  1
  P  P2  1  0.25000000  0.25000000  0.25000000  1
  Li  Li3  1  0.75000000  0.25000000  0.00000000  1
  Li  Li4  1  0.25000000  0.75000000  0.50000000  1
  Li  Li5  1  0.11761037  0.69122881  0.50103823  1
  Te  Te6  1  0.16530455  0.99064024  0.61616784  1
  Te  Te7  1  0.00247203  0.14098937  0.69805890  1
  Te  Te8  1  0.75805721  0.53121225  0.72392548  1
  Te  Te9  1  0.23167287  0.97576514  0.61105176  1
  Te  Te10  1  0.58556449  0.74981257  0.39533349  1
  Te  Te11  1  0.64095012  0.39293366  0.81517135  1
  Ti  Ti12  1  0.40043693  0.42266263  0.15704732  1
  O  O13  1  0.74601503  0.18154733  0.35594043  1
  O  O14  1  0.88042374  0.10218669  0.05227416  1
  O  O15  1  0.75025124  0.43144355  0.29192797  1
