# generated using pymatgen
data_Li3Ti2As6O5F3
_symmetry_space_group_name_H-M   'P 1'
_cell_length_a   6.61281823
_cell_length_b   6.49364716
_cell_length_c   7.98849618
_cell_angle_alpha   93.95934177
_cell_angle_beta   95.51099015
_cell_angle_gamma   93.63979884
_symmetry_Int_Tables_number   1
_chemical_formula_structural   Li3Ti2As6O5F3
_chemical_formula_sum   'Li3 Ti2 As6 O5 F3'
_cell_volume   339.78574690
_cell_formula_units_Z   1
loop_
 _symmetry_equiv_pos_site_id
 _symmetry_equiv_pos_as_xyz
  1  'x, y, z'
loop_
 _atom_site_type_symbol
 _atom_site_label
 _atom_site_symmetry_multiplicity
 _atom_site_fract_x
 _atom_site_fract_y
 _atom_site_fract_z
 _atom_site_occupancy
  Li  Li0  1  0.12500000  0.00000000  0.25000000  1
  Li  Li1  1  0.00000000  0.00000000  0.00000000  1
  Li  Li2  1  0.37500000  0.00000000  0.25000000  1
  F  F3  1  0.25000000  0.25000000  0.25000000  1
  F  F4  1  0.00000000  0.25000000  0.12500000  1
  F  F5  1  0.84579845  0.35818639  0.37377128  1
  Ti  Ti6  1  0.10580037  0.28702136  0.60926168  1
  Ti  Ti7  1  0.04877733  0.39248517  0.98549901  1
  As  As8  1  0.38076176  0.67679410  0.47787652  1
  As  As9  1  0.06966356  0.09355386  0.81692032  1
  As  As10  1  0.51369388  0.22397750  0.91166516  1
  As  As11  1  0.89072858  0.99506817  0.74894334  1
  As  As12  1  0.25394047  0.71709927  0.50927107  1
  As  As13  1  0.93460134  0.91598152  0.14642436  1
  O  O14  1  0.06073926  0.28483020  0.00758149  1
  O  O15  1  0.95664120  0.84422770  0.45769778  1
  O  O16  1  0.96559838  0.56899723  0.78427279  1
  O  O17  1  0.89997827  0.89857185  0.05396673  1
  O  O18  1  0.63444110  0.95589303  0.19482048  1
