# generated using pymatgen
data_Li5ZrTi2SeO2
_symmetry_space_group_name_H-M   'P 1'
_cell_length_a   4.23653073
_cell_length_b   4.19678880
_cell_length_c   6.63964193
_cell_angle_alpha   105.22563282
_cell_angle_beta   109.15114089
_cell_angle_gamma   106.27183707
_symmetry_Int_Tables_number   1
_chemical_formula_structural   Li5ZrTi2SeO2
_chemical_formula_sum   'Li5 Zr1 Ti2 Se1 O2'
_cell_volume   98.53009560
_cell_formula_units_Z   1
loop_
 _symmetry_equiv_pos_site_id
 _symmetry_equiv_pos_as_xyz
  1  'x, y, z'
loop_
 _atom_site_type_symbol
 _atom_site_label
 _atom_site_symmetry_multiplicity
 _atom_site_fract_x
 _atom_site_fract_y
 _atom_site_fract_z
 _atom_site_occupancy
  Li  Li0  1  0.00000000  0.00000000  0.00000000  1
  Li  Li1  1  0.50000000  0.50000000  0.50000000  1
  Li  Li2  1  0.50000000  0.50000000  0.00000000  1
  Li  Li3  1  0.50000000  0.00000000  0.50000000  1
  Li  Li4  1  0.00000000  0.50000000  0.50000000  1
  Se  Se5  1  0.69643675  0.69609224  0.21336711  1
  Ti  Ti6  1  0.38355342  0.28755474  0.43793620  1
  Ti  Ti7  1  0.04357101  0.94885106  0.86322358  1
  O  O8  1  0.71988174  0.96475296  0.55782683  1
  O  O9  1  0.22090246  0.02792000  0.56822469  1
  Zr  Zr10  1  0.01259460  0.32274103  0.28455974  1
