# generated using pymatgen
data_Li4Ti3(CuO)2
_symmetry_space_group_name_H-M   'P 1'
_cell_length_a   4.97861899
_cell_length_b   5.39419101
_cell_length_c   6.60461229
_cell_angle_alpha   102.16866511
_cell_angle_beta   106.48181781
_cell_angle_gamma   105.65996195
_symmetry_Int_Tables_number   1
_chemical_formula_structural   Li4Ti3(CuO)2
_chemical_formula_sum   'Li4 Ti3 Cu2 O2'
_cell_volume   155.63525212
_cell_formula_units_Z   1
loop_
 _symmetry_equiv_pos_site_id
 _symmetry_equiv_pos_as_xyz
  1  'x, y, z'
loop_
 _atom_site_type_symbol
 _atom_site_label
 _atom_site_symmetry_multiplicity
 _atom_site_fract_x
 _atom_site_fract_y
 _atom_site_fract_z
 _atom_site_occupancy
  Li  Li0  1  0.12500000  0.00000000  0.25000000  1
  Li  Li1  1  0.00000000  0.00000000  0.00000000  1
  Li  Li2  1  0.37500000  0.00000000  0.25000000  1
  Li  Li3  1  0.25000000  0.25000000  0.25000000  1
  Cu  Cu4  1  0.00000000  0.25000000  0.12500000  1
  Cu  Cu5  1  0.42896328  0.32126295  0.78455845  1
  Ti  Ti6  1  0.36342080  0.08163455  0.73544822  1
  Ti  Ti7  1  0.78705328  0.58215148  0.87182423  1
  Ti  Ti8  1  0.69229985  0.68750582  0.25856001  1
  O  O9  1  0.21649722  0.81581306  0.40175475  1
  O  O10  1  0.93444042  0.97299568  0.18238453  1
