# generated using pymatgen
data_Li2MnSb4P3
_symmetry_space_group_name_H-M   'P 1'
_cell_length_a   5.06891641
_cell_length_b   5.29523723
_cell_length_c   7.18359619
_cell_angle_alpha   96.84921669
_cell_angle_beta   98.11353003
_cell_angle_gamma   97.79525426
_symmetry_Int_Tables_number   1
_chemical_formula_structural   Li2MnSb4P3
_chemical_formula_sum   'Li2 Mn1 Sb4 P3'
_cell_volume   187.22958244
_cell_formula_units_Z   1
loop_
 _symmetry_equiv_pos_site_id
 _symmetry_equiv_pos_as_xyz
  1  'x, y, z'
loop_
 _atom_site_type_symbol
 _atom_site_label
 _atom_site_symmetry_multiplicity
 _atom_site_fract_x
 _atom_site_fract_y
 _atom_site_fract_z
 _atom_site_occupancy
  Mn  Mn0  1  0.00000000  0.00000000  0.00000000  1
  Sb  Sb1  1  0.33300000  0.66700000  0.25000000  1
  Sb  Sb2  1  0.66700000  0.33300000  0.50000000  1
  Sb  Sb3  1  0.00000000  0.00000000  0.75000000  1
  Sb  Sb4  1  0.20146760  0.69522743  0.21253191  1
  P  P5  1  0.46516046  0.16618686  0.67129697  1
  P  P6  1  0.12245761  0.65526275  0.55274078  1
  P  P7  1  0.09641264  0.09829960  0.91226214  1
  Li  Li8  1  0.68429830  0.71167050  0.96169070  1
  Li  Li9  1  0.18939322  0.30867042  0.78514758  1
