# generated using pymatgen
data_Li2TiNi2(Te3O2)2
_symmetry_space_group_name_H-M   'P 1'
_cell_length_a   8.45421597
_cell_length_b   8.44786656
_cell_length_c   8.53195572
_cell_angle_alpha   90.00000000
_cell_angle_beta   90.00000000
_cell_angle_gamma   90.00000000
_symmetry_Int_Tables_number   1
_chemical_formula_structural   Li2TiNi2(Te3O2)2
_chemical_formula_sum   'Li2 Ti1 Ni2 Te6 O4'
_cell_volume   609.35303147
_cell_formula_units_Z   1
loop_
 _symmetry_equiv_pos_site_id
 _symmetry_equiv_pos_as_xyz
  1  'x, y, z'
loop_
 _atom_site_type_symbol
 _atom_site_label
 _atom_site_symmetry_multiplicity
 _atom_site_fract_x
 _atom_site_fract_y
 _atom_site_fract_z
 _atom_site_occupancy
  Li  Li0  1  0.00000000  0.00000000  0.00000000  1
  Li  Li1  1  0.50000000  0.50000000  0.50000000  1
  Te  Te2  1  0.25000000  0.25000000  0.25000000  1
  Te  Te3  1  0.75000000  0.25000000  0.00000000  1
  Te  Te4  1  0.25000000  0.75000000  0.50000000  1
  Te  Te5  1  0.66282020  0.14524478  0.19169890  1
  Te  Te6  1  0.43488321  0.89725981  0.46604028  1
  Te  Te7  1  0.26332080  0.72983721  0.28250123  1
  Ti  Ti8  1  0.32659555  0.57362736  0.28007208  1
  Ni  Ni9  1  0.94228599  0.99113979  0.16284832  1
  Ni  Ni10  1  0.00098369  0.32933299  0.31915774  1
  O  O11  1  0.72174386  0.72087244  0.29961224  1
  O  O12  1  0.24276743  0.06890982  0.23586286  1
  O  O13  1  0.36573513  0.91029195  0.99149322  1
  O  O14  1  0.92642220  0.38329356  0.81692431  1
