# generated using pymatgen
data_LiMn2Mo2P3
_symmetry_space_group_name_H-M   'P 1'
_cell_length_a   5.68561468
_cell_length_b   5.90480667
_cell_length_c   6.20004019
_cell_angle_alpha   94.21960047
_cell_angle_beta   89.59008560
_cell_angle_gamma   93.66146814
_symmetry_Int_Tables_number   1
_chemical_formula_structural   LiMn2Mo2P3
_chemical_formula_sum   'Li1 Mn2 Mo2 P3'
_cell_volume   207.16199538
_cell_formula_units_Z   1
loop_
 _symmetry_equiv_pos_site_id
 _symmetry_equiv_pos_as_xyz
  1  'x, y, z'
loop_
 _atom_site_type_symbol
 _atom_site_label
 _atom_site_symmetry_multiplicity
 _atom_site_fract_x
 _atom_site_fract_y
 _atom_site_fract_z
 _atom_site_occupancy
  Mn  Mn0  1  0.12500000  0.12500000  0.12500000  1
  Mn  Mn1  1  0.50000000  0.50000000  0.50000000  1
  P  P2  1  0.25000000  0.25000000  0.25000000  1
  P  P3  1  0.75000000  0.75000000  0.75000000  1
  P  P4  1  0.82882680  0.02970427  0.64126927  1
  Mo  Mo5  1  0.23470296  0.93988014  0.55630892  1
  Mo  Mo6  1  0.39412802  0.37899719  0.82250663  1
  Li  Li7  1  0.14644424  0.14538308  0.49875582  1
