# generated using pymatgen
data_Li2Ti2I4(OF)3
_symmetry_space_group_name_H-M   'P 1'
_cell_length_a   5.91361476
_cell_length_b   5.73879638
_cell_length_c   7.26098545
_cell_angle_alpha   93.83409385
_cell_angle_beta   96.91372128
_cell_angle_gamma   93.62960293
_symmetry_Int_Tables_number   1
_chemical_formula_structural   Li2Ti2I4(OF)3
_chemical_formula_sum   'Li2 Ti2 I4 O3 F3'
_cell_volume   243.44281721
_cell_formula_units_Z   1
loop_
 _symmetry_equiv_pos_site_id
 _symmetry_equiv_pos_as_xyz
  1  'x, y, z'
loop_
 _atom_site_type_symbol
 _atom_site_label
 _atom_site_symmetry_multiplicity
 _atom_site_fract_x
 _atom_site_fract_y
 _atom_site_fract_z
 _atom_site_occupancy
  I  I0  1  0.00000000  0.00000000  0.00000000  1
  I  I1  1  0.50000000  0.50000000  0.50000000  1
  I  I2  1  0.50000000  0.50000000  0.00000000  1
  I  I3  1  0.50000000  0.00000000  0.50000000  1
  Li  Li4  1  0.00000000  0.50000000  0.50000000  1
  Li  Li5  1  0.11228088  0.32001132  0.25400751  1
  F  F6  1  0.58492040  0.36286340  0.12517566  1
  F  F7  1  0.75848048  0.38083669  0.32226866  1
  F  F8  1  0.14287101  0.59377917  0.23917494  1
  Ti  Ti9  1  0.43569447  0.00631704  0.28960956  1
  Ti  Ti10  1  0.49584787  0.44781336  0.23646061  1
  O  O11  1  0.94484086  0.05977029  0.17410702  1
  O  O12  1  0.19877034  0.07785052  0.40014179  1
  O  O13  1  0.97747228  0.66690028  0.01410411  1
