# generated using pymatgen
data_Li4Ti2P4O3
_symmetry_space_group_name_H-M   'P 1'
_cell_length_a   6.58463253
_cell_length_b   6.14734749
_cell_length_c   7.08272642
_cell_angle_alpha   94.69543165
_cell_angle_beta   95.14634107
_cell_angle_gamma   94.22403857
_symmetry_Int_Tables_number   1
_chemical_formula_structural   Li4Ti2P4O3
_chemical_formula_sum   'Li4 Ti2 P4 O3'
_cell_volume   283.63171097
_cell_formula_units_Z   1
loop_
 _symmetry_equiv_pos_site_id
 _symmetry_equiv_pos_as_xyz
  1  'x, y, z'
loop_
 _atom_site_type_symbol
 _atom_site_label
 _atom_site_symmetry_multiplicity
 _atom_site_fract_x
 _atom_site_fract_y
 _atom_site_fract_z
 _atom_site_occupancy
  Li  Li0  1  0.12500000  0.12500000  0.12500000  1
  Li  Li1  1  0.50000000  0.50000000  0.50000000  1
  Li  Li2  1  0.25000000  0.25000000  0.25000000  1
  Li  Li3  1  0.75000000  0.75000000  0.75000000  1
  Ti  Ti4  1  0.08267958  0.26111575  0.21381887  1
  Ti  Ti5  1  0.30632735  0.64788025  0.04906393  1
  P  P6  1  0.53576052  0.62580418  0.49276535  1
  P  P7  1  0.85823412  0.03044133  0.84669399  1
  P  P8  1  0.10446098  0.15488233  0.82951573  1
  P  P9  1  0.63816938  0.39535046  0.75626744  1
  O  O10  1  0.83605070  0.47383836  0.67562703  1
  O  O11  1  0.12610492  0.99720041  0.77684310  1
  O  O12  1  0.42105803  0.92129806  0.01813468  1
