# generated using pymatgen
data_Li2Ti2P3Se2O
_symmetry_space_group_name_H-M   'P 1'
_cell_length_a   7.48306229
_cell_length_b   7.06088559
_cell_length_c   6.79318789
_cell_angle_alpha   90.45567806
_cell_angle_beta   92.16797780
_cell_angle_gamma   90.52096169
_symmetry_Int_Tables_number   1
_chemical_formula_structural   Li2Ti2P3Se2O
_chemical_formula_sum   'Li2 Ti2 P3 Se2 O1'
_cell_volume   358.64787718
_cell_formula_units_Z   1
loop_
 _symmetry_equiv_pos_site_id
 _symmetry_equiv_pos_as_xyz
  1  'x, y, z'
loop_
 _atom_site_type_symbol
 _atom_site_label
 _atom_site_symmetry_multiplicity
 _atom_site_fract_x
 _atom_site_fract_y
 _atom_site_fract_z
 _atom_site_occupancy
  P  P0  1  0.12500000  0.00000000  0.25000000  1
  P  P1  1  0.00000000  0.00000000  0.00000000  1
  P  P2  1  0.37500000  0.00000000  0.25000000  1
  Li  Li3  1  0.25000000  0.25000000  0.25000000  1
  Li  Li4  1  0.00000000  0.25000000  0.12500000  1
  Se  Se5  1  0.10826266  0.60377948  0.09432085  1
  Se  Se6  1  0.49434952  0.73203586  0.24284448  1
  Ti  Ti7  1  0.45878300  0.31887147  0.84733568  1
  Ti  Ti8  1  0.35248482  0.64679581  0.90894235  1
  O  O9  1  0.82504254  0.96361102  0.06944064  1
