# generated using pymatgen
data_Li2MnSb4Mo2P3
_symmetry_space_group_name_H-M   'P 1'
_cell_length_a   5.36329777
_cell_length_b   5.57494019
_cell_length_c   6.63522750
_cell_angle_alpha   99.57434816
_cell_angle_beta   92.23590243
_cell_angle_gamma   99.62868394
_symmetry_Int_Tables_number   1
_chemical_formula_structural   Li2MnSb4Mo2P3
_chemical_formula_sum   'Li2 Mn1 Sb4 Mo2 P3'
_cell_volume   192.41795407
_cell_formula_units_Z   1
loop_
 _symmetry_equiv_pos_site_id
 _symmetry_equiv_pos_as_xyz
  1  'x, y, z'
loop_
 _atom_site_type_symbol
 _atom_site_label
 _atom_site_symmetry_multiplicity
 _atom_site_fract_x
 _atom_site_fract_y
 _atom_site_fract_z
 _atom_site_occupancy
  Mn  Mn0  1  0.00000000  0.00000000  0.00000000  1
  Sb  Sb1  1  0.50000000  0.50000000  0.50000000  1
  Sb  Sb2  1  0.25000000  0.25000000  0.25000000  1
  Sb  Sb3  1  0.75000000  0.25000000  0.00000000  1
  Sb  Sb4  1  0.25000000  0.75000000  0.50000000  1
  P  P5  1  0.23412748  0.25155378  0.77226038  1
  P  P6  1  0.78750508  0.60289372  0.15708132  1
  P  P7  1  0.43497058  0.82541856  0.39417740  1
  Mo  Mo8  1  0.66360822  0.94335095  0.03019628  1
  Mo  Mo9  1  0.81895604  0.75384617  0.67548696  1
  Li  Li10  1  0.95347166  0.82614062  0.14108424  1
  Li  Li11  1  0.73340524  0.59297099  0.32785312  1
