# generated using pymatgen
data_Li3Sb3Se2I4O
_symmetry_space_group_name_H-M   'P 1'
_cell_length_a   6.90605082
_cell_length_b   7.13105090
_cell_length_c   6.94833159
_cell_angle_alpha   95.16281995
_cell_angle_beta   96.99276847
_cell_angle_gamma   96.64407831
_symmetry_Int_Tables_number   1
_chemical_formula_structural   Li3Sb3Se2I4O
_chemical_formula_sum   'Li3 Sb3 Se2 I4 O1'
_cell_volume   335.47599605
_cell_formula_units_Z   1
loop_
 _symmetry_equiv_pos_site_id
 _symmetry_equiv_pos_as_xyz
  1  'x, y, z'
loop_
 _atom_site_type_symbol
 _atom_site_label
 _atom_site_symmetry_multiplicity
 _atom_site_fract_x
 _atom_site_fract_y
 _atom_site_fract_z
 _atom_site_occupancy
  I  I0  1  0.12500000  0.00000000  0.25000000  1
  I  I1  1  0.00000000  0.00000000  0.00000000  1
  I  I2  1  0.37500000  0.00000000  0.25000000  1
  I  I3  1  0.25000000  0.25000000  0.25000000  1
  Sb  Sb4  1  0.00000000  0.25000000  0.12500000  1
  Sb  Sb5  1  0.76596510  0.46993590  0.74484102  1
  Sb  Sb6  1  0.42880132  0.27917359  0.54481037  1
  Li  Li7  1  0.51422708  0.79111705  0.27953461  1
  Li  Li8  1  0.74775789  0.42399020  0.99835146  1
  Li  Li9  1  0.43869908  0.95735989  0.69055914  1
  Se  Se10  1  0.26284114  0.08838339  0.42722255  1
  Se  Se11  1  0.52666547  0.33610711  0.93288643  1
  O  O12  1  0.61667309  0.43112258  0.35968481  1
