# generated using pymatgen
data_Li2Zr3Ti(I2Cl)2
_symmetry_space_group_name_H-M   'P 1'
_cell_length_a   8.66758449
_cell_length_b   8.45067706
_cell_length_c   8.65684808
_cell_angle_alpha   94.55594739
_cell_angle_beta   97.78505648
_cell_angle_gamma   94.30945204
_symmetry_Int_Tables_number   1
_chemical_formula_structural   Li2Zr3Ti(I2Cl)2
_chemical_formula_sum   'Li2 Zr3 Ti1 I4 Cl2'
_cell_volume   623.88511685
_cell_formula_units_Z   1
loop_
 _symmetry_equiv_pos_site_id
 _symmetry_equiv_pos_as_xyz
  1  'x, y, z'
loop_
 _atom_site_type_symbol
 _atom_site_label
 _atom_site_symmetry_multiplicity
 _atom_site_fract_x
 _atom_site_fract_y
 _atom_site_fract_z
 _atom_site_occupancy
  I  I0  1  0.00000000  0.00000000  0.00000000  1
  I  I1  1  0.50000000  0.50000000  0.50000000  1
  I  I2  1  0.50000000  0.50000000  0.00000000  1
  I  I3  1  0.50000000  0.00000000  0.50000000  1
  Li  Li4  1  0.00000000  0.50000000  0.50000000  1
  Li  Li5  1  0.28421309  0.27534633  0.59035731  1
  Cl  Cl6  1  0.24360205  0.34971307  0.07734768  1
  Cl  Cl7  1  0.49406826  0.83613273  0.04732196  1
  Ti  Ti8  1  0.07373282  0.28402219  0.63558523  1
  Zr  Zr9  1  0.13189059  0.95558796  0.69653294  1
  Zr  Zr10  1  0.65644037  0.67737916  0.13034276  1
  Zr  Zr11  1  0.76730825  0.12552869  0.93607529  1
