# generated using pymatgen
data_Li2Ni2P6(NO)5
_symmetry_space_group_name_H-M   'P 1'
_cell_length_a   7.84438117
_cell_length_b   7.53539281
_cell_length_c   8.76599422
_cell_angle_alpha   91.55451422
_cell_angle_beta   90.54958605
_cell_angle_gamma   91.80304831
_symmetry_Int_Tables_number   1
_chemical_formula_structural   Li2Ni2P6(NO)5
_chemical_formula_sum   'Li2 Ni2 P6 N5 O5'
_cell_volume   517.68679599
_cell_formula_units_Z   1
loop_
 _symmetry_equiv_pos_site_id
 _symmetry_equiv_pos_as_xyz
  1  'x, y, z'
loop_
 _atom_site_type_symbol
 _atom_site_label
 _atom_site_symmetry_multiplicity
 _atom_site_fract_x
 _atom_site_fract_y
 _atom_site_fract_z
 _atom_site_occupancy
  P  P0  1  0.00000000  0.00000000  0.00000000  1
  P  P1  1  0.50000000  0.50000000  0.50000000  1
  P  P2  1  0.25000000  0.25000000  0.25000000  1
  P  P3  1  0.75000000  0.25000000  0.00000000  1
  P  P4  1  0.25000000  0.75000000  0.50000000  1
  P  P5  1  0.91361299  0.33363230  0.19720297  1
  Li  Li6  1  0.86062356  0.90398867  0.02185349  1
  Li  Li7  1  0.77009963  0.06421897  0.31118663  1
  Ni  Ni8  1  0.28289442  0.99105367  0.29954019  1
  Ni  Ni9  1  0.69600220  0.37634707  0.04401799  1
  O  O10  1  0.83518414  0.71674797  0.62050030  1
  O  O11  1  0.31422609  0.21513773  0.02264967  1
  O  O12  1  0.58436145  0.39301751  0.02230762  1
  O  O13  1  0.99467816  0.40870405  0.02824364  1
  O  O14  1  0.02783331  0.83708687  0.48558776  1
  N  N15  1  0.77149042  0.87186508  0.35476064  1
  N  N16  1  0.21491537  0.18570916  0.57368557  1
  N  N17  1  0.63689966  0.34093709  0.97199014  1
  N  N18  1  0.88309083  0.30118600  0.27734667  1
  N  N19  1  0.12677644  0.39398557  0.51832250  1
