# generated using pymatgen
data_Li2Sb4Mo2P3
_symmetry_space_group_name_H-M   'P 1'
_cell_length_a   4.92044311
_cell_length_b   5.29203327
_cell_length_c   6.94018460
_cell_angle_alpha   97.88696801
_cell_angle_beta   97.03125773
_cell_angle_gamma   98.65442373
_symmetry_Int_Tables_number   1
_chemical_formula_structural   Li2Sb4Mo2P3
_chemical_formula_sum   'Li2 Sb4 Mo2 P3'
_cell_volume   175.07025190
_cell_formula_units_Z   1
loop_
 _symmetry_equiv_pos_site_id
 _symmetry_equiv_pos_as_xyz
  1  'x, y, z'
loop_
 _atom_site_type_symbol
 _atom_site_label
 _atom_site_symmetry_multiplicity
 _atom_site_fract_x
 _atom_site_fract_y
 _atom_site_fract_z
 _atom_site_occupancy
  Sb  Sb0  1  0.12500000  0.00000000  0.25000000  1
  Sb  Sb1  1  0.00000000  0.00000000  0.00000000  1
  Sb  Sb2  1  0.37500000  0.00000000  0.25000000  1
  Sb  Sb3  1  0.25000000  0.25000000  0.25000000  1
  P  P4  1  0.00000000  0.25000000  0.12500000  1
  P  P5  1  0.99297855  0.31575823  0.04660271  1
  P  P6  1  0.57119786  0.58483391  0.39647758  1
  Mo  Mo7  1  0.41093860  0.26838847  0.70876449  1
  Mo  Mo8  1  0.12644223  0.10194762  0.98038310  1
  Li  Li9  1  0.40521584  0.15441530  0.64996485  1
  Li  Li10  1  0.26225503  0.94333050  0.17719024  1
