# generated using pymatgen
data_Li2Mn3Sb4P2N
_symmetry_space_group_name_H-M   'P 1'
_cell_length_a   6.24381084
_cell_length_b   6.44177903
_cell_length_c   6.88871724
_cell_angle_alpha   96.65745214
_cell_angle_beta   96.22231780
_cell_angle_gamma   93.54434375
_symmetry_Int_Tables_number   1
_chemical_formula_structural   Li2Mn3Sb4P2N
_chemical_formula_sum   'Li2 Mn3 Sb4 P2 N1'
_cell_volume   272.80578361
_cell_formula_units_Z   1
loop_
 _symmetry_equiv_pos_site_id
 _symmetry_equiv_pos_as_xyz
  1  'x, y, z'
loop_
 _atom_site_type_symbol
 _atom_site_label
 _atom_site_symmetry_multiplicity
 _atom_site_fract_x
 _atom_site_fract_y
 _atom_site_fract_z
 _atom_site_occupancy
  N  N0  1  0.00000000  0.00000000  0.00000000  1
  Mn  Mn1  1  0.50000000  0.50000000  0.50000000  1
  Mn  Mn2  1  0.25000000  0.25000000  0.25000000  1
  Mn  Mn3  1  0.75000000  0.25000000  0.00000000  1
  Sb  Sb4  1  0.25000000  0.75000000  0.50000000  1
  Sb  Sb5  1  0.66714248  0.29161934  0.66343366  1
  Sb  Sb6  1  0.56114527  0.43665906  0.89226579  1
  Sb  Sb7  1  0.15713710  0.16060811  0.25213246  1
  P  P8  1  0.91628644  0.30577666  0.76201237  1
  P  P9  1  0.10101802  0.52117988  0.76430117  1
  Li  Li10  1  0.10477208  0.54928282  0.94074736  1
  Li  Li11  1  0.07969711  0.67342838  0.41981253  1
