# generated using pymatgen
data_Li2Mn2Sb4P3
_symmetry_space_group_name_H-M   'P 1'
_cell_length_a   5.28910930
_cell_length_b   5.66348427
_cell_length_c   6.73724651
_cell_angle_alpha   98.53250081
_cell_angle_beta   93.65209093
_cell_angle_gamma   98.81203078
_symmetry_Int_Tables_number   1
_chemical_formula_structural   Li2Mn2Sb4P3
_chemical_formula_sum   'Li2 Mn2 Sb4 P3'
_cell_volume   196.45051889
_cell_formula_units_Z   1
loop_
 _symmetry_equiv_pos_site_id
 _symmetry_equiv_pos_as_xyz
  1  'x, y, z'
loop_
 _atom_site_type_symbol
 _atom_site_label
 _atom_site_symmetry_multiplicity
 _atom_site_fract_x
 _atom_site_fract_y
 _atom_site_fract_z
 _atom_site_occupancy
  Mn  Mn0  1  0.12500000  0.12500000  0.12500000  1
  Mn  Mn1  1  0.50000000  0.50000000  0.50000000  1
  Sb  Sb2  1  0.25000000  0.25000000  0.25000000  1
  Sb  Sb3  1  0.75000000  0.75000000  0.75000000  1
  Sb  Sb4  1  0.08124570  0.47743599  0.29291101  1
  Sb  Sb5  1  0.08773815  0.09339586  0.66546795  1
  P  P6  1  0.11101010  0.09781689  0.39596779  1
  P  P7  1  0.53094923  0.62616479  0.74968486  1
  P  P8  1  0.45901121  0.60649343  0.85194351  1
  Li  Li9  1  0.60666289  0.50886745  0.70644486  1
  Li  Li10  1  0.90875368  0.34934270  0.94393057  1
