# generated using pymatgen
data_Li2Mn2Sb4P3
_symmetry_space_group_name_H-M   'P 1'
_cell_length_a   5.67143558
_cell_length_b   6.08968396
_cell_length_c   6.81794335
_cell_angle_alpha   97.43777943
_cell_angle_beta   92.58477791
_cell_angle_gamma   97.59806169
_symmetry_Int_Tables_number   1
_chemical_formula_structural   Li2Mn2Sb4P3
_chemical_formula_sum   'Li2 Mn2 Sb4 P3'
_cell_volume   230.97758891
_cell_formula_units_Z   1
loop_
 _symmetry_equiv_pos_site_id
 _symmetry_equiv_pos_as_xyz
  1  'x, y, z'
loop_
 _atom_site_type_symbol
 _atom_site_label
 _atom_site_symmetry_multiplicity
 _atom_site_fract_x
 _atom_site_fract_y
 _atom_site_fract_z
 _atom_site_occupancy
  Mn  Mn0  1  0.00000000  0.00000000  0.00000000  1
  Mn  Mn1  1  0.33300000  0.66700000  0.25000000  1
  Sb  Sb2  1  0.66700000  0.33300000  0.50000000  1
  Sb  Sb3  1  0.00000000  0.00000000  0.75000000  1
  Sb  Sb4  1  0.44166180  0.67270465  0.51826604  1
  Sb  Sb5  1  0.18235990  0.83329272  0.31645315  1
  P  P6  1  0.77244308  0.23228073  0.68440221  1
  P  P7  1  0.35054809  0.01485260  0.97097815  1
  P  P8  1  0.00294531  0.83091521  0.83562833  1
  Li  Li9  1  0.16640543  0.33515622  0.83765839  1
  Li  Li10  1  0.20080623  0.66737545  0.63501782  1
