# generated using pymatgen
data_Li2Mo2P3
_symmetry_space_group_name_H-M   'P 1'
_cell_length_a   4.69551060
_cell_length_b   4.91061773
_cell_length_c   6.01276000
_cell_angle_alpha   102.46240897
_cell_angle_beta   90.93596781
_cell_angle_gamma   102.17390741
_symmetry_Int_Tables_number   1
_chemical_formula_structural   Li2Mo2P3
_chemical_formula_sum   'Li2 Mo2 P3'
_cell_volume   132.05231349
_cell_formula_units_Z   1
loop_
 _symmetry_equiv_pos_site_id
 _symmetry_equiv_pos_as_xyz
  1  'x, y, z'
loop_
 _atom_site_type_symbol
 _atom_site_label
 _atom_site_symmetry_multiplicity
 _atom_site_fract_x
 _atom_site_fract_y
 _atom_site_fract_z
 _atom_site_occupancy
  P  P0  1  0.12500000  0.12500000  0.12500000  1
  P  P1  1  0.50000000  0.50000000  0.50000000  1
  P  P2  1  0.25000000  0.25000000  0.25000000  1
  Mo  Mo3  1  0.75000000  0.75000000  0.75000000  1
  Mo  Mo4  1  0.96754035  0.53657374  0.55834830  1
  Li  Li5  1  0.02352497  0.30492697  0.77288112  1
  Li  Li6  1  0.21879239  0.94401501  0.16098238  1
