# generated using pymatgen
data_Li2Mn3Mo2P3
_symmetry_space_group_name_H-M   'P 1'
_cell_length_a   4.28740613
_cell_length_b   4.48155191
_cell_length_c   6.06208072
_cell_angle_alpha   104.21059448
_cell_angle_beta   92.56682667
_cell_angle_gamma   104.18654591
_symmetry_Int_Tables_number   1
_chemical_formula_structural   Li2Mn3Mo2P3
_chemical_formula_sum   'Li2 Mn3 Mo2 P3'
_cell_volume   108.78578955
_cell_formula_units_Z   1
loop_
 _symmetry_equiv_pos_site_id
 _symmetry_equiv_pos_as_xyz
  1  'x, y, z'
loop_
 _atom_site_type_symbol
 _atom_site_label
 _atom_site_symmetry_multiplicity
 _atom_site_fract_x
 _atom_site_fract_y
 _atom_site_fract_z
 _atom_site_occupancy
  Mn  Mn0  1  0.12500000  0.00000000  0.25000000  1
  Mn  Mn1  1  0.00000000  0.00000000  0.00000000  1
  Mn  Mn2  1  0.37500000  0.00000000  0.25000000  1
  P  P3  1  0.25000000  0.25000000  0.25000000  1
  P  P4  1  0.00000000  0.25000000  0.12500000  1
  P  P5  1  0.77832757  0.91582978  0.82466910  1
  Mo  Mo6  1  0.67256929  0.83344838  0.29582273  1
  Mo  Mo7  1  0.06923409  0.82005392  0.81473080  1
  Li  Li8  1  0.33321085  0.66655886  0.18780159  1
  Li  Li9  1  0.44201666  0.51325626  0.26084436  1
