# generated using pymatgen
data_Li2Mn3Sb4P4N5
_symmetry_space_group_name_H-M   'P 1'
_cell_length_a   7.73474589
_cell_length_b   8.47701266
_cell_length_c   7.96794612
_cell_angle_alpha   90.00000000
_cell_angle_beta   90.00000000
_cell_angle_gamma   90.00000000
_symmetry_Int_Tables_number   1
_chemical_formula_structural   Li2Mn3Sb4P4N5
_chemical_formula_sum   'Li2 Mn3 Sb4 P4 N5'
_cell_volume   522.43861695
_cell_formula_units_Z   1
loop_
 _symmetry_equiv_pos_site_id
 _symmetry_equiv_pos_as_xyz
  1  'x, y, z'
loop_
 _atom_site_type_symbol
 _atom_site_label
 _atom_site_symmetry_multiplicity
 _atom_site_fract_x
 _atom_site_fract_y
 _atom_site_fract_z
 _atom_site_occupancy
  N  N0  1  0.12500000  0.00000000  0.25000000  1
  N  N1  1  0.00000000  0.00000000  0.00000000  1
  N  N2  1  0.37500000  0.00000000  0.25000000  1
  N  N3  1  0.25000000  0.25000000  0.25000000  1
  N  N4  1  0.00000000  0.25000000  0.12500000  1
  Mn  Mn5  1  0.99502742  0.06112249  0.26037623  1
  Mn  Mn6  1  0.54164293  0.09508910  0.48579695  1
  Mn  Mn7  1  0.59200887  0.08554580  0.78847589  1
  Sb  Sb8  1  0.89745306  0.79135642  0.15015035  1
  Sb  Sb9  1  0.38159055  0.59952566  0.22962470  1
  Sb  Sb10  1  0.35528057  0.82366081  0.37768510  1
  Sb  Sb11  1  0.77963167  0.45944721  0.64698254  1
  P  P12  1  0.25534860  0.51789332  0.13872898  1
  P  P13  1  0.27163766  0.95259967  0.81456661  1
  P  P14  1  0.16929317  0.44525102  0.99436316  1
  P  P15  1  0.91316470  0.09972041  0.39843661  1
  Li  Li16  1  0.46759655  0.24265081  0.90533999  1
  Li  Li17  1  0.57915042  0.16137532  0.22185949  1
