# generated using pymatgen
data_Li3Ni2As6O7
_symmetry_space_group_name_H-M   'P 1'
_cell_length_a   5.94878774
_cell_length_b   5.60644544
_cell_length_c   8.10807627
_cell_angle_alpha   96.89764637
_cell_angle_beta   97.56003780
_cell_angle_gamma   96.20516417
_symmetry_Int_Tables_number   1
_chemical_formula_structural   Li3Ni2As6O7
_chemical_formula_sum   'Li3 Ni2 As6 O7'
_cell_volume   264.00902548
_cell_formula_units_Z   1
loop_
 _symmetry_equiv_pos_site_id
 _symmetry_equiv_pos_as_xyz
  1  'x, y, z'
loop_
 _atom_site_type_symbol
 _atom_site_label
 _atom_site_symmetry_multiplicity
 _atom_site_fract_x
 _atom_site_fract_y
 _atom_site_fract_z
 _atom_site_occupancy
  Ni  Ni0  1  0.00000000  0.00000000  0.00000000  1
  Ni  Ni1  1  0.50000000  0.50000000  0.50000000  1
  O  O2  1  0.50000000  0.50000000  0.00000000  1
  O  O3  1  0.50000000  0.00000000  0.50000000  1
  O  O4  1  0.00000000  0.50000000  0.50000000  1
  O  O5  1  0.57579570  0.10275805  0.87322901  1
  O  O6  1  0.44222234  0.50123343  0.94724626  1
  O  O7  1  0.58423566  0.60051820  0.25303495  1
  O  O8  1  0.41189746  0.74457152  0.85243972  1
  As  As9  1  0.21045005  0.39755418  0.94822654  1
  As  As10  1  0.24352133  0.58539581  0.51587622  1
  As  As11  1  0.67500538  0.73179782  0.51837743  1
  As  As12  1  0.67308375  0.08492160  0.33172961  1
  As  As13  1  0.48879988  0.27046299  0.01236972  1
  As  As14  1  0.26595221  0.64929076  0.90415025  1
  Li  Li15  1  0.40334908  0.78539965  0.62652607  1
  Li  Li16  1  0.24507563  0.25812235  0.92996060  1
  Li  Li17  1  0.07706489  0.85630999  0.34443516  1
