# generated using pymatgen
data_LiMn2(Sb2P)2
_symmetry_space_group_name_H-M   'P 1'
_cell_length_a   5.04863305
_cell_length_b   5.40392208
_cell_length_c   6.19603037
_cell_angle_alpha   98.10495112
_cell_angle_beta   94.90741115
_cell_angle_gamma   97.01165552
_symmetry_Int_Tables_number   1
_chemical_formula_structural   LiMn2(Sb2P)2
_chemical_formula_sum   'Li1 Mn2 Sb4 P2'
_cell_volume   165.19188757
_cell_formula_units_Z   1
loop_
 _symmetry_equiv_pos_site_id
 _symmetry_equiv_pos_as_xyz
  1  'x, y, z'
loop_
 _atom_site_type_symbol
 _atom_site_label
 _atom_site_symmetry_multiplicity
 _atom_site_fract_x
 _atom_site_fract_y
 _atom_site_fract_z
 _atom_site_occupancy
  Mn  Mn0  1  0.12500000  0.12500000  0.12500000  1
  Mn  Mn1  1  0.50000000  0.50000000  0.50000000  1
  Sb  Sb2  1  0.25000000  0.25000000  0.25000000  1
  Sb  Sb3  1  0.75000000  0.75000000  0.75000000  1
  Sb  Sb4  1  0.47606177  0.15218430  0.27633225  1
  Sb  Sb5  1  0.77637725  0.54247214  0.06941854  1
  P  P6  1  0.62368871  0.93162704  0.90272203  1
  P  P7  1  0.01963623  0.82597894  0.96741232  1
  Li  Li8  1  0.49431661  0.77646074  0.26906567  1
