# generated using pymatgen
data_LiMn2Sb4P3
_symmetry_space_group_name_H-M   'P 1'
_cell_length_a   5.55365039
_cell_length_b   5.86824449
_cell_length_c   6.61489056
_cell_angle_alpha   94.86944021
_cell_angle_beta   92.70958279
_cell_angle_gamma   94.89337464
_symmetry_Int_Tables_number   1
_chemical_formula_structural   LiMn2Sb4P3
_chemical_formula_sum   'Li1 Mn2 Sb4 P3'
_cell_volume   213.69653872
_cell_formula_units_Z   1
loop_
 _symmetry_equiv_pos_site_id
 _symmetry_equiv_pos_as_xyz
  1  'x, y, z'
loop_
 _atom_site_type_symbol
 _atom_site_label
 _atom_site_symmetry_multiplicity
 _atom_site_fract_x
 _atom_site_fract_y
 _atom_site_fract_z
 _atom_site_occupancy
  Mn  Mn0  1  0.12500000  0.00000000  0.25000000  1
  Mn  Mn1  1  0.00000000  0.00000000  0.00000000  1
  Sb  Sb2  1  0.37500000  0.00000000  0.25000000  1
  Sb  Sb3  1  0.25000000  0.25000000  0.25000000  1
  Sb  Sb4  1  0.00000000  0.25000000  0.12500000  1
  Sb  Sb5  1  0.84676460  0.52065527  0.24062477  1
  P  P6  1  0.35797102  0.26826742  0.14925244  1
  P  P7  1  0.93902489  0.23586573  0.92821751  1
  P  P8  1  0.21318239  0.08996602  0.14042728  1
  Li  Li9  1  0.35311982  0.54691500  0.13312768  1
