# generated using pymatgen
data_Li2Mn2Sb4P3
_symmetry_space_group_name_H-M   'P 1'
_cell_length_a   5.40033101
_cell_length_b   5.80868206
_cell_length_c   6.91141556
_cell_angle_alpha   97.30094900
_cell_angle_beta   94.60295894
_cell_angle_gamma   97.74596397
_symmetry_Int_Tables_number   1
_chemical_formula_structural   Li2Mn2Sb4P3
_chemical_formula_sum   'Li2 Mn2 Sb4 P3'
_cell_volume   212.03443759
_cell_formula_units_Z   1
loop_
 _symmetry_equiv_pos_site_id
 _symmetry_equiv_pos_as_xyz
  1  'x, y, z'
loop_
 _atom_site_type_symbol
 _atom_site_label
 _atom_site_symmetry_multiplicity
 _atom_site_fract_x
 _atom_site_fract_y
 _atom_site_fract_z
 _atom_site_occupancy
  Mn  Mn0  1  0.00000000  0.00000000  0.00000000  1
  Mn  Mn1  1  0.50000000  0.50000000  0.50000000  1
  Sb  Sb2  1  0.25000000  0.25000000  0.25000000  1
  Sb  Sb3  1  0.75000000  0.25000000  0.00000000  1
  Sb  Sb4  1  0.25000000  0.75000000  0.50000000  1
  Sb  Sb5  1  0.96036785  0.70035903  0.38185634  1
  P  P6  1  0.27668083  0.19824277  0.67223255  1
  P  P7  1  0.43262382  0.44683522  0.02173222  1
  P  P8  1  0.13326339  0.91595116  0.28047982  1
  Li  Li9  1  0.64322891  0.40901466  0.51975376  1
  Li  Li10  1  0.47006514  0.26545352  0.19951052  1
