# generated using pymatgen
data_Li3Ni2As6O7
_symmetry_space_group_name_H-M   'P 1'
_cell_length_a   5.94878774
_cell_length_b   5.60644544
_cell_length_c   8.10807627
_cell_angle_alpha   96.89764637
_cell_angle_beta   97.56003780
_cell_angle_gamma   96.20516417
_symmetry_Int_Tables_number   1
_chemical_formula_structural   Li3Ni2As6O7
_chemical_formula_sum   'Li3 Ni2 As6 O7'
_cell_volume   264.00902548
_cell_formula_units_Z   1
loop_
 _symmetry_equiv_pos_site_id
 _symmetry_equiv_pos_as_xyz
  1  'x, y, z'
loop_
 _atom_site_type_symbol
 _atom_site_label
 _atom_site_symmetry_multiplicity
 _atom_site_fract_x
 _atom_site_fract_y
 _atom_site_fract_z
 _atom_site_occupancy
  Ni  Ni0  1  0.12500000  0.12500000  0.12500000  1
  Ni  Ni1  1  0.50000000  0.50000000  0.50000000  1
  O  O2  1  0.25000000  0.25000000  0.25000000  1
  O  O3  1  0.75000000  0.75000000  0.75000000  1
  O  O4  1  0.78917491  0.49485580  0.06909229  1
  O  O5  1  0.18087709  0.34253451  0.80146464  1
  O  O6  1  0.44836201  0.46217002  0.65206332  1
  O  O7  1  0.86790202  0.82570456  0.21848115  1
  O  O8  1  0.42550304  0.99393164  0.70687941  1
  As  As9  1  0.06566341  0.96965250  0.10214554  1
  As  As10  1  0.02647495  0.99839330  0.26122518  1
  As  As11  1  0.67065516  0.02816892  0.51833617  1
  As  As12  1  0.72317592  0.18363930  0.19100139  1
  As  As13  1  0.35679973  0.66779757  0.13519704  1
  As  As14  1  0.60203221  0.80116042  0.18412614  1
  Li  Li15  1  0.71401075  0.23917181  0.52123080  1
  Li  Li16  1  0.03417197  0.45691922  0.41404319  1
  Li  Li17  1  0.78945081  0.27675224  0.00140738  1
