# generated using pymatgen
data_Li2TiO
_symmetry_space_group_name_H-M   'P 1'
_cell_length_a   6.26969818
_cell_length_b   6.33021528
_cell_length_c   6.68798834
_cell_angle_alpha   97.11983966
_cell_angle_beta   99.64344889
_cell_angle_gamma   99.16258415
_symmetry_Int_Tables_number   1
_chemical_formula_structural   Li2TiO
_chemical_formula_sum   'Li4 Ti2 O2'
_cell_volume   255.23442876
_cell_formula_units_Z   2
loop_
 _symmetry_equiv_pos_site_id
 _symmetry_equiv_pos_as_xyz
  1  'x, y, z'
loop_
 _atom_site_type_symbol
 _atom_site_label
 _atom_site_symmetry_multiplicity
 _atom_site_fract_x
 _atom_site_fract_y
 _atom_site_fract_z
 _atom_site_occupancy
  Li  Li0  1  0.00000000  0.00000000  0.00000000  1
  Li  Li1  1  0.50000000  0.50000000  0.50000000  1
  Li  Li2  1  0.50000000  0.50000000  0.00000000  1
  Li  Li3  1  0.50000000  0.00000000  0.50000000  1
  Ti  Ti4  1  0.00000000  0.50000000  0.50000000  1
  Ti  Ti5  1  0.14496809  0.11014269  0.64884617  1
  O  O6  1  0.01888882  0.81942806  0.68401172  1
  O  O7  1  0.97679925  0.18062453  0.80169291  1
