# generated using pymatgen
data_Li4Ti2P3N5O3
_symmetry_space_group_name_H-M   'P 1'
_cell_length_a   7.13365266
_cell_length_b   6.53297138
_cell_length_c   7.04180094
_cell_angle_alpha   94.16007589
_cell_angle_beta   91.47076151
_cell_angle_gamma   94.82518442
_symmetry_Int_Tables_number   1
_chemical_formula_structural   Li4Ti2P3N5O3
_chemical_formula_sum   'Li4 Ti2 P3 N5 O3'
_cell_volume   325.98440057
_cell_formula_units_Z   1
loop_
 _symmetry_equiv_pos_site_id
 _symmetry_equiv_pos_as_xyz
  1  'x, y, z'
loop_
 _atom_site_type_symbol
 _atom_site_label
 _atom_site_symmetry_multiplicity
 _atom_site_fract_x
 _atom_site_fract_y
 _atom_site_fract_z
 _atom_site_occupancy
  P  P0  1  0.12500000  0.00000000  0.25000000  1
  P  P1  1  0.00000000  0.00000000  0.00000000  1
  P  P2  1  0.37500000  0.00000000  0.25000000  1
  Li  Li3  1  0.25000000  0.25000000  0.25000000  1
  Li  Li4  1  0.00000000  0.25000000  0.12500000  1
  Li  Li5  1  0.97032412  0.12969122  0.76256611  1
  Li  Li6  1  0.23074689  0.06651583  0.70658488  1
  Ti  Ti7  1  0.02642908  0.68505940  0.98897030  1
  Ti  Ti8  1  0.05228815  0.16400315  0.61034587  1
  O  O9  1  0.79906619  0.68663242  0.47404485  1
  O  O10  1  0.74296777  0.36447827  0.68086095  1
  O  O11  1  0.09101454  0.73984557  0.75017226  1
  N  N12  1  0.01941613  0.18220521  0.98496951  1
  N  N13  1  0.75403467  0.69684467  0.68436709  1
  N  N14  1  0.22595800  0.15307068  0.70402229  1
  N  N15  1  0.66034328  0.37451455  0.07174100  1
  N  N16  1  0.02272609  0.78204273  0.69201957  1
