# generated using pymatgen
data_Li2MnSb4Mo2P3
_symmetry_space_group_name_H-M   'P 1'
_cell_length_a   4.73121517
_cell_length_b   5.00742056
_cell_length_c   6.37690318
_cell_angle_alpha   101.59983707
_cell_angle_beta   93.17896552
_cell_angle_gamma   101.73112861
_symmetry_Int_Tables_number   1
_chemical_formula_structural   Li2MnSb4Mo2P3
_chemical_formula_sum   'Li2 Mn1 Sb4 Mo2 P3'
_cell_volume   144.16681775
_cell_formula_units_Z   1
loop_
 _symmetry_equiv_pos_site_id
 _symmetry_equiv_pos_as_xyz
  1  'x, y, z'
loop_
 _atom_site_type_symbol
 _atom_site_label
 _atom_site_symmetry_multiplicity
 _atom_site_fract_x
 _atom_site_fract_y
 _atom_site_fract_z
 _atom_site_occupancy
  Mn  Mn0  1  0.00000000  0.00000000  0.00000000  1
  Sb  Sb1  1  0.50000000  0.50000000  0.50000000  1
  Sb  Sb2  1  0.25000000  0.25000000  0.25000000  1
  Sb  Sb3  1  0.75000000  0.25000000  0.00000000  1
  Sb  Sb4  1  0.25000000  0.75000000  0.50000000  1
  P  P5  1  0.32446254  0.33942774  0.86833719  1
  P  P6  1  0.88911176  0.40288505  0.26547546  1
  P  P7  1  0.51433156  0.08911814  0.42303022  1
  Mo  Mo8  1  0.29041476  0.27666204  0.08264607  1
  Mo  Mo9  1  0.84210015  0.14549736  0.18006945  1
  Li  Li10  1  0.53204819  0.74973390  0.12416414  1
  Li  Li11  1  0.91412076  0.67626883  0.89841062  1
