# generated using pymatgen
data_Li2La3Ti(SO2)2
_symmetry_space_group_name_H-M   'P 1'
_cell_length_a   7.43674111
_cell_length_b   7.11284840
_cell_length_c   8.09224235
_cell_angle_alpha   95.82330407
_cell_angle_beta   96.38252478
_cell_angle_gamma   95.23867938
_symmetry_Int_Tables_number   1
_chemical_formula_structural   Li2La3Ti(SO2)2
_chemical_formula_sum   'Li2 La3 Ti1 S2 O4'
_cell_volume   420.91796781
_cell_formula_units_Z   1
loop_
 _symmetry_equiv_pos_site_id
 _symmetry_equiv_pos_as_xyz
  1  'x, y, z'
loop_
 _atom_site_type_symbol
 _atom_site_label
 _atom_site_symmetry_multiplicity
 _atom_site_fract_x
 _atom_site_fract_y
 _atom_site_fract_z
 _atom_site_occupancy
  Li  Li0  1  0.00000000  0.00000000  0.00000000  1
  Li  Li1  1  0.50000000  0.50000000  0.50000000  1
  La  La2  1  0.25000000  0.25000000  0.25000000  1
  La  La3  1  0.75000000  0.25000000  0.00000000  1
  La  La4  1  0.25000000  0.75000000  0.50000000  1
  S  S5  1  0.76671072  0.32410243  0.02843923  1
  S  S6  1  0.73041900  0.15390892  0.58256889  1
  Ti  Ti7  1  0.32514897  0.03554007  0.66285606  1
  O  O8  1  0.84128973  0.76576594  0.98081534  1
  O  O9  1  0.47980097  0.37809021  0.52168012  1
  O  O10  1  0.83327753  0.87571023  0.94400622  1
  O  O11  1  0.91487129  0.05158664  0.03782881  1
