# generated using pymatgen
data_Li2Ni2P8I4O5
_symmetry_space_group_name_H-M   'P 1'
_cell_length_a   8.37445169
_cell_length_b   8.44051290
_cell_length_c   8.37224596
_cell_angle_alpha   90.00000000
_cell_angle_beta   90.00000000
_cell_angle_gamma   90.00000000
_symmetry_Int_Tables_number   1
_chemical_formula_structural   Li2Ni2P8I4O5
_chemical_formula_sum   'Li2 Ni2 P8 I4 O5'
_cell_volume   591.78942194
_cell_formula_units_Z   1
loop_
 _symmetry_equiv_pos_site_id
 _symmetry_equiv_pos_as_xyz
  1  'x, y, z'
loop_
 _atom_site_type_symbol
 _atom_site_label
 _atom_site_symmetry_multiplicity
 _atom_site_fract_x
 _atom_site_fract_y
 _atom_site_fract_z
 _atom_site_occupancy
  P  P0  1  0.00000000  0.00000000  0.00000000  1
  P  P1  1  0.50000000  0.50000000  0.50000000  1
  P  P2  1  0.25000000  0.25000000  0.25000000  1
  P  P3  1  0.75000000  0.25000000  0.00000000  1
  P  P4  1  0.25000000  0.75000000  0.50000000  1
  P  P5  1  0.42602428  0.92715427  0.97554476  1
  P  P6  1  0.02938550  0.24750751  0.09930275  1
  P  P7  1  0.43468127  0.77319586  0.00706544  1
  I  I8  1  0.59323188  0.09302922  0.89203106  1
  I  I9  1  0.77540347  0.48882998  0.02063536  1
  I  I10  1  0.93657680  0.01413521  0.47441345  1
  I  I11  1  0.62219207  0.24213403  0.45885868  1
  Li  Li12  1  0.01030556  0.53884967  0.72971725  1
  Li  Li13  1  0.89032740  0.42201678  0.75308352  1
  Ni  Ni14  1  0.71608196  0.25543571  0.45506089  1
  Ni  Ni15  1  0.56938886  0.48753401  0.91745173  1
  O  O16  1  0.30729243  0.61997825  0.16120238  1
  O  O17  1  0.55774173  0.56766495  0.08843399  1
  O  O18  1  0.78486080  0.18849478  0.40051328  1
  O  O19  1  0.67828964  0.08116586  0.15610289  1
  O  O20  1  0.34699013  0.16748319  0.48376084  1
