# generated using pymatgen
data_Li2Ni2P8(IO)5
_symmetry_space_group_name_H-M   'P 1'
_cell_length_a   8.33705693
_cell_length_b   8.07604332
_cell_length_c   9.03397838
_cell_angle_alpha   93.12385062
_cell_angle_beta   95.33793554
_cell_angle_gamma   92.95483755
_symmetry_Int_Tables_number   1
_chemical_formula_structural   Li2Ni2P8(IO)5
_chemical_formula_sum   'Li2 Ni2 P8 I5 O5'
_cell_volume   603.74249159
_cell_formula_units_Z   1
loop_
 _symmetry_equiv_pos_site_id
 _symmetry_equiv_pos_as_xyz
  1  'x, y, z'
loop_
 _atom_site_type_symbol
 _atom_site_label
 _atom_site_symmetry_multiplicity
 _atom_site_fract_x
 _atom_site_fract_y
 _atom_site_fract_z
 _atom_site_occupancy
  P  P0  1  0.12500000  0.00000000  0.25000000  1
  P  P1  1  0.00000000  0.00000000  0.00000000  1
  P  P2  1  0.37500000  0.00000000  0.25000000  1
  P  P3  1  0.25000000  0.25000000  0.25000000  1
  P  P4  1  0.00000000  0.25000000  0.12500000  1
  P  P5  1  0.66121132  0.30790207  0.97440773  1
  P  P6  1  0.36996634  0.80280725  0.00049195  1
  P  P7  1  0.28970609  0.06703530  0.89498901  1
  I  I8  1  0.80644529  0.84232378  0.72181162  1
  I  I9  1  0.43881189  0.71639593  0.10315892  1
  I  I10  1  0.66922440  0.43009260  0.05604317  1
  I  I11  1  0.59124535  0.32429461  0.27869334  1
  I  I12  1  0.20840517  0.97507092  0.49246899  1
  Li  Li13  1  0.39650057  0.04530797  0.68171764  1
  Li  Li14  1  0.10793187  0.73646198  0.13161810  1
  Ni  Ni15  1  0.67675533  0.52937972  0.04825262  1
  Ni  Ni16  1  0.07434064  0.04662389  0.34142605  1
  O  O17  1  0.72318892  0.98004389  0.90303142  1
  O  O18  1  0.41544563  0.74796646  0.92225001  1
  O  O19  1  0.07138471  0.66805053  0.71621237  1
  O  O20  1  0.52970687  0.28026854  0.49516283  1
  O  O21  1  0.61041849  0.13767241  0.72553796  1
