# generated using pymatgen
data_Li2Mn2Sb4P3
_symmetry_space_group_name_H-M   'P 1'
_cell_length_a   6.94553701
_cell_length_b   7.39982995
_cell_length_c   7.27308318
_cell_angle_alpha   93.31520120
_cell_angle_beta   91.39357267
_cell_angle_gamma   93.48739912
_symmetry_Int_Tables_number   1
_chemical_formula_structural   Li2Mn2Sb4P3
_chemical_formula_sum   'Li2 Mn2 Sb4 P3'
_cell_volume   372.34388195
_cell_formula_units_Z   1
loop_
 _symmetry_equiv_pos_site_id
 _symmetry_equiv_pos_as_xyz
  1  'x, y, z'
loop_
 _atom_site_type_symbol
 _atom_site_label
 _atom_site_symmetry_multiplicity
 _atom_site_fract_x
 _atom_site_fract_y
 _atom_site_fract_z
 _atom_site_occupancy
  Mn  Mn0  1  0.00000000  0.00000000  0.00000000  1
  Mn  Mn1  1  0.33300000  0.66700000  0.25000000  1
  Sb  Sb2  1  0.66700000  0.33300000  0.50000000  1
  Sb  Sb3  1  0.00000000  0.00000000  0.75000000  1
  Sb  Sb4  1  0.46288990  0.79046120  0.29587014  1
  Sb  Sb5  1  0.00031037  0.03875154  0.99959376  1
  P  P6  1  0.38563379  0.13431948  0.35667880  1
  P  P7  1  0.72475296  0.39821851  0.97007707  1
  P  P8  1  0.72811263  0.96382540  0.13675675  1
  Li  Li9  1  0.29503592  0.77296093  0.65272007  1
  Li  Li10  1  0.48131087  0.51161664  0.79264433  1
