# generated using pymatgen
data_LiTiP3Se
_symmetry_space_group_name_H-M   'P 1'
_cell_length_a   6.54335412
_cell_length_b   6.11929809
_cell_length_c   6.99334588
_cell_angle_alpha   93.70090106
_cell_angle_beta   95.35951327
_cell_angle_gamma   93.41607332
_symmetry_Int_Tables_number   1
_chemical_formula_structural   LiTiP3Se
_chemical_formula_sum   'Li2 Ti2 P6 Se2'
_cell_volume   277.60575528
_cell_formula_units_Z   2
loop_
 _symmetry_equiv_pos_site_id
 _symmetry_equiv_pos_as_xyz
  1  'x, y, z'
loop_
 _atom_site_type_symbol
 _atom_site_label
 _atom_site_symmetry_multiplicity
 _atom_site_fract_x
 _atom_site_fract_y
 _atom_site_fract_z
 _atom_site_occupancy
  Se  Se0  1  0.00000000  0.00000000  0.00000000  1
  Se  Se1  1  0.33300000  0.66700000  0.25000000  1
  Ti  Ti2  1  0.66700000  0.33300000  0.50000000  1
  Ti  Ti3  1  0.00000000  0.00000000  0.75000000  1
  P  P4  1  0.31065287  0.25118810  0.65954522  1
  P  P5  1  0.53649902  0.95214852  0.68547447  1
  P  P6  1  0.77233065  0.52970963  0.68304673  1
  P  P7  1  0.95764848  0.47958922  0.12343766  1
  P  P8  1  0.81559331  0.95131985  0.03273116  1
  P  P9  1  0.66116661  0.44951918  0.65198077  1
  Li  Li10  1  0.81253728  0.81688210  0.22813285  1
  Li  Li11  1  0.04927487  0.04286843  0.69154844  1
