# generated using pymatgen
data_Li2Ni2P8O5
_symmetry_space_group_name_H-M   'P 1'
_cell_length_a   8.17390027
_cell_length_b   7.92196251
_cell_length_c   8.68429430
_cell_angle_alpha   90.00000000
_cell_angle_beta   90.00000000
_cell_angle_gamma   90.00000000
_symmetry_Int_Tables_number   1
_chemical_formula_structural   Li2Ni2P8O5
_chemical_formula_sum   'Li2 Ni2 P8 O5'
_cell_volume   562.33698766
_cell_formula_units_Z   1
loop_
 _symmetry_equiv_pos_site_id
 _symmetry_equiv_pos_as_xyz
  1  'x, y, z'
loop_
 _atom_site_type_symbol
 _atom_site_label
 _atom_site_symmetry_multiplicity
 _atom_site_fract_x
 _atom_site_fract_y
 _atom_site_fract_z
 _atom_site_occupancy
  P  P0  1  0.12500000  0.12500000  0.12500000  1
  P  P1  1  0.50000000  0.50000000  0.50000000  1
  P  P2  1  0.25000000  0.25000000  0.25000000  1
  P  P3  1  0.75000000  0.75000000  0.75000000  1
  P  P4  1  0.98005595  0.99015101  0.84774643  1
  P  P5  1  0.51995430  0.88388065  0.14232529  1
  P  P6  1  0.85479236  0.22382873  0.84156755  1
  P  P7  1  0.93289206  0.75629714  0.25758388  1
  Li  Li8  1  0.90676465  0.48369802  0.67550143  1
  Li  Li9  1  0.13164575  0.35263546  0.68204764  1
  Ni  Ni10  1  0.18529552  0.96208531  0.18602862  1
  Ni  Ni11  1  0.54419789  0.49867829  0.21791020  1
  O  O12  1  0.07242356  0.30379437  0.09194442  1
  O  O13  1  0.31031174  0.87201707  0.76154560  1
  O  O14  1  0.27763245  0.46846609  0.96585768  1
  O  O15  1  0.28888225  0.10379926  0.68692681  1
  O  O16  1  0.63233370  0.40183739  0.11771561  1
