# generated using pymatgen
data_Li3Ti2P3Se2O
_symmetry_space_group_name_H-M   'P 1'
_cell_length_a   7.87429249
_cell_length_b   7.44051784
_cell_length_c   6.80116122
_cell_angle_alpha   90.16213048
_cell_angle_beta   90.77136760
_cell_angle_gamma   90.18535843
_symmetry_Int_Tables_number   1
_chemical_formula_structural   Li3Ti2P3Se2O
_chemical_formula_sum   'Li3 Ti2 P3 Se2 O1'
_cell_volume   398.43212723
_cell_formula_units_Z   1
loop_
 _symmetry_equiv_pos_site_id
 _symmetry_equiv_pos_as_xyz
  1  'x, y, z'
loop_
 _atom_site_type_symbol
 _atom_site_label
 _atom_site_symmetry_multiplicity
 _atom_site_fract_x
 _atom_site_fract_y
 _atom_site_fract_z
 _atom_site_occupancy
  P  P0  1  0.00000000  0.00000000  0.00000000  1
  P  P1  1  0.50000000  0.50000000  0.50000000  1
  P  P2  1  0.50000000  0.50000000  0.00000000  1
  Li  Li3  1  0.50000000  0.00000000  0.50000000  1
  Li  Li4  1  0.00000000  0.50000000  0.50000000  1
  Li  Li5  1  0.38950442  0.02575133  0.19347640  1
  Se  Se6  1  0.02956742  0.77886339  0.50037869  1
  Se  Se7  1  0.17866891  0.08991275  0.37631104  1
  Ti  Ti8  1  0.50713010  0.00948070  0.30891366  1
  Ti  Ti9  1  0.24068799  0.52012361  0.47572193  1
  O  O10  1  0.36476919  0.33502513  0.41609604  1
