# generated using pymatgen
data_LiMn2Sb4P3
_symmetry_space_group_name_H-M   'P 1'
_cell_length_a   5.01738152
_cell_length_b   5.30613027
_cell_length_c   6.37956285
_cell_angle_alpha   97.86964409
_cell_angle_beta   92.92332803
_cell_angle_gamma   98.20648895
_symmetry_Int_Tables_number   1
_chemical_formula_structural   LiMn2Sb4P3
_chemical_formula_sum   'Li1 Mn2 Sb4 P3'
_cell_volume   166.08839796
_cell_formula_units_Z   1
loop_
 _symmetry_equiv_pos_site_id
 _symmetry_equiv_pos_as_xyz
  1  'x, y, z'
loop_
 _atom_site_type_symbol
 _atom_site_label
 _atom_site_symmetry_multiplicity
 _atom_site_fract_x
 _atom_site_fract_y
 _atom_site_fract_z
 _atom_site_occupancy
  Mn  Mn0  1  0.00000000  0.00000000  0.00000000  1
  Mn  Mn1  1  0.33300000  0.66700000  0.25000000  1
  Sb  Sb2  1  0.66700000  0.33300000  0.50000000  1
  Sb  Sb3  1  0.00000000  0.00000000  0.75000000  1
  Sb  Sb4  1  0.75587502  0.89900520  0.47528984  1
  Sb  Sb5  1  0.85536687  0.98299925  0.43974033  1
  P  P6  1  0.65207429  0.44839437  0.49452716  1
  P  P7  1  0.90893951  0.88949924  0.82520302  1
  P  P8  1  0.30438760  0.66489758  0.54767284  1
  Li  Li9  1  0.30970697  0.58372725  0.19396363  1
