# generated using pymatgen
data_LiMnSb4P3
_symmetry_space_group_name_H-M   'P 1'
_cell_length_a   4.06185259
_cell_length_b   4.28420589
_cell_length_c   6.63837139
_cell_angle_alpha   99.00944987
_cell_angle_beta   99.08638667
_cell_angle_gamma   99.91750055
_symmetry_Int_Tables_number   1
_chemical_formula_structural   LiMnSb4P3
_chemical_formula_sum   'Li1 Mn1 Sb4 P3'
_cell_volume   110.34130616
_cell_formula_units_Z   1
loop_
 _symmetry_equiv_pos_site_id
 _symmetry_equiv_pos_as_xyz
  1  'x, y, z'
loop_
 _atom_site_type_symbol
 _atom_site_label
 _atom_site_symmetry_multiplicity
 _atom_site_fract_x
 _atom_site_fract_y
 _atom_site_fract_z
 _atom_site_occupancy
  Mn  Mn0  1  0.00000000  0.00000000  0.00000000  1
  Sb  Sb1  1  0.33300000  0.66700000  0.25000000  1
  Sb  Sb2  1  0.66700000  0.33300000  0.50000000  1
  Sb  Sb3  1  0.00000000  0.00000000  0.75000000  1
  Sb  Sb4  1  0.93463485  0.26326107  0.37122126  1
  P  P5  1  0.40638849  0.59571223  0.05459058  1
  P  P6  1  0.09494227  0.60929867  0.08917538  1
  P  P7  1  0.15603028  0.64133220  0.48165000  1
  Li  Li8  1  0.64126833  0.47216429  0.55741900  1
