# generated using pymatgen
data_Li2MnSb4P3
_symmetry_space_group_name_H-M   'P 1'
_cell_length_a   4.43283245
_cell_length_b   4.70527089
_cell_length_c   6.18363517
_cell_angle_alpha   99.58728507
_cell_angle_beta   96.66638693
_cell_angle_gamma   99.06357168
_symmetry_Int_Tables_number   1
_chemical_formula_structural   Li2MnSb4P3
_chemical_formula_sum   'Li2 Mn1 Sb4 P3'
_cell_volume   124.23818553
_cell_formula_units_Z   1
loop_
 _symmetry_equiv_pos_site_id
 _symmetry_equiv_pos_as_xyz
  1  'x, y, z'
loop_
 _atom_site_type_symbol
 _atom_site_label
 _atom_site_symmetry_multiplicity
 _atom_site_fract_x
 _atom_site_fract_y
 _atom_site_fract_z
 _atom_site_occupancy
  Mn  Mn0  1  0.00000000  0.00000000  0.00000000  1
  Sb  Sb1  1  0.33300000  0.66700000  0.25000000  1
  Sb  Sb2  1  0.66700000  0.33300000  0.50000000  1
  Sb  Sb3  1  0.00000000  0.00000000  0.75000000  1
  Sb  Sb4  1  0.61319959  0.88379379  0.50615955  1
  P  P5  1  0.29308375  0.62911510  0.45761564  1
  P  P6  1  0.19053776  0.11995956  0.60946981  1
  P  P7  1  0.77369201  0.27098188  0.96563492  1
  Li  Li8  1  0.05895212  0.64674552  0.25364099  1
  Li  Li9  1  0.24019979  0.94161957  0.79684075  1
