# generated using pymatgen
data_LiNb2Ni2O4F3
_symmetry_space_group_name_H-M   'P 1'
_cell_length_a   7.32056500
_cell_length_b   7.07007192
_cell_length_c   8.20033770
_cell_angle_alpha   90.45153464
_cell_angle_beta   92.14826469
_cell_angle_gamma   90.51622466
_symmetry_Int_Tables_number   1
_chemical_formula_structural   LiNb2Ni2O4F3
_chemical_formula_sum   'Li1 Nb2 Ni2 O4 F3'
_cell_volume   424.09437478
_cell_formula_units_Z   1
loop_
 _symmetry_equiv_pos_site_id
 _symmetry_equiv_pos_as_xyz
  1  'x, y, z'
loop_
 _atom_site_type_symbol
 _atom_site_label
 _atom_site_symmetry_multiplicity
 _atom_site_fract_x
 _atom_site_fract_y
 _atom_site_fract_z
 _atom_site_occupancy
  Li  Li0  1  0.00000000  0.00000000  0.00000000  1
  Nb  Nb1  1  0.50000000  0.50000000  0.50000000  1
  Nb  Nb2  1  0.50000000  0.50000000  0.00000000  1
  F  F3  1  0.50000000  0.00000000  0.50000000  1
  F  F4  1  0.00000000  0.50000000  0.50000000  1
  F  F5  1  0.10265923  0.06442417  0.70405469  1
  Ni  Ni6  1  0.15032271  0.62131140  0.53428707  1
  Ni  Ni7  1  0.43648044  0.50577451  0.85075263  1
  O  O8  1  0.58179417  0.62990833  0.13201519  1
  O  O9  1  0.08913504  0.35962292  0.19112006  1
  O  O10  1  0.32685422  0.25799074  0.55195600  1
  O  O11  1  0.74525377  0.53026288  0.07003597  1
