# generated using pymatgen
data_LiP8Se3(BrO)3
_symmetry_space_group_name_H-M   'P 1'
_cell_length_a   7.94934538
_cell_length_b   8.11454183
_cell_length_c   8.36391670
_cell_angle_alpha   90.00000000
_cell_angle_beta   90.00000000
_cell_angle_gamma   90.00000000
_symmetry_Int_Tables_number   1
_chemical_formula_structural   LiP8Se3(BrO)3
_chemical_formula_sum   'Li1 P8 Se3 Br3 O3'
_cell_volume   539.51691918
_cell_formula_units_Z   1
loop_
 _symmetry_equiv_pos_site_id
 _symmetry_equiv_pos_as_xyz
  1  'x, y, z'
loop_
 _atom_site_type_symbol
 _atom_site_label
 _atom_site_symmetry_multiplicity
 _atom_site_fract_x
 _atom_site_fract_y
 _atom_site_fract_z
 _atom_site_occupancy
  P  P0  1  0.12500000  0.00000000  0.25000000  1
  P  P1  1  0.00000000  0.00000000  0.00000000  1
  P  P2  1  0.37500000  0.00000000  0.25000000  1
  P  P3  1  0.25000000  0.25000000  0.25000000  1
  P  P4  1  0.00000000  0.25000000  0.12500000  1
  P  P5  1  0.72824925  0.73837013  0.81820476  1
  P  P6  1  0.24621186  0.97386463  0.65061748  1
  P  P7  1  0.16106778  0.91955215  0.27724212  1
  Li  Li8  1  0.55293077  0.52972931  0.00175329  1
  Br  Br9  1  0.85732318  0.59105489  0.61686800  1
  Br  Br10  1  0.60994579  0.83352896  0.96571014  1
  Br  Br11  1  0.67802195  0.12604930  0.09384363  1
  Se  Se12  1  0.84283261  0.63516305  0.85474517  1
  Se  Se13  1  0.84609914  0.86436724  0.61168203  1
  Se  Se14  1  0.13676172  0.42171129  0.25151778  1
  O  O15  1  0.38223217  0.78016561  0.12082430  1
  O  O16  1  0.94641649  0.43750962  0.53987919  1
  O  O17  1  0.14064614  0.29631752  0.55754564  1
