# generated using pymatgen
data_LiMn3Sb4P3
_symmetry_space_group_name_H-M   'P 1'
_cell_length_a   6.66773970
_cell_length_b   7.14606560
_cell_length_c   6.98201268
_cell_angle_alpha   91.94010250
_cell_angle_beta   90.36157028
_cell_angle_gamma   91.77493416
_symmetry_Int_Tables_number   1
_chemical_formula_structural   LiMn3Sb4P3
_chemical_formula_sum   'Li1 Mn3 Sb4 P3'
_cell_volume   332.32042733
_cell_formula_units_Z   1
loop_
 _symmetry_equiv_pos_site_id
 _symmetry_equiv_pos_as_xyz
  1  'x, y, z'
loop_
 _atom_site_type_symbol
 _atom_site_label
 _atom_site_symmetry_multiplicity
 _atom_site_fract_x
 _atom_site_fract_y
 _atom_site_fract_z
 _atom_site_occupancy
  Mn  Mn0  1  0.00000000  0.00000000  0.00000000  1
  Mn  Mn1  1  0.50000000  0.50000000  0.50000000  1
  Mn  Mn2  1  0.25000000  0.25000000  0.25000000  1
  Sb  Sb3  1  0.75000000  0.25000000  0.00000000  1
  Sb  Sb4  1  0.25000000  0.75000000  0.50000000  1
  Sb  Sb5  1  0.54120876  0.42982932  0.46918872  1
  Sb  Sb6  1  0.28470007  0.41573180  0.68277692  1
  P  P7  1  0.60583878  0.84072794  0.99157715  1
  P  P8  1  0.39179186  0.49744228  0.25777363  1
  P  P9  1  0.42131295  0.60201067  0.97335532  1
  Li  Li10  1  0.41451444  0.66012403  0.99128848  1
