# generated using pymatgen
data_Li2Mn2Sb3Mo2P3
_symmetry_space_group_name_H-M   'P 1'
_cell_length_a   5.59165464
_cell_length_b   6.01597730
_cell_length_c   6.94352317
_cell_angle_alpha   95.81115371
_cell_angle_beta   94.45458612
_cell_angle_gamma   96.21580442
_symmetry_Int_Tables_number   1
_chemical_formula_structural   Li2Mn2Sb3Mo2P3
_chemical_formula_sum   'Li2 Mn2 Sb3 Mo2 P3'
_cell_volume   230.07910153
_cell_formula_units_Z   1
loop_
 _symmetry_equiv_pos_site_id
 _symmetry_equiv_pos_as_xyz
  1  'x, y, z'
loop_
 _atom_site_type_symbol
 _atom_site_label
 _atom_site_symmetry_multiplicity
 _atom_site_fract_x
 _atom_site_fract_y
 _atom_site_fract_z
 _atom_site_occupancy
  Mn  Mn0  1  0.12500000  0.00000000  0.25000000  1
  Mn  Mn1  1  0.00000000  0.00000000  0.00000000  1
  Sb  Sb2  1  0.37500000  0.00000000  0.25000000  1
  Sb  Sb3  1  0.25000000  0.25000000  0.25000000  1
  Sb  Sb4  1  0.00000000  0.25000000  0.12500000  1
  P  P5  1  0.15636293  0.66915100  0.87948536  1
  P  P6  1  0.23446110  0.75060855  0.44048539  1
  P  P7  1  0.21961242  0.89417633  0.84531187  1
  Mo  Mo8  1  0.90715111  0.26330181  0.46099771  1
  Mo  Mo9  1  0.59384393  0.05423794  0.14813467  1
  Li  Li10  1  0.07109585  0.09857426  0.89076207  1
  Li  Li11  1  0.67529546  0.96463894  0.06311313  1
