# generated using pymatgen
data_Li4Ti2P3O2
_symmetry_space_group_name_H-M   'P 1'
_cell_length_a   6.87109640
_cell_length_b   6.76622520
_cell_length_c   6.72682577
_cell_angle_alpha   94.76804385
_cell_angle_beta   96.45806497
_cell_angle_gamma   96.13603748
_symmetry_Int_Tables_number   1
_chemical_formula_structural   Li4Ti2P3O2
_chemical_formula_sum   'Li4 Ti2 P3 O2'
_cell_volume   307.53848161
_cell_formula_units_Z   1
loop_
 _symmetry_equiv_pos_site_id
 _symmetry_equiv_pos_as_xyz
  1  'x, y, z'
loop_
 _atom_site_type_symbol
 _atom_site_label
 _atom_site_symmetry_multiplicity
 _atom_site_fract_x
 _atom_site_fract_y
 _atom_site_fract_z
 _atom_site_occupancy
  P  P0  1  0.00000000  0.00000000  0.00000000  1
  P  P1  1  0.33300000  0.66700000  0.25000000  1
  P  P2  1  0.66700000  0.33300000  0.50000000  1
  Li  Li3  1  0.00000000  0.00000000  0.75000000  1
  Li  Li4  1  0.50136187  0.85673256  0.76430363  1
  Li  Li5  1  0.26813232  0.65046712  0.48733003  1
  Li  Li6  1  0.08148586  0.33180214  0.39658571  1
  Ti  Ti7  1  0.51253366  0.25209190  0.23761523  1
  Ti  Ti8  1  0.22560427  0.23291086  0.82996701  1
  O  O9  1  0.68922444  0.60753940  0.11209654  1
  O  O10  1  0.13646541  0.93814617  0.60750997  1
