# generated using pymatgen
data_Li3Ni2P6N5
_symmetry_space_group_name_H-M   'P 1'
_cell_length_a   5.84978428
_cell_length_b   5.43644147
_cell_length_c   7.96419400
_cell_angle_alpha   97.54275854
_cell_angle_beta   97.26896334
_cell_angle_gamma   97.13539904
_symmetry_Int_Tables_number   1
_chemical_formula_structural   Li3Ni2P6N5
_chemical_formula_sum   'Li3 Ni2 P6 N5'
_cell_volume   246.50079608
_cell_formula_units_Z   1
loop_
 _symmetry_equiv_pos_site_id
 _symmetry_equiv_pos_as_xyz
  1  'x, y, z'
loop_
 _atom_site_type_symbol
 _atom_site_label
 _atom_site_symmetry_multiplicity
 _atom_site_fract_x
 _atom_site_fract_y
 _atom_site_fract_z
 _atom_site_occupancy
  Ni  Ni0  1  0.00000000  0.00000000  0.00000000  1
  Ni  Ni1  1  0.50000000  0.50000000  0.50000000  1
  P  P2  1  0.25000000  0.25000000  0.25000000  1
  P  P3  1  0.75000000  0.25000000  0.00000000  1
  P  P4  1  0.25000000  0.75000000  0.50000000  1
  P  P5  1  0.61776929  0.61232627  0.69282519  1
  P  P6  1  0.19635078  0.55673987  0.79474163  1
  P  P7  1  0.26701065  0.78337860  0.46166853  1
  Li  Li8  1  0.60220098  0.63071022  0.68991452  1
  Li  Li9  1  0.08865587  0.91816106  0.12954467  1
  Li  Li10  1  0.25988160  0.08760867  0.08266551  1
  N  N11  1  0.43459583  0.10198696  0.79591621  1
  N  N12  1  0.24680797  0.62420446  0.10459577  1
  N  N13  1  0.22462732  0.20377879  0.55288841  1
  N  N14  1  0.30901911  0.25351447  0.65363533  1
  N  N15  1  0.21571021  0.16690050  0.39771734  1
