# generated using pymatgen
data_Li2Mn3(SbP)4
_symmetry_space_group_name_H-M   'P 1'
_cell_length_a   7.77964338
_cell_length_b   8.53882603
_cell_length_c   8.08801395
_cell_angle_alpha   90.00000000
_cell_angle_beta   90.00000000
_cell_angle_gamma   90.00000000
_symmetry_Int_Tables_number   1
_chemical_formula_structural   Li2Mn3(SbP)4
_chemical_formula_sum   'Li2 Mn3 Sb4 P4'
_cell_volume   537.27885190
_cell_formula_units_Z   1
loop_
 _symmetry_equiv_pos_site_id
 _symmetry_equiv_pos_as_xyz
  1  'x, y, z'
loop_
 _atom_site_type_symbol
 _atom_site_label
 _atom_site_symmetry_multiplicity
 _atom_site_fract_x
 _atom_site_fract_y
 _atom_site_fract_z
 _atom_site_occupancy
  Mn  Mn0  1  0.00000000  0.00000000  0.00000000  1
  Mn  Mn1  1  0.33300000  0.66700000  0.25000000  1
  Mn  Mn2  1  0.66700000  0.33300000  0.50000000  1
  Sb  Sb3  1  0.00000000  0.00000000  0.75000000  1
  Sb  Sb4  1  0.88611647  0.97345842  0.29941852  1
  Sb  Sb5  1  0.83868058  0.53000674  0.14594097  1
  Sb  Sb6  1  0.81494977  0.48728458  0.08360196  1
  P  P7  1  0.06444248  0.91644425  0.88923547  1
  P  P8  1  0.17622747  0.84832415  0.37860765  1
  P  P9  1  0.38383383  0.55257254  0.84018261  1
  P  P10  1  0.89471596  0.10058631  0.71580943  1
  Li  Li11  1  0.61749181  0.56395214  0.26650456  1
  Li  Li12  1  0.21119885  0.02523342  0.05641500  1
