# generated using pymatgen
data_Li2MnSb4P3
_symmetry_space_group_name_H-M   'P 1'
_cell_length_a   5.60952868
_cell_length_b   5.83831349
_cell_length_c   6.90835180
_cell_angle_alpha   97.67711094
_cell_angle_beta   93.33844339
_cell_angle_gamma   97.93592601
_symmetry_Int_Tables_number   1
_chemical_formula_structural   Li2MnSb4P3
_chemical_formula_sum   'Li2 Mn1 Sb4 P3'
_cell_volume   221.39583973
_cell_formula_units_Z   1
loop_
 _symmetry_equiv_pos_site_id
 _symmetry_equiv_pos_as_xyz
  1  'x, y, z'
loop_
 _atom_site_type_symbol
 _atom_site_label
 _atom_site_symmetry_multiplicity
 _atom_site_fract_x
 _atom_site_fract_y
 _atom_site_fract_z
 _atom_site_occupancy
  Mn  Mn0  1  0.00000000  0.00000000  0.00000000  1
  Sb  Sb1  1  0.50000000  0.50000000  0.50000000  1
  Sb  Sb2  1  0.25000000  0.25000000  0.25000000  1
  Sb  Sb3  1  0.75000000  0.25000000  0.00000000  1
  Sb  Sb4  1  0.25000000  0.75000000  0.50000000  1
  P  P5  1  0.79156242  0.12275265  0.17526057  1
  P  P6  1  0.66279069  0.99163593  0.05768404  1
  P  P7  1  0.72802816  0.92804303  0.24157156  1
  Li  Li8  1  0.14366215  0.38770469  0.49059844  1
  Li  Li9  1  0.70066884  0.32541004  0.20861848  1
