# generated using pymatgen
data_LiMn2Sb4P3
_symmetry_space_group_name_H-M   'P 1'
_cell_length_a   4.94638406
_cell_length_b   5.23329914
_cell_length_c   6.43447389
_cell_angle_alpha   96.70458134
_cell_angle_beta   94.00404028
_cell_angle_gamma   97.26406842
_symmetry_Int_Tables_number   1
_chemical_formula_structural   LiMn2Sb4P3
_chemical_formula_sum   'Li1 Mn2 Sb4 P3'
_cell_volume   163.48945475
_cell_formula_units_Z   1
loop_
 _symmetry_equiv_pos_site_id
 _symmetry_equiv_pos_as_xyz
  1  'x, y, z'
loop_
 _atom_site_type_symbol
 _atom_site_label
 _atom_site_symmetry_multiplicity
 _atom_site_fract_x
 _atom_site_fract_y
 _atom_site_fract_z
 _atom_site_occupancy
  Mn  Mn0  1  0.00000000  0.00000000  0.00000000  1
  Mn  Mn1  1  0.50000000  0.50000000  0.50000000  1
  Sb  Sb2  1  0.50000000  0.50000000  0.00000000  1
  Sb  Sb3  1  0.50000000  0.00000000  0.50000000  1
  Sb  Sb4  1  0.00000000  0.50000000  0.50000000  1
  Sb  Sb5  1  0.57353915  0.30330447  0.39018863  1
  P  P6  1  0.76403085  0.57994347  0.02861293  1
  P  P7  1  0.44540488  0.70258398  0.85389932  1
  P  P8  1  0.35955711  0.96116169  0.96618284  1
  Li  Li9  1  0.69087090  0.78630818  0.28066287  1
