# generated using pymatgen
data_LiMn3Sb4P3
_symmetry_space_group_name_H-M   'P 1'
_cell_length_a   7.14932711
_cell_length_b   7.40374677
_cell_length_c   7.29854914
_cell_angle_alpha   90.11381962
_cell_angle_beta   90.40294131
_cell_angle_gamma   90.30860400
_symmetry_Int_Tables_number   1
_chemical_formula_structural   LiMn3Sb4P3
_chemical_formula_sum   'Li1 Mn3 Sb4 P3'
_cell_volume   386.30944942
_cell_formula_units_Z   1
loop_
 _symmetry_equiv_pos_site_id
 _symmetry_equiv_pos_as_xyz
  1  'x, y, z'
loop_
 _atom_site_type_symbol
 _atom_site_label
 _atom_site_symmetry_multiplicity
 _atom_site_fract_x
 _atom_site_fract_y
 _atom_site_fract_z
 _atom_site_occupancy
  Mn  Mn0  1  0.12500000  0.00000000  0.25000000  1
  Mn  Mn1  1  0.00000000  0.00000000  0.00000000  1
  Mn  Mn2  1  0.37500000  0.00000000  0.25000000  1
  Sb  Sb3  1  0.25000000  0.25000000  0.25000000  1
  Sb  Sb4  1  0.00000000  0.25000000  0.12500000  1
  Sb  Sb5  1  0.96018791  0.76493878  0.91990358  1
  Sb  Sb6  1  0.29779974  0.27959882  0.17811380  1
  P  P7  1  0.17880978  0.99552355  0.31241759  1
  P  P8  1  0.17463716  0.82513917  0.36361269  1
  P  P9  1  0.78083951  0.30190457  0.33367183  1
  Li  Li10  1  0.51501009  0.16784857  0.94027056  1
