# generated using pymatgen
data_Li2Zr2Ti2Se
_symmetry_space_group_name_H-M   'P 1'
_cell_length_a   7.05401246
_cell_length_b   6.61133474
_cell_length_c   8.91312335
_cell_angle_alpha   101.07267471
_cell_angle_beta   103.20603689
_cell_angle_gamma   100.20442947
_symmetry_Int_Tables_number   1
_chemical_formula_structural   Li2Zr2Ti2Se
_chemical_formula_sum   'Li2 Zr2 Ti2 Se1'
_cell_volume   386.37608071
_cell_formula_units_Z   1
loop_
 _symmetry_equiv_pos_site_id
 _symmetry_equiv_pos_as_xyz
  1  'x, y, z'
loop_
 _atom_site_type_symbol
 _atom_site_label
 _atom_site_symmetry_multiplicity
 _atom_site_fract_x
 _atom_site_fract_y
 _atom_site_fract_z
 _atom_site_occupancy
  Li  Li0  1  0.00000000  0.00000000  0.00000000  1
  Li  Li1  1  0.50000000  0.50000000  0.50000000  1
  Se  Se2  1  0.50000000  0.50000000  0.00000000  1
  Ti  Ti3  1  0.50000000  0.00000000  0.50000000  1
  Ti  Ti4  1  0.00000000  0.50000000  0.50000000  1
  Zr  Zr5  1  0.40259751  0.00119282  0.01307461  1
  Zr  Zr6  1  0.98560159  0.90210405  0.31114430  1
