# generated using pymatgen
data_Li2MnSb4P3
_symmetry_space_group_name_H-M   'P 1'
_cell_length_a   6.79832009
_cell_length_b   7.25845669
_cell_length_c   7.40720481
_cell_angle_alpha   92.56086092
_cell_angle_beta   92.18206275
_cell_angle_gamma   92.79599104
_symmetry_Int_Tables_number   1
_chemical_formula_structural   Li2MnSb4P3
_chemical_formula_sum   'Li2 Mn1 Sb4 P3'
_cell_volume   364.41420710
_cell_formula_units_Z   1
loop_
 _symmetry_equiv_pos_site_id
 _symmetry_equiv_pos_as_xyz
  1  'x, y, z'
loop_
 _atom_site_type_symbol
 _atom_site_label
 _atom_site_symmetry_multiplicity
 _atom_site_fract_x
 _atom_site_fract_y
 _atom_site_fract_z
 _atom_site_occupancy
  Mn  Mn0  1  0.00000000  0.00000000  0.00000000  1
  Sb  Sb1  1  0.50000000  0.50000000  0.50000000  1
  Sb  Sb2  1  0.50000000  0.50000000  0.00000000  1
  Sb  Sb3  1  0.50000000  0.00000000  0.50000000  1
  Sb  Sb4  1  0.00000000  0.50000000  0.50000000  1
  P  P5  1  0.03555500  0.44125580  0.52344818  1
  P  P6  1  0.79286960  0.33153115  0.25282582  1
  P  P7  1  0.52550912  0.91460209  0.41237493  1
  Li  Li8  1  0.13571828  0.94006449  0.12295942  1
  Li  Li9  1  0.07282769  0.66490623  0.24471507  1
