# generated using pymatgen
data_Li2La3Ti2S3F2
_symmetry_space_group_name_H-M   'P 1'
_cell_length_a   8.04998732
_cell_length_b   7.62029179
_cell_length_c   9.34446636
_cell_angle_alpha   94.25839224
_cell_angle_beta   93.58831631
_cell_angle_gamma   94.93136344
_symmetry_Int_Tables_number   1
_chemical_formula_structural   Li2La3Ti2S3F2
_chemical_formula_sum   'Li2 La3 Ti2 S3 F2'
_cell_volume   568.14762309
_cell_formula_units_Z   1
loop_
 _symmetry_equiv_pos_site_id
 _symmetry_equiv_pos_as_xyz
  1  'x, y, z'
loop_
 _atom_site_type_symbol
 _atom_site_label
 _atom_site_symmetry_multiplicity
 _atom_site_fract_x
 _atom_site_fract_y
 _atom_site_fract_z
 _atom_site_occupancy
  Li  Li0  1  0.12500000  0.00000000  0.25000000  1
  Li  Li1  1  0.00000000  0.00000000  0.00000000  1
  F  F2  1  0.37500000  0.00000000  0.25000000  1
  F  F3  1  0.25000000  0.25000000  0.25000000  1
  La  La4  1  0.00000000  0.25000000  0.12500000  1
  La  La5  1  0.59233178  0.36573796  0.03724489  1
  La  La6  1  0.10062898  0.30967537  0.72716951  1
  S  S7  1  0.68817320  0.66202256  0.01313221  1
  S  S8  1  0.52565521  0.21621017  0.58260442  1
  S  S9  1  0.26558056  0.53593266  0.58173187  1
  Ti  Ti10  1  0.27846690  0.31024569  0.38796368  1
  Ti  Ti11  1  0.65204694  0.42298749  0.83057523  1
