# generated using pymatgen
data_Li4LuVP4N5
_symmetry_space_group_name_H-M   'P 1'
_cell_length_a   5.75505057
_cell_length_b   4.92309317
_cell_length_c   7.38220853
_cell_angle_alpha   100.15459724
_cell_angle_beta   93.59007653
_cell_angle_gamma   101.77810351
_symmetry_Int_Tables_number   1
_chemical_formula_structural   Li4LuVP4N5
_chemical_formula_sum   'Li4 Lu1 V1 P4 N5'
_cell_volume   200.48848124
_cell_formula_units_Z   1
loop_
 _symmetry_equiv_pos_site_id
 _symmetry_equiv_pos_as_xyz
  1  'x, y, z'
loop_
 _atom_site_type_symbol
 _atom_site_label
 _atom_site_symmetry_multiplicity
 _atom_site_fract_x
 _atom_site_fract_y
 _atom_site_fract_z
 _atom_site_occupancy
  P  P0  1  0.00000000  0.00000000  0.00000000  1
  P  P1  1  0.50000000  0.50000000  0.50000000  1
  P  P2  1  0.50000000  0.50000000  0.00000000  1
  P  P3  1  0.50000000  0.00000000  0.50000000  1
  Lu  Lu4  1  0.00000000  0.50000000  0.50000000  1
  Li  Li5  1  0.87612462  0.72565033  0.73191907  1
  Li  Li6  1  0.31718531  0.28379545  0.47039757  1
  Li  Li7  1  0.35493218  0.46280148  0.21153363  1
  Li  Li8  1  0.20905008  0.07921427  0.73311834  1
  V  V9  1  0.34211338  0.32644842  0.41436512  1
  N  N10  1  0.29320114  0.17990034  0.06955640  1
  N  N11  1  0.55194389  0.99528775  0.00478650  1
  N  N12  1  0.38002682  0.97943889  0.76405348  1
  N  N13  1  0.43924374  0.59091610  0.84935415  1
  N  N14  1  0.30334543  0.76940159  0.55370666  1
