# generated using pymatgen
data_LiSb2MoP2
_symmetry_space_group_name_H-M   'P 1'
_cell_length_a   4.92044311
_cell_length_b   5.29203327
_cell_length_c   6.94018460
_cell_angle_alpha   97.88696801
_cell_angle_beta   97.03125773
_cell_angle_gamma   98.65442373
_symmetry_Int_Tables_number   1
_chemical_formula_structural   LiSb2MoP2
_chemical_formula_sum   'Li2 Sb4 Mo2 P4'
_cell_volume   175.07025190
_cell_formula_units_Z   2
loop_
 _symmetry_equiv_pos_site_id
 _symmetry_equiv_pos_as_xyz
  1  'x, y, z'
loop_
 _atom_site_type_symbol
 _atom_site_label
 _atom_site_symmetry_multiplicity
 _atom_site_fract_x
 _atom_site_fract_y
 _atom_site_fract_z
 _atom_site_occupancy
  Sb  Sb0  1  0.00000000  0.00000000  0.00000000  1
  Sb  Sb1  1  0.33300000  0.66700000  0.25000000  1
  Sb  Sb2  1  0.66700000  0.33300000  0.50000000  1
  Sb  Sb3  1  0.00000000  0.00000000  0.75000000  1
  P  P4  1  0.75777709  0.07103671  0.46019904  1
  P  P5  1  0.23028726  0.12632285  0.22973640  1
  P  P6  1  0.46573848  0.18742656  0.80149413  1
  P  P7  1  0.29817537  0.86752341  0.68672897  1
  Mo  Mo8  1  0.39876642  0.65283756  0.67235299  1
  Mo  Mo9  1  0.62742596  0.56321974  0.99800278  1
  Li  Li10  1  0.74272841  0.02932409  0.79293444  1
  Li  Li11  1  0.94098103  0.18309114  0.33039083  1
