# generated using pymatgen
data_LiMn2Sb4P3
_symmetry_space_group_name_H-M   'P 1'
_cell_length_a   6.00071479
_cell_length_b   6.40262980
_cell_length_c   6.76882084
_cell_angle_alpha   91.93244207
_cell_angle_beta   92.34691246
_cell_angle_gamma   92.29635204
_symmetry_Int_Tables_number   1
_chemical_formula_structural   LiMn2Sb4P3
_chemical_formula_sum   'Li1 Mn2 Sb4 P3'
_cell_volume   259.47078031
_cell_formula_units_Z   1
loop_
 _symmetry_equiv_pos_site_id
 _symmetry_equiv_pos_as_xyz
  1  'x, y, z'
loop_
 _atom_site_type_symbol
 _atom_site_label
 _atom_site_symmetry_multiplicity
 _atom_site_fract_x
 _atom_site_fract_y
 _atom_site_fract_z
 _atom_site_occupancy
  Mn  Mn0  1  0.00000000  0.00000000  0.00000000  1
  Mn  Mn1  1  0.33300000  0.66700000  0.25000000  1
  Sb  Sb2  1  0.66700000  0.33300000  0.50000000  1
  Sb  Sb3  1  0.00000000  0.00000000  0.75000000  1
  Sb  Sb4  1  0.76265737  0.62153153  0.49902500  1
  Sb  Sb5  1  0.04964283  0.05140930  0.18777208  1
  P  P6  1  0.34647224  0.74105854  0.06204041  1
  P  P7  1  0.73117609  0.18260278  0.29208571  1
  P  P8  1  0.35576511  0.47659148  0.17731914  1
  Li  Li9  1  0.77447697  0.05200931  0.20301253  1
