# generated using pymatgen
data_Li2MnSb4P3
_symmetry_space_group_name_H-M   'P 1'
_cell_length_a   6.60984220
_cell_length_b   6.86895303
_cell_length_c   7.50075867
_cell_angle_alpha   92.98601619
_cell_angle_beta   93.53721208
_cell_angle_gamma   93.39845510
_symmetry_Int_Tables_number   1
_chemical_formula_structural   Li2MnSb4P3
_chemical_formula_sum   'Li2 Mn1 Sb4 P3'
_cell_volume   338.77655074
_cell_formula_units_Z   1
loop_
 _symmetry_equiv_pos_site_id
 _symmetry_equiv_pos_as_xyz
  1  'x, y, z'
loop_
 _atom_site_type_symbol
 _atom_site_label
 _atom_site_symmetry_multiplicity
 _atom_site_fract_x
 _atom_site_fract_y
 _atom_site_fract_z
 _atom_site_occupancy
  Mn  Mn0  1  0.00000000  0.00000000  0.00000000  1
  Sb  Sb1  1  0.50000000  0.50000000  0.50000000  1
  Sb  Sb2  1  0.50000000  0.50000000  0.00000000  1
  Sb  Sb3  1  0.50000000  0.00000000  0.50000000  1
  Sb  Sb4  1  0.00000000  0.50000000  0.50000000  1
  P  P5  1  0.51636346  0.93297022  0.63205027  1
  P  P6  1  0.68554231  0.98007679  0.14217582  1
  P  P7  1  0.72214472  0.17511035  0.04336221  1
  Li  Li8  1  0.78482175  0.10519033  0.41151778  1
  Li  Li9  1  0.85167857  0.10995533  0.60597711  1
