# generated using pymatgen
data_Li3TiNi2I4O5
_symmetry_space_group_name_H-M   'P 1'
_cell_length_a   8.61744612
_cell_length_b   8.48725010
_cell_length_c   8.33204345
_cell_angle_alpha   90.00000000
_cell_angle_beta   90.00000000
_cell_angle_gamma   90.00000000
_symmetry_Int_Tables_number   1
_chemical_formula_structural   Li3TiNi2I4O5
_chemical_formula_sum   'Li3 Ti1 Ni2 I4 O5'
_cell_volume   609.39249670
_cell_formula_units_Z   1
loop_
 _symmetry_equiv_pos_site_id
 _symmetry_equiv_pos_as_xyz
  1  'x, y, z'
loop_
 _atom_site_type_symbol
 _atom_site_label
 _atom_site_symmetry_multiplicity
 _atom_site_fract_x
 _atom_site_fract_y
 _atom_site_fract_z
 _atom_site_occupancy
  I  I0  1  0.00000000  0.00000000  0.00000000  1
  I  I1  1  0.50000000  0.50000000  0.50000000  1
  I  I2  1  0.50000000  0.50000000  0.00000000  1
  I  I3  1  0.50000000  0.00000000  0.50000000  1
  Li  Li4  1  0.00000000  0.50000000  0.50000000  1
  Li  Li5  1  0.90450224  0.16486167  0.16327650  1
  Li  Li6  1  0.38016014  0.91826939  0.08621452  1
  Ni  Ni7  1  0.60561809  0.70178406  0.43888059  1
  Ni  Ni8  1  0.23827182  0.88470779  0.15873369  1
  Ti  Ti9  1  0.76805768  0.50854322  0.42301193  1
  O  O10  1  0.85919810  0.29520869  0.41664957  1
  O  O11  1  0.22806455  0.49505973  0.83048922  1
  O  O12  1  0.09729031  0.13249396  0.88415496  1
  O  O13  1  0.26748904  0.04865011  0.79888645  1
  O  O14  1  0.18768334  0.31009121  0.36863101  1
