# generated using pymatgen
data_Li2Mn2SbMo2P3
_symmetry_space_group_name_H-M   'P 1'
_cell_length_a   4.29309135
_cell_length_b   4.45007399
_cell_length_c   5.86305195
_cell_angle_alpha   103.42492882
_cell_angle_beta   91.78422354
_cell_angle_gamma   103.19368544
_symmetry_Int_Tables_number   1
_chemical_formula_structural   Li2Mn2SbMo2P3
_chemical_formula_sum   'Li2 Mn2 Sb1 Mo2 P3'
_cell_volume   105.65516977
_cell_formula_units_Z   1
loop_
 _symmetry_equiv_pos_site_id
 _symmetry_equiv_pos_as_xyz
  1  'x, y, z'
loop_
 _atom_site_type_symbol
 _atom_site_label
 _atom_site_symmetry_multiplicity
 _atom_site_fract_x
 _atom_site_fract_y
 _atom_site_fract_z
 _atom_site_occupancy
  Mn  Mn0  1  0.00000000  0.00000000  0.00000000  1
  Mn  Mn1  1  0.50000000  0.50000000  0.50000000  1
  Sb  Sb2  1  0.50000000  0.50000000  0.00000000  1
  P  P3  1  0.50000000  0.00000000  0.50000000  1
  P  P4  1  0.00000000  0.50000000  0.50000000  1
  P  P5  1  0.75554830  0.46630295  0.00258945  1
  Mo  Mo6  1  0.95246217  0.69566294  0.54655651  1
  Mo  Mo7  1  0.55418521  0.80515553  0.75581938  1
  Li  Li8  1  0.54660484  0.02555355  0.72587661  1
  Li  Li9  1  0.06731973  0.70204758  0.60041300  1
