# generated using pymatgen
data_LiMnSbMoP
_symmetry_space_group_name_H-M   'P 1'
_cell_length_a   5.05925975
_cell_length_b   5.36053345
_cell_length_c   6.24054242
_cell_angle_alpha   100.34614969
_cell_angle_beta   92.79384469
_cell_angle_gamma   99.37732392
_symmetry_Int_Tables_number   1
_chemical_formula_structural   LiMnSbMoP
_chemical_formula_sum   'Li2 Mn2 Sb2 Mo2 P2'
_cell_volume   163.73749231
_cell_formula_units_Z   2
loop_
 _symmetry_equiv_pos_site_id
 _symmetry_equiv_pos_as_xyz
  1  'x, y, z'
loop_
 _atom_site_type_symbol
 _atom_site_label
 _atom_site_symmetry_multiplicity
 _atom_site_fract_x
 _atom_site_fract_y
 _atom_site_fract_z
 _atom_site_occupancy
  Mn  Mn0  1  0.00000000  0.00000000  0.00000000  1
  Mn  Mn1  1  0.50000000  0.50000000  0.50000000  1
  Sb  Sb2  1  0.50000000  0.50000000  0.00000000  1
  Sb  Sb3  1  0.50000000  0.00000000  0.50000000  1
  P  P4  1  0.00000000  0.50000000  0.50000000  1
  P  P5  1  0.27915502  0.28633472  0.98892087  1
  Mo  Mo6  1  0.07126995  0.20232358  0.70274205  1
  Mo  Mo7  1  0.87457397  0.38183365  0.39824392  1
  Li  Li8  1  0.45047738  0.05399178  0.17732081  1
  Li  Li9  1  0.24984680  0.14932633  0.58142233  1
