# generated using pymatgen
data_Li5LuZrVN5
_symmetry_space_group_name_H-M   'P 1'
_cell_length_a   4.33988600
_cell_length_b   3.71328531
_cell_length_c   6.94190300
_cell_angle_alpha   105.24662432
_cell_angle_beta   104.96999569
_cell_angle_gamma   104.96383751
_symmetry_Int_Tables_number   1
_chemical_formula_structural   Li5LuZrVN5
_chemical_formula_sum   'Li5 Lu1 Zr1 V1 N5'
_cell_volume   97.67807455
_cell_formula_units_Z   1
loop_
 _symmetry_equiv_pos_site_id
 _symmetry_equiv_pos_as_xyz
  1  'x, y, z'
loop_
 _atom_site_type_symbol
 _atom_site_label
 _atom_site_symmetry_multiplicity
 _atom_site_fract_x
 _atom_site_fract_y
 _atom_site_fract_z
 _atom_site_occupancy
  Lu  Lu0  1  0.00000000  0.00000000  0.00000000  1
  Li  Li1  1  0.50000000  0.50000000  0.50000000  1
  Li  Li2  1  0.50000000  0.50000000  0.00000000  1
  Li  Li3  1  0.50000000  0.00000000  0.50000000  1
  Li  Li4  1  0.00000000  0.50000000  0.50000000  1
  Li  Li5  1  0.31888752  0.24223821  0.62201789  1
  V  V6  1  0.32654527  0.80721173  0.25922839  1
  N  N7  1  0.00135621  0.30454923  0.68606757  1
  N  N8  1  0.90182335  0.34186214  0.43701094  1
  N  N9  1  0.28085510  0.44486198  0.43780555  1
  N  N10  1  0.81613462  0.77819058  0.08271106  1
  N  N11  1  0.15536630  0.74717298  0.42551326  1
  Zr  Zr12  1  0.06155097  0.86959816  0.53148622  1
