# generated using pymatgen
data_Li2Mn2Sb4P3
_symmetry_space_group_name_H-M   'P 1'
_cell_length_a   7.68465315
_cell_length_b   7.77533714
_cell_length_c   7.79447567
_cell_angle_alpha   90.55721174
_cell_angle_beta   90.66006880
_cell_angle_gamma   90.63417576
_symmetry_Int_Tables_number   1
_chemical_formula_structural   Li2Mn2Sb4P3
_chemical_formula_sum   'Li2 Mn2 Sb4 P3'
_cell_volume   465.64387660
_cell_formula_units_Z   1
loop_
 _symmetry_equiv_pos_site_id
 _symmetry_equiv_pos_as_xyz
  1  'x, y, z'
loop_
 _atom_site_type_symbol
 _atom_site_label
 _atom_site_symmetry_multiplicity
 _atom_site_fract_x
 _atom_site_fract_y
 _atom_site_fract_z
 _atom_site_occupancy
  Mn  Mn0  1  0.00000000  0.00000000  0.00000000  1
  Mn  Mn1  1  0.50000000  0.50000000  0.50000000  1
  Sb  Sb2  1  0.25000000  0.25000000  0.25000000  1
  Sb  Sb3  1  0.75000000  0.25000000  0.00000000  1
  Sb  Sb4  1  0.25000000  0.75000000  0.50000000  1
  Sb  Sb5  1  0.50582343  0.87940856  0.55803487  1
  P  P6  1  0.79042889  0.12771413  0.20903870  1
  P  P7  1  0.24779654  0.89816383  0.24328480  1
  P  P8  1  0.95858667  0.62794347  0.67131802  1
  Li  Li9  1  0.78583558  0.30536988  0.46675861  1
  Li  Li10  1  0.58888563  0.09424353  0.78814417  1
