# generated using pymatgen
data_Li3Ti2I4O3
_symmetry_space_group_name_H-M   'P 1'
_cell_length_a   7.87150600
_cell_length_b   7.73645661
_cell_length_c   7.60511626
_cell_angle_alpha   93.60214159
_cell_angle_beta   95.60298170
_cell_angle_gamma   93.93875208
_symmetry_Int_Tables_number   1
_chemical_formula_structural   Li3Ti2I4O3
_chemical_formula_sum   'Li3 Ti2 I4 O3'
_cell_volume   458.70263068
_cell_formula_units_Z   1
loop_
 _symmetry_equiv_pos_site_id
 _symmetry_equiv_pos_as_xyz
  1  'x, y, z'
loop_
 _atom_site_type_symbol
 _atom_site_label
 _atom_site_symmetry_multiplicity
 _atom_site_fract_x
 _atom_site_fract_y
 _atom_site_fract_z
 _atom_site_occupancy
  I  I0  1  0.00000000  0.00000000  0.00000000  1
  I  I1  1  0.33300000  0.66700000  0.25000000  1
  I  I2  1  0.66700000  0.33300000  0.50000000  1
  I  I3  1  0.00000000  0.00000000  0.75000000  1
  Li  Li4  1  0.73413635  0.54352377  0.33039277  1
  Li  Li5  1  0.24832163  0.93868425  0.90095042  1
  Li  Li6  1  0.27928031  0.36695077  0.80068036  1
  Ti  Ti7  1  0.78523202  0.02820767  0.88718081  1
  Ti  Ti8  1  0.82931378  0.85114689  0.62276413  1
  O  O9  1  0.88926840  0.93373188  0.28988838  1
  O  O10  1  0.21938637  0.77289433  0.29972548  1
  O  O11  1  0.82174146  0.92862972  0.16221840  1
