# generated using pymatgen
data_Li4Ni2As6P4O7
_symmetry_space_group_name_H-M   'P 1'
_cell_length_a   8.14175124
_cell_length_b   7.95242165
_cell_length_c   9.49638669
_cell_angle_alpha   90.68288747
_cell_angle_beta   90.24142939
_cell_angle_gamma   90.79206679
_symmetry_Int_Tables_number   1
_chemical_formula_structural   Li4Ni2As6P4O7
_chemical_formula_sum   'Li4 Ni2 As6 P4 O7'
_cell_volume   614.75080627
_cell_formula_units_Z   1
loop_
 _symmetry_equiv_pos_site_id
 _symmetry_equiv_pos_as_xyz
  1  'x, y, z'
loop_
 _atom_site_type_symbol
 _atom_site_label
 _atom_site_symmetry_multiplicity
 _atom_site_fract_x
 _atom_site_fract_y
 _atom_site_fract_z
 _atom_site_occupancy
  P  P0  1  0.12500000  0.00000000  0.25000000  1
  P  P1  1  0.00000000  0.00000000  0.00000000  1
  P  P2  1  0.37500000  0.00000000  0.25000000  1
  P  P3  1  0.25000000  0.25000000  0.25000000  1
  Li  Li4  1  0.00000000  0.25000000  0.12500000  1
  Li  Li5  1  0.32437755  0.70672753  0.15668504  1
  Li  Li6  1  0.35783386  0.54874929  0.22083138  1
  Li  Li7  1  0.26938069  0.65808575  0.58378242  1
  Ni  Ni8  1  0.94913713  0.72484105  0.01941838  1
  Ni  Ni9  1  0.18877792  0.49827865  0.71560121  1
  As  As10  1  0.29455759  0.75952341  0.70409621  1
  As  As11  1  0.32922367  0.46823964  0.36219277  1
  As  As12  1  0.69780479  0.55548461  0.16552324  1
  As  As13  1  0.72826795  0.25140744  0.07418791  1
  As  As14  1  0.60948529  0.54436284  0.60291650  1
  As  As15  1  0.98857267  0.28665863  0.83183411  1
  O  O16  1  0.89482017  0.62937893  0.69109139  1
  O  O17  1  0.10127758  0.67210644  0.46695000  1
  O  O18  1  0.14497477  0.42611954  0.21746700  1
  O  O19  1  0.32155202  0.54689457  0.64899360  1
  O  O20  1  0.12074966  0.06556545  0.49862424  1
  O  O21  1  0.53654957  0.15075836  0.90313124  1
  O  O22  1  0.79950909  0.04519206  0.30899588  1
