# generated using pymatgen
data_Li2Mn3Sb4P3
_symmetry_space_group_name_H-M   'P 1'
_cell_length_a   7.77159045
_cell_length_b   8.10827349
_cell_length_c   7.71984858
_cell_angle_alpha   90.00000000
_cell_angle_beta   90.00000000
_cell_angle_gamma   90.00000000
_symmetry_Int_Tables_number   1
_chemical_formula_structural   Li2Mn3Sb4P3
_chemical_formula_sum   'Li2 Mn3 Sb4 P3'
_cell_volume   486.45993435
_cell_formula_units_Z   1
loop_
 _symmetry_equiv_pos_site_id
 _symmetry_equiv_pos_as_xyz
  1  'x, y, z'
loop_
 _atom_site_type_symbol
 _atom_site_label
 _atom_site_symmetry_multiplicity
 _atom_site_fract_x
 _atom_site_fract_y
 _atom_site_fract_z
 _atom_site_occupancy
  Mn  Mn0  1  0.12500000  0.00000000  0.25000000  1
  Mn  Mn1  1  0.00000000  0.00000000  0.00000000  1
  Mn  Mn2  1  0.37500000  0.00000000  0.25000000  1
  Sb  Sb3  1  0.25000000  0.25000000  0.25000000  1
  Sb  Sb4  1  0.00000000  0.25000000  0.12500000  1
  Sb  Sb5  1  0.38107839  0.99227548  0.42784516  1
  Sb  Sb6  1  0.64936153  0.01500865  0.56142363  1
  P  P7  1  0.28761022  0.34794612  0.27037784  1
  P  P8  1  0.28022723  0.34326256  0.27414748  1
  P  P9  1  0.11534287  0.46036768  0.23863863  1
  Li  Li10  1  0.50611040  0.15789333  0.20627692  1
  Li  Li11  1  0.93024374  0.62024328  0.42235205  1
