# generated using pymatgen
data_Li2MnSb4P3N
_symmetry_space_group_name_H-M   'P 1'
_cell_length_a   4.45076046
_cell_length_b   4.62528759
_cell_length_c   6.67691183
_cell_angle_alpha   99.05168260
_cell_angle_beta   98.47575503
_cell_angle_gamma   99.44241049
_symmetry_Int_Tables_number   1
_chemical_formula_structural   Li2MnSb4P3N
_chemical_formula_sum   'Li2 Mn1 Sb4 P3 N1'
_cell_volume   131.76704270
_cell_formula_units_Z   1
loop_
 _symmetry_equiv_pos_site_id
 _symmetry_equiv_pos_as_xyz
  1  'x, y, z'
loop_
 _atom_site_type_symbol
 _atom_site_label
 _atom_site_symmetry_multiplicity
 _atom_site_fract_x
 _atom_site_fract_y
 _atom_site_fract_z
 _atom_site_occupancy
  N  N0  1  0.00000000  0.00000000  0.00000000  1
  Mn  Mn1  1  0.50000000  0.50000000  0.50000000  1
  Sb  Sb2  1  0.25000000  0.25000000  0.25000000  1
  Sb  Sb3  1  0.75000000  0.25000000  0.00000000  1
  Sb  Sb4  1  0.25000000  0.75000000  0.50000000  1
  Sb  Sb5  1  0.73557211  0.01970942  0.55968603  1
  P  P6  1  0.34360855  0.07044651  0.16752625  1
  P  P7  1  0.29693169  0.54181057  0.88901001  1
  P  P8  1  0.96833788  0.39046573  0.49569322  1
  Li  Li9  1  0.68269198  0.50899715  0.14571800  1
  Li  Li10  1  0.67391665  0.16226668  0.26377476  1
