# generated using pymatgen
data_Li4Ti(SI2)2
_symmetry_space_group_name_H-M   'P 1'
_cell_length_a   4.99820524
_cell_length_b   4.60122732
_cell_length_c   6.90404976
_cell_angle_alpha   100.32328048
_cell_angle_beta   101.31464075
_cell_angle_gamma   99.28688524
_symmetry_Int_Tables_number   1
_chemical_formula_structural   Li4Ti(SI2)2
_chemical_formula_sum   'Li4 Ti1 S2 I4'
_cell_volume   149.95979313
_cell_formula_units_Z   1
loop_
 _symmetry_equiv_pos_site_id
 _symmetry_equiv_pos_as_xyz
  1  'x, y, z'
loop_
 _atom_site_type_symbol
 _atom_site_label
 _atom_site_symmetry_multiplicity
 _atom_site_fract_x
 _atom_site_fract_y
 _atom_site_fract_z
 _atom_site_occupancy
  S  S0  1  0.00000000  0.00000000  0.00000000  1
  S  S1  1  0.33300000  0.66700000  0.25000000  1
  Ti  Ti2  1  0.66700000  0.33300000  0.50000000  1
  I  I3  1  0.00000000  0.00000000  0.75000000  1
  I  I4  1  0.09919473  0.07256853  0.51823207  1
  I  I5  1  0.08855477  0.65191392  0.34404322  1
  I  I6  1  0.40666931  0.50390246  0.41259349  1
  Li  Li7  1  0.31541551  0.25295434  0.71836446  1
  Li  Li8  1  0.40359282  0.45774310  0.29956077  1
  Li  Li9  1  0.10935390  0.99200852  0.81591691  1
  Li  Li10  1  0.27252527  0.02899828  0.43701494  1
