# generated using pymatgen
data_Li2Ti2P3N6O
_symmetry_space_group_name_H-M   'P 1'
_cell_length_a   7.70693827
_cell_length_b   7.11010799
_cell_length_c   7.21600916
_cell_angle_alpha   90.30997090
_cell_angle_beta   91.47474740
_cell_angle_gamma   90.35437951
_symmetry_Int_Tables_number   1
_chemical_formula_structural   Li2Ti2P3N6O
_chemical_formula_sum   'Li2 Ti2 P3 N6 O1'
_cell_volume   395.27216143
_cell_formula_units_Z   1
loop_
 _symmetry_equiv_pos_site_id
 _symmetry_equiv_pos_as_xyz
  1  'x, y, z'
loop_
 _atom_site_type_symbol
 _atom_site_label
 _atom_site_symmetry_multiplicity
 _atom_site_fract_x
 _atom_site_fract_y
 _atom_site_fract_z
 _atom_site_occupancy
  P  P0  1  0.12500000  0.00000000  0.25000000  1
  P  P1  1  0.00000000  0.00000000  0.00000000  1
  P  P2  1  0.37500000  0.00000000  0.25000000  1
  Li  Li3  1  0.25000000  0.25000000  0.25000000  1
  Li  Li4  1  0.00000000  0.25000000  0.12500000  1
  Ti  Ti5  1  0.41744305  0.31708897  0.06853477  1
  Ti  Ti6  1  0.90300363  0.81748296  0.59426185  1
  O  O7  1  0.48835943  0.77192235  0.22137832  1
  N  N8  1  0.94808965  0.53379490  0.23394535  1
  N  N9  1  0.99685865  0.15637561  0.94083671  1
  N  N10  1  0.83672947  0.03599595  0.04565484  1
  N  N11  1  0.72244125  0.61239108  0.01744264  1
  N  N12  1  0.33997631  0.77941331  0.79376119  1
  N  N13  1  0.94419487  0.71294315  0.05589247  1
