# generated using pymatgen
data_Li4LuNi2P4N5
_symmetry_space_group_name_H-M   'P 1'
_cell_length_a   7.43249497
_cell_length_b   7.05219556
_cell_length_c   8.86811598
_cell_angle_alpha   93.49759716
_cell_angle_beta   91.23654746
_cell_angle_gamma   94.05678930
_symmetry_Int_Tables_number   1
_chemical_formula_structural   Li4LuNi2P4N5
_chemical_formula_sum   'Li4 Lu1 Ni2 P4 N5'
_cell_volume   462.64105756
_cell_formula_units_Z   1
loop_
 _symmetry_equiv_pos_site_id
 _symmetry_equiv_pos_as_xyz
  1  'x, y, z'
loop_
 _atom_site_type_symbol
 _atom_site_label
 _atom_site_symmetry_multiplicity
 _atom_site_fract_x
 _atom_site_fract_y
 _atom_site_fract_z
 _atom_site_occupancy
  P  P0  1  0.00000000  0.00000000  0.00000000  1
  P  P1  1  0.50000000  0.50000000  0.50000000  1
  P  P2  1  0.50000000  0.50000000  0.00000000  1
  P  P3  1  0.50000000  0.00000000  0.50000000  1
  Lu  Lu4  1  0.00000000  0.50000000  0.50000000  1
  Li  Li5  1  0.60059589  0.69753197  0.30905620  1
  Li  Li6  1  0.11829334  0.39249791  0.36892406  1
  Li  Li7  1  0.42651513  0.85940122  0.16989833  1
  Li  Li8  1  0.90079751  0.24462809  0.51818794  1
  Ni  Ni9  1  0.11091563  0.24262012  0.09475974  1
  Ni  Ni10  1  0.09729151  0.23554427  0.54304426  1
  N  N11  1  0.40051868  0.79088046  0.31060608  1
  N  N12  1  0.22473242  0.96840638  0.04625520  1
  N  N13  1  0.25442915  0.01763331  0.06455163  1
  N  N14  1  0.54013028  0.55366347  0.74468809  1
  N  N15  1  0.56118689  0.20189981  0.95798575  1
