# generated using pymatgen
data_Li2Ti2P5I4O3
_symmetry_space_group_name_H-M   'P 1'
_cell_length_a   8.10022397
_cell_length_b   7.88814047
_cell_length_c   7.73757100
_cell_angle_alpha   92.13090692
_cell_angle_beta   93.54873715
_cell_angle_gamma   92.33367810
_symmetry_Int_Tables_number   1
_chemical_formula_structural   Li2Ti2P5I4O3
_chemical_formula_sum   'Li2 Ti2 P5 I4 O3'
_cell_volume   492.64939904
_cell_formula_units_Z   1
loop_
 _symmetry_equiv_pos_site_id
 _symmetry_equiv_pos_as_xyz
  1  'x, y, z'
loop_
 _atom_site_type_symbol
 _atom_site_label
 _atom_site_symmetry_multiplicity
 _atom_site_fract_x
 _atom_site_fract_y
 _atom_site_fract_z
 _atom_site_occupancy
  P  P0  1  0.00000000  0.00000000  0.00000000  1
  P  P1  1  0.50000000  0.50000000  0.50000000  1
  P  P2  1  0.25000000  0.25000000  0.25000000  1
  P  P3  1  0.75000000  0.25000000  0.00000000  1
  P  P4  1  0.25000000  0.75000000  0.50000000  1
  I  I5  1  0.47588182  0.30743647  0.91666525  1
  I  I6  1  0.31528889  0.06661571  0.44046314  1
  I  I7  1  0.58834908  0.05724982  0.95981672  1
  I  I8  1  0.60721244  0.26857835  0.91461508  1
  Li  Li9  1  0.52823014  0.96903100  0.91016583  1
  Li  Li10  1  0.44355960  0.83731957  0.99113451  1
  Ti  Ti11  1  0.72102947  0.96578505  0.92670913  1
  Ti  Ti12  1  0.96460858  0.38185066  0.18362381  1
  O  O13  1  0.44741669  0.39992980  0.70469308  1
  O  O14  1  0.11141519  0.77062926  0.21570353  1
  O  O15  1  0.09908176  0.06552911  0.68809715  1
