# generated using pymatgen
data_Li2TiTe6O3F2
_symmetry_space_group_name_H-M   'P 1'
_cell_length_a   8.53562717
_cell_length_b   8.51071678
_cell_length_c   7.54907750
_cell_angle_alpha   90.06458929
_cell_angle_beta   90.30729622
_cell_angle_gamma   90.07384280
_symmetry_Int_Tables_number   1
_chemical_formula_structural   Li2TiTe6O3F2
_chemical_formula_sum   'Li2 Ti1 Te6 O3 F2'
_cell_volume   548.38879605
_cell_formula_units_Z   1
loop_
 _symmetry_equiv_pos_site_id
 _symmetry_equiv_pos_as_xyz
  1  'x, y, z'
loop_
 _atom_site_type_symbol
 _atom_site_label
 _atom_site_symmetry_multiplicity
 _atom_site_fract_x
 _atom_site_fract_y
 _atom_site_fract_z
 _atom_site_occupancy
  Li  Li0  1  0.00000000  0.00000000  0.00000000  1
  Li  Li1  1  0.50000000  0.50000000  0.50000000  1
  F  F2  1  0.50000000  0.50000000  0.00000000  1
  F  F3  1  0.50000000  0.00000000  0.50000000  1
  Te  Te4  1  0.00000000  0.50000000  0.50000000  1
  Te  Te5  1  0.94487017  0.80189770  0.55723203  1
  Te  Te6  1  0.04328323  0.08022974  0.41309320  1
  Te  Te7  1  0.18067244  0.05486829  0.79603991  1
  Te  Te8  1  0.10478569  0.98818055  0.87909163  1
  Te  Te9  1  0.53254434  0.10503087  0.93506565  1
  Ti  Ti10  1  0.91468811  0.92663632  0.99074517  1
  O  O11  1  0.61207077  0.12836151  0.73446794  1
  O  O12  1  0.04139229  0.96623713  0.28523769  1
  O  O13  1  0.28091545  0.63180044  0.04203633  1
