# generated using pymatgen
data_Li3P8(I2Cl)2
_symmetry_space_group_name_H-M   'P 1'
_cell_length_a   5.57614302
_cell_length_b   5.20737424
_cell_length_c   7.12275854
_cell_angle_alpha   104.09358554
_cell_angle_beta   107.99427176
_cell_angle_gamma   103.25805977
_symmetry_Int_Tables_number   1
_chemical_formula_structural   Li3P8(I2Cl)2
_chemical_formula_sum   'Li3 P8 I4 Cl2'
_cell_volume   180.08808982
_cell_formula_units_Z   1
loop_
 _symmetry_equiv_pos_site_id
 _symmetry_equiv_pos_as_xyz
  1  'x, y, z'
loop_
 _atom_site_type_symbol
 _atom_site_label
 _atom_site_symmetry_multiplicity
 _atom_site_fract_x
 _atom_site_fract_y
 _atom_site_fract_z
 _atom_site_occupancy
  Cl  Cl0  1  0.00000000  0.00000000  0.00000000  1
  Cl  Cl1  1  0.50000000  0.50000000  0.50000000  1
  I  I2  1  0.50000000  0.50000000  0.00000000  1
  I  I3  1  0.50000000  0.00000000  0.50000000  1
  I  I4  1  0.00000000  0.50000000  0.50000000  1
  I  I5  1  0.90581101  0.45935474  0.19918726  1
  P  P6  1  0.70929098  0.09730437  0.80394848  1
  P  P7  1  0.27364908  0.88322423  0.87285016  1
  P  P8  1  0.52924872  0.58593261  0.62219451  1
  P  P9  1  0.14088120  0.12695063  0.29419082  1
  P  P10  1  0.94191468  0.03485768  0.31168785  1
  P  P11  1  0.51780335  0.28893632  0.85702194  1
  P  P12  1  0.76685451  0.52568216  0.38576751  1
  P  P13  1  0.43531538  0.15196783  0.38993735  1
  Li  Li14  1  0.84984424  0.62262989  0.98911082  1
  Li  Li15  1  0.26907138  0.56678530  0.90037211  1
  Li  Li16  1  0.27177311  0.36977521  0.01814048  1
