# generated using pymatgen
data_Li2MnSb4Mo2P3
_symmetry_space_group_name_H-M   'P 1'
_cell_length_a   4.21446560
_cell_length_b   4.46164871
_cell_length_c   6.48291515
_cell_angle_alpha   101.77622671
_cell_angle_beta   96.42184202
_cell_angle_gamma   102.35439742
_symmetry_Int_Tables_number   1
_chemical_formula_structural   Li2MnSb4Mo2P3
_chemical_formula_sum   'Li2 Mn1 Sb4 Mo2 P3'
_cell_volume   115.02025025
_cell_formula_units_Z   1
loop_
 _symmetry_equiv_pos_site_id
 _symmetry_equiv_pos_as_xyz
  1  'x, y, z'
loop_
 _atom_site_type_symbol
 _atom_site_label
 _atom_site_symmetry_multiplicity
 _atom_site_fract_x
 _atom_site_fract_y
 _atom_site_fract_z
 _atom_site_occupancy
  Mn  Mn0  1  0.12500000  0.00000000  0.25000000  1
  Sb  Sb1  1  0.00000000  0.00000000  0.00000000  1
  Sb  Sb2  1  0.37500000  0.00000000  0.25000000  1
  Sb  Sb3  1  0.25000000  0.25000000  0.25000000  1
  Sb  Sb4  1  0.00000000  0.25000000  0.12500000  1
  P  P5  1  0.38588686  0.78634139  0.28829043  1
  P  P6  1  0.20707690  0.94497678  0.84497753  1
  P  P7  1  0.84882124  0.47410895  0.02147380  1
  Mo  Mo8  1  0.78711002  0.36533092  0.05178119  1
  Mo  Mo9  1  0.10664729  0.23776457  0.16826559  1
  Li  Li10  1  0.40356555  0.81846425  0.88218027  1
  Li  Li11  1  0.19380537  0.62098036  0.79244064  1
