# generated using pymatgen
data_Li2Sb3Mo2P3
_symmetry_space_group_name_H-M   'P 1'
_cell_length_a   5.09071361
_cell_length_b   5.25190432
_cell_length_c   6.45931808
_cell_angle_alpha   100.09481773
_cell_angle_beta   92.45386443
_cell_angle_gamma   100.10719181
_symmetry_Int_Tables_number   1
_chemical_formula_structural   Li2Sb3Mo2P3
_chemical_formula_sum   'Li2 Sb3 Mo2 P3'
_cell_volume   166.90094575
_cell_formula_units_Z   1
loop_
 _symmetry_equiv_pos_site_id
 _symmetry_equiv_pos_as_xyz
  1  'x, y, z'
loop_
 _atom_site_type_symbol
 _atom_site_label
 _atom_site_symmetry_multiplicity
 _atom_site_fract_x
 _atom_site_fract_y
 _atom_site_fract_z
 _atom_site_occupancy
  Sb  Sb0  1  0.00000000  0.00000000  0.00000000  1
  Sb  Sb1  1  0.50000000  0.50000000  0.50000000  1
  Sb  Sb2  1  0.50000000  0.50000000  0.00000000  1
  P  P3  1  0.50000000  0.00000000  0.50000000  1
  P  P4  1  0.00000000  0.50000000  0.50000000  1
  P  P5  1  0.39840505  0.48687442  0.65702029  1
  Mo  Mo6  1  0.13099931  0.10615759  0.33706075  1
  Mo  Mo7  1  0.83613069  0.16970519  0.54166766  1
  Li  Li8  1  0.95913159  0.73730870  0.72707603  1
  Li  Li9  1  0.84168075  0.84678285  0.25574005  1
