# generated using pymatgen
data_Li3Ti2P3I5Cl2
_symmetry_space_group_name_H-M   'P 1'
_cell_length_a   7.28502748
_cell_length_b   6.93139571
_cell_length_c   8.48311005
_cell_angle_alpha   97.88602497
_cell_angle_beta   101.40421554
_cell_angle_gamma   97.30288978
_symmetry_Int_Tables_number   1
_chemical_formula_structural   Li3Ti2P3I5Cl2
_chemical_formula_sum   'Li3 Ti2 P3 I5 Cl2'
_cell_volume   410.64850345
_cell_formula_units_Z   1
loop_
 _symmetry_equiv_pos_site_id
 _symmetry_equiv_pos_as_xyz
  1  'x, y, z'
loop_
 _atom_site_type_symbol
 _atom_site_label
 _atom_site_symmetry_multiplicity
 _atom_site_fract_x
 _atom_site_fract_y
 _atom_site_fract_z
 _atom_site_occupancy
  P  P0  1  0.00000000  0.00000000  0.00000000  1
  P  P1  1  0.50000000  0.50000000  0.50000000  1
  P  P2  1  0.25000000  0.25000000  0.25000000  1
  I  I3  1  0.75000000  0.25000000  0.00000000  1
  I  I4  1  0.25000000  0.75000000  0.50000000  1
  I  I5  1  0.44271500  0.01087790  0.65721250  1
  I  I6  1  0.12415459  0.01559489  0.30561155  1
  I  I7  1  0.78156553  0.98788556  0.31469833  1
  Li  Li8  1  0.15926784  0.79197034  0.74019193  1
  Li  Li9  1  0.67274740  0.28647718  0.16517465  1
  Li  Li10  1  0.14562968  0.03721142  0.25911437  1
  Cl  Cl11  1  0.63791067  0.79751316  0.91277652  1
  Cl  Cl12  1  0.97301774  0.33524598  0.85641972  1
  Ti  Ti13  1  0.71157532  0.35239159  0.92160933  1
  Ti  Ti14  1  0.78296335  0.87827393  0.70984441  1
