# generated using pymatgen
data_Li3Ti2Ni2O5
_symmetry_space_group_name_H-M   'P 1'
_cell_length_a   6.72957407
_cell_length_b   6.60876755
_cell_length_c   8.10245904
_cell_angle_alpha   93.68757576
_cell_angle_beta   95.13272026
_cell_angle_gamma   93.38996600
_symmetry_Int_Tables_number   1
_chemical_formula_structural   Li3Ti2Ni2O5
_chemical_formula_sum   'Li3 Ti2 Ni2 O5'
_cell_volume   357.39826370
_cell_formula_units_Z   1
loop_
 _symmetry_equiv_pos_site_id
 _symmetry_equiv_pos_as_xyz
  1  'x, y, z'
loop_
 _atom_site_type_symbol
 _atom_site_label
 _atom_site_symmetry_multiplicity
 _atom_site_fract_x
 _atom_site_fract_y
 _atom_site_fract_z
 _atom_site_occupancy
  Li  Li0  1  0.12500000  0.12500000  0.12500000  1
  Li  Li1  1  0.50000000  0.50000000  0.50000000  1
  Li  Li2  1  0.25000000  0.25000000  0.25000000  1
  Ni  Ni3  1  0.75000000  0.75000000  0.75000000  1
  Ni  Ni4  1  0.84567693  0.07764111  0.15724732  1
  Ti  Ti5  1  0.84414037  0.82340067  0.55466387  1
  Ti  Ti6  1  0.51592399  0.69201140  0.52773397  1
  O  O7  1  0.47689445  0.53938530  0.52323576  1
  O  O8  1  0.88756034  0.40330897  0.96160633  1
  O  O9  1  0.97652270  0.88189153  0.49805778  1
  O  O10  1  0.33904890  0.20418478  0.12861986  1
  O  O11  1  0.76739825  0.33230895  0.31825457  1
