# generated using pymatgen
data_Li3TiI4Cl2O3
_symmetry_space_group_name_H-M   'P 1'
_cell_length_a   8.39523854
_cell_length_b   8.33042349
_cell_length_c   7.54094316
_cell_angle_alpha   92.29192866
_cell_angle_beta   93.56499987
_cell_angle_gamma   92.50610325
_symmetry_Int_Tables_number   1
_chemical_formula_structural   Li3TiI4Cl2O3
_chemical_formula_sum   'Li3 Ti1 I4 Cl2 O3'
_cell_volume   525.37599659
_cell_formula_units_Z   1
loop_
 _symmetry_equiv_pos_site_id
 _symmetry_equiv_pos_as_xyz
  1  'x, y, z'
loop_
 _atom_site_type_symbol
 _atom_site_label
 _atom_site_symmetry_multiplicity
 _atom_site_fract_x
 _atom_site_fract_y
 _atom_site_fract_z
 _atom_site_occupancy
  I  I0  1  0.00000000  0.00000000  0.00000000  1
  I  I1  1  0.50000000  0.50000000  0.50000000  1
  I  I2  1  0.25000000  0.25000000  0.25000000  1
  I  I3  1  0.75000000  0.25000000  0.00000000  1
  Li  Li4  1  0.25000000  0.75000000  0.50000000  1
  Li  Li5  1  0.18390550  0.16511163  0.02872910  1
  Li  Li6  1  0.45551739  0.48296673  0.46667556  1
  Cl  Cl7  1  0.50615998  0.18018910  0.94660181  1
  Cl  Cl8  1  0.56991436  0.63230554  0.90058618  1
  Ti  Ti9  1  0.01148213  0.00578657  0.35130469  1
  O  O10  1  0.97346625  0.25227738  0.67515181  1
  O  O11  1  0.70419061  0.13508356  0.47206353  1
  O  O12  1  0.97128624  0.01072957  0.96970000  1
