# generated using pymatgen
data_LiSb2P
_symmetry_space_group_name_H-M   'P 1'
_cell_length_a   5.29473619
_cell_length_b   5.44211840
_cell_length_c   6.32084599
_cell_angle_alpha   99.45175496
_cell_angle_beta   96.23378702
_cell_angle_gamma   97.47409106
_symmetry_Int_Tables_number   1
_chemical_formula_structural   LiSb2P
_chemical_formula_sum   'Li2 Sb4 P2'
_cell_volume   176.55423283
_cell_formula_units_Z   2
loop_
 _symmetry_equiv_pos_site_id
 _symmetry_equiv_pos_as_xyz
  1  'x, y, z'
loop_
 _atom_site_type_symbol
 _atom_site_label
 _atom_site_symmetry_multiplicity
 _atom_site_fract_x
 _atom_site_fract_y
 _atom_site_fract_z
 _atom_site_occupancy
  Sb  Sb0  1  0.00000000  0.00000000  0.00000000  1
  Sb  Sb1  1  0.50000000  0.50000000  0.50000000  1
  Sb  Sb2  1  0.25000000  0.25000000  0.25000000  1
  Sb  Sb3  1  0.75000000  0.25000000  0.00000000  1
  P  P4  1  0.25000000  0.75000000  0.50000000  1
  P  P5  1  0.06434710  0.97982033  0.19398440  1
  Li  Li6  1  0.11340526  0.74944668  0.38667420  1
  Li  Li7  1  0.00383854  0.22826538  0.63316132  1
