# generated using pymatgen
data_Li2TiS3I4F
_symmetry_space_group_name_H-M   'P 1'
_cell_length_a   8.85036039
_cell_length_b   9.07995662
_cell_length_c   7.80464988
_cell_angle_alpha   90.00000000
_cell_angle_beta   90.00000000
_cell_angle_gamma   90.00000000
_symmetry_Int_Tables_number   1
_chemical_formula_structural   Li2TiS3I4F
_chemical_formula_sum   'Li2 Ti1 S3 I4 F1'
_cell_volume   627.18859814
_cell_formula_units_Z   1
loop_
 _symmetry_equiv_pos_site_id
 _symmetry_equiv_pos_as_xyz
  1  'x, y, z'
loop_
 _atom_site_type_symbol
 _atom_site_label
 _atom_site_symmetry_multiplicity
 _atom_site_fract_x
 _atom_site_fract_y
 _atom_site_fract_z
 _atom_site_occupancy
  I  I0  1  0.12500000  0.00000000  0.25000000  1
  I  I1  1  0.00000000  0.00000000  0.00000000  1
  I  I2  1  0.37500000  0.00000000  0.25000000  1
  I  I3  1  0.25000000  0.25000000  0.25000000  1
  Li  Li4  1  0.00000000  0.25000000  0.12500000  1
  Li  Li5  1  0.68866232  0.42320027  0.87425110  1
  F  F6  1  0.25412613  0.80043125  0.34592020  1
  Ti  Ti7  1  0.21940460  0.92801970  0.21726506  1
  S  S8  1  0.53707601  0.88114224  0.65206835  1
  S  S9  1  0.36486213  0.62242491  0.44493988  1
  S  S10  1  0.06810431  0.60641453  0.93197964  1
