# generated using pymatgen
data_Li3LuP3N5
_symmetry_space_group_name_H-M   'P 1'
_cell_length_a   6.27506030
_cell_length_b   5.82649099
_cell_length_c   7.47484947
_cell_angle_alpha   94.25123571
_cell_angle_beta   95.44326131
_cell_angle_gamma   94.27806767
_symmetry_Int_Tables_number   1
_chemical_formula_structural   Li3LuP3N5
_chemical_formula_sum   'Li3 Lu1 P3 N5'
_cell_volume   270.39268062
_cell_formula_units_Z   1
loop_
 _symmetry_equiv_pos_site_id
 _symmetry_equiv_pos_as_xyz
  1  'x, y, z'
loop_
 _atom_site_type_symbol
 _atom_site_label
 _atom_site_symmetry_multiplicity
 _atom_site_fract_x
 _atom_site_fract_y
 _atom_site_fract_z
 _atom_site_occupancy
  P  P0  1  0.12500000  0.12500000  0.12500000  1
  P  P1  1  0.50000000  0.50000000  0.50000000  1
  P  P2  1  0.25000000  0.25000000  0.25000000  1
  Lu  Lu3  1  0.75000000  0.75000000  0.75000000  1
  Li  Li4  1  0.95640273  0.61796610  0.50976843  1
  Li  Li5  1  0.69204038  0.70400407  0.01113169  1
  Li  Li6  1  0.61067415  0.88628686  0.21802409  1
  N  N7  1  0.31575623  0.38988358  0.88778509  1
  N  N8  1  0.64661987  0.98412945  0.73215963  1
  N  N9  1  0.55395376  0.11076970  0.39494412  1
  N  N10  1  0.64231506  0.43229815  0.33321057  1
  N  N11  1  0.02136723  0.85226959  0.55652732  1
