# generated using pymatgen
data_Li2(SbP)3
_symmetry_space_group_name_H-M   'P 1'
_cell_length_a   6.52413647
_cell_length_b   7.03126390
_cell_length_c   6.96951630
_cell_angle_alpha   94.14442505
_cell_angle_beta   90.43617225
_cell_angle_gamma   94.03229031
_symmetry_Int_Tables_number   1
_chemical_formula_structural   Li2(SbP)3
_chemical_formula_sum   'Li2 Sb3 P3'
_cell_volume   318.06082147
_cell_formula_units_Z   1
loop_
 _symmetry_equiv_pos_site_id
 _symmetry_equiv_pos_as_xyz
  1  'x, y, z'
loop_
 _atom_site_type_symbol
 _atom_site_label
 _atom_site_symmetry_multiplicity
 _atom_site_fract_x
 _atom_site_fract_y
 _atom_site_fract_z
 _atom_site_occupancy
  Sb  Sb0  1  0.12500000  0.00000000  0.25000000  1
  Sb  Sb1  1  0.00000000  0.00000000  0.00000000  1
  Sb  Sb2  1  0.37500000  0.00000000  0.25000000  1
  P  P3  1  0.25000000  0.25000000  0.25000000  1
  P  P4  1  0.00000000  0.25000000  0.12500000  1
  P  P5  1  0.14690401  0.63666410  0.83944560  1
  Li  Li6  1  0.93689493  0.20386927  0.61282081  1
  Li  Li7  1  0.92486540  0.82613066  0.98132096  1
