# generated using pymatgen
data_Li2Mn2Sb4P3
_symmetry_space_group_name_H-M   'P 1'
_cell_length_a   4.80131947
_cell_length_b   5.10895945
_cell_length_c   6.54248559
_cell_angle_alpha   100.48230061
_cell_angle_beta   94.23629665
_cell_angle_gamma   100.79084259
_symmetry_Int_Tables_number   1
_chemical_formula_structural   Li2Mn2Sb4P3
_chemical_formula_sum   'Li2 Mn2 Sb4 P3'
_cell_volume   154.04592877
_cell_formula_units_Z   1
loop_
 _symmetry_equiv_pos_site_id
 _symmetry_equiv_pos_as_xyz
  1  'x, y, z'
loop_
 _atom_site_type_symbol
 _atom_site_label
 _atom_site_symmetry_multiplicity
 _atom_site_fract_x
 _atom_site_fract_y
 _atom_site_fract_z
 _atom_site_occupancy
  Mn  Mn0  1  0.00000000  0.00000000  0.00000000  1
  Mn  Mn1  1  0.50000000  0.50000000  0.50000000  1
  Sb  Sb2  1  0.50000000  0.50000000  0.00000000  1
  Sb  Sb3  1  0.50000000  0.00000000  0.50000000  1
  Sb  Sb4  1  0.00000000  0.50000000  0.50000000  1
  Sb  Sb5  1  0.65322893  0.62569568  0.43367659  1
  P  P6  1  0.35113105  0.33893095  0.53724131  1
  P  P7  1  0.40415399  0.75105475  0.94572985  1
  P  P8  1  0.81030106  0.97467826  0.13917546  1
  Li  Li9  1  0.06224249  0.56608315  0.84520907  1
  Li  Li10  1  0.04832527  0.66603538  0.75892388  1
