# generated using pymatgen
data_LiTiS3I4F
_symmetry_space_group_name_H-M   'P 1'
_cell_length_a   5.56439986
_cell_length_b   5.83415360
_cell_length_c   6.68514785
_cell_angle_alpha   91.81121262
_cell_angle_beta   102.68907120
_cell_angle_gamma   91.93243621
_symmetry_Int_Tables_number   1
_chemical_formula_structural   LiTiS3I4F
_chemical_formula_sum   'Li1 Ti1 S3 I4 F1'
_cell_volume   211.43336401
_cell_formula_units_Z   1
loop_
 _symmetry_equiv_pos_site_id
 _symmetry_equiv_pos_as_xyz
  1  'x, y, z'
loop_
 _atom_site_type_symbol
 _atom_site_label
 _atom_site_symmetry_multiplicity
 _atom_site_fract_x
 _atom_site_fract_y
 _atom_site_fract_z
 _atom_site_occupancy
  I  I0  1  0.12500000  0.00000000  0.25000000  1
  I  I1  1  0.00000000  0.00000000  0.00000000  1
  I  I2  1  0.37500000  0.00000000  0.25000000  1
  I  I3  1  0.25000000  0.25000000  0.25000000  1
  Li  Li4  1  0.00000000  0.25000000  0.12500000  1
  F  F5  1  0.36865477  0.01928777  0.85505057  1
  Ti  Ti6  1  0.59879791  0.69034796  0.75676216  1
  S  S7  1  0.26844629  0.95242023  0.66265905  1
  S  S8  1  0.99315775  0.74577379  0.69629073  1
  S  S9  1  0.43243843  0.86034219  0.00678977  1
