# generated using pymatgen
data_LiS2I4Br5F2
_symmetry_space_group_name_H-M   'P 1'
_cell_length_a   4.96625865
_cell_length_b   4.63740793
_cell_length_c   6.88409884
_cell_angle_alpha   93.90049671
_cell_angle_beta   99.89287491
_cell_angle_gamma   93.88274045
_symmetry_Int_Tables_number   1
_chemical_formula_structural   LiS2I4Br5F2
_chemical_formula_sum   'Li1 S2 I4 Br5 F2'
_cell_volume   155.31613745
_cell_formula_units_Z   1
loop_
 _symmetry_equiv_pos_site_id
 _symmetry_equiv_pos_as_xyz
  1  'x, y, z'
loop_
 _atom_site_type_symbol
 _atom_site_label
 _atom_site_symmetry_multiplicity
 _atom_site_fract_x
 _atom_site_fract_y
 _atom_site_fract_z
 _atom_site_occupancy
  I  I0  1  0.12500000  0.00000000  0.25000000  1
  I  I1  1  0.00000000  0.00000000  0.00000000  1
  I  I2  1  0.37500000  0.00000000  0.25000000  1
  I  I3  1  0.25000000  0.25000000  0.25000000  1
  Li  Li4  1  0.00000000  0.25000000  0.12500000  1
  Br  Br5  1  0.59907100  0.21535703  0.86213418  1
  Br  Br6  1  0.64530417  0.81142068  0.89407670  1
  Br  Br7  1  0.61497277  0.62865484  0.34286091  1
  Br  Br8  1  0.87609976  0.34295013  0.28484689  1
  Br  Br9  1  0.70240637  0.51813944  0.26487584  1
  F  F10  1  0.57004943  0.44735687  0.44078207  1
  F  F11  1  0.19419423  0.83818126  0.34473770  1
  S  S12  1  0.68365843  0.12051986  0.38035813  1
  S  S13  1  0.56330771  0.62488059  0.47995584  1
