# generated using pymatgen
data_LiLa3Zr3(IO)4
_symmetry_space_group_name_H-M   'P 1'
_cell_length_a   10.77590929
_cell_length_b   10.53482063
_cell_length_c   9.88904899
_cell_angle_alpha   90.00000000
_cell_angle_beta   90.00000000
_cell_angle_gamma   90.00000000
_symmetry_Int_Tables_number   1
_chemical_formula_structural   LiLa3Zr3(IO)4
_chemical_formula_sum   'Li1 La3 Zr3 I4 O4'
_cell_volume   1122.62730317
_cell_formula_units_Z   1
loop_
 _symmetry_equiv_pos_site_id
 _symmetry_equiv_pos_as_xyz
  1  'x, y, z'
loop_
 _atom_site_type_symbol
 _atom_site_label
 _atom_site_symmetry_multiplicity
 _atom_site_fract_x
 _atom_site_fract_y
 _atom_site_fract_z
 _atom_site_occupancy
  I  I0  1  0.12500000  0.00000000  0.25000000  1
  I  I1  1  0.00000000  0.00000000  0.00000000  1
  I  I2  1  0.37500000  0.00000000  0.25000000  1
  I  I3  1  0.25000000  0.25000000  0.25000000  1
  Li  Li4  1  0.00000000  0.25000000  0.12500000  1
  La  La5  1  0.21310457  0.87329131  0.95756301  1
  La  La6  1  0.70275310  0.96565213  0.54791363  1
  La  La7  1  0.60076167  0.02057403  0.49454819  1
  O  O8  1  0.69900908  0.44003330  0.49932844  1
  O  O9  1  0.85514616  0.55880849  0.25904303  1
  O  O10  1  0.86087450  0.51100707  0.11028559  1
  O  O11  1  0.85827026  0.19461239  0.10401224  1
  Zr  Zr12  1  0.69264807  0.62945561  0.07023066  1
  Zr  Zr13  1  0.06737232  0.39810583  0.41037532  1
  Zr  Zr14  1  0.96666810  0.27853269  0.00236228  1
