# generated using pymatgen
data_Li2Ti2Cu2P5O
_symmetry_space_group_name_H-M   'P 1'
_cell_length_a   7.62779680
_cell_length_b   7.52196322
_cell_length_c   7.37428819
_cell_angle_alpha   90.35201294
_cell_angle_beta   91.67477067
_cell_angle_gamma   90.40244479
_symmetry_Int_Tables_number   1
_chemical_formula_structural   Li2Ti2Cu2P5O
_chemical_formula_sum   'Li2 Ti2 Cu2 P5 O1'
_cell_volume   422.90750612
_cell_formula_units_Z   1
loop_
 _symmetry_equiv_pos_site_id
 _symmetry_equiv_pos_as_xyz
  1  'x, y, z'
loop_
 _atom_site_type_symbol
 _atom_site_label
 _atom_site_symmetry_multiplicity
 _atom_site_fract_x
 _atom_site_fract_y
 _atom_site_fract_z
 _atom_site_occupancy
  P  P0  1  0.00000000  0.00000000  0.00000000  1
  P  P1  1  0.50000000  0.50000000  0.50000000  1
  P  P2  1  0.50000000  0.50000000  0.00000000  1
  P  P3  1  0.50000000  0.00000000  0.50000000  1
  P  P4  1  0.00000000  0.50000000  0.50000000  1
  Li  Li5  1  0.93153435  0.28868858  0.88110798  1
  Li  Li6  1  0.94390758  0.29127235  0.51052968  1
  Cu  Cu7  1  0.96110800  0.88278373  0.02833429  1
  Cu  Cu8  1  0.96693064  0.40964540  0.19423793  1
  Ti  Ti9  1  0.27489935  0.79394421  0.98562369  1
  Ti  Ti10  1  0.98053157  0.18473929  0.84796773  1
  O  O11  1  0.51179949  0.34154052  0.76974187  1
