# generated using pymatgen
data_LiMn2Sb4(MoP)2
_symmetry_space_group_name_H-M   'P 1'
_cell_length_a   5.17063136
_cell_length_b   5.33039192
_cell_length_c   6.25374029
_cell_angle_alpha   97.49831596
_cell_angle_beta   94.76447904
_cell_angle_gamma   95.61031817
_symmetry_Int_Tables_number   1
_chemical_formula_structural   LiMn2Sb4(MoP)2
_chemical_formula_sum   'Li1 Mn2 Sb4 Mo2 P2'
_cell_volume   169.26610146
_cell_formula_units_Z   1
loop_
 _symmetry_equiv_pos_site_id
 _symmetry_equiv_pos_as_xyz
  1  'x, y, z'
loop_
 _atom_site_type_symbol
 _atom_site_label
 _atom_site_symmetry_multiplicity
 _atom_site_fract_x
 _atom_site_fract_y
 _atom_site_fract_z
 _atom_site_occupancy
  Mn  Mn0  1  0.00000000  0.00000000  0.00000000  1
  Mn  Mn1  1  0.50000000  0.50000000  0.50000000  1
  Sb  Sb2  1  0.25000000  0.25000000  0.25000000  1
  Sb  Sb3  1  0.75000000  0.25000000  0.00000000  1
  Sb  Sb4  1  0.25000000  0.75000000  0.50000000  1
  Sb  Sb5  1  0.55008594  0.11286512  0.45458549  1
  P  P6  1  0.55156598  0.69461653  0.63598857  1
  P  P7  1  0.80741476  0.90610448  0.64954740  1
  Mo  Mo8  1  0.71398917  0.89975882  0.79692519  1
  Mo  Mo9  1  0.80151423  0.53296183  0.51730328  1
  Li  Li10  1  0.97979038  0.34764192  0.16735081  1
