# generated using pymatgen
data_Li2Mn3Sb4Mo2P3
_symmetry_space_group_name_H-M   'P 1'
_cell_length_a   4.57298331
_cell_length_b   4.80622986
_cell_length_c   6.16732208
_cell_angle_alpha   103.12044193
_cell_angle_beta   92.14597496
_cell_angle_gamma   103.06705153
_symmetry_Int_Tables_number   1
_chemical_formula_structural   Li2Mn3Sb4Mo2P3
_chemical_formula_sum   'Li2 Mn3 Sb4 Mo2 P3'
_cell_volume   128.02937870
_cell_formula_units_Z   1
loop_
 _symmetry_equiv_pos_site_id
 _symmetry_equiv_pos_as_xyz
  1  'x, y, z'
loop_
 _atom_site_type_symbol
 _atom_site_label
 _atom_site_symmetry_multiplicity
 _atom_site_fract_x
 _atom_site_fract_y
 _atom_site_fract_z
 _atom_site_occupancy
  Mn  Mn0  1  0.00000000  0.00000000  0.00000000  1
  Mn  Mn1  1  0.50000000  0.50000000  0.50000000  1
  Mn  Mn2  1  0.25000000  0.25000000  0.25000000  1
  Sb  Sb3  1  0.75000000  0.25000000  0.00000000  1
  Sb  Sb4  1  0.25000000  0.75000000  0.50000000  1
  Sb  Sb5  1  0.05535977  0.93727920  0.58351701  1
  Sb  Sb6  1  0.06228695  0.72141201  0.35812750  1
  P  P7  1  0.43874787  0.99544060  0.27627897  1
  P  P8  1  0.50232311  0.76013888  0.67279839  1
  P  P9  1  0.45827335  0.04857126  0.98721119  1
  Mo  Mo10  1  0.67802634  0.68259408  0.55811900  1
  Mo  Mo11  1  0.76424793  0.81563717  0.25515019  1
  Li  Li12  1  0.29257103  0.54583250  0.31871412  1
  Li  Li13  1  0.46903572  0.54159020  0.32351718  1
