# generated using pymatgen
data_Li3TiTe6(IO)4
_symmetry_space_group_name_H-M   'P 1'
_cell_length_a   8.73178788
_cell_length_b   8.74312323
_cell_length_c   7.57355155
_cell_angle_alpha   90.00000000
_cell_angle_beta   90.00000000
_cell_angle_gamma   90.00000000
_symmetry_Int_Tables_number   1
_chemical_formula_structural   Li3TiTe6(IO)4
_chemical_formula_sum   'Li3 Ti1 Te6 I4 O4'
_cell_volume   578.18838401
_cell_formula_units_Z   1
loop_
 _symmetry_equiv_pos_site_id
 _symmetry_equiv_pos_as_xyz
  1  'x, y, z'
loop_
 _atom_site_type_symbol
 _atom_site_label
 _atom_site_symmetry_multiplicity
 _atom_site_fract_x
 _atom_site_fract_y
 _atom_site_fract_z
 _atom_site_occupancy
  I  I0  1  0.00000000  0.00000000  0.00000000  1
  I  I1  1  0.50000000  0.50000000  0.50000000  1
  I  I2  1  0.50000000  0.50000000  0.00000000  1
  I  I3  1  0.50000000  0.00000000  0.50000000  1
  Li  Li4  1  0.00000000  0.50000000  0.50000000  1
  Li  Li5  1  0.60602435  0.43036409  0.94430832  1
  Li  Li6  1  0.91798257  0.02777331  0.33589378  1
  Ti  Ti7  1  0.08475289  0.01607067  0.42452978  1
  Te  Te8  1  0.68498642  0.32741621  0.57694557  1
  Te  Te9  1  0.55297451  0.74524408  0.60833086  1
  Te  Te10  1  0.93292284  0.16958799  0.63789289  1
  Te  Te11  1  0.09700851  0.42060631  0.31045484  1
  Te  Te12  1  0.43387558  0.61790463  0.44732614  1
  Te  Te13  1  0.97111380  0.41059634  0.84874570  1
  O  O14  1  0.96913668  0.26478986  0.54890441  1
  O  O15  1  0.94663525  0.45035053  0.12847709  1
  O  O16  1  0.78493939  0.72673875  0.13696372  1
  O  O17  1  0.81824597  0.29880033  0.98707812  1
