# generated using pymatgen
data_Li2Ti3Nb2N5
_symmetry_space_group_name_H-M   'P 1'
_cell_length_a   6.72775238
_cell_length_b   6.43488299
_cell_length_c   8.06637832
_cell_angle_alpha   91.80448856
_cell_angle_beta   93.42984042
_cell_angle_gamma   92.08245767
_symmetry_Int_Tables_number   1
_chemical_formula_structural   Li2Ti3Nb2N5
_chemical_formula_sum   'Li2 Ti3 Nb2 N5'
_cell_volume   348.15793397
_cell_formula_units_Z   1
loop_
 _symmetry_equiv_pos_site_id
 _symmetry_equiv_pos_as_xyz
  1  'x, y, z'
loop_
 _atom_site_type_symbol
 _atom_site_label
 _atom_site_symmetry_multiplicity
 _atom_site_fract_x
 _atom_site_fract_y
 _atom_site_fract_z
 _atom_site_occupancy
  Li  Li0  1  0.00000000  0.00000000  0.00000000  1
  Li  Li1  1  0.33300000  0.66700000  0.25000000  1
  Nb  Nb2  1  0.66700000  0.33300000  0.50000000  1
  Nb  Nb3  1  0.00000000  0.00000000  0.75000000  1
  Ti  Ti4  1  0.75407493  0.63535237  0.60568447  1
  Ti  Ti5  1  0.15362253  0.62615036  0.03903161  1
  Ti  Ti6  1  0.86000390  0.97896698  0.32482811  1
  N  N7  1  0.87584648  0.84757316  0.00491173  1
  N  N8  1  0.32027761  0.61997408  0.61386226  1
  N  N9  1  0.66100875  0.72872575  0.20230749  1
  N  N10  1  0.20934045  0.64996592  0.65360677  1
  N  N11  1  0.96890294  0.22348299  0.36528280  1
