# generated using pymatgen
data_Li2Ni2P5F2
_symmetry_space_group_name_H-M   'P 1'
_cell_length_a   7.85393752
_cell_length_b   7.50329309
_cell_length_c   8.47148252
_cell_angle_alpha   92.07057851
_cell_angle_beta   91.06365419
_cell_angle_gamma   92.40036959
_symmetry_Int_Tables_number   1
_chemical_formula_structural   Li2Ni2P5F2
_chemical_formula_sum   'Li2 Ni2 P5 F2'
_cell_volume   498.36332464
_cell_formula_units_Z   1
loop_
 _symmetry_equiv_pos_site_id
 _symmetry_equiv_pos_as_xyz
  1  'x, y, z'
loop_
 _atom_site_type_symbol
 _atom_site_label
 _atom_site_symmetry_multiplicity
 _atom_site_fract_x
 _atom_site_fract_y
 _atom_site_fract_z
 _atom_site_occupancy
  P  P0  1  0.00000000  0.00000000  0.00000000  1
  P  P1  1  0.50000000  0.50000000  0.50000000  1
  P  P2  1  0.50000000  0.50000000  0.00000000  1
  P  P3  1  0.50000000  0.00000000  0.50000000  1
  P  P4  1  0.00000000  0.50000000  0.50000000  1
  Li  Li5  1  0.39380841  0.51188037  0.34183299  1
  Li  Li6  1  0.87060210  0.73014081  0.67998889  1
  F  F7  1  0.84296231  0.52753420  0.84602453  1
  F  F8  1  0.22917385  0.52973580  0.17330419  1
  Ni  Ni9  1  0.36374254  0.51184138  0.59123242  1
  Ni  Ni10  1  0.73849377  0.66458563  0.52683662  1
