# generated using pymatgen
data_Li2Mn2Mo2P3
_symmetry_space_group_name_H-M   'P 1'
_cell_length_a   4.60828154
_cell_length_b   4.85282358
_cell_length_c   6.22623895
_cell_angle_alpha   102.70752402
_cell_angle_beta   92.47822786
_cell_angle_gamma   102.71149003
_symmetry_Int_Tables_number   1
_chemical_formula_structural   Li2Mn2Mo2P3
_chemical_formula_sum   'Li2 Mn2 Mo2 P3'
_cell_volume   131.88297905
_cell_formula_units_Z   1
loop_
 _symmetry_equiv_pos_site_id
 _symmetry_equiv_pos_as_xyz
  1  'x, y, z'
loop_
 _atom_site_type_symbol
 _atom_site_label
 _atom_site_symmetry_multiplicity
 _atom_site_fract_x
 _atom_site_fract_y
 _atom_site_fract_z
 _atom_site_occupancy
  Mn  Mn0  1  0.12500000  0.00000000  0.25000000  1
  Mn  Mn1  1  0.00000000  0.00000000  0.00000000  1
  P  P2  1  0.37500000  0.00000000  0.25000000  1
  P  P3  1  0.25000000  0.25000000  0.25000000  1
  P  P4  1  0.00000000  0.25000000  0.12500000  1
  Mo  Mo5  1  0.29283609  0.45776413  0.86613712  1
  Mo  Mo6  1  0.72930851  0.73387692  0.63534127  1
  Li  Li7  1  0.49705688  0.52225190  0.79511306  1
  Li  Li8  1  0.53479999  0.38279935  0.46984162  1
