# generated using pymatgen
data_Li2Sb3SeI4
_symmetry_space_group_name_H-M   'P 1'
_cell_length_a   6.69285228
_cell_length_b   6.49723725
_cell_length_c   6.94689773
_cell_angle_alpha   98.99686599
_cell_angle_beta   101.48693150
_cell_angle_gamma   98.46349474
_symmetry_Int_Tables_number   1
_chemical_formula_structural   Li2Sb3SeI4
_chemical_formula_sum   'Li2 Sb3 Se1 I4'
_cell_volume   287.38828461
_cell_formula_units_Z   1
loop_
 _symmetry_equiv_pos_site_id
 _symmetry_equiv_pos_as_xyz
  1  'x, y, z'
loop_
 _atom_site_type_symbol
 _atom_site_label
 _atom_site_symmetry_multiplicity
 _atom_site_fract_x
 _atom_site_fract_y
 _atom_site_fract_z
 _atom_site_occupancy
  I  I0  1  0.12500000  0.00000000  0.25000000  1
  I  I1  1  0.00000000  0.00000000  0.00000000  1
  I  I2  1  0.37500000  0.00000000  0.25000000  1
  I  I3  1  0.25000000  0.25000000  0.25000000  1
  Li  Li4  1  0.00000000  0.25000000  0.12500000  1
  Li  Li5  1  0.49445315  0.70481087  0.27548725  1
  Sb  Sb6  1  0.91459800  0.32402717  0.47096508  1
  Sb  Sb7  1  0.52112132  0.72682117  0.23007622  1
  Sb  Sb8  1  0.43603423  0.75184311  0.78233342  1
  Se  Se9  1  0.47724755  0.30572354  0.97326471  1
