# generated using pymatgen
data_LiMn3Sb4Mo2P3
_symmetry_space_group_name_H-M   'P 1'
_cell_length_a   6.47905698
_cell_length_b   6.96338827
_cell_length_c   6.97115605
_cell_angle_alpha   93.74935597
_cell_angle_beta   90.66409933
_cell_angle_gamma   93.65845906
_symmetry_Int_Tables_number   1
_chemical_formula_structural   LiMn3Sb4Mo2P3
_chemical_formula_sum   'Li1 Mn3 Sb4 Mo2 P3'
_cell_volume   313.16003490
_cell_formula_units_Z   1
loop_
 _symmetry_equiv_pos_site_id
 _symmetry_equiv_pos_as_xyz
  1  'x, y, z'
loop_
 _atom_site_type_symbol
 _atom_site_label
 _atom_site_symmetry_multiplicity
 _atom_site_fract_x
 _atom_site_fract_y
 _atom_site_fract_z
 _atom_site_occupancy
  Mn  Mn0  1  0.00000000  0.00000000  0.00000000  1
  Mn  Mn1  1  0.50000000  0.50000000  0.50000000  1
  Mn  Mn2  1  0.25000000  0.25000000  0.25000000  1
  Sb  Sb3  1  0.75000000  0.25000000  0.00000000  1
  Sb  Sb4  1  0.25000000  0.75000000  0.50000000  1
  Sb  Sb5  1  0.67327359  0.71235390  0.55076198  1
  Sb  Sb6  1  0.03348697  0.90912739  0.72263579  1
  P  P7  1  0.76088624  0.15230692  0.76411187  1
  P  P8  1  0.26570446  0.91316819  0.12759198  1
  P  P9  1  0.81986344  0.48097069  0.58182045  1
  Mo  Mo10  1  0.44508289  0.57780446  0.37016926  1
  Mo  Mo11  1  0.30293493  0.34926617  0.18702349  1
  Li  Li12  1  0.37911767  0.24765618  0.11801670  1
