# generated using pymatgen
data_Li4Te6Se(I2Cl)2
_symmetry_space_group_name_H-M   'P 1'
_cell_length_a   6.89737165
_cell_length_b   6.89237272
_cell_length_c   7.64502649
_cell_angle_alpha   97.69407881
_cell_angle_beta   99.82357149
_cell_angle_gamma   97.23794215
_symmetry_Int_Tables_number   1
_chemical_formula_structural   Li4Te6Se(I2Cl)2
_chemical_formula_sum   'Li4 Te6 Se1 I4 Cl2'
_cell_volume   350.73946894
_cell_formula_units_Z   1
loop_
 _symmetry_equiv_pos_site_id
 _symmetry_equiv_pos_as_xyz
  1  'x, y, z'
loop_
 _atom_site_type_symbol
 _atom_site_label
 _atom_site_symmetry_multiplicity
 _atom_site_fract_x
 _atom_site_fract_y
 _atom_site_fract_z
 _atom_site_occupancy
  I  I0  1  0.00000000  0.00000000  0.00000000  1
  I  I1  1  0.50000000  0.50000000  0.50000000  1
  I  I2  1  0.25000000  0.25000000  0.25000000  1
  I  I3  1  0.75000000  0.25000000  0.00000000  1
  Li  Li4  1  0.25000000  0.75000000  0.50000000  1
  Li  Li5  1  0.78002030  0.96639270  0.36237348  1
  Li  Li6  1  0.70202457  0.91867481  0.81821980  1
  Li  Li7  1  0.15239795  0.48536791  0.06101643  1
  Se  Se8  1  0.79780795  0.12969542  0.59307179  1
  Cl  Cl9  1  0.21712151  0.33128093  0.26310886  1
  Cl  Cl10  1  0.53770598  0.91323049  0.17505870  1
  Te  Te11  1  0.03324774  0.28287862  0.39531490  1
  Te  Te12  1  0.35123990  0.51414537  0.57227775  1
  Te  Te13  1  0.34400766  0.06574110  0.11369053  1
  Te  Te14  1  0.66657525  0.23823348  0.90249085  1
  Te  Te15  1  0.79358607  0.05863136  0.39084395  1
  Te  Te16  1  0.35483906  0.60830045  0.13948894  1
