# generated using pymatgen
data_Li2Sb3Se2I4O
_symmetry_space_group_name_H-M   'P 1'
_cell_length_a   8.32643383
_cell_length_b   8.41099566
_cell_length_c   7.20162877
_cell_angle_alpha   90.00000000
_cell_angle_beta   90.00000000
_cell_angle_gamma   90.00000000
_symmetry_Int_Tables_number   1
_chemical_formula_structural   Li2Sb3Se2I4O
_chemical_formula_sum   'Li2 Sb3 Se2 I4 O1'
_cell_volume   504.35598032
_cell_formula_units_Z   1
loop_
 _symmetry_equiv_pos_site_id
 _symmetry_equiv_pos_as_xyz
  1  'x, y, z'
loop_
 _atom_site_type_symbol
 _atom_site_label
 _atom_site_symmetry_multiplicity
 _atom_site_fract_x
 _atom_site_fract_y
 _atom_site_fract_z
 _atom_site_occupancy
  I  I0  1  0.00000000  0.00000000  0.00000000  1
  I  I1  1  0.50000000  0.50000000  0.50000000  1
  I  I2  1  0.25000000  0.25000000  0.25000000  1
  I  I3  1  0.75000000  0.25000000  0.00000000  1
  Sb  Sb4  1  0.25000000  0.75000000  0.50000000  1
  Sb  Sb5  1  0.83237730  0.04629372  0.48030386  1
  Sb  Sb6  1  0.09307083  0.90741647  0.39959433  1
  Li  Li7  1  0.96106124  0.31255056  0.74918446  1
  Li  Li8  1  0.49474169  0.99490487  0.19969431  1
  Se  Se9  1  0.32503528  0.86014061  0.98453835  1
  Se  Se10  1  0.84343835  0.98047232  0.64717072  1
  O  O11  1  0.35613621  0.87214912  0.12646318  1
