# generated using pymatgen
data_Li2SbP3
_symmetry_space_group_name_H-M   'P 1'
_cell_length_a   6.91642471
_cell_length_b   6.91121693
_cell_length_c   7.22910046
_cell_angle_alpha   93.94135757
_cell_angle_beta   89.99836181
_cell_angle_gamma   93.77098666
_symmetry_Int_Tables_number   1
_chemical_formula_structural   Li2SbP3
_chemical_formula_sum   'Li2 Sb1 P3'
_cell_volume   343.99042214
_cell_formula_units_Z   1
loop_
 _symmetry_equiv_pos_site_id
 _symmetry_equiv_pos_as_xyz
  1  'x, y, z'
loop_
 _atom_site_type_symbol
 _atom_site_label
 _atom_site_symmetry_multiplicity
 _atom_site_fract_x
 _atom_site_fract_y
 _atom_site_fract_z
 _atom_site_occupancy
  Sb  Sb0  1  0.00000000  0.00000000  0.00000000  1
  P  P1  1  0.33300000  0.66700000  0.25000000  1
  P  P2  1  0.66700000  0.33300000  0.50000000  1
  P  P3  1  0.00000000  0.00000000  0.75000000  1
  Li  Li4  1  0.03767644  0.85033729  0.77683933  1
  Li  Li5  1  0.23102852  0.48447666  0.44100308  1
