# generated using pymatgen
data_LiTi2S3(I2F)2
_symmetry_space_group_name_H-M   'P 1'
_cell_length_a   4.56613847
_cell_length_b   4.49176541
_cell_length_c   6.50004729
_cell_angle_alpha   92.32562472
_cell_angle_beta   103.41423754
_cell_angle_gamma   92.57902689
_symmetry_Int_Tables_number   1
_chemical_formula_structural   LiTi2S3(I2F)2
_chemical_formula_sum   'Li1 Ti2 S3 I4 F2'
_cell_volume   129.36900475
_cell_formula_units_Z   1
loop_
 _symmetry_equiv_pos_site_id
 _symmetry_equiv_pos_as_xyz
  1  'x, y, z'
loop_
 _atom_site_type_symbol
 _atom_site_label
 _atom_site_symmetry_multiplicity
 _atom_site_fract_x
 _atom_site_fract_y
 _atom_site_fract_z
 _atom_site_occupancy
  F  F0  1  0.00000000  0.00000000  0.00000000  1
  F  F1  1  0.50000000  0.50000000  0.50000000  1
  S  S2  1  0.50000000  0.50000000  0.00000000  1
  S  S3  1  0.50000000  0.00000000  0.50000000  1
  S  S4  1  0.00000000  0.50000000  0.50000000  1
  Ti  Ti5  1  0.02405543  0.33870641  0.67161086  1
  Ti  Ti6  1  0.08334198  0.65826849  0.32396901  1
  I  I7  1  0.15111356  0.51832002  0.95586528  1
  I  I8  1  0.22310050  0.85986621  0.24384181  1
  I  I9  1  0.11335305  0.76712922  0.17635379  1
  I  I10  1  0.41281977  0.69407165  0.28406917  1
  Li  Li11  1  0.34656122  0.68328668  0.65698610  1
