# generated using pymatgen
data_Li2Zr3Ni2P4N5
_symmetry_space_group_name_H-M   'P 1'
_cell_length_a   8.02119212
_cell_length_b   7.69765893
_cell_length_c   9.19416961
_cell_angle_alpha   95.43107626
_cell_angle_beta   97.04211247
_cell_angle_gamma   95.49065435
_symmetry_Int_Tables_number   1
_chemical_formula_structural   Li2Zr3Ni2P4N5
_chemical_formula_sum   'Li2 Zr3 Ni2 P4 N5'
_cell_volume   557.56008918
_cell_formula_units_Z   1
loop_
 _symmetry_equiv_pos_site_id
 _symmetry_equiv_pos_as_xyz
  1  'x, y, z'
loop_
 _atom_site_type_symbol
 _atom_site_label
 _atom_site_symmetry_multiplicity
 _atom_site_fract_x
 _atom_site_fract_y
 _atom_site_fract_z
 _atom_site_occupancy
  P  P0  1  0.12500000  0.00000000  0.25000000  1
  P  P1  1  0.00000000  0.00000000  0.00000000  1
  P  P2  1  0.37500000  0.00000000  0.25000000  1
  P  P3  1  0.25000000  0.25000000  0.25000000  1
  Li  Li4  1  0.00000000  0.25000000  0.12500000  1
  Li  Li5  1  0.59118038  0.54860330  0.84089983  1
  Ni  Ni6  1  0.14589016  0.10500996  0.01992986  1
  Ni  Ni7  1  0.94428864  0.34272096  0.05800892  1
  N  N8  1  0.97318762  0.29232410  0.69375778  1
  N  N9  1  0.37430951  0.60414520  0.37035080  1
  N  N10  1  0.53262624  0.89768766  0.53397353  1
  N  N11  1  0.12430340  0.14875059  0.42170106  1
  N  N12  1  0.94377425  0.43437560  0.19658742  1
  Zr  Zr13  1  0.87432660  0.96292097  0.41321848  1
  Zr  Zr14  1  0.96979873  0.09464392  0.18490662  1
  Zr  Zr15  1  0.11807666  0.06626725  0.45183386  1
