# generated using pymatgen
data_Li2Mn2Sb4P3
_symmetry_space_group_name_H-M   'P 1'
_cell_length_a   6.90400086
_cell_length_b   6.89253082
_cell_length_c   7.66621366
_cell_angle_alpha   92.63322157
_cell_angle_beta   93.11929426
_cell_angle_gamma   92.99693127
_symmetry_Int_Tables_number   1
_chemical_formula_structural   Li2Mn2Sb4P3
_chemical_formula_sum   'Li2 Mn2 Sb4 P3'
_cell_volume   363.33040286
_cell_formula_units_Z   1
loop_
 _symmetry_equiv_pos_site_id
 _symmetry_equiv_pos_as_xyz
  1  'x, y, z'
loop_
 _atom_site_type_symbol
 _atom_site_label
 _atom_site_symmetry_multiplicity
 _atom_site_fract_x
 _atom_site_fract_y
 _atom_site_fract_z
 _atom_site_occupancy
  Mn  Mn0  1  0.12500000  0.00000000  0.25000000  1
  Mn  Mn1  1  0.00000000  0.00000000  0.00000000  1
  Sb  Sb2  1  0.37500000  0.00000000  0.25000000  1
  Sb  Sb3  1  0.25000000  0.25000000  0.25000000  1
  Sb  Sb4  1  0.00000000  0.25000000  0.12500000  1
  Sb  Sb5  1  0.05458377  0.82939998  0.59878919  1
  P  P6  1  0.58576745  0.59593622  0.40772727  1
  P  P7  1  0.02858910  0.95528382  0.35654498  1
  P  P8  1  0.80491034  0.28865618  0.09029560  1
  Li  Li9  1  0.22901456  0.11804435  0.12131235  1
  Li  Li10  1  0.08764757  0.98501436  0.19707897  1
