# generated using pymatgen
data_Li6ZrAs6
_symmetry_space_group_name_H-M   'P 1'
_cell_length_a   5.74065833
_cell_length_b   5.40824547
_cell_length_c   7.87872244
_cell_angle_alpha   102.96223043
_cell_angle_beta   106.54979115
_cell_angle_gamma   102.19377606
_symmetry_Int_Tables_number   1
_chemical_formula_structural   Li6ZrAs6
_chemical_formula_sum   'Li6 Zr1 As6'
_cell_volume   218.36718538
_cell_formula_units_Z   1
loop_
 _symmetry_equiv_pos_site_id
 _symmetry_equiv_pos_as_xyz
  1  'x, y, z'
loop_
 _atom_site_type_symbol
 _atom_site_label
 _atom_site_symmetry_multiplicity
 _atom_site_fract_x
 _atom_site_fract_y
 _atom_site_fract_z
 _atom_site_occupancy
  Li  Li0  1  0.12500000  0.12500000  0.12500000  1
  Li  Li1  1  0.50000000  0.50000000  0.50000000  1
  Li  Li2  1  0.25000000  0.25000000  0.25000000  1
  Li  Li3  1  0.75000000  0.75000000  0.75000000  1
  Li  Li4  1  0.43492174  0.78516972  0.20923129  1
  Li  Li5  1  0.00761358  0.81752938  0.41265302  1
  As  As6  1  0.72844241  0.56600399  0.72658292  1
  As  As7  1  0.62140876  0.77624048  0.10855859  1
  As  As8  1  0.48842764  0.94016584  0.94204697  1
  As  As9  1  0.41072519  0.26217528  0.82963705  1
  As  As10  1  0.91645551  0.02890895  0.05306051  1
  As  As11  1  0.05248844  0.91291669  0.11816721  1
  Zr  Zr12  1  0.16046362  0.50091791  0.34438269  1
