# generated using pymatgen
data_Li3Ti2(SF)2
_symmetry_space_group_name_H-M   'P 1'
_cell_length_a   5.78708210
_cell_length_b   5.36817892
_cell_length_c   7.34771357
_cell_angle_alpha   97.70158041
_cell_angle_beta   98.75805190
_cell_angle_gamma   96.94947427
_symmetry_Int_Tables_number   1
_chemical_formula_structural   Li3Ti2(SF)2
_chemical_formula_sum   'Li3 Ti2 S2 F2'
_cell_volume   221.22601569
_cell_formula_units_Z   1
loop_
 _symmetry_equiv_pos_site_id
 _symmetry_equiv_pos_as_xyz
  1  'x, y, z'
loop_
 _atom_site_type_symbol
 _atom_site_label
 _atom_site_symmetry_multiplicity
 _atom_site_fract_x
 _atom_site_fract_y
 _atom_site_fract_z
 _atom_site_occupancy
  F  F0  1  0.00000000  0.00000000  0.00000000  1
  F  F1  1  0.50000000  0.50000000  0.50000000  1
  S  S2  1  0.25000000  0.25000000  0.25000000  1
  S  S3  1  0.75000000  0.25000000  0.00000000  1
  Ti  Ti4  1  0.25000000  0.75000000  0.50000000  1
  Ti  Ti5  1  0.41048814  0.13900194  0.47237071  1
  Li  Li6  1  0.25673996  0.29910093  0.79817498  1
  Li  Li7  1  0.51343071  0.05129949  0.08914694  1
  Li  Li8  1  0.40745446  0.63028056  0.45709554  1
