# generated using pymatgen
data_Li2Mo2P3N
_symmetry_space_group_name_H-M   'P 1'
_cell_length_a   4.72061566
_cell_length_b   4.94959454
_cell_length_c   5.67041583
_cell_angle_alpha   100.00121828
_cell_angle_beta   92.55787427
_cell_angle_gamma   98.53704215
_symmetry_Int_Tables_number   1
_chemical_formula_structural   Li2Mo2P3N
_chemical_formula_sum   'Li2 Mo2 P3 N1'
_cell_volume   128.69338863
_cell_formula_units_Z   1
loop_
 _symmetry_equiv_pos_site_id
 _symmetry_equiv_pos_as_xyz
  1  'x, y, z'
loop_
 _atom_site_type_symbol
 _atom_site_label
 _atom_site_symmetry_multiplicity
 _atom_site_fract_x
 _atom_site_fract_y
 _atom_site_fract_z
 _atom_site_occupancy
  P  P0  1  0.00000000  0.00000000  0.00000000  1
  P  P1  1  0.50000000  0.50000000  0.50000000  1
  P  P2  1  0.50000000  0.50000000  0.00000000  1
  Mo  Mo3  1  0.50000000  0.00000000  0.50000000  1
  Mo  Mo4  1  0.00000000  0.50000000  0.50000000  1
  Li  Li5  1  0.38214416  0.58750043  0.65400956  1
  Li  Li6  1  0.83940447  0.54271379  0.61443506  1
  N  N7  1  0.28272164  0.49660896  0.66374162  1
