# generated using pymatgen
data_Li3Zr3(TiCl)2
_symmetry_space_group_name_H-M   'P 1'
_cell_length_a   6.53892777
_cell_length_b   6.65360466
_cell_length_c   7.86415925
_cell_angle_alpha   99.97958211
_cell_angle_beta   104.62599079
_cell_angle_gamma   101.77529899
_symmetry_Int_Tables_number   1
_chemical_formula_structural   Li3Zr3(TiCl)2
_chemical_formula_sum   'Li3 Zr3 Ti2 Cl2'
_cell_volume   314.83350061
_cell_formula_units_Z   1
loop_
 _symmetry_equiv_pos_site_id
 _symmetry_equiv_pos_as_xyz
  1  'x, y, z'
loop_
 _atom_site_type_symbol
 _atom_site_label
 _atom_site_symmetry_multiplicity
 _atom_site_fract_x
 _atom_site_fract_y
 _atom_site_fract_z
 _atom_site_occupancy
  Li  Li0  1  0.12500000  0.00000000  0.25000000  1
  Li  Li1  1  0.00000000  0.00000000  0.00000000  1
  Li  Li2  1  0.37500000  0.00000000  0.25000000  1
  Cl  Cl3  1  0.25000000  0.25000000  0.25000000  1
  Cl  Cl4  1  0.00000000  0.25000000  0.12500000  1
  Ti  Ti5  1  0.56638249  0.30199228  0.62123082  1
  Ti  Ti6  1  0.94422657  0.41292553  0.86535911  1
  Zr  Zr7  1  0.59101781  0.73174255  0.13833080  1
  Zr  Zr8  1  0.45182077  0.15436911  0.21434724  1
  Zr  Zr9  1  0.82950421  0.47959239  0.75645825  1
