# generated using pymatgen
data_Li3Ti3V3(CuO)2
_symmetry_space_group_name_H-M   'P 1'
_cell_length_a   7.04006000
_cell_length_b   6.63991087
_cell_length_c   7.38315987
_cell_angle_alpha   94.28698424
_cell_angle_beta   95.80649500
_cell_angle_gamma   95.51695765
_symmetry_Int_Tables_number   1
_chemical_formula_structural   Li3Ti3V3(CuO)2
_chemical_formula_sum   'Li3 Ti3 V3 Cu2 O2'
_cell_volume   340.52135891
_cell_formula_units_Z   1
loop_
 _symmetry_equiv_pos_site_id
 _symmetry_equiv_pos_as_xyz
  1  'x, y, z'
loop_
 _atom_site_type_symbol
 _atom_site_label
 _atom_site_symmetry_multiplicity
 _atom_site_fract_x
 _atom_site_fract_y
 _atom_site_fract_z
 _atom_site_occupancy
  Li  Li0  1  0.12500000  0.00000000  0.25000000  1
  Li  Li1  1  0.00000000  0.00000000  0.00000000  1
  Li  Li2  1  0.37500000  0.00000000  0.25000000  1
  Cu  Cu3  1  0.25000000  0.25000000  0.25000000  1
  Cu  Cu4  1  0.00000000  0.25000000  0.12500000  1
  Ti  Ti5  1  0.91455428  0.53731885  0.49517309  1
  Ti  Ti6  1  0.23603914  0.61482719  0.81803755  1
  Ti  Ti7  1  0.44207395  0.83766265  0.34244029  1
  V  V8  1  0.67555243  0.58412182  0.36866837  1
  V  V9  1  0.44929589  0.93861136  0.48121580  1
  V  V10  1  0.84790370  0.94155837  0.10642092  1
  O  O11  1  0.42123603  0.00295542  0.70764178  1
  O  O12  1  0.57967228  0.01732778  0.39534616  1
