# generated using pymatgen
data_Li2TiP4Se2O
_symmetry_space_group_name_H-M   'P 1'
_cell_length_a   7.95436851
_cell_length_b   7.64087637
_cell_length_c   7.07036701
_cell_angle_alpha   90.28588384
_cell_angle_beta   91.36014847
_cell_angle_gamma   90.32684156
_symmetry_Int_Tables_number   1
_chemical_formula_structural   Li2TiP4Se2O
_chemical_formula_sum   'Li2 Ti1 P4 Se2 O1'
_cell_volume   429.59150135
_cell_formula_units_Z   1
loop_
 _symmetry_equiv_pos_site_id
 _symmetry_equiv_pos_as_xyz
  1  'x, y, z'
loop_
 _atom_site_type_symbol
 _atom_site_label
 _atom_site_symmetry_multiplicity
 _atom_site_fract_x
 _atom_site_fract_y
 _atom_site_fract_z
 _atom_site_occupancy
  P  P0  1  0.00000000  0.00000000  0.00000000  1
  P  P1  1  0.50000000  0.50000000  0.50000000  1
  P  P2  1  0.50000000  0.50000000  0.00000000  1
  P  P3  1  0.50000000  0.00000000  0.50000000  1
  Li  Li4  1  0.00000000  0.50000000  0.50000000  1
  Li  Li5  1  0.87566446  0.65078507  0.57839532  1
  Se  Se6  1  0.83832024  0.36219796  0.43373490  1
  Se  Se7  1  0.92118996  0.60766446  0.68448969  1
  Ti  Ti8  1  0.47397206  0.40249648  0.89804517  1
  O  O9  1  0.16239707  0.29647300  0.63167443  1
