# generated using pymatgen
data_Li2Ti2P3Se2O
_symmetry_space_group_name_H-M   'P 1'
_cell_length_a   7.67863945
_cell_length_b   7.25066490
_cell_length_c   6.79717378
_cell_angle_alpha   90.30893274
_cell_angle_beta   91.46980815
_cell_angle_gamma   90.35319261
_symmetry_Int_Tables_number   1
_chemical_formula_structural   Li2Ti2P3Se2O
_chemical_formula_sum   'Li2 Ti2 P3 Se2 O1'
_cell_volume   378.29676112
_cell_formula_units_Z   1
loop_
 _symmetry_equiv_pos_site_id
 _symmetry_equiv_pos_as_xyz
  1  'x, y, z'
loop_
 _atom_site_type_symbol
 _atom_site_label
 _atom_site_symmetry_multiplicity
 _atom_site_fract_x
 _atom_site_fract_y
 _atom_site_fract_z
 _atom_site_occupancy
  P  P0  1  0.00000000  0.00000000  0.00000000  1
  P  P1  1  0.50000000  0.50000000  0.50000000  1
  P  P2  1  0.25000000  0.25000000  0.25000000  1
  Li  Li3  1  0.75000000  0.25000000  0.00000000  1
  Li  Li4  1  0.25000000  0.75000000  0.50000000  1
  Se  Se5  1  0.32275700  0.87821395  0.95248082  1
  Se  Se6  1  0.81191630  0.25051297  0.19423412  1
  Ti  Ti7  1  0.39837683  0.34502081  0.01923961  1
  Ti  Ti8  1  0.69952735  0.37589757  0.20563699  1
  O  O9  1  0.85520692  0.11222690  0.72239933  1
