# generated using pymatgen
data_Li2MnSb4P3
_symmetry_space_group_name_H-M   'P 1'
_cell_length_a   7.13146820
_cell_length_b   7.63389513
_cell_length_c   8.02279180
_cell_angle_alpha   91.93509049
_cell_angle_beta   92.29229348
_cell_angle_gamma   92.20237190
_symmetry_Int_Tables_number   1
_chemical_formula_structural   Li2MnSb4P3
_chemical_formula_sum   'Li2 Mn1 Sb4 P3'
_cell_volume   435.82327147
_cell_formula_units_Z   1
loop_
 _symmetry_equiv_pos_site_id
 _symmetry_equiv_pos_as_xyz
  1  'x, y, z'
loop_
 _atom_site_type_symbol
 _atom_site_label
 _atom_site_symmetry_multiplicity
 _atom_site_fract_x
 _atom_site_fract_y
 _atom_site_fract_z
 _atom_site_occupancy
  Mn  Mn0  1  0.12500000  0.00000000  0.25000000  1
  Sb  Sb1  1  0.00000000  0.00000000  0.00000000  1
  Sb  Sb2  1  0.37500000  0.00000000  0.25000000  1
  Sb  Sb3  1  0.25000000  0.25000000  0.25000000  1
  Sb  Sb4  1  0.00000000  0.25000000  0.12500000  1
  P  P5  1  0.90307530  0.67629148  0.91531269  1
  P  P6  1  0.21933257  0.59155444  0.62878307  1
  P  P7  1  0.11030634  0.22633187  0.81931858  1
  Li  Li8  1  0.31274410  0.85188471  0.97491092  1
  Li  Li9  1  0.11902408  0.65427791  0.41972651  1
