# generated using pymatgen
data_LiTiP3F
_symmetry_space_group_name_H-M   'P 1'
_cell_length_a   8.41367138
_cell_length_b   8.10241285
_cell_length_c   7.94469854
_cell_angle_alpha   90.17530082
_cell_angle_beta   90.83402806
_cell_angle_gamma   90.20041565
_symmetry_Int_Tables_number   1
_chemical_formula_structural   LiTiP3F
_chemical_formula_sum   'Li2 Ti2 P6 F2'
_cell_volume   541.53504245
_cell_formula_units_Z   2
loop_
 _symmetry_equiv_pos_site_id
 _symmetry_equiv_pos_as_xyz
  1  'x, y, z'
loop_
 _atom_site_type_symbol
 _atom_site_label
 _atom_site_symmetry_multiplicity
 _atom_site_fract_x
 _atom_site_fract_y
 _atom_site_fract_z
 _atom_site_occupancy
  P  P0  1  0.00000000  0.00000000  0.00000000  1
  P  P1  1  0.50000000  0.50000000  0.50000000  1
  P  P2  1  0.50000000  0.50000000  0.00000000  1
  P  P3  1  0.50000000  0.00000000  0.50000000  1
  P  P4  1  0.00000000  0.50000000  0.50000000  1
  P  P5  1  0.09737537  0.57855402  0.12744775  1
  Li  Li6  1  0.99235378  0.93412066  0.88528686  1
  Li  Li7  1  0.44768395  0.19208125  0.61847366  1
  F  F8  1  0.85890972  0.91967328  0.16806085  1
  F  F9  1  0.42670641  0.41737996  0.18248842  1
  Ti  Ti10  1  0.26250386  0.29940077  0.62600876  1
  Ti  Ti11  1  0.95939781  0.39517567  0.89591305  1
