# generated using pymatgen
data_Li3V3N6O5
_symmetry_space_group_name_H-M   'P 1'
_cell_length_a   8.23241691
_cell_length_b   7.71532012
_cell_length_c   8.66547313
_cell_angle_alpha   90.00000000
_cell_angle_beta   90.00000000
_cell_angle_gamma   90.00000000
_symmetry_Int_Tables_number   1
_chemical_formula_structural   Li3V3N6O5
_chemical_formula_sum   'Li3 V3 N6 O5'
_cell_volume   550.39386744
_cell_formula_units_Z   1
loop_
 _symmetry_equiv_pos_site_id
 _symmetry_equiv_pos_as_xyz
  1  'x, y, z'
loop_
 _atom_site_type_symbol
 _atom_site_label
 _atom_site_symmetry_multiplicity
 _atom_site_fract_x
 _atom_site_fract_y
 _atom_site_fract_z
 _atom_site_occupancy
  Li  Li0  1  0.00000000  0.00000000  0.00000000  1
  Li  Li1  1  0.50000000  0.50000000  0.50000000  1
  Li  Li2  1  0.25000000  0.25000000  0.25000000  1
  V  V3  1  0.75000000  0.25000000  0.00000000  1
  V  V4  1  0.25000000  0.75000000  0.50000000  1
  V  V5  1  0.16889853  0.99659236  0.35648881  1
  O  O6  1  0.26826905  0.59222274  0.80468245  1
  O  O7  1  0.89460828  0.55693045  0.32613523  1
  O  O8  1  0.71871204  0.30609071  0.94007924  1
  O  O9  1  0.55194040  0.70089274  0.64712415  1
  O  O10  1  0.52616869  0.34954168  0.29487016  1
  N  N11  1  0.83293146  0.67328496  0.06165898  1
  N  N12  1  0.34507462  0.56887158  0.60402760  1
  N  N13  1  0.56403317  0.76716584  0.27013688  1
  N  N14  1  0.59378457  0.70917168  0.95314766  1
  N  N15  1  0.70658908  0.73424929  0.01185313  1
  N  N16  1  0.17648964  0.97341211  0.56610830  1
