# generated using pymatgen
data_Li2P3
_symmetry_space_group_name_H-M   'P 1'
_cell_length_a   5.66577269
_cell_length_b   6.09317148
_cell_length_c   6.88636755
_cell_angle_alpha   97.03215337
_cell_angle_beta   93.18332513
_cell_angle_gamma   97.28668139
_symmetry_Int_Tables_number   1
_chemical_formula_structural   Li2P3
_chemical_formula_sum   'Li2 P3'
_cell_volume   233.43047159
_cell_formula_units_Z   1
loop_
 _symmetry_equiv_pos_site_id
 _symmetry_equiv_pos_as_xyz
  1  'x, y, z'
loop_
 _atom_site_type_symbol
 _atom_site_label
 _atom_site_symmetry_multiplicity
 _atom_site_fract_x
 _atom_site_fract_y
 _atom_site_fract_z
 _atom_site_occupancy
  P  P0  1  0.00000000  0.00000000  0.00000000  1
  P  P1  1  0.50000000  0.50000000  0.50000000  1
  P  P2  1  0.50000000  0.50000000  0.00000000  1
  Li  Li3  1  0.50000000  0.00000000  0.50000000  1
  Li  Li4  1  0.00000000  0.50000000  0.50000000  1
