# generated using pymatgen
data_Li2Mn2Sb4P3
_symmetry_space_group_name_H-M   'P 1'
_cell_length_a   5.60447107
_cell_length_b   6.03496452
_cell_length_c   6.94538553
_cell_angle_alpha   96.77167620
_cell_angle_beta   93.95675934
_cell_angle_gamma   97.14090856
_symmetry_Int_Tables_number   1
_chemical_formula_structural   Li2Mn2Sb4P3
_chemical_formula_sum   'Li2 Mn2 Sb4 P3'
_cell_volume   230.62824852
_cell_formula_units_Z   1
loop_
 _symmetry_equiv_pos_site_id
 _symmetry_equiv_pos_as_xyz
  1  'x, y, z'
loop_
 _atom_site_type_symbol
 _atom_site_label
 _atom_site_symmetry_multiplicity
 _atom_site_fract_x
 _atom_site_fract_y
 _atom_site_fract_z
 _atom_site_occupancy
  Mn  Mn0  1  0.12500000  0.00000000  0.25000000  1
  Mn  Mn1  1  0.00000000  0.00000000  0.00000000  1
  Sb  Sb2  1  0.37500000  0.00000000  0.25000000  1
  Sb  Sb3  1  0.25000000  0.25000000  0.25000000  1
  Sb  Sb4  1  0.00000000  0.25000000  0.12500000  1
  Sb  Sb5  1  0.89060912  0.50548131  0.46809094  1
  P  P6  1  0.19761804  0.29724853  0.57817239  1
  P  P7  1  0.79857520  0.46419684  0.68782045  1
  P  P8  1  0.96649847  0.65559581  0.54096218  1
  Li  Li9  1  0.03020343  0.06701197  0.73817091  1
  Li  Li10  1  0.51758859  0.69539652  0.05832155  1
