# generated using pymatgen
data_LiMnMo2P3N
_symmetry_space_group_name_H-M   'P 1'
_cell_length_a   4.05304322
_cell_length_b   4.25898015
_cell_length_c   5.84831791
_cell_angle_alpha   99.34134649
_cell_angle_beta   97.47458357
_cell_angle_gamma   98.51207420
_symmetry_Int_Tables_number   1
_chemical_formula_structural   LiMnMo2P3N
_chemical_formula_sum   'Li1 Mn1 Mo2 P3 N1'
_cell_volume   97.28040653
_cell_formula_units_Z   1
loop_
 _symmetry_equiv_pos_site_id
 _symmetry_equiv_pos_as_xyz
  1  'x, y, z'
loop_
 _atom_site_type_symbol
 _atom_site_label
 _atom_site_symmetry_multiplicity
 _atom_site_fract_x
 _atom_site_fract_y
 _atom_site_fract_z
 _atom_site_occupancy
  N  N0  1  0.12500000  0.00000000  0.25000000  1
  Mn  Mn1  1  0.00000000  0.00000000  0.00000000  1
  P  P2  1  0.37500000  0.00000000  0.25000000  1
  P  P3  1  0.25000000  0.25000000  0.25000000  1
  P  P4  1  0.00000000  0.25000000  0.12500000  1
  Mo  Mo5  1  0.32115513  0.19505459  0.74644258  1
  Mo  Mo6  1  0.75147205  0.15964614  0.37030762  1
  Li  Li7  1  0.04234403  0.55284253  0.66531229  1
