# generated using pymatgen
data_Li2TiP3O2
_symmetry_space_group_name_H-M   'P 1'
_cell_length_a   8.23767053
_cell_length_b   7.99036001
_cell_length_c   7.02935531
_cell_angle_alpha   90.22760137
_cell_angle_beta   91.08285820
_cell_angle_gamma   90.26020914
_symmetry_Int_Tables_number   1
_chemical_formula_structural   Li2TiP3O2
_chemical_formula_sum   'Li2 Ti1 P3 O2'
_cell_volume   462.59468396
_cell_formula_units_Z   1
loop_
 _symmetry_equiv_pos_site_id
 _symmetry_equiv_pos_as_xyz
  1  'x, y, z'
loop_
 _atom_site_type_symbol
 _atom_site_label
 _atom_site_symmetry_multiplicity
 _atom_site_fract_x
 _atom_site_fract_y
 _atom_site_fract_z
 _atom_site_occupancy
  P  P0  1  0.12500000  0.12500000  0.12500000  1
  P  P1  1  0.50000000  0.50000000  0.50000000  1
  P  P2  1  0.25000000  0.25000000  0.25000000  1
  Li  Li3  1  0.75000000  0.75000000  0.75000000  1
  Li  Li4  1  0.36321622  0.11743092  0.45650057  1
  Ti  Ti5  1  0.88419283  0.65136456  0.87121869  1
  O  O6  1  0.52546214  0.13206416  0.30319040  1
  O  O7  1  0.59749316  0.05996003  0.26768600  1
