# generated using pymatgen
data_Li3TiNi2(IO)4
_symmetry_space_group_name_H-M   'P 1'
_cell_length_a   8.64433165
_cell_length_b   8.73438817
_cell_length_c   7.79454551
_cell_angle_alpha   90.00000000
_cell_angle_beta   90.00000000
_cell_angle_gamma   90.00000000
_symmetry_Int_Tables_number   1
_chemical_formula_structural   Li3TiNi2(IO)4
_chemical_formula_sum   'Li3 Ti1 Ni2 I4 O4'
_cell_volume   588.51116565
_cell_formula_units_Z   1
loop_
 _symmetry_equiv_pos_site_id
 _symmetry_equiv_pos_as_xyz
  1  'x, y, z'
loop_
 _atom_site_type_symbol
 _atom_site_label
 _atom_site_symmetry_multiplicity
 _atom_site_fract_x
 _atom_site_fract_y
 _atom_site_fract_z
 _atom_site_occupancy
  I  I0  1  0.12500000  0.00000000  0.25000000  1
  I  I1  1  0.00000000  0.00000000  0.00000000  1
  I  I2  1  0.37500000  0.00000000  0.25000000  1
  I  I3  1  0.25000000  0.25000000  0.25000000  1
  Li  Li4  1  0.00000000  0.25000000  0.12500000  1
  Li  Li5  1  0.68775565  0.54627946  0.46851405  1
  Li  Li6  1  0.24832672  0.88235721  0.65558036  1
  Ni  Ni7  1  0.70797664  0.08249251  0.26232705  1
  Ni  Ni8  1  0.75838372  0.38503370  0.56881121  1
  Ti  Ti9  1  0.63086444  0.55631875  0.49013347  1
  O  O10  1  0.31436233  0.16058896  0.61863120  1
  O  O11  1  0.76322301  0.80666814  0.57770782  1
  O  O12  1  0.05145736  0.81182144  0.77136377  1
  O  O13  1  0.77702548  0.87288472  0.47238284  1
