# generated using pymatgen
data_Li2MnSb4P3
_symmetry_space_group_name_H-M   'P 1'
_cell_length_a   6.23332958
_cell_length_b   6.59756141
_cell_length_c   7.70432931
_cell_angle_alpha   94.14620584
_cell_angle_beta   94.91156392
_cell_angle_gamma   94.71889418
_symmetry_Int_Tables_number   1
_chemical_formula_structural   Li2MnSb4P3
_chemical_formula_sum   'Li2 Mn1 Sb4 P3'
_cell_volume   313.59929771
_cell_formula_units_Z   1
loop_
 _symmetry_equiv_pos_site_id
 _symmetry_equiv_pos_as_xyz
  1  'x, y, z'
loop_
 _atom_site_type_symbol
 _atom_site_label
 _atom_site_symmetry_multiplicity
 _atom_site_fract_x
 _atom_site_fract_y
 _atom_site_fract_z
 _atom_site_occupancy
  Mn  Mn0  1  0.00000000  0.00000000  0.00000000  1
  Sb  Sb1  1  0.50000000  0.50000000  0.50000000  1
  Sb  Sb2  1  0.50000000  0.50000000  0.00000000  1
  Sb  Sb3  1  0.50000000  0.00000000  0.50000000  1
  Sb  Sb4  1  0.00000000  0.50000000  0.50000000  1
  P  P5  1  0.52231337  0.71160881  0.78826711  1
  P  P6  1  0.03643663  0.77623673  0.85847395  1
  P  P7  1  0.87116922  0.46994662  0.09758513  1
  Li  Li8  1  0.04571945  0.79335197  0.03048495  1
  Li  Li9  1  0.37579653  0.72973157  0.19100169  1
