# generated using pymatgen
data_Li3V3P3N5
_symmetry_space_group_name_H-M   'P 1'
_cell_length_a   7.93863696
_cell_length_b   7.23642713
_cell_length_c   8.13094396
_cell_angle_alpha   91.06862500
_cell_angle_beta   90.37780381
_cell_angle_gamma   91.23947563
_symmetry_Int_Tables_number   1
_chemical_formula_structural   Li3V3P3N5
_chemical_formula_sum   'Li3 V3 P3 N5'
_cell_volume   466.89937397
_cell_formula_units_Z   1
loop_
 _symmetry_equiv_pos_site_id
 _symmetry_equiv_pos_as_xyz
  1  'x, y, z'
loop_
 _atom_site_type_symbol
 _atom_site_label
 _atom_site_symmetry_multiplicity
 _atom_site_fract_x
 _atom_site_fract_y
 _atom_site_fract_z
 _atom_site_occupancy
  P  P0  1  0.12500000  0.12500000  0.12500000  1
  P  P1  1  0.50000000  0.50000000  0.50000000  1
  P  P2  1  0.25000000  0.25000000  0.25000000  1
  Li  Li3  1  0.75000000  0.75000000  0.75000000  1
  Li  Li4  1  0.09350105  0.88628865  0.42628275  1
  Li  Li5  1  0.50804481  0.22199244  0.43138241  1
  V  V6  1  0.26425604  0.34493211  0.14718934  1
  V  V7  1  0.68816521  0.43615104  0.19400044  1
  V  V8  1  0.46865743  0.43915887  0.72481323  1
  N  N9  1  0.09690537  0.13074093  0.89275555  1
  N  N10  1  0.69498655  0.02920431  0.11112163  1
  N  N11  1  0.05485240  0.97216849  0.33613109  1
  N  N12  1  0.38208599  0.35609251  0.68896854  1
  N  N13  1  0.08191097  0.77910315  0.01875459  1
