# generated using pymatgen
data_Li2Mn2Sb4P2N
_symmetry_space_group_name_H-M   'P 1'
_cell_length_a   5.05797382
_cell_length_b   5.43848640
_cell_length_c   6.74531353
_cell_angle_alpha   98.64527746
_cell_angle_beta   96.51268733
_cell_angle_gamma   98.25123207
_symmetry_Int_Tables_number   1
_chemical_formula_structural   Li2Mn2Sb4P2N
_chemical_formula_sum   'Li2 Mn2 Sb4 P2 N1'
_cell_volume   179.80475230
_cell_formula_units_Z   1
loop_
 _symmetry_equiv_pos_site_id
 _symmetry_equiv_pos_as_xyz
  1  'x, y, z'
loop_
 _atom_site_type_symbol
 _atom_site_label
 _atom_site_symmetry_multiplicity
 _atom_site_fract_x
 _atom_site_fract_y
 _atom_site_fract_z
 _atom_site_occupancy
  N  N0  1  0.12500000  0.00000000  0.25000000  1
  Mn  Mn1  1  0.00000000  0.00000000  0.00000000  1
  Mn  Mn2  1  0.37500000  0.00000000  0.25000000  1
  Sb  Sb3  1  0.25000000  0.25000000  0.25000000  1
  Sb  Sb4  1  0.00000000  0.25000000  0.12500000  1
  Sb  Sb5  1  0.26106673  0.13882456  0.32907898  1
  Sb  Sb6  1  0.63925252  0.31567856  0.29004610  1
  P  P7  1  0.86983271  0.55883845  0.19727455  1
  P  P8  1  0.60416012  0.08460783  0.36973058  1
  Li  Li9  1  0.41177913  0.40456329  0.86571480  1
  Li  Li10  1  0.53506750  0.28800397  0.14537887  1
