# generated using pymatgen
data_Li2Ti2Cu2O2F3
_symmetry_space_group_name_H-M   'P 1'
_cell_length_a   4.40980674
_cell_length_b   4.66339199
_cell_length_c   6.17201865
_cell_angle_alpha   97.95165928
_cell_angle_beta   108.01778407
_cell_angle_gamma   99.95094589
_symmetry_Int_Tables_number   1
_chemical_formula_structural   Li2Ti2Cu2O2F3
_chemical_formula_sum   'Li2 Ti2 Cu2 O2 F3'
_cell_volume   116.36638892
_cell_formula_units_Z   1
loop_
 _symmetry_equiv_pos_site_id
 _symmetry_equiv_pos_as_xyz
  1  'x, y, z'
loop_
 _atom_site_type_symbol
 _atom_site_label
 _atom_site_symmetry_multiplicity
 _atom_site_fract_x
 _atom_site_fract_y
 _atom_site_fract_z
 _atom_site_occupancy
  F  F0  1  0.00000000  0.00000000  0.00000000  1
  F  F1  1  0.50000000  0.50000000  0.50000000  1
  F  F2  1  0.25000000  0.25000000  0.25000000  1
  Ti  Ti3  1  0.75000000  0.25000000  0.00000000  1
  Ti  Ti4  1  0.25000000  0.75000000  0.50000000  1
  O  O5  1  0.67879679  0.26137735  0.53363347  1
  O  O6  1  0.46124584  0.50585055  0.82076278  1
  Li  Li7  1  0.39494104  0.53137639  0.51242783  1
  Li  Li8  1  0.61004018  0.16996231  0.63736013  1
  Cu  Cu9  1  0.69826548  0.49579590  0.00054445  1
  Cu  Cu10  1  0.28446400  0.76536671  0.58811504  1
