# generated using pymatgen
data_Li2Mn2Sb4P3
_symmetry_space_group_name_H-M   'P 1'
_cell_length_a   4.57377294
_cell_length_b   4.79485917
_cell_length_c   6.22383782
_cell_angle_alpha   102.80622057
_cell_angle_beta   92.70022228
_cell_angle_gamma   102.83845261
_symmetry_Int_Tables_number   1
_chemical_formula_structural   Li2Mn2Sb4P3
_chemical_formula_sum   'Li2 Mn2 Sb4 P3'
_cell_volume   129.10163066
_cell_formula_units_Z   1
loop_
 _symmetry_equiv_pos_site_id
 _symmetry_equiv_pos_as_xyz
  1  'x, y, z'
loop_
 _atom_site_type_symbol
 _atom_site_label
 _atom_site_symmetry_multiplicity
 _atom_site_fract_x
 _atom_site_fract_y
 _atom_site_fract_z
 _atom_site_occupancy
  Mn  Mn0  1  0.00000000  0.00000000  0.00000000  1
  Mn  Mn1  1  0.50000000  0.50000000  0.50000000  1
  Sb  Sb2  1  0.25000000  0.25000000  0.25000000  1
  Sb  Sb3  1  0.75000000  0.25000000  0.00000000  1
  Sb  Sb4  1  0.25000000  0.75000000  0.50000000  1
  Sb  Sb5  1  0.92117757  0.12579835  0.50065864  1
  P  P6  1  0.05370960  0.02248578  0.33325034  1
  P  P7  1  0.95170288  0.66421584  0.36964065  1
  P  P8  1  0.04655457  0.12840190  0.89046522  1
  Li  Li9  1  0.97937604  0.25473407  0.52029454  1
  Li  Li10  1  0.71781817  0.48884722  0.30236229  1
