# generated using pymatgen
data_Li4LuNi2P4N5
_symmetry_space_group_name_H-M   'P 1'
_cell_length_a   7.43249497
_cell_length_b   7.05219556
_cell_length_c   8.86811598
_cell_angle_alpha   93.49759716
_cell_angle_beta   91.23654746
_cell_angle_gamma   94.05678930
_symmetry_Int_Tables_number   1
_chemical_formula_structural   Li4LuNi2P4N5
_chemical_formula_sum   'Li4 Lu1 Ni2 P4 N5'
_cell_volume   462.64105756
_cell_formula_units_Z   1
loop_
 _symmetry_equiv_pos_site_id
 _symmetry_equiv_pos_as_xyz
  1  'x, y, z'
loop_
 _atom_site_type_symbol
 _atom_site_label
 _atom_site_symmetry_multiplicity
 _atom_site_fract_x
 _atom_site_fract_y
 _atom_site_fract_z
 _atom_site_occupancy
  P  P0  1  0.00000000  0.00000000  0.00000000  1
  P  P1  1  0.50000000  0.50000000  0.50000000  1
  P  P2  1  0.25000000  0.25000000  0.25000000  1
  P  P3  1  0.75000000  0.25000000  0.00000000  1
  Lu  Lu4  1  0.25000000  0.75000000  0.50000000  1
  Li  Li5  1  0.55512328  0.05298974  0.03668390  1
  Li  Li6  1  0.92484670  0.31906156  0.18072819  1
  Li  Li7  1  0.46831197  0.68086472  0.57100117  1
  Li  Li8  1  0.32336834  0.71848370  0.68244108  1
  Ni  Ni9  1  0.75347208  0.75909763  0.90973019  1
  Ni  Ni10  1  0.95796876  0.70840606  0.30731417  1
  N  N11  1  0.77833401  0.57474708  0.61272495  1
  N  N12  1  0.42144236  0.59088975  0.32755904  1
  N  N13  1  0.58866709  0.27937536  0.73150170  1
  N  N14  1  0.45840988  0.52526776  0.09376832  1
  N  N15  1  0.00343898  0.39341407  0.24563471  1
