# generated using pymatgen
data_Li2Sb3P6I4O
_symmetry_space_group_name_H-M   'P 1'
_cell_length_a   8.38051147
_cell_length_b   8.21970842
_cell_length_c   7.66224992
_cell_angle_alpha   90.10866714
_cell_angle_beta   90.51700523
_cell_angle_gamma   90.12423555
_symmetry_Int_Tables_number   1
_chemical_formula_structural   Li2Sb3P6I4O
_chemical_formula_sum   'Li2 Sb3 P6 I4 O1'
_cell_volume   527.79315157
_cell_formula_units_Z   1
loop_
 _symmetry_equiv_pos_site_id
 _symmetry_equiv_pos_as_xyz
  1  'x, y, z'
loop_
 _atom_site_type_symbol
 _atom_site_label
 _atom_site_symmetry_multiplicity
 _atom_site_fract_x
 _atom_site_fract_y
 _atom_site_fract_z
 _atom_site_occupancy
  I  I0  1  0.12500000  0.00000000  0.25000000  1
  I  I1  1  0.00000000  0.00000000  0.00000000  1
  I  I2  1  0.37500000  0.00000000  0.25000000  1
  I  I3  1  0.25000000  0.25000000  0.25000000  1
  P  P4  1  0.00000000  0.25000000  0.12500000  1
  P  P5  1  0.18477025  0.03652358  0.65161719  1
  P  P6  1  0.03283530  0.23131596  0.24426077  1
  P  P7  1  0.96602240  0.66788006  0.74014797  1
  P  P8  1  0.10661224  0.28871703  0.59537652  1
  P  P9  1  0.44563220  0.85197656  0.20249772  1
  Sb  Sb10  1  0.99733784  0.94461397  0.81559165  1
  Sb  Sb11  1  0.28998654  0.97333902  0.99898825  1
  Sb  Sb12  1  0.30727411  0.99667729  0.63693629  1
  Li  Li13  1  0.99256787  0.45722866  0.85380582  1
  Li  Li14  1  0.50501729  0.39305843  0.38219037  1
  O  O15  1  0.98981460  0.70464976  0.81130709  1
