# generated using pymatgen
data_Li3Ni2(PI)4
_symmetry_space_group_name_H-M   'P 1'
_cell_length_a   8.11202096
_cell_length_b   8.13103358
_cell_length_c   8.43880607
_cell_angle_alpha   91.23263545
_cell_angle_beta   90.43578839
_cell_angle_gamma   91.42970790
_symmetry_Int_Tables_number   1
_chemical_formula_structural   Li3Ni2(PI)4
_chemical_formula_sum   'Li3 Ni2 P4 I4'
_cell_volume   556.29566891
_cell_formula_units_Z   1
loop_
 _symmetry_equiv_pos_site_id
 _symmetry_equiv_pos_as_xyz
  1  'x, y, z'
loop_
 _atom_site_type_symbol
 _atom_site_label
 _atom_site_symmetry_multiplicity
 _atom_site_fract_x
 _atom_site_fract_y
 _atom_site_fract_z
 _atom_site_occupancy
  I  I0  1  0.12500000  0.00000000  0.25000000  1
  I  I1  1  0.00000000  0.00000000  0.00000000  1
  I  I2  1  0.37500000  0.00000000  0.25000000  1
  I  I3  1  0.25000000  0.25000000  0.25000000  1
  P  P4  1  0.00000000  0.25000000  0.12500000  1
  P  P5  1  0.19452241  0.76457365  0.22185747  1
  P  P6  1  0.92712639  0.98902108  0.44449910  1
  P  P7  1  0.91361248  0.80563861  0.43474224  1
  Li  Li8  1  0.51962115  0.94440062  0.80708868  1
  Li  Li9  1  0.82179403  0.31364640  0.35324967  1
  Li  Li10  1  0.17598259  0.50147435  0.94983622  1
  Ni  Ni11  1  0.18382521  0.59395716  0.68003020  1
  Ni  Ni12  1  0.14979299  0.59431652  0.55633349  1
