# generated using pymatgen
data_Li3Ti2Cu2(Te3S)2
_symmetry_space_group_name_H-M   'P 1'
_cell_length_a   5.60748060
_cell_length_b   5.89265637
_cell_length_c   7.09334770
_cell_angle_alpha   98.90614167
_cell_angle_beta   102.14812412
_cell_angle_gamma   100.62478707
_symmetry_Int_Tables_number   1
_chemical_formula_structural   Li3Ti2Cu2(Te3S)2
_chemical_formula_sum   'Li3 Ti2 Cu2 Te6 S2'
_cell_volume   220.58852105
_cell_formula_units_Z   1
loop_
 _symmetry_equiv_pos_site_id
 _symmetry_equiv_pos_as_xyz
  1  'x, y, z'
loop_
 _atom_site_type_symbol
 _atom_site_label
 _atom_site_symmetry_multiplicity
 _atom_site_fract_x
 _atom_site_fract_y
 _atom_site_fract_z
 _atom_site_occupancy
  Li  Li0  1  0.00000000  0.00000000  0.00000000  1
  Li  Li1  1  0.50000000  0.50000000  0.50000000  1
  Li  Li2  1  0.25000000  0.25000000  0.25000000  1
  Cu  Cu3  1  0.75000000  0.25000000  0.00000000  1
  Cu  Cu4  1  0.25000000  0.75000000  0.50000000  1
  Te  Te5  1  0.72191500  0.43532192  0.23218694  1
  Te  Te6  1  0.59957805  0.12913312  0.08362726  1
  Te  Te7  1  0.60070701  0.79439196  0.22203178  1
  Te  Te8  1  0.86108973  0.33317969  0.59510385  1
  Te  Te9  1  0.65121414  0.95017749  0.28979825  1
  Te  Te10  1  0.71958465  0.00472036  0.82806321  1
  Ti  Ti11  1  0.28307825  0.72442600  0.04461196  1
  Ti  Ti12  1  0.40536457  0.13913972  0.72237779  1
  S  S13  1  0.04056819  0.57419366  0.80704809  1
  S  S14  1  0.73451387  0.75479662  0.85679289  1
