# generated using pymatgen
data_Li2Mn3Sb4P3
_symmetry_space_group_name_H-M   'P 1'
_cell_length_a   7.77556775
_cell_length_b   8.10515940
_cell_length_c   7.72338659
_cell_angle_alpha   90.00000000
_cell_angle_beta   90.00000000
_cell_angle_gamma   90.00000000
_symmetry_Int_Tables_number   1
_chemical_formula_structural   Li2Mn3Sb4P3
_chemical_formula_sum   'Li2 Mn3 Sb4 P3'
_cell_volume   486.74493843
_cell_formula_units_Z   1
loop_
 _symmetry_equiv_pos_site_id
 _symmetry_equiv_pos_as_xyz
  1  'x, y, z'
loop_
 _atom_site_type_symbol
 _atom_site_label
 _atom_site_symmetry_multiplicity
 _atom_site_fract_x
 _atom_site_fract_y
 _atom_site_fract_z
 _atom_site_occupancy
  Mn  Mn0  1  0.00000000  0.00000000  0.00000000  1
  Mn  Mn1  1  0.50000000  0.50000000  0.50000000  1
  Mn  Mn2  1  0.50000000  0.50000000  0.00000000  1
  Sb  Sb3  1  0.50000000  0.00000000  0.50000000  1
  Sb  Sb4  1  0.00000000  0.50000000  0.50000000  1
  Sb  Sb5  1  0.75215586  0.26541752  0.24705260  1
  Sb  Sb6  1  0.04995988  0.87900858  0.07510010  1
  P  P7  1  0.51735129  0.73277750  0.40658500  1
  P  P8  1  0.47542442  0.76700509  0.71851908  1
  P  P9  1  0.55831687  0.15023526  0.93870098  1
  Li  Li10  1  0.87256116  0.04896590  0.76364629  1
  Li  Li11  1  0.21685956  0.10219304  0.25611426  1
