# generated using pymatgen
data_Li3Ni2As6I4O5
_symmetry_space_group_name_H-M   'P 1'
_cell_length_a   8.42725385
_cell_length_b   8.54035286
_cell_length_c   8.67414964
_cell_angle_alpha   90.00000000
_cell_angle_beta   90.00000000
_cell_angle_gamma   90.00000000
_symmetry_Int_Tables_number   1
_chemical_formula_structural   Li3Ni2As6I4O5
_chemical_formula_sum   'Li3 Ni2 As6 I4 O5'
_cell_volume   624.29348231
_cell_formula_units_Z   1
loop_
 _symmetry_equiv_pos_site_id
 _symmetry_equiv_pos_as_xyz
  1  'x, y, z'
loop_
 _atom_site_type_symbol
 _atom_site_label
 _atom_site_symmetry_multiplicity
 _atom_site_fract_x
 _atom_site_fract_y
 _atom_site_fract_z
 _atom_site_occupancy
  I  I0  1  0.00000000  0.00000000  0.00000000  1
  I  I1  1  0.50000000  0.50000000  0.50000000  1
  I  I2  1  0.25000000  0.25000000  0.25000000  1
  I  I3  1  0.75000000  0.25000000  0.00000000  1
  Li  Li4  1  0.25000000  0.75000000  0.50000000  1
  Li  Li5  1  0.92016586  0.90976587  0.82934680  1
  Li  Li6  1  0.59118194  0.05504976  0.07509202  1
  Ni  Ni7  1  0.45311620  0.93515386  0.80837050  1
  Ni  Ni8  1  0.08731557  0.87728869  0.46034198  1
  As  As9  1  0.94501712  0.63718506  0.15189111  1
  As  As10  1  0.74965098  0.12054688  0.83716912  1
  As  As11  1  0.92384218  0.30438567  0.07808079  1
  As  As12  1  0.38543638  0.33615711  0.47358885  1
  As  As13  1  0.36536937  0.23827998  0.68803788  1
  As  As14  1  0.26799057  0.13859111  0.47231903  1
  O  O15  1  0.60359506  0.50435584  0.15632149  1
  O  O16  1  0.68878300  0.77500998  0.23187881  1
  O  O17  1  0.65634835  0.71116548  0.59039958  1
  O  O18  1  0.68172153  0.96616072  0.35233621  1
  O  O19  1  0.85146937  0.14567200  0.22853656  1
