# generated using pymatgen
data_Li3Sb3As6(IO)4
_symmetry_space_group_name_H-M   'P 1'
_cell_length_a   7.78408270
_cell_length_b   7.77956203
_cell_length_c   8.63262645
_cell_angle_alpha   91.94276135
_cell_angle_beta   92.63136822
_cell_angle_gamma   92.50015664
_symmetry_Int_Tables_number   1
_chemical_formula_structural   Li3Sb3As6(IO)4
_chemical_formula_sum   'Li3 Sb3 As6 I4 O4'
_cell_volume   521.37780638
_cell_formula_units_Z   1
loop_
 _symmetry_equiv_pos_site_id
 _symmetry_equiv_pos_as_xyz
  1  'x, y, z'
loop_
 _atom_site_type_symbol
 _atom_site_label
 _atom_site_symmetry_multiplicity
 _atom_site_fract_x
 _atom_site_fract_y
 _atom_site_fract_z
 _atom_site_occupancy
  I  I0  1  0.00000000  0.00000000  0.00000000  1
  I  I1  1  0.50000000  0.50000000  0.50000000  1
  I  I2  1  0.25000000  0.25000000  0.25000000  1
  I  I3  1  0.75000000  0.25000000  0.00000000  1
  Li  Li4  1  0.25000000  0.75000000  0.50000000  1
  Li  Li5  1  0.22741870  0.19738605  0.70816967  1
  Li  Li6  1  0.00179942  0.86310417  0.16718979  1
  Sb  Sb7  1  0.13562675  0.15710144  0.08266204  1
  Sb  Sb8  1  0.97690951  0.88887321  0.07624900  1
  Sb  Sb9  1  0.09235199  0.78418083  0.05598810  1
  As  As10  1  0.77913326  0.00078036  0.88338543  1
  As  As11  1  0.16681473  0.90806662  0.28029176  1
  As  As12  1  0.78699757  0.46503512  0.27483369  1
  As  As13  1  0.92501798  0.54667979  0.33700692  1
  As  As14  1  0.36358845  0.32753548  0.04025495  1
  As  As15  1  0.21888068  0.27044292  0.67329323  1
  O  O16  1  0.92943912  0.47245458  0.01600626  1
  O  O17  1  0.88677032  0.23581768  0.10866314  1
  O  O18  1  0.55901885  0.36769581  0.51200873  1
  O  O19  1  0.08827878  0.64603670  0.99721713  1
