# generated using pymatgen
data_Li2MnSb2Mo2P3
_symmetry_space_group_name_H-M   'P 1'
_cell_length_a   5.53161585
_cell_length_b   5.71972276
_cell_length_c   6.90010578
_cell_angle_alpha   97.21592345
_cell_angle_beta   93.92018166
_cell_angle_gamma   97.52377833
_symmetry_Int_Tables_number   1
_chemical_formula_structural   Li2MnSb2Mo2P3
_chemical_formula_sum   'Li2 Mn1 Sb2 Mo2 P3'
_cell_volume   213.92098236
_cell_formula_units_Z   1
loop_
 _symmetry_equiv_pos_site_id
 _symmetry_equiv_pos_as_xyz
  1  'x, y, z'
loop_
 _atom_site_type_symbol
 _atom_site_label
 _atom_site_symmetry_multiplicity
 _atom_site_fract_x
 _atom_site_fract_y
 _atom_site_fract_z
 _atom_site_occupancy
  Mn  Mn0  1  0.12500000  0.00000000  0.25000000  1
  Sb  Sb1  1  0.00000000  0.00000000  0.00000000  1
  Sb  Sb2  1  0.37500000  0.00000000  0.25000000  1
  P  P3  1  0.25000000  0.25000000  0.25000000  1
  P  P4  1  0.00000000  0.25000000  0.12500000  1
  P  P5  1  0.63775366  0.29351791  0.33809819  1
  Mo  Mo6  1  0.67703880  0.43579360  0.93295736  1
  Mo  Mo7  1  0.46351642  0.90083626  0.11891035  1
  Li  Li8  1  0.07763260  0.04526471  0.82284627  1
  Li  Li9  1  0.39569901  0.27735835  0.91830653  1
