# generated using pymatgen
data_Li3Ti2P3I4O3
_symmetry_space_group_name_H-M   'P 1'
_cell_length_a   7.87583691
_cell_length_b   7.73474967
_cell_length_c   7.58929495
_cell_angle_alpha   93.53086337
_cell_angle_beta   95.49211138
_cell_angle_gamma   93.86081310
_symmetry_Int_Tables_number   1
_chemical_formula_structural   Li3Ti2P3I4O3
_chemical_formula_sum   'Li3 Ti2 P3 I4 O3'
_cell_volume   458.07660984
_cell_formula_units_Z   1
loop_
 _symmetry_equiv_pos_site_id
 _symmetry_equiv_pos_as_xyz
  1  'x, y, z'
loop_
 _atom_site_type_symbol
 _atom_site_label
 _atom_site_symmetry_multiplicity
 _atom_site_fract_x
 _atom_site_fract_y
 _atom_site_fract_z
 _atom_site_occupancy
  P  P0  1  0.12500000  0.00000000  0.25000000  1
  P  P1  1  0.00000000  0.00000000  0.00000000  1
  P  P2  1  0.37500000  0.00000000  0.25000000  1
  I  I3  1  0.25000000  0.25000000  0.25000000  1
  I  I4  1  0.00000000  0.25000000  0.12500000  1
  I  I5  1  0.68406187  0.87782553  0.16272432  1
  I  I6  1  0.25372740  0.59055927  0.24175979  1
  Li  Li7  1  0.37915778  0.64960479  0.51355182  1
  Li  Li8  1  0.08877945  0.89919169  0.28953209  1
  Li  Li9  1  0.33927755  0.61772392  0.95084336  1
  Ti  Ti10  1  0.75454206  0.41825326  0.27874266  1
  Ti  Ti11  1  0.01929235  0.51305784  0.92547700  1
  O  O12  1  0.16576802  0.52345901  0.54316115  1
  O  O13  1  0.50613503  0.50528953  0.12297566  1
  O  O14  1  0.06032086  0.09142199  0.85814501  1
