# generated using pymatgen
data_Li3LuNi2P4F2
_symmetry_space_group_name_H-M   'P 1'
_cell_length_a   7.27528855
_cell_length_b   7.07664286
_cell_length_c   8.61608446
_cell_angle_alpha   92.69934839
_cell_angle_beta   95.72751529
_cell_angle_gamma   93.05977414
_symmetry_Int_Tables_number   1
_chemical_formula_structural   Li3LuNi2P4F2
_chemical_formula_sum   'Li3 Lu1 Ni2 P4 F2'
_cell_volume   440.13817254
_cell_formula_units_Z   1
loop_
 _symmetry_equiv_pos_site_id
 _symmetry_equiv_pos_as_xyz
  1  'x, y, z'
loop_
 _atom_site_type_symbol
 _atom_site_label
 _atom_site_symmetry_multiplicity
 _atom_site_fract_x
 _atom_site_fract_y
 _atom_site_fract_z
 _atom_site_occupancy
  P  P0  1  0.00000000  0.00000000  0.00000000  1
  P  P1  1  0.50000000  0.50000000  0.50000000  1
  P  P2  1  0.25000000  0.25000000  0.25000000  1
  P  P3  1  0.75000000  0.25000000  0.00000000  1
  Lu  Lu4  1  0.25000000  0.75000000  0.50000000  1
  Li  Li5  1  0.11610046  0.09667112  0.97732914  1
  Li  Li6  1  0.48446745  0.33423852  0.75212302  1
  Li  Li7  1  0.95792168  0.20683878  0.16065510  1
  F  F8  1  0.37174216  0.86647605  0.78967604  1
  F  F9  1  0.48524209  0.07868926  0.88358992  1
  Ni  Ni10  1  0.07778881  0.28887929  0.10482571  1
  Ni  Ni11  1  0.34832952  0.65400845  0.80831992  1
