# generated using pymatgen
data_Li2MnSb4P2N
_symmetry_space_group_name_H-M   'P 1'
_cell_length_a   3.59024128
_cell_length_b   3.81770265
_cell_length_c   6.59269632
_cell_angle_alpha   101.95148835
_cell_angle_beta   101.44959478
_cell_angle_gamma   102.44875407
_symmetry_Int_Tables_number   1
_chemical_formula_structural   Li2MnSb4P2N
_chemical_formula_sum   'Li2 Mn1 Sb4 P2 N1'
_cell_volume   83.48255961
_cell_formula_units_Z   1
loop_
 _symmetry_equiv_pos_site_id
 _symmetry_equiv_pos_as_xyz
  1  'x, y, z'
loop_
 _atom_site_type_symbol
 _atom_site_label
 _atom_site_symmetry_multiplicity
 _atom_site_fract_x
 _atom_site_fract_y
 _atom_site_fract_z
 _atom_site_occupancy
  N  N0  1  0.12500000  0.00000000  0.25000000  1
  Mn  Mn1  1  0.00000000  0.00000000  0.00000000  1
  Sb  Sb2  1  0.37500000  0.00000000  0.25000000  1
  Sb  Sb3  1  0.25000000  0.25000000  0.25000000  1
  Sb  Sb4  1  0.00000000  0.25000000  0.12500000  1
  Sb  Sb5  1  0.46500272  0.75383500  0.84552750  1
  P  P6  1  0.36765534  0.42173095  0.87847384  1
  P  P7  1  0.91020526  0.99233460  0.02508641  1
  Li  Li8  1  0.52171427  0.65183304  0.87867539  1
  Li  Li9  1  0.57573275  0.20331664  0.60569020  1
