# generated using pymatgen
data_LiV3P3(OF)2
_symmetry_space_group_name_H-M   'P 1'
_cell_length_a   7.60650038
_cell_length_b   7.21274895
_cell_length_c   8.04212104
_cell_angle_alpha   90.81427492
_cell_angle_beta   95.96975211
_cell_angle_gamma   90.85977331
_symmetry_Int_Tables_number   1
_chemical_formula_structural   LiV3P3(OF)2
_chemical_formula_sum   'Li1 V3 P3 O2 F2'
_cell_volume   438.72377902
_cell_formula_units_Z   1
loop_
 _symmetry_equiv_pos_site_id
 _symmetry_equiv_pos_as_xyz
  1  'x, y, z'
loop_
 _atom_site_type_symbol
 _atom_site_label
 _atom_site_symmetry_multiplicity
 _atom_site_fract_x
 _atom_site_fract_y
 _atom_site_fract_z
 _atom_site_occupancy
  P  P0  1  0.00000000  0.00000000  0.00000000  1
  P  P1  1  0.50000000  0.50000000  0.50000000  1
  P  P2  1  0.25000000  0.25000000  0.25000000  1
  Li  Li3  1  0.75000000  0.25000000  0.00000000  1
  F  F4  1  0.25000000  0.75000000  0.50000000  1
  F  F5  1  0.27244699  0.04602789  0.79499742  1
  V  V6  1  0.98487626  0.42270837  0.16575197  1
  V  V7  1  0.45463219  0.67411290  0.31976994  1
  V  V8  1  0.69425534  0.11680861  0.22548986  1
  O  O9  1  0.74652186  0.60426215  0.71570008  1
  O  O10  1  0.11266130  0.83398645  0.34527634  1
