# generated using pymatgen
data_Li2(NiP)3
_symmetry_space_group_name_H-M   'P 1'
_cell_length_a   5.00443435
_cell_length_b   5.16787442
_cell_length_c   6.48997653
_cell_angle_alpha   98.92212660
_cell_angle_beta   93.42275515
_cell_angle_gamma   98.95847472
_symmetry_Int_Tables_number   1
_chemical_formula_structural   Li2(NiP)3
_chemical_formula_sum   'Li2 Ni3 P3'
_cell_volume   163.18620113
_cell_formula_units_Z   1
loop_
 _symmetry_equiv_pos_site_id
 _symmetry_equiv_pos_as_xyz
  1  'x, y, z'
loop_
 _atom_site_type_symbol
 _atom_site_label
 _atom_site_symmetry_multiplicity
 _atom_site_fract_x
 _atom_site_fract_y
 _atom_site_fract_z
 _atom_site_occupancy
  P  P0  1  0.00000000  0.00000000  0.00000000  1
  P  P1  1  0.50000000  0.50000000  0.50000000  1
  P  P2  1  0.50000000  0.50000000  0.00000000  1
  Li  Li3  1  0.50000000  0.00000000  0.50000000  1
  Li  Li4  1  0.00000000  0.50000000  0.50000000  1
  Ni  Ni5  1  0.35195144  0.88506616  0.23956780  1
  Ni  Ni6  1  0.33038083  0.11690190  0.85933879  1
  Ni  Ni7  1  0.76423040  0.31949096  0.89076085  1
