# generated using pymatgen
data_Li2TiI4(O2F)2
_symmetry_space_group_name_H-M   'P 1'
_cell_length_a   8.67396076
_cell_length_b   8.47059452
_cell_length_c   7.53012352
_cell_angle_alpha   90.07679284
_cell_angle_beta   90.36535702
_cell_angle_gamma   90.08779472
_symmetry_Int_Tables_number   1
_chemical_formula_structural   Li2TiI4(O2F)2
_chemical_formula_sum   'Li2 Ti1 I4 O4 F2'
_cell_volume   553.25291476
_cell_formula_units_Z   1
loop_
 _symmetry_equiv_pos_site_id
 _symmetry_equiv_pos_as_xyz
  1  'x, y, z'
loop_
 _atom_site_type_symbol
 _atom_site_label
 _atom_site_symmetry_multiplicity
 _atom_site_fract_x
 _atom_site_fract_y
 _atom_site_fract_z
 _atom_site_occupancy
  I  I0  1  0.00000000  0.00000000  0.00000000  1
  I  I1  1  0.50000000  0.50000000  0.50000000  1
  I  I2  1  0.25000000  0.25000000  0.25000000  1
  I  I3  1  0.75000000  0.25000000  0.00000000  1
  Li  Li4  1  0.25000000  0.75000000  0.50000000  1
  Li  Li5  1  0.67587339  0.91110561  0.14059808  1
  F  F6  1  0.25241669  0.30969449  0.99325724  1
  F  F7  1  0.93387069  0.01681753  0.93397711  1
  Ti  Ti8  1  0.70206784  0.12912997  0.96381987  1
  O  O9  1  0.76850869  0.12536631  0.18130067  1
  O  O10  1  0.15114445  0.61790605  0.16623252  1
  O  O11  1  0.04706375  0.89225520  0.07733622  1
  O  O12  1  0.62187374  0.51654752  0.39679762  1
