# generated using pymatgen
data_Li2Mn2Sb2Mo2P3
_symmetry_space_group_name_H-M   'P 1'
_cell_length_a   5.29608723
_cell_length_b   5.65900477
_cell_length_c   6.69276407
_cell_angle_alpha   97.59906538
_cell_angle_beta   93.79457212
_cell_angle_gamma   97.85177754
_symmetry_Int_Tables_number   1
_chemical_formula_structural   Li2Mn2Sb2Mo2P3
_chemical_formula_sum   'Li2 Mn2 Sb2 Mo2 P3'
_cell_volume   196.23417216
_cell_formula_units_Z   1
loop_
 _symmetry_equiv_pos_site_id
 _symmetry_equiv_pos_as_xyz
  1  'x, y, z'
loop_
 _atom_site_type_symbol
 _atom_site_label
 _atom_site_symmetry_multiplicity
 _atom_site_fract_x
 _atom_site_fract_y
 _atom_site_fract_z
 _atom_site_occupancy
  Mn  Mn0  1  0.00000000  0.00000000  0.00000000  1
  Mn  Mn1  1  0.50000000  0.50000000  0.50000000  1
  Sb  Sb2  1  0.25000000  0.25000000  0.25000000  1
  Sb  Sb3  1  0.75000000  0.25000000  0.00000000  1
  P  P4  1  0.25000000  0.75000000  0.50000000  1
  P  P5  1  0.76194484  0.96977200  0.81961678  1
  P  P6  1  0.21769290  0.59677368  0.44896607  1
  Mo  Mo7  1  0.99067389  0.51225302  0.63746583  1
  Mo  Mo8  1  0.86724323  0.44568457  0.71869263  1
  Li  Li9  1  0.96435882  0.45564069  0.56819046  1
  Li  Li10  1  0.89263500  0.94639876  0.00989906  1
