# generated using pymatgen
data_Li2Mn2Sb4P3
_symmetry_space_group_name_H-M   'P 1'
_cell_length_a   5.36007343
_cell_length_b   5.70554230
_cell_length_c   6.48903079
_cell_angle_alpha   99.92406246
_cell_angle_beta   91.25096217
_cell_angle_gamma   99.83184306
_symmetry_Int_Tables_number   1
_chemical_formula_structural   Li2Mn2Sb4P3
_chemical_formula_sum   'Li2 Mn2 Sb4 P3'
_cell_volume   192.33919060
_cell_formula_units_Z   1
loop_
 _symmetry_equiv_pos_site_id
 _symmetry_equiv_pos_as_xyz
  1  'x, y, z'
loop_
 _atom_site_type_symbol
 _atom_site_label
 _atom_site_symmetry_multiplicity
 _atom_site_fract_x
 _atom_site_fract_y
 _atom_site_fract_z
 _atom_site_occupancy
  Mn  Mn0  1  0.00000000  0.00000000  0.00000000  1
  Mn  Mn1  1  0.33300000  0.66700000  0.25000000  1
  Sb  Sb2  1  0.66700000  0.33300000  0.50000000  1
  Sb  Sb3  1  0.00000000  0.00000000  0.75000000  1
  Sb  Sb4  1  0.75635828  0.63220838  0.87598623  1
  Sb  Sb5  1  0.43083989  0.20363608  0.89314476  1
  P  P6  1  0.66790021  0.25841207  0.27661193  1
  P  P7  1  0.76607250  0.27168930  0.82151670  1
  P  P8  1  0.74030035  0.00523381  0.91175764  1
  Li  Li9  1  0.78981199  0.53375610  0.60636967  1
  Li  Li10  1  0.78632890  0.16424470  0.16708671  1
