# generated using pymatgen
data_Li4TiSeCl2
_symmetry_space_group_name_H-M   'P 1'
_cell_length_a   5.63485414
_cell_length_b   5.54237372
_cell_length_c   6.75834676
_cell_angle_alpha   102.85269077
_cell_angle_beta   106.70711247
_cell_angle_gamma   103.41519983
_symmetry_Int_Tables_number   1
_chemical_formula_structural   Li4TiSeCl2
_chemical_formula_sum   'Li4 Ti1 Se1 Cl2'
_cell_volume   186.93068154
_cell_formula_units_Z   1
loop_
 _symmetry_equiv_pos_site_id
 _symmetry_equiv_pos_as_xyz
  1  'x, y, z'
loop_
 _atom_site_type_symbol
 _atom_site_label
 _atom_site_symmetry_multiplicity
 _atom_site_fract_x
 _atom_site_fract_y
 _atom_site_fract_z
 _atom_site_occupancy
  Li  Li0  1  0.00000000  0.00000000  0.00000000  1
  Li  Li1  1  0.50000000  0.50000000  0.50000000  1
  Li  Li2  1  0.50000000  0.50000000  0.00000000  1
  Li  Li3  1  0.50000000  0.00000000  0.50000000  1
  Se  Se4  1  0.00000000  0.50000000  0.50000000  1
  Cl  Cl5  1  0.15265433  0.92129827  0.23762270  1
  Cl  Cl6  1  0.39268442  0.89592516  0.61493573  1
  Ti  Ti7  1  0.09102239  0.51551664  0.41992625  1
