# generated using pymatgen
data_Li2Ti2P6Br5F2
_symmetry_space_group_name_H-M   'P 1'
_cell_length_a   6.90108065
_cell_length_b   6.44204353
_cell_length_c   7.41268864
_cell_angle_alpha   93.20996718
_cell_angle_beta   94.81168600
_cell_angle_gamma   92.97377756
_symmetry_Int_Tables_number   1
_chemical_formula_structural   Li2Ti2P6Br5F2
_chemical_formula_sum   'Li2 Ti2 P6 Br5 F2'
_cell_volume   327.33920126
_cell_formula_units_Z   1
loop_
 _symmetry_equiv_pos_site_id
 _symmetry_equiv_pos_as_xyz
  1  'x, y, z'
loop_
 _atom_site_type_symbol
 _atom_site_label
 _atom_site_symmetry_multiplicity
 _atom_site_fract_x
 _atom_site_fract_y
 _atom_site_fract_z
 _atom_site_occupancy
  P  P0  1  0.00000000  0.00000000  0.00000000  1
  P  P1  1  0.50000000  0.50000000  0.50000000  1
  P  P2  1  0.25000000  0.25000000  0.25000000  1
  P  P3  1  0.75000000  0.25000000  0.00000000  1
  P  P4  1  0.25000000  0.75000000  0.50000000  1
  P  P5  1  0.06804853  0.76711840  0.40610009  1
  Li  Li6  1  0.36559486  0.75218893  0.56297303  1
  Li  Li7  1  0.55620018  0.81005236  0.00772912  1
  Br  Br8  1  0.23918807  0.55346992  0.69287058  1
  Br  Br9  1  0.13951135  0.09790629  0.60607191  1
  Br  Br10  1  0.62182385  0.50684492  0.99846623  1
  Br  Br11  1  0.97320613  0.15144162  0.46691733  1
  Br  Br12  1  0.85693774  0.74647920  0.44277206  1
  F  F13  1  0.63910797  0.55799907  0.40642063  1
  F  F14  1  0.74860878  0.04497399  0.79679377  1
  Ti  Ti15  1  0.97831113  0.53120905  0.94269315  1
  Ti  Ti16  1  0.91220643  0.61104111  0.41413722  1
