# generated using pymatgen
data_Li2Sb4P3
_symmetry_space_group_name_H-M   'P 1'
_cell_length_a   5.73163069
_cell_length_b   6.12345261
_cell_length_c   6.59384832
_cell_angle_alpha   98.70025065
_cell_angle_beta   90.43463636
_cell_angle_gamma   98.52720263
_symmetry_Int_Tables_number   1
_chemical_formula_structural   Li2Sb4P3
_chemical_formula_sum   'Li2 Sb4 P3'
_cell_volume   226.12823476
_cell_formula_units_Z   1
loop_
 _symmetry_equiv_pos_site_id
 _symmetry_equiv_pos_as_xyz
  1  'x, y, z'
loop_
 _atom_site_type_symbol
 _atom_site_label
 _atom_site_symmetry_multiplicity
 _atom_site_fract_x
 _atom_site_fract_y
 _atom_site_fract_z
 _atom_site_occupancy
  Sb  Sb0  1  0.00000000  0.00000000  0.00000000  1
  Sb  Sb1  1  0.50000000  0.50000000  0.50000000  1
  Sb  Sb2  1  0.25000000  0.25000000  0.25000000  1
  Sb  Sb3  1  0.75000000  0.25000000  0.00000000  1
  P  P4  1  0.25000000  0.75000000  0.50000000  1
  P  P5  1  0.68294159  0.81391827  0.11058633  1
  P  P6  1  0.24627558  0.49916589  0.84571348  1
  Li  Li7  1  0.85276080  0.41186041  0.76631510  1
  Li  Li8  1  0.71490136  0.03936634  0.36761910  1
