# generated using pymatgen
data_Li2TiP3(SeO)2
_symmetry_space_group_name_H-M   'P 1'
_cell_length_a   8.37951902
_cell_length_b   8.16062536
_cell_length_c   7.06876351
_cell_angle_alpha   90.17709317
_cell_angle_beta   90.84255550
_cell_angle_gamma   90.20246478
_symmetry_Int_Tables_number   1
_chemical_formula_structural   Li2TiP3(SeO)2
_chemical_formula_sum   'Li2 Ti1 P3 Se2 O2'
_cell_volume   483.31933340
_cell_formula_units_Z   1
loop_
 _symmetry_equiv_pos_site_id
 _symmetry_equiv_pos_as_xyz
  1  'x, y, z'
loop_
 _atom_site_type_symbol
 _atom_site_label
 _atom_site_symmetry_multiplicity
 _atom_site_fract_x
 _atom_site_fract_y
 _atom_site_fract_z
 _atom_site_occupancy
  P  P0  1  0.00000000  0.00000000  0.00000000  1
  P  P1  1  0.50000000  0.50000000  0.50000000  1
  P  P2  1  0.50000000  0.50000000  0.00000000  1
  Li  Li3  1  0.50000000  0.00000000  0.50000000  1
  Li  Li4  1  0.00000000  0.50000000  0.50000000  1
  Se  Se5  1  0.31817011  0.32627776  0.33510206  1
  Se  Se6  1  0.20879316  0.65841396  0.99831914  1
  Ti  Ti7  1  0.59465209  0.51110086  0.50033124  1
  O  O8  1  0.57659859  0.13465424  0.14680729  1
  O  O9  1  0.96010764  0.36660307  0.06183531  1
