# generated using pymatgen
data_Li3Ti2Si2(NiS)2
_symmetry_space_group_name_H-M   'P 1'
_cell_length_a   6.96633831
_cell_length_b   6.57790696
_cell_length_c   8.91030875
_cell_angle_alpha   96.91734995
_cell_angle_beta   97.17812648
_cell_angle_gamma   96.36433536
_symmetry_Int_Tables_number   1
_chemical_formula_structural   Li3Ti2Si2(NiS)2
_chemical_formula_sum   'Li3 Ti2 Si2 Ni2 S2'
_cell_volume   398.85745671
_cell_formula_units_Z   1
loop_
 _symmetry_equiv_pos_site_id
 _symmetry_equiv_pos_as_xyz
  1  'x, y, z'
loop_
 _atom_site_type_symbol
 _atom_site_label
 _atom_site_symmetry_multiplicity
 _atom_site_fract_x
 _atom_site_fract_y
 _atom_site_fract_z
 _atom_site_occupancy
  Li  Li0  1  0.00000000  0.00000000  0.00000000  1
  Li  Li1  1  0.50000000  0.50000000  0.50000000  1
  Li  Li2  1  0.50000000  0.50000000  0.00000000  1
  Ni  Ni3  1  0.50000000  0.00000000  0.50000000  1
  Ni  Ni4  1  0.00000000  0.50000000  0.50000000  1
  S  S5  1  0.75444357  0.79283580  0.82798156  1
  S  S6  1  0.00410998  0.65732937  0.08059899  1
  Ti  Ti7  1  0.15255027  0.73472435  0.42825937  1
  Ti  Ti8  1  0.12483178  0.46403599  0.00244337  1
  Si  Si9  1  0.52203571  0.76534751  0.19502375  1
  Si  Si10  1  0.97279558  0.82293627  0.03132461  1
