# generated using pymatgen
data_LiMnSb3Mo2P3
_symmetry_space_group_name_H-M   'P 1'
_cell_length_a   4.95403497
_cell_length_b   4.96578828
_cell_length_c   6.03570391
_cell_angle_alpha   95.78202741
_cell_angle_beta   91.73700302
_cell_angle_gamma   95.77789597
_symmetry_Int_Tables_number   1
_chemical_formula_structural   LiMnSb3Mo2P3
_chemical_formula_sum   'Li1 Mn1 Sb3 Mo2 P3'
_cell_volume   146.85374528
_cell_formula_units_Z   1
loop_
 _symmetry_equiv_pos_site_id
 _symmetry_equiv_pos_as_xyz
  1  'x, y, z'
loop_
 _atom_site_type_symbol
 _atom_site_label
 _atom_site_symmetry_multiplicity
 _atom_site_fract_x
 _atom_site_fract_y
 _atom_site_fract_z
 _atom_site_occupancy
  Mn  Mn0  1  0.12500000  0.00000000  0.25000000  1
  Sb  Sb1  1  0.00000000  0.00000000  0.00000000  1
  Sb  Sb2  1  0.37500000  0.00000000  0.25000000  1
  Sb  Sb3  1  0.25000000  0.25000000  0.25000000  1
  P  P4  1  0.00000000  0.25000000  0.12500000  1
  P  P5  1  0.82455441  0.48127825  0.72246802  1
  P  P6  1  0.93227450  0.06879301  0.54746408  1
  Mo  Mo7  1  0.38385036  0.05840660  0.23641403  1
  Mo  Mo8  1  0.36996924  0.25391391  0.09606936  1
  Li  Li9  1  0.02297416  0.42738372  0.30788053  1
