# generated using pymatgen
data_Li2TiP6S2F
_symmetry_space_group_name_H-M   'P 1'
_cell_length_a   7.64493582
_cell_length_b   7.49852884
_cell_length_c   7.84502124
_cell_angle_alpha   91.98170620
_cell_angle_beta   93.12745769
_cell_angle_gamma   91.84633376
_symmetry_Int_Tables_number   1
_chemical_formula_structural   Li2TiP6S2F
_chemical_formula_sum   'Li2 Ti1 P6 S2 F1'
_cell_volume   448.52134942
_cell_formula_units_Z   1
loop_
 _symmetry_equiv_pos_site_id
 _symmetry_equiv_pos_as_xyz
  1  'x, y, z'
loop_
 _atom_site_type_symbol
 _atom_site_label
 _atom_site_symmetry_multiplicity
 _atom_site_fract_x
 _atom_site_fract_y
 _atom_site_fract_z
 _atom_site_occupancy
  P  P0  1  0.00000000  0.00000000  0.00000000  1
  P  P1  1  0.50000000  0.50000000  0.50000000  1
  P  P2  1  0.50000000  0.50000000  0.00000000  1
  P  P3  1  0.50000000  0.00000000  0.50000000  1
  P  P4  1  0.00000000  0.50000000  0.50000000  1
  P  P5  1  0.22672624  0.31787093  0.12132511  1
  Li  Li6  1  0.02165871  0.90786660  0.46532745  1
  Li  Li7  1  0.13683733  0.87359657  0.11703638  1
  F  F8  1  0.30984851  0.74547450  0.45516748  1
  Ti  Ti9  1  0.98765943  0.11492938  0.72119587  1
  S  S10  1  0.10768864  0.68414896  0.90219499  1
  S  S11  1  0.68828949  0.66219743  0.22509071  1
