# generated using pymatgen
data_LiMnSb4Mo2P3
_symmetry_space_group_name_H-M   'P 1'
_cell_length_a   5.95371148
_cell_length_b   6.07038317
_cell_length_c   6.67364187
_cell_angle_alpha   93.82107606
_cell_angle_beta   91.32461718
_cell_angle_gamma   93.63276056
_symmetry_Int_Tables_number   1
_chemical_formula_structural   LiMnSb4Mo2P3
_chemical_formula_sum   'Li1 Mn1 Sb4 Mo2 P3'
_cell_volume   240.08388836
_cell_formula_units_Z   1
loop_
 _symmetry_equiv_pos_site_id
 _symmetry_equiv_pos_as_xyz
  1  'x, y, z'
loop_
 _atom_site_type_symbol
 _atom_site_label
 _atom_site_symmetry_multiplicity
 _atom_site_fract_x
 _atom_site_fract_y
 _atom_site_fract_z
 _atom_site_occupancy
  Mn  Mn0  1  0.00000000  0.00000000  0.00000000  1
  Sb  Sb1  1  0.50000000  0.50000000  0.50000000  1
  Sb  Sb2  1  0.50000000  0.50000000  0.00000000  1
  Sb  Sb3  1  0.50000000  0.00000000  0.50000000  1
  Sb  Sb4  1  0.00000000  0.50000000  0.50000000  1
  P  P5  1  0.58900790  0.58312502  0.81969787  1
  P  P6  1  0.82873091  0.55094071  0.82986405  1
  P  P7  1  0.68414225  0.50415438  0.64711983  1
  Mo  Mo8  1  0.29838582  0.76514064  0.58325668  1
  Mo  Mo9  1  0.60254684  0.92552663  0.59702457  1
  Li  Li10  1  0.22526854  0.29640993  0.09346894  1
