# generated using pymatgen
data_LiMnSb2P
_symmetry_space_group_name_H-M   'P 1'
_cell_length_a   6.04975692
_cell_length_b   6.30255397
_cell_length_c   7.01927548
_cell_angle_alpha   96.13417127
_cell_angle_beta   96.17864421
_cell_angle_gamma   94.34515141
_symmetry_Int_Tables_number   1
_chemical_formula_structural   LiMnSb2P
_chemical_formula_sum   'Li2 Mn2 Sb4 P2'
_cell_volume   263.52630186
_cell_formula_units_Z   2
loop_
 _symmetry_equiv_pos_site_id
 _symmetry_equiv_pos_as_xyz
  1  'x, y, z'
loop_
 _atom_site_type_symbol
 _atom_site_label
 _atom_site_symmetry_multiplicity
 _atom_site_fract_x
 _atom_site_fract_y
 _atom_site_fract_z
 _atom_site_occupancy
  Mn  Mn0  1  0.12500000  0.12500000  0.12500000  1
  Mn  Mn1  1  0.50000000  0.50000000  0.50000000  1
  Sb  Sb2  1  0.25000000  0.25000000  0.25000000  1
  Sb  Sb3  1  0.75000000  0.75000000  0.75000000  1
  Sb  Sb4  1  0.49902352  0.94747295  0.58839466  1
  Sb  Sb5  1  0.13098338  0.81962337  0.26500943  1
  P  P6  1  0.67703482  0.26253881  0.07331416  1
  P  P7  1  0.30454316  0.85192175  0.42832207  1
  Li  Li8  1  0.11725980  0.94692606  0.22655945  1
  Li  Li9  1  0.20290004  0.68204438  0.30335724  1
