# generated using pymatgen
data_Li3P3I4O3
_symmetry_space_group_name_H-M   'P 1'
_cell_length_a   8.39728424
_cell_length_b   7.79239450
_cell_length_c   7.60886573
_cell_angle_alpha   90.00000000
_cell_angle_beta   90.00000000
_cell_angle_gamma   90.00000000
_symmetry_Int_Tables_number   1
_chemical_formula_structural   Li3P3I4O3
_chemical_formula_sum   'Li3 P3 I4 O3'
_cell_volume   497.88576068
_cell_formula_units_Z   1
loop_
 _symmetry_equiv_pos_site_id
 _symmetry_equiv_pos_as_xyz
  1  'x, y, z'
loop_
 _atom_site_type_symbol
 _atom_site_label
 _atom_site_symmetry_multiplicity
 _atom_site_fract_x
 _atom_site_fract_y
 _atom_site_fract_z
 _atom_site_occupancy
  I  I0  1  0.12500000  0.12500000  0.12500000  1
  I  I1  1  0.50000000  0.50000000  0.50000000  1
  I  I2  1  0.25000000  0.25000000  0.25000000  1
  I  I3  1  0.75000000  0.75000000  0.75000000  1
  P  P4  1  0.07758574  0.98601477  0.99638206  1
  P  P5  1  0.50096157  0.63087891  0.15912149  1
  P  P6  1  0.77214149  0.31112062  0.32268608  1
  Li  Li7  1  0.78513800  0.34326733  0.11764609  1
  Li  Li8  1  0.58633235  0.72703890  0.20895748  1
  Li  Li9  1  0.74437064  0.70547773  0.63408335  1
  O  O10  1  0.08512023  0.42790482  0.10024745  1
  O  O11  1  0.71827688  0.90089355  0.46348771  1
  O  O12  1  0.05988280  0.99443059  0.06118081  1
