# generated using pymatgen
data_LiTiP3F
_symmetry_space_group_name_H-M   'P 1'
_cell_length_a   8.41367138
_cell_length_b   8.10241285
_cell_length_c   7.94469854
_cell_angle_alpha   90.17530082
_cell_angle_beta   90.83402806
_cell_angle_gamma   90.20041565
_symmetry_Int_Tables_number   1
_chemical_formula_structural   LiTiP3F
_chemical_formula_sum   'Li2 Ti2 P6 F2'
_cell_volume   541.53504245
_cell_formula_units_Z   2
loop_
 _symmetry_equiv_pos_site_id
 _symmetry_equiv_pos_as_xyz
  1  'x, y, z'
loop_
 _atom_site_type_symbol
 _atom_site_label
 _atom_site_symmetry_multiplicity
 _atom_site_fract_x
 _atom_site_fract_y
 _atom_site_fract_z
 _atom_site_occupancy
  P  P0  1  0.00000000  0.00000000  0.00000000  1
  P  P1  1  0.50000000  0.50000000  0.50000000  1
  P  P2  1  0.50000000  0.50000000  0.00000000  1
  P  P3  1  0.50000000  0.00000000  0.50000000  1
  P  P4  1  0.00000000  0.50000000  0.50000000  1
  P  P5  1  0.77679204  0.34946542  0.17413516  1
  Li  Li6  1  0.98064918  0.86461059  0.04515591  1
  Li  Li7  1  0.93741975  0.52321810  0.65034196  1
  F  F8  1  0.35808495  0.45487054  0.40617902  1
  F  F9  1  0.18304475  0.18062700  0.29317528  1
  Ti  Ti10  1  0.68019617  0.21987702  0.18761771  1
  Ti  Ti11  1  0.02092568  0.06360281  0.60627595  1
