# generated using pymatgen
data_Li2La3Ti2(SiS)2
_symmetry_space_group_name_H-M   'P 1'
_cell_length_a   6.45026150
_cell_length_b   5.98619526
_cell_length_c   8.69867000
_cell_angle_alpha   99.81222713
_cell_angle_beta   100.75451017
_cell_angle_gamma   98.82713857
_symmetry_Int_Tables_number   1
_chemical_formula_structural   Li2La3Ti2(SiS)2
_chemical_formula_sum   'Li2 La3 Ti2 Si2 S2'
_cell_volume   319.14190036
_cell_formula_units_Z   1
loop_
 _symmetry_equiv_pos_site_id
 _symmetry_equiv_pos_as_xyz
  1  'x, y, z'
loop_
 _atom_site_type_symbol
 _atom_site_label
 _atom_site_symmetry_multiplicity
 _atom_site_fract_x
 _atom_site_fract_y
 _atom_site_fract_z
 _atom_site_occupancy
  Li  Li0  1  0.00000000  0.00000000  0.00000000  1
  Li  Li1  1  0.50000000  0.50000000  0.50000000  1
  La  La2  1  0.25000000  0.25000000  0.25000000  1
  La  La3  1  0.75000000  0.25000000  0.00000000  1
  La  La4  1  0.25000000  0.75000000  0.50000000  1
  S  S5  1  0.68796663  0.75639634  0.26104748  1
  S  S6  1  0.33168655  0.45037407  0.96962463  1
  Ti  Ti7  1  0.69597994  0.84505081  0.69181318  1
  Ti  Ti8  1  0.86538866  0.26997725  0.38478157  1
  Si  Si9  1  0.97002239  0.44221985  0.44668036  1
  Si  Si10  1  0.36610164  0.30069637  0.87992201  1
