# generated using pymatgen
data_LiSb2P
_symmetry_space_group_name_H-M   'P 1'
_cell_length_a   4.49087924
_cell_length_b   4.66984691
_cell_length_c   6.29118726
_cell_angle_alpha   102.50541460
_cell_angle_beta   96.64803735
_cell_angle_gamma   101.09739846
_symmetry_Int_Tables_number   1
_chemical_formula_structural   LiSb2P
_chemical_formula_sum   'Li2 Sb4 P2'
_cell_volume   124.67968449
_cell_formula_units_Z   2
loop_
 _symmetry_equiv_pos_site_id
 _symmetry_equiv_pos_as_xyz
  1  'x, y, z'
loop_
 _atom_site_type_symbol
 _atom_site_label
 _atom_site_symmetry_multiplicity
 _atom_site_fract_x
 _atom_site_fract_y
 _atom_site_fract_z
 _atom_site_occupancy
  Sb  Sb0  1  0.00000000  0.00000000  0.00000000  1
  Sb  Sb1  1  0.50000000  0.50000000  0.50000000  1
  Sb  Sb2  1  0.50000000  0.50000000  0.00000000  1
  Sb  Sb3  1  0.50000000  0.00000000  0.50000000  1
  P  P4  1  0.00000000  0.50000000  0.50000000  1
  P  P5  1  0.75189763  0.65126251  0.58667166  1
  Li  Li6  1  0.00777030  0.30199547  0.52579343  1
  Li  Li7  1  0.01061331  0.74303694  0.73046148  1
