# generated using pymatgen
data_Li3(P4Cl)2
_symmetry_space_group_name_H-M   'P 1'
_cell_length_a   5.35218124
_cell_length_b   4.95644265
_cell_length_c   7.30578794
_cell_angle_alpha   104.67099499
_cell_angle_beta   108.73149102
_cell_angle_gamma   103.80123802
_symmetry_Int_Tables_number   1
_chemical_formula_structural   Li3(P4Cl)2
_chemical_formula_sum   'Li3 P8 Cl2'
_cell_volume   166.38197859
_cell_formula_units_Z   1
loop_
 _symmetry_equiv_pos_site_id
 _symmetry_equiv_pos_as_xyz
  1  'x, y, z'
loop_
 _atom_site_type_symbol
 _atom_site_label
 _atom_site_symmetry_multiplicity
 _atom_site_fract_x
 _atom_site_fract_y
 _atom_site_fract_z
 _atom_site_occupancy
  Cl  Cl0  1  0.00000000  0.00000000  0.00000000  1
  Cl  Cl1  1  0.50000000  0.50000000  0.50000000  1
  P  P2  1  0.25000000  0.25000000  0.25000000  1
  P  P3  1  0.75000000  0.25000000  0.00000000  1
  P  P4  1  0.25000000  0.75000000  0.50000000  1
  P  P5  1  0.15339748  0.88361316  0.00592832  1
  P  P6  1  0.54047525  0.80360158  0.03519867  1
  P  P7  1  0.33064620  0.88698154  0.78143081  1
  P  P8  1  0.41816387  0.66950200  0.39218755  1
  P  P9  1  0.51507188  0.77387669  0.44690768  1
  Li  Li10  1  0.24388324  0.88741472  0.89401775  1
  Li  Li11  1  0.07829409  0.76894932  0.85153994  1
  Li  Li12  1  0.41230561  0.98205120  0.32321601  1
