# generated using pymatgen
data_Li3TiP3I4O3
_symmetry_space_group_name_H-M   'P 1'
_cell_length_a   8.47049030
_cell_length_b   8.34237062
_cell_length_c   7.36215991
_cell_angle_alpha   91.43339421
_cell_angle_beta   92.22958519
_cell_angle_gamma   91.56734106
_symmetry_Int_Tables_number   1
_chemical_formula_structural   Li3TiP3I4O3
_chemical_formula_sum   'Li3 Ti1 P3 I4 O3'
_cell_volume   519.47396988
_cell_formula_units_Z   1
loop_
 _symmetry_equiv_pos_site_id
 _symmetry_equiv_pos_as_xyz
  1  'x, y, z'
loop_
 _atom_site_type_symbol
 _atom_site_label
 _atom_site_symmetry_multiplicity
 _atom_site_fract_x
 _atom_site_fract_y
 _atom_site_fract_z
 _atom_site_occupancy
  I  I0  1  0.00000000  0.00000000  0.00000000  1
  I  I1  1  0.50000000  0.50000000  0.50000000  1
  I  I2  1  0.50000000  0.50000000  0.00000000  1
  I  I3  1  0.50000000  0.00000000  0.50000000  1
  P  P4  1  0.00000000  0.50000000  0.50000000  1
  P  P5  1  0.29075881  0.75702431  0.33240931  1
  P  P6  1  0.27816791  0.46156174  0.11191009  1
  Li  Li7  1  0.43621740  0.98504569  0.51575784  1
  Li  Li8  1  0.63255654  0.97490451  0.75196277  1
  Li  Li9  1  0.50670347  0.20773816  0.06616764  1
  Ti  Ti10  1  0.95633748  0.84527299  0.39497883  1
  O  O11  1  0.55600949  0.64689909  0.13138796  1
  O  O12  1  0.27921418  0.37279785  0.81687396  1
  O  O13  1  0.22609794  0.77828550  0.38693004  1
