# generated using pymatgen
data_LiMnSb4(MoP)2
_symmetry_space_group_name_H-M   'P 1'
_cell_length_a   4.99466765
_cell_length_b   5.21068811
_cell_length_c   6.57515324
_cell_angle_alpha   99.27487920
_cell_angle_beta   95.30954574
_cell_angle_gamma   99.08249519
_symmetry_Int_Tables_number   1
_chemical_formula_structural   LiMnSb4(MoP)2
_chemical_formula_sum   'Li1 Mn1 Sb4 Mo2 P2'
_cell_volume   165.54149562
_cell_formula_units_Z   1
loop_
 _symmetry_equiv_pos_site_id
 _symmetry_equiv_pos_as_xyz
  1  'x, y, z'
loop_
 _atom_site_type_symbol
 _atom_site_label
 _atom_site_symmetry_multiplicity
 _atom_site_fract_x
 _atom_site_fract_y
 _atom_site_fract_z
 _atom_site_occupancy
  Mn  Mn0  1  0.00000000  0.00000000  0.00000000  1
  Sb  Sb1  1  0.50000000  0.50000000  0.50000000  1
  Sb  Sb2  1  0.25000000  0.25000000  0.25000000  1
  Sb  Sb3  1  0.75000000  0.25000000  0.00000000  1
  Sb  Sb4  1  0.25000000  0.75000000  0.50000000  1
  P  P5  1  0.13215318  0.77135776  0.41331225  1
  P  P6  1  0.32285280  0.24235122  0.88269466  1
  Mo  Mo7  1  0.70635839  0.10568699  0.26193592  1
  Mo  Mo8  1  0.82269716  0.56840659  0.11396584  1
  Li  Li9  1  0.70324081  0.63700547  0.57030792  1
