# generated using pymatgen
data_Li3Ti(SeO)2
_symmetry_space_group_name_H-M   'P 1'
_cell_length_a   8.12533048
_cell_length_b   7.82093524
_cell_length_c   6.95943662
_cell_angle_alpha   90.20832340
_cell_angle_beta   90.99113946
_cell_angle_gamma   90.23816927
_symmetry_Int_Tables_number   1
_chemical_formula_structural   Li3Ti(SeO)2
_chemical_formula_sum   'Li3 Ti1 Se2 O2'
_cell_volume   442.18304518
_cell_formula_units_Z   1
loop_
 _symmetry_equiv_pos_site_id
 _symmetry_equiv_pos_as_xyz
  1  'x, y, z'
loop_
 _atom_site_type_symbol
 _atom_site_label
 _atom_site_symmetry_multiplicity
 _atom_site_fract_x
 _atom_site_fract_y
 _atom_site_fract_z
 _atom_site_occupancy
  Li  Li0  1  0.00000000  0.00000000  0.00000000  1
  Li  Li1  1  0.50000000  0.50000000  0.50000000  1
  Li  Li2  1  0.25000000  0.25000000  0.25000000  1
  Se  Se3  1  0.75000000  0.25000000  0.00000000  1
  Se  Se4  1  0.25000000  0.75000000  0.50000000  1
  Ti  Ti5  1  0.81460050  0.25658333  0.81562707  1
  O  O6  1  0.49472150  0.68243582  0.30499049  1
  O  O7  1  0.78460887  0.56798910  0.73335730  1
