# generated using pymatgen
data_Li2Sb2Mo2P3
_symmetry_space_group_name_H-M   'P 1'
_cell_length_a   5.42946648
_cell_length_b   5.50643580
_cell_length_c   6.80658822
_cell_angle_alpha   97.73701847
_cell_angle_beta   93.71169893
_cell_angle_gamma   97.97109353
_symmetry_Int_Tables_number   1
_chemical_formula_structural   Li2Sb2Mo2P3
_chemical_formula_sum   'Li2 Sb2 Mo2 P3'
_cell_volume   198.97324314
_cell_formula_units_Z   1
loop_
 _symmetry_equiv_pos_site_id
 _symmetry_equiv_pos_as_xyz
  1  'x, y, z'
loop_
 _atom_site_type_symbol
 _atom_site_label
 _atom_site_symmetry_multiplicity
 _atom_site_fract_x
 _atom_site_fract_y
 _atom_site_fract_z
 _atom_site_occupancy
  Sb  Sb0  1  0.00000000  0.00000000  0.00000000  1
  Sb  Sb1  1  0.50000000  0.50000000  0.50000000  1
  P  P2  1  0.50000000  0.50000000  0.00000000  1
  P  P3  1  0.50000000  0.00000000  0.50000000  1
  P  P4  1  0.00000000  0.50000000  0.50000000  1
  Mo  Mo5  1  0.02355938  0.66767309  0.54235302  1
  Mo  Mo6  1  0.26679607  0.32779538  0.08169594  1
  Li  Li7  1  0.32648187  0.17268646  0.32436567  1
  Li  Li8  1  0.44553112  0.22019418  0.83894798  1
