# generated using pymatgen
data_Li3P3I4(N3O)2
_symmetry_space_group_name_H-M   'P 1'
_cell_length_a   8.07024633
_cell_length_b   7.45058938
_cell_length_c   7.73729679
_cell_angle_alpha   91.12635009
_cell_angle_beta   91.75199081
_cell_angle_gamma   91.23160449
_symmetry_Int_Tables_number   1
_chemical_formula_structural   Li3P3I4(N3O)2
_chemical_formula_sum   'Li3 P3 I4 N6 O2'
_cell_volume   464.80791094
_cell_formula_units_Z   1
loop_
 _symmetry_equiv_pos_site_id
 _symmetry_equiv_pos_as_xyz
  1  'x, y, z'
loop_
 _atom_site_type_symbol
 _atom_site_label
 _atom_site_symmetry_multiplicity
 _atom_site_fract_x
 _atom_site_fract_y
 _atom_site_fract_z
 _atom_site_occupancy
  P  P0  1  0.00000000  0.00000000  0.00000000  1
  P  P1  1  0.50000000  0.50000000  0.50000000  1
  P  P2  1  0.25000000  0.25000000  0.25000000  1
  I  I3  1  0.75000000  0.25000000  0.00000000  1
  I  I4  1  0.25000000  0.75000000  0.50000000  1
  I  I5  1  0.78088511  0.12865483  0.77609219  1
  I  I6  1  0.63707058  0.19441319  0.09298138  1
  Li  Li7  1  0.87096590  0.15316120  0.02340973  1
  Li  Li8  1  0.20809937  0.87898098  0.82215939  1
  Li  Li9  1  0.03833691  0.49631265  0.31967810  1
  O  O10  1  0.80606853  0.70657273  0.74705590  1
  O  O11  1  0.03748278  0.62531139  0.12144164  1
  N  N12  1  0.21346186  0.39546095  0.44419114  1
  N  N13  1  0.49031505  0.93473257  0.87248975  1
  N  N14  1  0.42081397  0.00893810  0.80989400  1
  N  N15  1  0.82032520  0.17544153  0.70559668  1
  N  N16  1  0.13358062  0.54601314  0.86621056  1
  N  N17  1  0.05136241  0.45971190  0.89105033  1
