# generated using pymatgen
data_Li2Mn2Sb4P3
_symmetry_space_group_name_H-M   'P 1'
_cell_length_a   6.48369641
_cell_length_b   7.04710918
_cell_length_c   7.35846123
_cell_angle_alpha   92.87570290
_cell_angle_beta   93.40653579
_cell_angle_gamma   93.27290496
_symmetry_Int_Tables_number   1
_chemical_formula_structural   Li2Mn2Sb4P3
_chemical_formula_sum   'Li2 Mn2 Sb4 P3'
_cell_volume   334.59200080
_cell_formula_units_Z   1
loop_
 _symmetry_equiv_pos_site_id
 _symmetry_equiv_pos_as_xyz
  1  'x, y, z'
loop_
 _atom_site_type_symbol
 _atom_site_label
 _atom_site_symmetry_multiplicity
 _atom_site_fract_x
 _atom_site_fract_y
 _atom_site_fract_z
 _atom_site_occupancy
  Mn  Mn0  1  0.12500000  0.12500000  0.12500000  1
  Mn  Mn1  1  0.50000000  0.50000000  0.50000000  1
  Sb  Sb2  1  0.25000000  0.25000000  0.25000000  1
  Sb  Sb3  1  0.75000000  0.75000000  0.75000000  1
  Sb  Sb4  1  0.57074169  0.97612119  0.48487614  1
  Sb  Sb5  1  0.49500558  0.18642358  0.63762033  1
  P  P6  1  0.39577703  0.08147852  0.03601060  1
  P  P7  1  0.87483555  0.68013613  0.75823690  1
  P  P8  1  0.92460312  0.58693491  0.84516760  1
  Li  Li9  1  0.47488543  0.53659937  0.02008376  1
  Li  Li10  1  0.62416247  0.94474725  0.81745157  1
