# generated using pymatgen
data_LiV3P3(OF)2
_symmetry_space_group_name_H-M   'P 1'
_cell_length_a   7.10395650
_cell_length_b   7.21274895
_cell_length_c   8.04212104
_cell_angle_alpha   90.81427492
_cell_angle_beta   95.96975211
_cell_angle_gamma   90.85977331
_symmetry_Int_Tables_number   1
_chemical_formula_structural   LiV3P3(OF)2
_chemical_formula_sum   'Li1 V3 P3 O2 F2'
_cell_volume   409.73831429
_cell_formula_units_Z   1
loop_
 _symmetry_equiv_pos_site_id
 _symmetry_equiv_pos_as_xyz
  1  'x, y, z'
loop_
 _atom_site_type_symbol
 _atom_site_label
 _atom_site_symmetry_multiplicity
 _atom_site_fract_x
 _atom_site_fract_y
 _atom_site_fract_z
 _atom_site_occupancy
  P  P0  1  0.00000000  0.00000000  0.00000000  1
  P  P1  1  0.50000000  0.50000000  0.50000000  1
  P  P2  1  0.50000000  0.50000000  0.00000000  1
  Li  Li3  1  0.50000000  0.00000000  0.50000000  1
  F  F4  1  0.00000000  0.50000000  0.50000000  1
  F  F5  1  0.63751274  0.72681276  0.20708359  1
  V  V6  1  0.99619691  0.36518755  0.41516051  1
  V  V7  1  0.40853289  0.20983414  0.07452332  1
  V  V8  1  0.81518256  0.02473921  0.56609681  1
  O  O9  1  0.49627216  0.99953004  0.72034777  1
  O  O10  1  0.52627596  0.30145407  0.52817733  1
