# generated using pymatgen
data_Li2TiS3I4
_symmetry_space_group_name_H-M   'P 1'
_cell_length_a   7.21550286
_cell_length_b   7.08240754
_cell_length_c   7.11564453
_cell_angle_alpha   90.88219755
_cell_angle_beta   94.19722800
_cell_angle_gamma   91.00858736
_symmetry_Int_Tables_number   1
_chemical_formula_structural   Li2TiS3I4
_chemical_formula_sum   'Li2 Ti1 S3 I4'
_cell_volume   362.54951769
_cell_formula_units_Z   1
loop_
 _symmetry_equiv_pos_site_id
 _symmetry_equiv_pos_as_xyz
  1  'x, y, z'
loop_
 _atom_site_type_symbol
 _atom_site_label
 _atom_site_symmetry_multiplicity
 _atom_site_fract_x
 _atom_site_fract_y
 _atom_site_fract_z
 _atom_site_occupancy
  I  I0  1  0.00000000  0.00000000  0.00000000  1
  I  I1  1  0.50000000  0.50000000  0.50000000  1
  I  I2  1  0.25000000  0.25000000  0.25000000  1
  I  I3  1  0.75000000  0.25000000  0.00000000  1
  Li  Li4  1  0.25000000  0.75000000  0.50000000  1
  Li  Li5  1  0.33956390  0.49842839  0.62982638  1
  S  S6  1  0.79438966  0.22674742  0.29907984  1
  S  S7  1  0.05431669  0.15859865  0.75372599  1
  S  S8  1  0.41290410  0.60156181  0.98859742  1
  Ti  Ti9  1  0.37208663  0.04139851  0.99111721  1
