# generated using pymatgen
data_Li3Ti2P3(SeO)2
_symmetry_space_group_name_H-M   'P 1'
_cell_length_a   7.87877798
_cell_length_b   7.86529296
_cell_length_c   7.06141737
_cell_angle_alpha   90.20036669
_cell_angle_beta   90.95328388
_cell_angle_gamma   90.22907263
_symmetry_Int_Tables_number   1
_chemical_formula_structural   Li3Ti2P3(SeO)2
_chemical_formula_sum   'Li3 Ti2 P3 Se2 O2'
_cell_volume   437.52140384
_cell_formula_units_Z   1
loop_
 _symmetry_equiv_pos_site_id
 _symmetry_equiv_pos_as_xyz
  1  'x, y, z'
loop_
 _atom_site_type_symbol
 _atom_site_label
 _atom_site_symmetry_multiplicity
 _atom_site_fract_x
 _atom_site_fract_y
 _atom_site_fract_z
 _atom_site_occupancy
  P  P0  1  0.00000000  0.00000000  0.00000000  1
  P  P1  1  0.50000000  0.50000000  0.50000000  1
  P  P2  1  0.25000000  0.25000000  0.25000000  1
  Li  Li3  1  0.75000000  0.25000000  0.00000000  1
  Li  Li4  1  0.25000000  0.75000000  0.50000000  1
  Li  Li5  1  0.76536398  0.47636917  0.96897658  1
  Se  Se6  1  0.86980817  0.85719585  0.01519494  1
  Se  Se7  1  0.68220429  0.95883925  0.65685965  1
  Ti  Ti8  1  0.08957329  0.82221443  0.50544240  1
  Ti  Ti9  1  0.16888386  0.15357843  0.55556440  1
  O  O10  1  0.28881623  0.96359869  0.44631078  1
  O  O11  1  0.86394068  0.79903531  0.02864868  1
