# generated using pymatgen
data_Li2Mn3Mo2P2N
_symmetry_space_group_name_H-M   'P 1'
_cell_length_a   4.00922877
_cell_length_b   4.21666906
_cell_length_c   5.94562620
_cell_angle_alpha   104.91444029
_cell_angle_beta   96.62318754
_cell_angle_gamma   103.12394274
_symmetry_Int_Tables_number   1
_chemical_formula_structural   Li2Mn3Mo2P2N
_chemical_formula_sum   'Li2 Mn3 Mo2 P2 N1'
_cell_volume   92.96450881
_cell_formula_units_Z   1
loop_
 _symmetry_equiv_pos_site_id
 _symmetry_equiv_pos_as_xyz
  1  'x, y, z'
loop_
 _atom_site_type_symbol
 _atom_site_label
 _atom_site_symmetry_multiplicity
 _atom_site_fract_x
 _atom_site_fract_y
 _atom_site_fract_z
 _atom_site_occupancy
  Mn  Mn0  1  0.12500000  0.00000000  0.25000000  1
  Mn  Mn1  1  0.00000000  0.00000000  0.00000000  1
  Mn  Mn2  1  0.37500000  0.00000000  0.25000000  1
  P  P3  1  0.25000000  0.25000000  0.25000000  1
  P  P4  1  0.00000000  0.25000000  0.12500000  1
  Mo  Mo5  1  0.46528212  0.72241919  0.56420958  1
  Mo  Mo6  1  0.58566510  0.61336363  0.10578799  1
  Li  Li7  1  0.38853770  0.35489218  0.37205842  1
  Li  Li8  1  0.23793829  0.74461046  0.67760794  1
  N  N9  1  0.89349617  0.89407075  0.91910974  1
