# generated using pymatgen
data_Li2Ti2P3(I2F)2
_symmetry_space_group_name_H-M   'P 1'
_cell_length_a   5.94930752
_cell_length_b   5.80140326
_cell_length_c   7.18425306
_cell_angle_alpha   92.50219474
_cell_angle_beta   98.33231120
_cell_angle_gamma   92.80509858
_symmetry_Int_Tables_number   1
_chemical_formula_structural   Li2Ti2P3(I2F)2
_chemical_formula_sum   'Li2 Ti2 P3 I4 F2'
_cell_volume   244.72499664
_cell_formula_units_Z   1
loop_
 _symmetry_equiv_pos_site_id
 _symmetry_equiv_pos_as_xyz
  1  'x, y, z'
loop_
 _atom_site_type_symbol
 _atom_site_label
 _atom_site_symmetry_multiplicity
 _atom_site_fract_x
 _atom_site_fract_y
 _atom_site_fract_z
 _atom_site_occupancy
  P  P0  1  0.00000000  0.00000000  0.00000000  1
  P  P1  1  0.50000000  0.50000000  0.50000000  1
  P  P2  1  0.25000000  0.25000000  0.25000000  1
  I  I3  1  0.75000000  0.25000000  0.00000000  1
  I  I4  1  0.25000000  0.75000000  0.50000000  1
  I  I5  1  0.61571561  0.04823992  0.88279372  1
  I  I6  1  0.73414433  0.91518046  0.39022326  1
  Li  Li7  1  0.97376050  0.31529384  0.32284494  1
  Li  Li8  1  0.05501559  0.89357701  0.23361539  1
  F  F9  1  0.02725706  0.64786268  0.90602194  1
  F  F10  1  0.20793166  0.64275176  0.56533612  1
  Ti  Ti11  1  0.30478284  0.31355919  0.21048746  1
  Ti  Ti12  1  0.10593694  0.42359419  0.36285874  1
