# generated using pymatgen
data_LiSb4Mo2P3
_symmetry_space_group_name_H-M   'P 1'
_cell_length_a   5.29204408
_cell_length_b   5.49318544
_cell_length_c   6.23347889
_cell_angle_alpha   95.29681414
_cell_angle_beta   91.45199433
_cell_angle_gamma   95.00572626
_symmetry_Int_Tables_number   1
_chemical_formula_structural   LiSb4Mo2P3
_chemical_formula_sum   'Li1 Sb4 Mo2 P3'
_cell_volume   179.64448870
_cell_formula_units_Z   1
loop_
 _symmetry_equiv_pos_site_id
 _symmetry_equiv_pos_as_xyz
  1  'x, y, z'
loop_
 _atom_site_type_symbol
 _atom_site_label
 _atom_site_symmetry_multiplicity
 _atom_site_fract_x
 _atom_site_fract_y
 _atom_site_fract_z
 _atom_site_occupancy
  Sb  Sb0  1  0.00000000  0.00000000  0.00000000  1
  Sb  Sb1  1  0.50000000  0.50000000  0.50000000  1
  Sb  Sb2  1  0.25000000  0.25000000  0.25000000  1
  Sb  Sb3  1  0.75000000  0.25000000  0.00000000  1
  P  P4  1  0.25000000  0.75000000  0.50000000  1
  P  P5  1  0.90223151  0.73474589  0.76511531  1
  P  P6  1  0.32296949  0.78785899  0.82345560  1
  Mo  Mo7  1  0.35663283  0.28765089  0.27530454  1
  Mo  Mo8  1  0.85644144  0.75811853  0.12330137  1
  Li  Li9  1  0.12070808  0.95174097  0.83532225  1
