# generated using pymatgen
data_Li5ZrCu2(ClO)2
_symmetry_space_group_name_H-M   'P 1'
_cell_length_a   4.26551826
_cell_length_b   4.13419909
_cell_length_c   6.57515371
_cell_angle_alpha   108.60911382
_cell_angle_beta   114.12360662
_cell_angle_gamma   109.12835915
_symmetry_Int_Tables_number   1
_chemical_formula_structural   Li5ZrCu2(ClO)2
_chemical_formula_sum   'Li5 Zr1 Cu2 Cl2 O2'
_cell_volume   85.06896505
_cell_formula_units_Z   1
loop_
 _symmetry_equiv_pos_site_id
 _symmetry_equiv_pos_as_xyz
  1  'x, y, z'
loop_
 _atom_site_type_symbol
 _atom_site_label
 _atom_site_symmetry_multiplicity
 _atom_site_fract_x
 _atom_site_fract_y
 _atom_site_fract_z
 _atom_site_occupancy
  Li  Li0  1  0.00000000  0.00000000  0.00000000  1
  Li  Li1  1  0.50000000  0.50000000  0.50000000  1
  Li  Li2  1  0.25000000  0.25000000  0.25000000  1
  Li  Li3  1  0.75000000  0.25000000  0.00000000  1
  Li  Li4  1  0.25000000  0.75000000  0.50000000  1
  Cu  Cu5  1  0.98452275  0.64534837  0.60961127  1
  Cu  Cu6  1  0.45599413  0.34110399  0.96004612  1
  Cl  Cl7  1  0.11242435  0.84513680  0.54295366  1
  Cl  Cl8  1  0.79157397  0.41985233  0.04788250  1
  O  O9  1  0.23461389  0.96060405  0.35065014  1
  O  O10  1  0.36900299  0.19421472  0.33209309  1
  Zr  Zr11  1  0.92628418  0.99079273  0.76891560  1
