# generated using pymatgen
data_Li2Sb3Se2I4O
_symmetry_space_group_name_H-M   'P 1'
_cell_length_a   7.74420506
_cell_length_b   7.88633389
_cell_length_c   7.09779980
_cell_angle_alpha   92.11628996
_cell_angle_beta   92.86640360
_cell_angle_gamma   92.72347212
_symmetry_Int_Tables_number   1
_chemical_formula_structural   Li2Sb3Se2I4O
_chemical_formula_sum   'Li2 Sb3 Se2 I4 O1'
_cell_volume   432.11954889
_cell_formula_units_Z   1
loop_
 _symmetry_equiv_pos_site_id
 _symmetry_equiv_pos_as_xyz
  1  'x, y, z'
loop_
 _atom_site_type_symbol
 _atom_site_label
 _atom_site_symmetry_multiplicity
 _atom_site_fract_x
 _atom_site_fract_y
 _atom_site_fract_z
 _atom_site_occupancy
  I  I0  1  0.12500000  0.00000000  0.25000000  1
  I  I1  1  0.00000000  0.00000000  0.00000000  1
  I  I2  1  0.37500000  0.00000000  0.25000000  1
  I  I3  1  0.25000000  0.25000000  0.25000000  1
  Li  Li4  1  0.00000000  0.25000000  0.12500000  1
  Li  Li5  1  0.89788270  0.84349312  0.56915289  1
  Sb  Sb6  1  0.54808680  0.20566407  0.86550989  1
  Sb  Sb7  1  0.34665694  0.78482095  0.63116604  1
  Sb  Sb8  1  0.15257542  0.76714374  0.28718782  1
  Se  Se9  1  0.29018353  0.13276054  0.85924332  1
  Se  Se10  1  0.01493293  0.24869056  0.69478436  1
  O  O11  1  0.50707336  0.70973411  0.59244288  1
