# generated using pymatgen
data_Li2Mn3Sb4P2N
_symmetry_space_group_name_H-M   'P 1'
_cell_length_a   5.60770301
_cell_length_b   6.02516621
_cell_length_c   6.50883195
_cell_angle_alpha   99.01231893
_cell_angle_beta   93.68444762
_cell_angle_gamma   97.19628060
_symmetry_Int_Tables_number   1
_chemical_formula_structural   Li2Mn3Sb4P2N
_chemical_formula_sum   'Li2 Mn3 Sb4 P2 N1'
_cell_volume   214.69919841
_cell_formula_units_Z   1
loop_
 _symmetry_equiv_pos_site_id
 _symmetry_equiv_pos_as_xyz
  1  'x, y, z'
loop_
 _atom_site_type_symbol
 _atom_site_label
 _atom_site_symmetry_multiplicity
 _atom_site_fract_x
 _atom_site_fract_y
 _atom_site_fract_z
 _atom_site_occupancy
  N  N0  1  0.00000000  0.00000000  0.00000000  1
  Mn  Mn1  1  0.50000000  0.50000000  0.50000000  1
  Mn  Mn2  1  0.25000000  0.25000000  0.25000000  1
  Mn  Mn3  1  0.75000000  0.25000000  0.00000000  1
  Sb  Sb4  1  0.25000000  0.75000000  0.50000000  1
  Sb  Sb5  1  0.94897334  0.53237524  0.61013763  1
  Sb  Sb6  1  0.93896825  0.07298406  0.69782405  1
  Sb  Sb7  1  0.57135456  0.17057954  0.43401599  1
  P  P8  1  0.47239530  0.05929133  0.13024840  1
  P  P9  1  0.24948825  0.84200030  0.05092297  1
  Li  Li10  1  0.16208975  0.25934015  0.49463554  1
  Li  Li11  1  0.23768255  0.51592740  0.44821676  1
