# generated using pymatgen
data_Li2MnSb4P3
_symmetry_space_group_name_H-M   'P 1'
_cell_length_a   5.45447626
_cell_length_b   5.88307179
_cell_length_c   7.02251865
_cell_angle_alpha   96.54196108
_cell_angle_beta   95.28611718
_cell_angle_gamma   97.10249183
_symmetry_Int_Tables_number   1
_chemical_formula_structural   Li2MnSb4P3
_chemical_formula_sum   'Li2 Mn1 Sb4 P3'
_cell_volume   220.86775594
_cell_formula_units_Z   1
loop_
 _symmetry_equiv_pos_site_id
 _symmetry_equiv_pos_as_xyz
  1  'x, y, z'
loop_
 _atom_site_type_symbol
 _atom_site_label
 _atom_site_symmetry_multiplicity
 _atom_site_fract_x
 _atom_site_fract_y
 _atom_site_fract_z
 _atom_site_occupancy
  Mn  Mn0  1  0.12500000  0.12500000  0.12500000  1
  Sb  Sb1  1  0.50000000  0.50000000  0.50000000  1
  Sb  Sb2  1  0.25000000  0.25000000  0.25000000  1
  Sb  Sb3  1  0.75000000  0.75000000  0.75000000  1
  Sb  Sb4  1  0.73290932  0.93867564  0.98057919  1
  P  P5  1  0.44227321  0.18759086  0.47855143  1
  P  P6  1  0.97820788  0.70661310  0.63433852  1
  P  P7  1  0.77256225  0.55154245  0.97024810  1
  Li  Li8  1  0.69240369  0.60541281  0.66176264  1
  Li  Li9  1  0.99017317  0.36926696  0.70573216  1
