# generated using pymatgen
data_Li2Ti2P3O
_symmetry_space_group_name_H-M   'P 1'
_cell_length_a   6.59051932
_cell_length_b   6.44582036
_cell_length_c   6.72978029
_cell_angle_alpha   94.35845879
_cell_angle_beta   97.12082213
_cell_angle_gamma   95.55755077
_symmetry_Int_Tables_number   1
_chemical_formula_structural   Li2Ti2P3O
_chemical_formula_sum   'Li2 Ti2 P3 O1'
_cell_volume   281.22817118
_cell_formula_units_Z   1
loop_
 _symmetry_equiv_pos_site_id
 _symmetry_equiv_pos_as_xyz
  1  'x, y, z'
loop_
 _atom_site_type_symbol
 _atom_site_label
 _atom_site_symmetry_multiplicity
 _atom_site_fract_x
 _atom_site_fract_y
 _atom_site_fract_z
 _atom_site_occupancy
  P  P0  1  0.00000000  0.00000000  0.00000000  1
  P  P1  1  0.50000000  0.50000000  0.50000000  1
  P  P2  1  0.25000000  0.25000000  0.25000000  1
  Li  Li3  1  0.75000000  0.25000000  0.00000000  1
  Li  Li4  1  0.25000000  0.75000000  0.50000000  1
  Ti  Ti5  1  0.38056651  0.17198873  0.05744043  1
  Ti  Ti6  1  0.43938064  0.07513999  0.92242935  1
  O  O7  1  0.45282822  0.46973099  0.35073714  1
