# generated using pymatgen
data_Li2Mn2Sb4P3
_symmetry_space_group_name_H-M   'P 1'
_cell_length_a   6.53478899
_cell_length_b   7.08315575
_cell_length_c   7.22071026
_cell_angle_alpha   93.62941709
_cell_angle_beta   92.02061594
_cell_angle_gamma   93.81337584
_symmetry_Int_Tables_number   1
_chemical_formula_structural   Li2Mn2Sb4P3
_chemical_formula_sum   'Li2 Mn2 Sb4 P3'
_cell_volume   332.55412948
_cell_formula_units_Z   1
loop_
 _symmetry_equiv_pos_site_id
 _symmetry_equiv_pos_as_xyz
  1  'x, y, z'
loop_
 _atom_site_type_symbol
 _atom_site_label
 _atom_site_symmetry_multiplicity
 _atom_site_fract_x
 _atom_site_fract_y
 _atom_site_fract_z
 _atom_site_occupancy
  Mn  Mn0  1  0.12500000  0.12500000  0.12500000  1
  Mn  Mn1  1  0.50000000  0.50000000  0.50000000  1
  Sb  Sb2  1  0.25000000  0.25000000  0.25000000  1
  Sb  Sb3  1  0.75000000  0.75000000  0.75000000  1
  Sb  Sb4  1  0.95691587  0.26515631  0.27435031  1
  Sb  Sb5  1  0.03285174  0.66963888  0.17587085  1
  P  P6  1  0.58672982  0.56728298  0.15993424  1
  P  P7  1  0.31666261  0.12097002  0.36488502  1
  P  P8  1  0.26369736  0.15556219  0.81481695  1
  Li  Li9  1  0.20704219  0.48548551  0.53515912  1
  Li  Li10  1  0.40752204  0.49880442  0.91726631  1
