# generated using pymatgen
data_Li2MnSb4Mo2P3
_symmetry_space_group_name_H-M   'P 1'
_cell_length_a   3.90132292
_cell_length_b   4.06942775
_cell_length_c   6.10128334
_cell_angle_alpha   104.58290902
_cell_angle_beta   94.64951292
_cell_angle_gamma   104.83890730
_symmetry_Int_Tables_number   1
_chemical_formula_structural   Li2MnSb4Mo2P3
_chemical_formula_sum   'Li2 Mn1 Sb4 Mo2 P3'
_cell_volume   89.51457136
_cell_formula_units_Z   1
loop_
 _symmetry_equiv_pos_site_id
 _symmetry_equiv_pos_as_xyz
  1  'x, y, z'
loop_
 _atom_site_type_symbol
 _atom_site_label
 _atom_site_symmetry_multiplicity
 _atom_site_fract_x
 _atom_site_fract_y
 _atom_site_fract_z
 _atom_site_occupancy
  Mn  Mn0  1  0.00000000  0.00000000  0.00000000  1
  Sb  Sb1  1  0.50000000  0.50000000  0.50000000  1
  Sb  Sb2  1  0.25000000  0.25000000  0.25000000  1
  Sb  Sb3  1  0.75000000  0.25000000  0.00000000  1
  Sb  Sb4  1  0.25000000  0.75000000  0.50000000  1
  P  P5  1  0.22445736  0.31598745  0.73584079  1
  P  P6  1  0.30725604  0.79343826  0.05730486  1
  P  P7  1  0.43290276  0.56583638  0.55378900  1
  Mo  Mo8  1  0.18151671  0.11221238  0.47866089  1
  Mo  Mo9  1  0.75307689  0.79668061  0.25835835  1
  Li  Li10  1  0.28675192  0.12838311  0.29319097  1
  Li  Li11  1  0.79272098  0.99114526  0.18859272  1
