# generated using pymatgen
data_Li2Mn3(SbP)4
_symmetry_space_group_name_H-M   'P 1'
_cell_length_a   7.03766520
_cell_length_b   7.15175402
_cell_length_c   7.33354614
_cell_angle_alpha   91.92804009
_cell_angle_beta   90.18620675
_cell_angle_gamma   91.52453564
_symmetry_Int_Tables_number   1
_chemical_formula_structural   Li2Mn3(SbP)4
_chemical_formula_sum   'Li2 Mn3 Sb4 P4'
_cell_volume   368.76676105
_cell_formula_units_Z   1
loop_
 _symmetry_equiv_pos_site_id
 _symmetry_equiv_pos_as_xyz
  1  'x, y, z'
loop_
 _atom_site_type_symbol
 _atom_site_label
 _atom_site_symmetry_multiplicity
 _atom_site_fract_x
 _atom_site_fract_y
 _atom_site_fract_z
 _atom_site_occupancy
  Mn  Mn0  1  0.12500000  0.00000000  0.25000000  1
  Mn  Mn1  1  0.00000000  0.00000000  0.00000000  1
  Mn  Mn2  1  0.37500000  0.00000000  0.25000000  1
  Sb  Sb3  1  0.25000000  0.25000000  0.25000000  1
  Sb  Sb4  1  0.00000000  0.25000000  0.12500000  1
  Sb  Sb5  1  0.59527225  0.23199924  0.72319046  1
  Sb  Sb6  1  0.33210510  0.89904483  0.13532977  1
  P  P7  1  0.33035039  0.74549244  0.97181293  1
  P  P8  1  0.26004200  0.05184336  0.46379190  1
  P  P9  1  0.71609575  0.46881884  0.14143876  1
  P  P10  1  0.65463197  0.31224209  0.54401669  1
  Li  Li11  1  0.17312043  0.04857585  0.32975961  1
  Li  Li12  1  0.31116902  0.64232534  0.22457723  1
