# generated using pymatgen
data_Li2Mn3Sb4P3
_symmetry_space_group_name_H-M   'P 1'
_cell_length_a   6.47194605
_cell_length_b   6.98054684
_cell_length_c   6.97618387
_cell_angle_alpha   95.21062901
_cell_angle_beta   90.26030616
_cell_angle_gamma   95.10698958
_symmetry_Int_Tables_number   1
_chemical_formula_structural   Li2Mn3Sb4P3
_chemical_formula_sum   'Li2 Mn3 Sb4 P3'
_cell_volume   312.59437616
_cell_formula_units_Z   1
loop_
 _symmetry_equiv_pos_site_id
 _symmetry_equiv_pos_as_xyz
  1  'x, y, z'
loop_
 _atom_site_type_symbol
 _atom_site_label
 _atom_site_symmetry_multiplicity
 _atom_site_fract_x
 _atom_site_fract_y
 _atom_site_fract_z
 _atom_site_occupancy
  Mn  Mn0  1  0.00000000  0.00000000  0.00000000  1
  Mn  Mn1  1  0.33300000  0.66700000  0.25000000  1
  Mn  Mn2  1  0.66700000  0.33300000  0.50000000  1
  Sb  Sb3  1  0.00000000  0.00000000  0.75000000  1
  Sb  Sb4  1  0.49553984  0.04970885  0.91652051  1
  Sb  Sb5  1  0.48432837  0.38498438  0.22060962  1
  Sb  Sb6  1  0.23832503  0.56073348  0.96927907  1
  P  P7  1  0.86363737  0.18934830  0.98203778  1
  P  P8  1  0.37033376  0.89262674  0.10321870  1
  P  P9  1  0.89268374  0.27850271  0.05328533  1
  Li  Li10  1  0.56265278  0.68605630  0.75498529  1
  Li  Li11  1  0.85142775  0.08927302  0.69002095  1
