# generated using pymatgen
data_Li2MnSb4P3
_symmetry_space_group_name_H-M   'P 1'
_cell_length_a   5.50316979
_cell_length_b   5.91488140
_cell_length_c   6.87316088
_cell_angle_alpha   97.36980474
_cell_angle_beta   93.81398012
_cell_angle_gamma   97.70309509
_symmetry_Int_Tables_number   1
_chemical_formula_structural   Li2MnSb4P3
_chemical_formula_sum   'Li2 Mn1 Sb4 P3'
_cell_volume   219.07597828
_cell_formula_units_Z   1
loop_
 _symmetry_equiv_pos_site_id
 _symmetry_equiv_pos_as_xyz
  1  'x, y, z'
loop_
 _atom_site_type_symbol
 _atom_site_label
 _atom_site_symmetry_multiplicity
 _atom_site_fract_x
 _atom_site_fract_y
 _atom_site_fract_z
 _atom_site_occupancy
  Mn  Mn0  1  0.12500000  0.12500000  0.12500000  1
  Sb  Sb1  1  0.50000000  0.50000000  0.50000000  1
  Sb  Sb2  1  0.25000000  0.25000000  0.25000000  1
  Sb  Sb3  1  0.75000000  0.75000000  0.75000000  1
  Sb  Sb4  1  0.16650031  0.80975258  0.40969529  1
  P  P5  1  0.22385792  0.23027648  0.93434449  1
  P  P6  1  0.67388472  0.80256439  0.61061132  1
  P  P7  1  0.46743267  0.41448546  0.41391735  1
  Li  Li8  1  0.36906176  0.78445346  0.78151662  1
  Li  Li9  1  0.65448800  0.55513255  0.91823248  1
