# generated using pymatgen
data_Li2MnMo2P3
_symmetry_space_group_name_H-M   'P 1'
_cell_length_a   5.26244743
_cell_length_b   5.64483020
_cell_length_c   6.83549325
_cell_angle_alpha   97.24753587
_cell_angle_beta   94.93164426
_cell_angle_gamma   97.69571789
_symmetry_Int_Tables_number   1
_chemical_formula_structural   Li2MnMo2P3
_chemical_formula_sum   'Li2 Mn1 Mo2 P3'
_cell_volume   198.52033777
_cell_formula_units_Z   1
loop_
 _symmetry_equiv_pos_site_id
 _symmetry_equiv_pos_as_xyz
  1  'x, y, z'
loop_
 _atom_site_type_symbol
 _atom_site_label
 _atom_site_symmetry_multiplicity
 _atom_site_fract_x
 _atom_site_fract_y
 _atom_site_fract_z
 _atom_site_occupancy
  Mn  Mn0  1  0.00000000  0.00000000  0.00000000  1
  P  P1  1  0.33300000  0.66700000  0.25000000  1
  P  P2  1  0.66700000  0.33300000  0.50000000  1
  P  P3  1  0.00000000  0.00000000  0.75000000  1
  Mo  Mo4  1  0.35104191  0.71320441  0.95806197  1
  Mo  Mo5  1  0.49493343  0.17091292  0.22708103  1
  Li  Li6  1  0.28842933  0.18669710  0.98935287  1
  Li  Li7  1  0.88150298  0.10154629  0.68106263  1
