# generated using pymatgen
data_Li3TiI4Cl2O3
_symmetry_space_group_name_H-M   'P 1'
_cell_length_a   8.45271465
_cell_length_b   8.38140264
_cell_length_c   7.50108432
_cell_angle_alpha   92.01841941
_cell_angle_beta   93.13956759
_cell_angle_gamma   92.20703530
_symmetry_Int_Tables_number   1
_chemical_formula_structural   Li3TiI4Cl2O3
_chemical_formula_sum   'Li3 Ti1 I4 Cl2 O3'
_cell_volume   529.85639098
_cell_formula_units_Z   1
loop_
 _symmetry_equiv_pos_site_id
 _symmetry_equiv_pos_as_xyz
  1  'x, y, z'
loop_
 _atom_site_type_symbol
 _atom_site_label
 _atom_site_symmetry_multiplicity
 _atom_site_fract_x
 _atom_site_fract_y
 _atom_site_fract_z
 _atom_site_occupancy
  I  I0  1  0.12500000  0.00000000  0.25000000  1
  I  I1  1  0.00000000  0.00000000  0.00000000  1
  I  I2  1  0.37500000  0.00000000  0.25000000  1
  I  I3  1  0.25000000  0.25000000  0.25000000  1
  Li  Li4  1  0.00000000  0.25000000  0.12500000  1
  Li  Li5  1  0.56329056  0.65529004  0.41224575  1
  Li  Li6  1  0.80113141  0.31150016  0.59356004  1
  Cl  Cl7  1  0.82525863  0.80035534  0.22597773  1
  Cl  Cl8  1  0.26260659  0.57711868  0.23207286  1
  Ti  Ti9  1  0.61704010  0.38974094  0.22047706  1
  O  O10  1  0.43905407  0.13644424  0.13612052  1
  O  O11  1  0.31521105  0.03916692  0.26332990  1
  O  O12  1  0.26544509  0.07786749  0.39384317  1
