# generated using pymatgen
data_Li2MnSb3Mo2P3
_symmetry_space_group_name_H-M   'P 1'
_cell_length_a   5.49314181
_cell_length_b   5.86596387
_cell_length_c   6.65085098
_cell_angle_alpha   97.34452809
_cell_angle_beta   92.63552152
_cell_angle_gamma   97.43084933
_symmetry_Int_Tables_number   1
_chemical_formula_structural   Li2MnSb3Mo2P3
_chemical_formula_sum   'Li2 Mn1 Sb3 Mo2 P3'
_cell_volume   210.33790893
_cell_formula_units_Z   1
loop_
 _symmetry_equiv_pos_site_id
 _symmetry_equiv_pos_as_xyz
  1  'x, y, z'
loop_
 _atom_site_type_symbol
 _atom_site_label
 _atom_site_symmetry_multiplicity
 _atom_site_fract_x
 _atom_site_fract_y
 _atom_site_fract_z
 _atom_site_occupancy
  Mn  Mn0  1  0.00000000  0.00000000  0.00000000  1
  Sb  Sb1  1  0.50000000  0.50000000  0.50000000  1
  Sb  Sb2  1  0.50000000  0.50000000  0.00000000  1
  Sb  Sb3  1  0.50000000  0.00000000  0.50000000  1
  P  P4  1  0.00000000  0.50000000  0.50000000  1
  P  P5  1  0.75943920  0.64245618  0.54927369  1
  P  P6  1  0.52771638  0.58569295  0.81712058  1
  Mo  Mo7  1  0.91807022  0.82128582  0.03629564  1
  Mo  Mo8  1  0.97801282  0.85019669  0.53777075  1
  Li  Li9  1  0.80209637  0.58501146  0.09600921  1
  Li  Li10  1  0.18495802  0.35267070  0.73741137  1
