# generated using pymatgen
data_Li2MnSb4P3
_symmetry_space_group_name_H-M   'P 1'
_cell_length_a   6.45089018
_cell_length_b   6.92040211
_cell_length_c   7.38702832
_cell_angle_alpha   93.08745896
_cell_angle_beta   93.65738041
_cell_angle_gamma   93.51390950
_symmetry_Int_Tables_number   1
_chemical_formula_structural   Li2MnSb4P3
_chemical_formula_sum   'Li2 Mn1 Sb4 P3'
_cell_volume   327.93398799
_cell_formula_units_Z   1
loop_
 _symmetry_equiv_pos_site_id
 _symmetry_equiv_pos_as_xyz
  1  'x, y, z'
loop_
 _atom_site_type_symbol
 _atom_site_label
 _atom_site_symmetry_multiplicity
 _atom_site_fract_x
 _atom_site_fract_y
 _atom_site_fract_z
 _atom_site_occupancy
  Mn  Mn0  1  0.00000000  0.00000000  0.00000000  1
  Sb  Sb1  1  0.33300000  0.66700000  0.25000000  1
  Sb  Sb2  1  0.66700000  0.33300000  0.50000000  1
  Sb  Sb3  1  0.00000000  0.00000000  0.75000000  1
  Sb  Sb4  1  0.51330651  0.60339005  0.21281516  1
  P  P5  1  0.03696818  0.62988034  0.44940120  1
  P  P6  1  0.02192716  0.44869135  0.79588410  1
  P  P7  1  0.42248740  0.37974094  0.10243700  1
  Li  Li8  1  0.48609500  0.75807507  0.21447211  1
  Li  Li9  1  0.62860543  0.47258192  0.21442810  1
