# generated using pymatgen
data_Li2MnMo2P3
_symmetry_space_group_name_H-M   'P 1'
_cell_length_a   4.92409569
_cell_length_b   5.24358716
_cell_length_c   6.56787672
_cell_angle_alpha   100.13708217
_cell_angle_beta   93.89826419
_cell_angle_gamma   100.40781667
_symmetry_Int_Tables_number   1
_chemical_formula_structural   Li2MnMo2P3
_chemical_formula_sum   'Li2 Mn1 Mo2 P3'
_cell_volume   163.31395508
_cell_formula_units_Z   1
loop_
 _symmetry_equiv_pos_site_id
 _symmetry_equiv_pos_as_xyz
  1  'x, y, z'
loop_
 _atom_site_type_symbol
 _atom_site_label
 _atom_site_symmetry_multiplicity
 _atom_site_fract_x
 _atom_site_fract_y
 _atom_site_fract_z
 _atom_site_occupancy
  Mn  Mn0  1  0.00000000  0.00000000  0.00000000  1
  P  P1  1  0.33300000  0.66700000  0.25000000  1
  P  P2  1  0.66700000  0.33300000  0.50000000  1
  P  P3  1  0.00000000  0.00000000  0.75000000  1
  Mo  Mo4  1  0.94745243  0.58288684  0.71134832  1
  Mo  Mo5  1  0.22905589  0.11411415  0.94567117  1
  Li  Li6  1  0.68140735  0.76785780  0.55497426  1
  Li  Li7  1  0.19845438  0.71654707  0.78842460  1
