# generated using pymatgen
data_Li2Sb3(As3I2)2
_symmetry_space_group_name_H-M   'P 1'
_cell_length_a   7.88909473
_cell_length_b   7.92636463
_cell_length_c   7.56860634
_cell_angle_alpha   90.28008263
_cell_angle_beta   91.33254811
_cell_angle_gamma   90.32020924
_symmetry_Int_Tables_number   1
_chemical_formula_structural   Li2Sb3(As3I2)2
_chemical_formula_sum   'Li2 Sb3 As6 I4'
_cell_volume   473.13754743
_cell_formula_units_Z   1
loop_
 _symmetry_equiv_pos_site_id
 _symmetry_equiv_pos_as_xyz
  1  'x, y, z'
loop_
 _atom_site_type_symbol
 _atom_site_label
 _atom_site_symmetry_multiplicity
 _atom_site_fract_x
 _atom_site_fract_y
 _atom_site_fract_z
 _atom_site_occupancy
  I  I0  1  0.00000000  0.00000000  0.00000000  1
  I  I1  1  0.50000000  0.50000000  0.50000000  1
  I  I2  1  0.25000000  0.25000000  0.25000000  1
  I  I3  1  0.75000000  0.25000000  0.00000000  1
  Li  Li4  1  0.25000000  0.75000000  0.50000000  1
  Li  Li5  1  0.37516128  0.11053081  0.75872118  1
  Sb  Sb6  1  0.42752745  0.41808499  0.74898640  1
  Sb  Sb7  1  0.77574154  0.20608816  0.15587177  1
  Sb  Sb8  1  0.87956014  0.56790576  0.07264323  1
  As  As9  1  0.34640160  0.02291884  0.96205775  1
  As  As10  1  0.04552521  0.96340982  0.08521190  1
  As  As11  1  0.04273290  0.19457011  0.77338190  1
  As  As12  1  0.02971101  0.97381030  0.45968322  1
  As  As13  1  0.63324983  0.11348700  0.39843409  1
  As  As14  1  0.54999098  0.69591703  0.46493038  1
