# generated using pymatgen
data_Li2Mn3Sb4P3
_symmetry_space_group_name_H-M   'P 1'
_cell_length_a   6.62996299
_cell_length_b   7.16348969
_cell_length_c   7.05779164
_cell_angle_alpha   94.46578521
_cell_angle_beta   90.22309617
_cell_angle_gamma   94.37696072
_symmetry_Int_Tables_number   1
_chemical_formula_structural   Li2Mn3Sb4P3
_chemical_formula_sum   'Li2 Mn3 Sb4 P3'
_cell_volume   333.19182246
_cell_formula_units_Z   1
loop_
 _symmetry_equiv_pos_site_id
 _symmetry_equiv_pos_as_xyz
  1  'x, y, z'
loop_
 _atom_site_type_symbol
 _atom_site_label
 _atom_site_symmetry_multiplicity
 _atom_site_fract_x
 _atom_site_fract_y
 _atom_site_fract_z
 _atom_site_occupancy
  Mn  Mn0  1  0.12500000  0.00000000  0.25000000  1
  Mn  Mn1  1  0.00000000  0.00000000  0.00000000  1
  Mn  Mn2  1  0.37500000  0.00000000  0.25000000  1
  Sb  Sb3  1  0.25000000  0.25000000  0.25000000  1
  Sb  Sb4  1  0.00000000  0.25000000  0.12500000  1
  Sb  Sb5  1  0.30346679  0.43470165  0.78257274  1
  Sb  Sb6  1  0.03593433  0.63767342  0.42477618  1
  P  P7  1  0.75637960  0.63522047  0.84782735  1
  P  P8  1  0.68458800  0.50742885  0.66752465  1
  P  P9  1  0.50124911  0.56875057  0.96258347  1
  Li  Li10  1  0.62133679  0.10480160  0.15831120  1
  Li  Li11  1  0.56615721  0.40175298  0.13060509  1
