# generated using pymatgen
data_LiMnSb2Mo2P3
_symmetry_space_group_name_H-M   'P 1'
_cell_length_a   4.80242519
_cell_length_b   4.91865199
_cell_length_c   5.99734109
_cell_angle_alpha   97.09593232
_cell_angle_beta   91.88775478
_cell_angle_gamma   97.37448733
_symmetry_Int_Tables_number   1
_chemical_formula_structural   LiMnSb2Mo2P3
_chemical_formula_sum   'Li1 Mn1 Sb2 Mo2 P3'
_cell_volume   139.24656411
_cell_formula_units_Z   1
loop_
 _symmetry_equiv_pos_site_id
 _symmetry_equiv_pos_as_xyz
  1  'x, y, z'
loop_
 _atom_site_type_symbol
 _atom_site_label
 _atom_site_symmetry_multiplicity
 _atom_site_fract_x
 _atom_site_fract_y
 _atom_site_fract_z
 _atom_site_occupancy
  Mn  Mn0  1  0.00000000  0.00000000  0.00000000  1
  Sb  Sb1  1  0.50000000  0.50000000  0.50000000  1
  Sb  Sb2  1  0.25000000  0.25000000  0.25000000  1
  P  P3  1  0.75000000  0.25000000  0.00000000  1
  P  P4  1  0.25000000  0.75000000  0.50000000  1
  P  P5  1  0.16568287  0.94297883  0.08741220  1
  Mo  Mo6  1  0.30469365  0.13780583  0.90303856  1
  Mo  Mo7  1  0.90137258  0.67609933  0.96779330  1
  Li  Li8  1  0.68198136  0.89585525  0.65674593  1
