# generated using pymatgen
data_Li(SbP)3
_symmetry_space_group_name_H-M   'P 1'
_cell_length_a   5.64333104
_cell_length_b   6.00015313
_cell_length_c   6.50157287
_cell_angle_alpha   95.66298272
_cell_angle_beta   91.31247168
_cell_angle_gamma   95.80392622
_symmetry_Int_Tables_number   1
_chemical_formula_structural   Li(SbP)3
_chemical_formula_sum   'Li1 Sb3 P3'
_cell_volume   217.83107380
_cell_formula_units_Z   1
loop_
 _symmetry_equiv_pos_site_id
 _symmetry_equiv_pos_as_xyz
  1  'x, y, z'
loop_
 _atom_site_type_symbol
 _atom_site_label
 _atom_site_symmetry_multiplicity
 _atom_site_fract_x
 _atom_site_fract_y
 _atom_site_fract_z
 _atom_site_occupancy
  Sb  Sb0  1  0.12500000  0.12500000  0.12500000  1
  Sb  Sb1  1  0.50000000  0.50000000  0.50000000  1
  Sb  Sb2  1  0.25000000  0.25000000  0.25000000  1
  P  P3  1  0.75000000  0.75000000  0.75000000  1
  P  P4  1  0.63427033  0.90334961  0.92022234  1
  P  P5  1  0.76323447  0.96188553  0.20756501  1
  Li  Li6  1  0.18667742  0.30224410  0.81872092  1
