# generated using pymatgen
data_Li3LuTi2(PO)3
_symmetry_space_group_name_H-M   'P 1'
_cell_length_a   7.71971135
_cell_length_b   7.49438410
_cell_length_c   8.03963954
_cell_angle_alpha   93.51914847
_cell_angle_beta   93.99348872
_cell_angle_gamma   93.92982730
_symmetry_Int_Tables_number   1
_chemical_formula_structural   Li3LuTi2(PO)3
_chemical_formula_sum   'Li3 Lu1 Ti2 P3 O3'
_cell_volume   461.88501598
_cell_formula_units_Z   1
loop_
 _symmetry_equiv_pos_site_id
 _symmetry_equiv_pos_as_xyz
  1  'x, y, z'
loop_
 _atom_site_type_symbol
 _atom_site_label
 _atom_site_symmetry_multiplicity
 _atom_site_fract_x
 _atom_site_fract_y
 _atom_site_fract_z
 _atom_site_occupancy
  P  P0  1  0.00000000  0.00000000  0.00000000  1
  P  P1  1  0.50000000  0.50000000  0.50000000  1
  P  P2  1  0.25000000  0.25000000  0.25000000  1
  Lu  Lu3  1  0.75000000  0.25000000  0.00000000  1
  Li  Li4  1  0.25000000  0.75000000  0.50000000  1
  Li  Li5  1  0.48109521  0.12390367  0.37445912  1
  Li  Li6  1  0.42494112  0.69457218  0.62287582  1
  Ti  Ti7  1  0.19541446  0.88384247  0.61979279  1
  Ti  Ti8  1  0.45517257  0.57975995  0.91955268  1
  O  O9  1  0.53254772  0.13085563  0.42899782  1
  O  O10  1  0.76134113  0.72908554  0.13855133  1
  O  O11  1  0.34733617  0.28572082  0.85234048  1
