# generated using pymatgen
data_Li2Mn3Sb4P3
_symmetry_space_group_name_H-M   'P 1'
_cell_length_a   6.76640354
_cell_length_b   7.32145266
_cell_length_c   7.12825631
_cell_angle_alpha   93.82264589
_cell_angle_beta   90.19096702
_cell_angle_gamma   93.74661345
_symmetry_Int_Tables_number   1
_chemical_formula_structural   Li2Mn3Sb4P3
_chemical_formula_sum   'Li2 Mn3 Sb4 P3'
_cell_volume   351.58394842
_cell_formula_units_Z   1
loop_
 _symmetry_equiv_pos_site_id
 _symmetry_equiv_pos_as_xyz
  1  'x, y, z'
loop_
 _atom_site_type_symbol
 _atom_site_label
 _atom_site_symmetry_multiplicity
 _atom_site_fract_x
 _atom_site_fract_y
 _atom_site_fract_z
 _atom_site_occupancy
  Mn  Mn0  1  0.00000000  0.00000000  0.00000000  1
  Mn  Mn1  1  0.50000000  0.50000000  0.50000000  1
  Mn  Mn2  1  0.50000000  0.50000000  0.00000000  1
  Sb  Sb3  1  0.50000000  0.00000000  0.50000000  1
  Sb  Sb4  1  0.00000000  0.50000000  0.50000000  1
  Sb  Sb5  1  0.93374643  0.87090826  0.54889379  1
  Sb  Sb6  1  0.36969627  0.77532854  0.75459711  1
  P  P7  1  0.52601811  0.12654119  0.61636342  1
  P  P8  1  0.01632824  0.68715380  0.70810958  1
  P  P9  1  0.67668134  0.94166639  0.64131089  1
  Li  Li10  1  0.94244096  0.85235729  0.16791966  1
  Li  Li11  1  0.66149002  0.55904136  0.35773087  1
