# generated using pymatgen
data_Li2Mn2Sb4P3
_symmetry_space_group_name_H-M   'P 1'
_cell_length_a   6.18500836
_cell_length_b   6.67412511
_cell_length_c   7.01111876
_cell_angle_alpha   95.45357610
_cell_angle_beta   91.86068264
_cell_angle_gamma   95.56628846
_symmetry_Int_Tables_number   1
_chemical_formula_structural   Li2Mn2Sb4P3
_chemical_formula_sum   'Li2 Mn2 Sb4 P3'
_cell_volume   286.49312529
_cell_formula_units_Z   1
loop_
 _symmetry_equiv_pos_site_id
 _symmetry_equiv_pos_as_xyz
  1  'x, y, z'
loop_
 _atom_site_type_symbol
 _atom_site_label
 _atom_site_symmetry_multiplicity
 _atom_site_fract_x
 _atom_site_fract_y
 _atom_site_fract_z
 _atom_site_occupancy
  Mn  Mn0  1  0.00000000  0.00000000  0.00000000  1
  Mn  Mn1  1  0.50000000  0.50000000  0.50000000  1
  Sb  Sb2  1  0.25000000  0.25000000  0.25000000  1
  Sb  Sb3  1  0.75000000  0.25000000  0.00000000  1
  Sb  Sb4  1  0.25000000  0.75000000  0.50000000  1
  Sb  Sb5  1  0.01927779  0.12608469  0.87846433  1
  P  P6  1  0.81379020  0.28464328  0.71588838  1
  P  P7  1  0.57378189  0.23391296  0.06071485  1
  P  P8  1  0.79861180  0.33873037  0.88604270  1
  Li  Li9  1  0.83680014  0.57045533  0.90060115  1
  Li  Li10  1  0.62347899  0.79143784  0.22788530  1
