# generated using pymatgen
data_LiTiI2F
_symmetry_space_group_name_H-M   'P 1'
_cell_length_a   8.45196335
_cell_length_b   8.44833243
_cell_length_c   8.09102743
_cell_angle_alpha   90.07681851
_cell_angle_beta   90.36547916
_cell_angle_gamma   90.08782407
_symmetry_Int_Tables_number   1
_chemical_formula_structural   LiTiI2F
_chemical_formula_sum   'Li2 Ti2 I4 F2'
_cell_volume   577.72682263
_cell_formula_units_Z   2
loop_
 _symmetry_equiv_pos_site_id
 _symmetry_equiv_pos_as_xyz
  1  'x, y, z'
loop_
 _atom_site_type_symbol
 _atom_site_label
 _atom_site_symmetry_multiplicity
 _atom_site_fract_x
 _atom_site_fract_y
 _atom_site_fract_z
 _atom_site_occupancy
  I  I0  1  0.00000000  0.00000000  0.00000000  1
  I  I1  1  0.50000000  0.50000000  0.50000000  1
  I  I2  1  0.25000000  0.25000000  0.25000000  1
  I  I3  1  0.75000000  0.25000000  0.00000000  1
  Li  Li4  1  0.25000000  0.75000000  0.50000000  1
  Li  Li5  1  0.66385166  0.33793360  0.75041811  1
  F  F6  1  0.93243286  0.68233103  0.49052763  1
  F  F7  1  0.37841199  0.46218440  0.18208862  1
  Ti  Ti8  1  0.46918223  0.96727630  0.48100836  1
  Ti  Ti9  1  0.23983891  0.87788377  0.77187315  1
