# generated using pymatgen
data_Li2Mn2Sb4P3
_symmetry_space_group_name_H-M   'P 1'
_cell_length_a   5.36221364
_cell_length_b   5.72686177
_cell_length_c   6.60348431
_cell_angle_alpha   99.22295673
_cell_angle_beta   92.18709802
_cell_angle_gamma   99.27992970
_symmetry_Int_Tables_number   1
_chemical_formula_structural   Li2Mn2Sb4P3
_chemical_formula_sum   'Li2 Mn2 Sb4 P3'
_cell_volume   197.11598943
_cell_formula_units_Z   1
loop_
 _symmetry_equiv_pos_site_id
 _symmetry_equiv_pos_as_xyz
  1  'x, y, z'
loop_
 _atom_site_type_symbol
 _atom_site_label
 _atom_site_symmetry_multiplicity
 _atom_site_fract_x
 _atom_site_fract_y
 _atom_site_fract_z
 _atom_site_occupancy
  Mn  Mn0  1  0.00000000  0.00000000  0.00000000  1
  Mn  Mn1  1  0.50000000  0.50000000  0.50000000  1
  Sb  Sb2  1  0.25000000  0.25000000  0.25000000  1
  Sb  Sb3  1  0.75000000  0.25000000  0.00000000  1
  Sb  Sb4  1  0.25000000  0.75000000  0.50000000  1
  Sb  Sb5  1  0.41803590  0.21048850  0.80778999  1
  P  P6  1  0.54583092  0.81995246  0.58003400  1
  P  P7  1  0.36774580  0.55747114  0.99036335  1
  P  P8  1  0.01946648  0.22569308  0.45082100  1
  Li  Li9  1  0.03441039  0.75834994  0.99744302  1
  Li  Li10  1  0.75532386  0.50701025  0.26713932  1
