# generated using pymatgen
data_Li2Sb4Mo2P3
_symmetry_space_group_name_H-M   'P 1'
_cell_length_a   3.91609288
_cell_length_b   4.11487451
_cell_length_c   6.31933315
_cell_angle_alpha   103.24015226
_cell_angle_beta   96.41268922
_cell_angle_gamma   103.77774607
_symmetry_Int_Tables_number   1
_chemical_formula_structural   Li2Sb4Mo2P3
_chemical_formula_sum   'Li2 Sb4 Mo2 P3'
_cell_volume   94.77233366
_cell_formula_units_Z   1
loop_
 _symmetry_equiv_pos_site_id
 _symmetry_equiv_pos_as_xyz
  1  'x, y, z'
loop_
 _atom_site_type_symbol
 _atom_site_label
 _atom_site_symmetry_multiplicity
 _atom_site_fract_x
 _atom_site_fract_y
 _atom_site_fract_z
 _atom_site_occupancy
  Sb  Sb0  1  0.00000000  0.00000000  0.00000000  1
  Sb  Sb1  1  0.50000000  0.50000000  0.50000000  1
  Sb  Sb2  1  0.25000000  0.25000000  0.25000000  1
  Sb  Sb3  1  0.75000000  0.25000000  0.00000000  1
  P  P4  1  0.25000000  0.75000000  0.50000000  1
  P  P5  1  0.18079678  0.56688019  0.78654673  1
  P  P6  1  0.80521086  0.56282070  0.46701404  1
  Mo  Mo7  1  0.96238719  0.67964148  0.38071299  1
  Mo  Mo8  1  0.73917487  0.63380608  0.33921017  1
  Li  Li9  1  0.76956926  0.85791516  0.78660228  1
  Li  Li10  1  0.29903294  0.20199904  0.70378015  1
