# generated using pymatgen
data_Li2Ti2P6S3F2
_symmetry_space_group_name_H-M   'P 1'
_cell_length_a   7.41112735
_cell_length_b   7.26646283
_cell_length_c   8.23202661
_cell_angle_alpha   90.66048291
_cell_angle_beta   93.14237711
_cell_angle_gamma   90.75510833
_symmetry_Int_Tables_number   1
_chemical_formula_structural   Li2Ti2P6S3F2
_chemical_formula_sum   'Li2 Ti2 P6 S3 F2'
_cell_volume   442.57837817
_cell_formula_units_Z   1
loop_
 _symmetry_equiv_pos_site_id
 _symmetry_equiv_pos_as_xyz
  1  'x, y, z'
loop_
 _atom_site_type_symbol
 _atom_site_label
 _atom_site_symmetry_multiplicity
 _atom_site_fract_x
 _atom_site_fract_y
 _atom_site_fract_z
 _atom_site_occupancy
  P  P0  1  0.12500000  0.00000000  0.25000000  1
  P  P1  1  0.00000000  0.00000000  0.00000000  1
  P  P2  1  0.37500000  0.00000000  0.25000000  1
  P  P3  1  0.25000000  0.25000000  0.25000000  1
  P  P4  1  0.00000000  0.25000000  0.12500000  1
  P  P5  1  0.94838407  0.17211173  0.18120518  1
  Li  Li6  1  0.86040460  0.69247900  0.31482577  1
  Li  Li7  1  0.23107280  0.27952614  0.76054049  1
  F  F8  1  0.25157065  0.30023512  0.22538935  1
  F  F9  1  0.41087981  0.99127864  0.05010161  1
  S  S10  1  0.27688166  0.10065075  0.99433014  1
  S  S11  1  0.55239057  0.87271818  0.06408015  1
  S  S12  1  0.86218908  0.15440735  0.01063360  1
  Ti  Ti13  1  0.51950192  0.01135064  0.71715423  1
  Ti  Ti14  1  0.06927827  0.18366323  0.89983654  1
