# generated using pymatgen
data_LiMn2Sb4P3
_symmetry_space_group_name_H-M   'P 1'
_cell_length_a   5.07577945
_cell_length_b   5.34865689
_cell_length_c   6.22142620
_cell_angle_alpha   99.11668248
_cell_angle_beta   91.21340551
_cell_angle_gamma   99.16542507
_symmetry_Int_Tables_number   1
_chemical_formula_structural   LiMn2Sb4P3
_chemical_formula_sum   'Li1 Mn2 Sb4 P3'
_cell_volume   164.45342984
_cell_formula_units_Z   1
loop_
 _symmetry_equiv_pos_site_id
 _symmetry_equiv_pos_as_xyz
  1  'x, y, z'
loop_
 _atom_site_type_symbol
 _atom_site_label
 _atom_site_symmetry_multiplicity
 _atom_site_fract_x
 _atom_site_fract_y
 _atom_site_fract_z
 _atom_site_occupancy
  Mn  Mn0  1  0.00000000  0.00000000  0.00000000  1
  Mn  Mn1  1  0.50000000  0.50000000  0.50000000  1
  Sb  Sb2  1  0.25000000  0.25000000  0.25000000  1
  Sb  Sb3  1  0.75000000  0.25000000  0.00000000  1
  Sb  Sb4  1  0.25000000  0.75000000  0.50000000  1
  Sb  Sb5  1  0.76118992  0.80845531  0.60679862  1
  P  P6  1  0.44553620  0.96566368  0.70036499  1
  P  P7  1  0.75203415  0.77580544  0.06778202  1
  P  P8  1  0.86979183  0.28247181  0.80809427  1
  Li  Li9  1  0.22910702  0.92720910  0.88258275  1
