# generated using pymatgen
data_Li4Ti3Cu2(P2O)2
_symmetry_space_group_name_H-M   'P 1'
_cell_length_a   6.32174156
_cell_length_b   6.30169545
_cell_length_c   7.84353509
_cell_angle_alpha   97.42257884
_cell_angle_beta   98.13735912
_cell_angle_gamma   99.30899587
_symmetry_Int_Tables_number   1
_chemical_formula_structural   Li4Ti3Cu2(P2O)2
_chemical_formula_sum   'Li4 Ti3 Cu2 P4 O2'
_cell_volume   301.52685966
_cell_formula_units_Z   1
loop_
 _symmetry_equiv_pos_site_id
 _symmetry_equiv_pos_as_xyz
  1  'x, y, z'
loop_
 _atom_site_type_symbol
 _atom_site_label
 _atom_site_symmetry_multiplicity
 _atom_site_fract_x
 _atom_site_fract_y
 _atom_site_fract_z
 _atom_site_occupancy
  P  P0  1  0.00000000  0.00000000  0.00000000  1
  P  P1  1  0.50000000  0.50000000  0.50000000  1
  P  P2  1  0.50000000  0.50000000  0.00000000  1
  P  P3  1  0.50000000  0.00000000  0.50000000  1
  Li  Li4  1  0.00000000  0.50000000  0.50000000  1
  Li  Li5  1  0.99784661  0.59708594  0.51299560  1
  Li  Li6  1  0.80535691  0.87034084  0.79460674  1
  Li  Li7  1  0.01218039  0.98985829  0.16727447  1
  Cu  Cu8  1  0.55817892  0.75244671  0.14815395  1
  Cu  Cu9  1  0.14966733  0.79768249  0.67798388  1
  Ti  Ti10  1  0.46644669  0.82351607  0.81688538  1
  Ti  Ti11  1  0.68597623  0.43448446  0.97244327  1
  Ti  Ti12  1  0.86934840  0.88982597  0.95576124  1
  O  O13  1  0.56401229  0.87888116  0.35953759  1
  O  O14  1  0.36210304  0.13994428  0.19049002  1
