# generated using pymatgen
data_Li3Ti2I4O3
_symmetry_space_group_name_H-M   'P 1'
_cell_length_a   7.83234112
_cell_length_b   7.75189263
_cell_length_c   7.74818996
_cell_angle_alpha   94.24671781
_cell_angle_beta   96.60559324
_cell_angle_gamma   94.64356222
_symmetry_Int_Tables_number   1
_chemical_formula_structural   Li3Ti2I4O3
_chemical_formula_sum   'Li3 Ti2 I4 O3'
_cell_volume   464.12417074
_cell_formula_units_Z   1
loop_
 _symmetry_equiv_pos_site_id
 _symmetry_equiv_pos_as_xyz
  1  'x, y, z'
loop_
 _atom_site_type_symbol
 _atom_site_label
 _atom_site_symmetry_multiplicity
 _atom_site_fract_x
 _atom_site_fract_y
 _atom_site_fract_z
 _atom_site_occupancy
  I  I0  1  0.00000000  0.00000000  0.00000000  1
  I  I1  1  0.50000000  0.50000000  0.50000000  1
  I  I2  1  0.50000000  0.50000000  0.00000000  1
  I  I3  1  0.50000000  0.00000000  0.50000000  1
  Li  Li4  1  0.00000000  0.50000000  0.50000000  1
  Li  Li5  1  0.21549077  0.19637341  0.05000639  1
  Li  Li6  1  0.64194663  0.24647961  0.25026781  1
  Ti  Ti7  1  0.54076035  0.10797259  0.69739726  1
  Ti  Ti8  1  0.21087720  0.14352478  0.28013176  1
  O  O9  1  0.26034273  0.66754386  0.99628896  1
  O  O10  1  0.10633898  0.85624827  0.68817012  1
  O  O11  1  0.14494845  0.44779123  0.34002633  1
