# generated using pymatgen
data_Li2MnP3
_symmetry_space_group_name_H-M   'P 1'
_cell_length_a   4.12308374
_cell_length_b   4.33598420
_cell_length_c   6.29458262
_cell_angle_alpha   103.06216401
_cell_angle_beta   95.26198410
_cell_angle_gamma   103.44428493
_symmetry_Int_Tables_number   1
_chemical_formula_structural   Li2MnP3
_chemical_formula_sum   'Li2 Mn1 P3'
_cell_volume   105.37336992
_cell_formula_units_Z   1
loop_
 _symmetry_equiv_pos_site_id
 _symmetry_equiv_pos_as_xyz
  1  'x, y, z'
loop_
 _atom_site_type_symbol
 _atom_site_label
 _atom_site_symmetry_multiplicity
 _atom_site_fract_x
 _atom_site_fract_y
 _atom_site_fract_z
 _atom_site_occupancy
  Mn  Mn0  1  0.12500000  0.12500000  0.12500000  1
  P  P1  1  0.50000000  0.50000000  0.50000000  1
  P  P2  1  0.25000000  0.25000000  0.25000000  1
  P  P3  1  0.75000000  0.75000000  0.75000000  1
  Li  Li4  1  0.86504379  0.83613778  0.25228059  1
  Li  Li5  1  0.08759415  0.82208167  0.98022789  1
