# generated using pymatgen
data_Li2MnSb4P3
_symmetry_space_group_name_H-M   'P 1'
_cell_length_a   4.41006524
_cell_length_b   4.65907016
_cell_length_c   6.37769021
_cell_angle_alpha   102.10390019
_cell_angle_beta   94.64946378
_cell_angle_gamma   102.42644599
_symmetry_Int_Tables_number   1
_chemical_formula_structural   Li2MnSb4P3
_chemical_formula_sum   'Li2 Mn1 Sb4 P3'
_cell_volume   124.02900504
_cell_formula_units_Z   1
loop_
 _symmetry_equiv_pos_site_id
 _symmetry_equiv_pos_as_xyz
  1  'x, y, z'
loop_
 _atom_site_type_symbol
 _atom_site_label
 _atom_site_symmetry_multiplicity
 _atom_site_fract_x
 _atom_site_fract_y
 _atom_site_fract_z
 _atom_site_occupancy
  Mn  Mn0  1  0.00000000  0.00000000  0.00000000  1
  Sb  Sb1  1  0.50000000  0.50000000  0.50000000  1
  Sb  Sb2  1  0.50000000  0.50000000  0.00000000  1
  Sb  Sb3  1  0.50000000  0.00000000  0.50000000  1
  Sb  Sb4  1  0.00000000  0.50000000  0.50000000  1
  P  P5  1  0.97393159  0.41431220  0.63627354  1
  P  P6  1  0.92757102  0.24116275  0.45295268  1
  P  P7  1  0.45995905  0.31057703  0.88541757  1
  Li  Li8  1  0.99333763  0.82255721  0.37623882  1
  Li  Li9  1  0.45817068  0.02843079  0.92868555  1
