# generated using pymatgen
data_Li2LuNi2I5Cl2
_symmetry_space_group_name_H-M   'P 1'
_cell_length_a   8.14066037
_cell_length_b   7.82864713
_cell_length_c   9.26033785
_cell_angle_alpha   95.82345012
_cell_angle_beta   98.22027463
_cell_angle_gamma   95.78163818
_symmetry_Int_Tables_number   1
_chemical_formula_structural   Li2LuNi2I5Cl2
_chemical_formula_sum   'Li2 Lu1 Ni2 I5 Cl2'
_cell_volume   577.09268592
_cell_formula_units_Z   1
loop_
 _symmetry_equiv_pos_site_id
 _symmetry_equiv_pos_as_xyz
  1  'x, y, z'
loop_
 _atom_site_type_symbol
 _atom_site_label
 _atom_site_symmetry_multiplicity
 _atom_site_fract_x
 _atom_site_fract_y
 _atom_site_fract_z
 _atom_site_occupancy
  I  I0  1  0.12500000  0.00000000  0.25000000  1
  I  I1  1  0.00000000  0.00000000  0.00000000  1
  I  I2  1  0.37500000  0.00000000  0.25000000  1
  I  I3  1  0.25000000  0.25000000  0.25000000  1
  I  I4  1  0.00000000  0.25000000  0.12500000  1
  Lu  Lu5  1  0.00640628  0.22600483  0.91316864  1
  Li  Li6  1  0.66810809  0.06239979  0.19559477  1
  Li  Li7  1  0.54620741  0.85537843  0.40540923  1
  Cl  Cl8  1  0.20090871  0.49786285  0.85922207  1
  Cl  Cl9  1  0.25916059  0.39636340  0.90403107  1
  Ni  Ni10  1  0.38035096  0.31592281  0.21651331  1
  Ni  Ni11  1  0.34426909  0.51398384  0.49438699  1
