# generated using pymatgen
data_Li2Mn3Sb4P3
_symmetry_space_group_name_H-M   'P 1'
_cell_length_a   5.12616908
_cell_length_b   5.42248424
_cell_length_c   6.28115794
_cell_angle_alpha   101.55421263
_cell_angle_beta   90.57721107
_cell_angle_gamma   101.32439930
_symmetry_Int_Tables_number   1
_chemical_formula_structural   Li2Mn3Sb4P3
_chemical_formula_sum   'Li2 Mn3 Sb4 P3'
_cell_volume   167.50437235
_cell_formula_units_Z   1
loop_
 _symmetry_equiv_pos_site_id
 _symmetry_equiv_pos_as_xyz
  1  'x, y, z'
loop_
 _atom_site_type_symbol
 _atom_site_label
 _atom_site_symmetry_multiplicity
 _atom_site_fract_x
 _atom_site_fract_y
 _atom_site_fract_z
 _atom_site_occupancy
  Mn  Mn0  1  0.00000000  0.00000000  0.00000000  1
  Mn  Mn1  1  0.50000000  0.50000000  0.50000000  1
  Mn  Mn2  1  0.50000000  0.50000000  0.00000000  1
  Sb  Sb3  1  0.50000000  0.00000000  0.50000000  1
  Sb  Sb4  1  0.00000000  0.50000000  0.50000000  1
  Sb  Sb5  1  0.41256556  0.15817372  0.38374293  1
  Sb  Sb6  1  0.83725018  0.08647909  0.50293056  1
  P  P7  1  0.58040032  0.64906163  0.40277926  1
  P  P8  1  0.41015338  0.97138924  0.57839634  1
  P  P9  1  0.30335051  0.68471523  0.60718500  1
  Li  Li10  1  0.39809785  0.60226524  0.19112276  1
  Li  Li11  1  0.64480535  0.99788305  0.81274175  1
