# generated using pymatgen
data_Li3Ti2P3(I2O)2
_symmetry_space_group_name_H-M   'P 1'
_cell_length_a   8.19168214
_cell_length_b   8.04550038
_cell_length_c   7.61739452
_cell_angle_alpha   90.00000000
_cell_angle_beta   90.00000000
_cell_angle_gamma   90.00000000
_symmetry_Int_Tables_number   1
_chemical_formula_structural   Li3Ti2P3(I2O)2
_chemical_formula_sum   'Li3 Ti2 P3 I4 O2'
_cell_volume   502.03338794
_cell_formula_units_Z   1
loop_
 _symmetry_equiv_pos_site_id
 _symmetry_equiv_pos_as_xyz
  1  'x, y, z'
loop_
 _atom_site_type_symbol
 _atom_site_label
 _atom_site_symmetry_multiplicity
 _atom_site_fract_x
 _atom_site_fract_y
 _atom_site_fract_z
 _atom_site_occupancy
  P  P0  1  0.00000000  0.00000000  0.00000000  1
  P  P1  1  0.50000000  0.50000000  0.50000000  1
  P  P2  1  0.25000000  0.25000000  0.25000000  1
  I  I3  1  0.75000000  0.25000000  0.00000000  1
  I  I4  1  0.25000000  0.75000000  0.50000000  1
  I  I5  1  0.76596147  0.34305150  0.69291104  1
  I  I6  1  0.83728428  0.83859229  0.36382828  1
  Li  Li7  1  0.59326979  0.92657192  0.11241862  1
  Li  Li8  1  0.82340797  0.79267806  0.68715065  1
  Li  Li9  1  0.46889421  0.09201756  0.93572055  1
  Ti  Ti10  1  0.37775873  0.60622181  0.88102990  1
  Ti  Ti11  1  0.82235435  0.43612703  0.19613402  1
  O  O12  1  0.74129824  0.74105006  0.44944664  1
  O  O13  1  0.93238217  0.96795872  0.93366281  1
