# generated using pymatgen
data_LiMn3Sb2Mo2P3
_symmetry_space_group_name_H-M   'P 1'
_cell_length_a   6.55356375
_cell_length_b   7.04255245
_cell_length_c   6.88925690
_cell_angle_alpha   91.91932712
_cell_angle_beta   90.39247601
_cell_angle_gamma   92.03125154
_symmetry_Int_Tables_number   1
_chemical_formula_structural   LiMn3Sb2Mo2P3
_chemical_formula_sum   'Li1 Mn3 Sb2 Mo2 P3'
_cell_volume   317.57714597
_cell_formula_units_Z   1
loop_
 _symmetry_equiv_pos_site_id
 _symmetry_equiv_pos_as_xyz
  1  'x, y, z'
loop_
 _atom_site_type_symbol
 _atom_site_label
 _atom_site_symmetry_multiplicity
 _atom_site_fract_x
 _atom_site_fract_y
 _atom_site_fract_z
 _atom_site_occupancy
  Mn  Mn0  1  0.00000000  0.00000000  0.00000000  1
  Mn  Mn1  1  0.50000000  0.50000000  0.50000000  1
  Mn  Mn2  1  0.25000000  0.25000000  0.25000000  1
  Sb  Sb3  1  0.75000000  0.25000000  0.00000000  1
  Sb  Sb4  1  0.25000000  0.75000000  0.50000000  1
  P  P5  1  0.03287992  0.42201940  0.99191408  1
  P  P6  1  0.97651456  0.70434872  0.14639949  1
  P  P7  1  0.40976505  0.96170021  0.88724157  1
  Mo  Mo8  1  0.27613034  0.48324281  0.61541539  1
  Mo  Mo9  1  0.49582170  0.89143306  0.82698478  1
  Li  Li10  1  0.83590657  0.31604249  0.29398887  1
