# generated using pymatgen
data_Li2Ni2Se2O3
_symmetry_space_group_name_H-M   'P 1'
_cell_length_a   8.32207005
_cell_length_b   8.32786583
_cell_length_c   8.04868235
_cell_angle_alpha   90.00000000
_cell_angle_beta   90.00000000
_cell_angle_gamma   90.00000000
_symmetry_Int_Tables_number   1
_chemical_formula_structural   Li2Ni2Se2O3
_chemical_formula_sum   'Li2 Ni2 Se2 O3'
_cell_volume   557.81459654
_cell_formula_units_Z   1
loop_
 _symmetry_equiv_pos_site_id
 _symmetry_equiv_pos_as_xyz
  1  'x, y, z'
loop_
 _atom_site_type_symbol
 _atom_site_label
 _atom_site_symmetry_multiplicity
 _atom_site_fract_x
 _atom_site_fract_y
 _atom_site_fract_z
 _atom_site_occupancy
  Li  Li0  1  0.00000000  0.00000000  0.00000000  1
  Li  Li1  1  0.50000000  0.50000000  0.50000000  1
  Se  Se2  1  0.25000000  0.25000000  0.25000000  1
  Se  Se3  1  0.75000000  0.25000000  0.00000000  1
  Ni  Ni4  1  0.25000000  0.75000000  0.50000000  1
  Ni  Ni5  1  0.21923033  0.34190426  0.49187624  1
  O  O6  1  0.64722777  0.33710468  0.13740477  1
  O  O7  1  0.46695457  0.23739064  0.66037461  1
  O  O8  1  0.11244507  0.47300403  0.60891045  1
