# generated using pymatgen
data_LiMn2Sb4P3
_symmetry_space_group_name_H-M   'P 1'
_cell_length_a   6.23465036
_cell_length_b   6.64592823
_cell_length_c   6.74752040
_cell_angle_alpha   94.21817612
_cell_angle_beta   90.31770092
_cell_angle_gamma   93.99529553
_symmetry_Int_Tables_number   1
_chemical_formula_structural   LiMn2Sb4P3
_chemical_formula_sum   'Li1 Mn2 Sb4 P3'
_cell_volume   278.13282349
_cell_formula_units_Z   1
loop_
 _symmetry_equiv_pos_site_id
 _symmetry_equiv_pos_as_xyz
  1  'x, y, z'
loop_
 _atom_site_type_symbol
 _atom_site_label
 _atom_site_symmetry_multiplicity
 _atom_site_fract_x
 _atom_site_fract_y
 _atom_site_fract_z
 _atom_site_occupancy
  Mn  Mn0  1  0.12500000  0.00000000  0.25000000  1
  Mn  Mn1  1  0.00000000  0.00000000  0.00000000  1
  Sb  Sb2  1  0.37500000  0.00000000  0.25000000  1
  Sb  Sb3  1  0.25000000  0.25000000  0.25000000  1
  Sb  Sb4  1  0.00000000  0.25000000  0.12500000  1
  Sb  Sb5  1  0.19130884  0.94966611  0.23450097  1
  P  P6  1  0.95634554  0.45568450  0.02695056  1
  P  P7  1  0.48566345  0.81040473  0.34668816  1
  P  P8  1  0.77368691  0.48588505  0.12714540  1
  Li  Li9  1  0.34626646  0.97723988  0.42019167  1
