# generated using pymatgen
data_Li2Mn2Sb4Mo2P3
_symmetry_space_group_name_H-M   'P 1'
_cell_length_a   4.79638091
_cell_length_b   5.05752790
_cell_length_c   6.43349776
_cell_angle_alpha   101.19538233
_cell_angle_beta   93.47564586
_cell_angle_gamma   101.37884911
_symmetry_Int_Tables_number   1
_chemical_formula_structural   Li2Mn2Sb4Mo2P3
_chemical_formula_sum   'Li2 Mn2 Sb4 Mo2 P3'
_cell_volume   149.28752204
_cell_formula_units_Z   1
loop_
 _symmetry_equiv_pos_site_id
 _symmetry_equiv_pos_as_xyz
  1  'x, y, z'
loop_
 _atom_site_type_symbol
 _atom_site_label
 _atom_site_symmetry_multiplicity
 _atom_site_fract_x
 _atom_site_fract_y
 _atom_site_fract_z
 _atom_site_occupancy
  Mn  Mn0  1  0.00000000  0.00000000  0.00000000  1
  Mn  Mn1  1  0.50000000  0.50000000  0.50000000  1
  Sb  Sb2  1  0.25000000  0.25000000  0.25000000  1
  Sb  Sb3  1  0.75000000  0.25000000  0.00000000  1
  Sb  Sb4  1  0.25000000  0.75000000  0.50000000  1
  Sb  Sb5  1  0.97402802  0.96699463  0.35647613  1
  P  P6  1  0.38193336  0.68808011  0.20101162  1
  P  P7  1  0.45973834  0.93589486  0.13199630  1
  P  P8  1  0.74161529  0.36103709  0.49516811  1
  Mo  Mo9  1  0.64261128  0.95843048  0.41439496  1
  Mo  Mo10  1  0.48782481  0.83636762  0.63249975  1
  Li  Li11  1  0.94198350  0.26612697  0.90881080  1
  Li  Li12  1  0.23521020  0.03413554  0.60103067  1
