# generated using pymatgen
data_LiTi2P4(OF)2
_symmetry_space_group_name_H-M   'P 1'
_cell_length_a   7.69823356
_cell_length_b   7.61642982
_cell_length_c   7.99791604
_cell_angle_alpha   90.52434338
_cell_angle_beta   93.63944113
_cell_angle_gamma   90.56059282
_symmetry_Int_Tables_number   1
_chemical_formula_structural   LiTi2P4(OF)2
_chemical_formula_sum   'Li1 Ti2 P4 O2 F2'
_cell_volume   467.95168528
_cell_formula_units_Z   1
loop_
 _symmetry_equiv_pos_site_id
 _symmetry_equiv_pos_as_xyz
  1  'x, y, z'
loop_
 _atom_site_type_symbol
 _atom_site_label
 _atom_site_symmetry_multiplicity
 _atom_site_fract_x
 _atom_site_fract_y
 _atom_site_fract_z
 _atom_site_occupancy
  P  P0  1  0.12500000  0.00000000  0.25000000  1
  P  P1  1  0.00000000  0.00000000  0.00000000  1
  P  P2  1  0.37500000  0.00000000  0.25000000  1
  P  P3  1  0.25000000  0.25000000  0.25000000  1
  Li  Li4  1  0.00000000  0.25000000  0.12500000  1
  F  F5  1  0.23214522  0.63892347  0.52920693  1
  F  F6  1  0.07618600  0.11457054  0.14044021  1
  Ti  Ti7  1  0.58353696  0.09674343  0.37972526  1
  Ti  Ti8  1  0.52015967  0.15373757  0.01596534  1
  O  O9  1  0.59588050  0.02622753  0.93614225  1
  O  O10  1  0.02937444  0.11619286  0.91651006  1
