# generated using pymatgen
data_Li2Mn2Sb4P3N
_symmetry_space_group_name_H-M   'P 1'
_cell_length_a   3.93209460
_cell_length_b   4.08409155
_cell_length_c   5.43270861
_cell_angle_alpha   102.84468150
_cell_angle_beta   94.79999826
_cell_angle_gamma   101.29199643
_symmetry_Int_Tables_number   1
_chemical_formula_structural   Li2Mn2Sb4P3N
_chemical_formula_sum   'Li2 Mn2 Sb4 P3 N1'
_cell_volume   82.67268568
_cell_formula_units_Z   1
loop_
 _symmetry_equiv_pos_site_id
 _symmetry_equiv_pos_as_xyz
  1  'x, y, z'
loop_
 _atom_site_type_symbol
 _atom_site_label
 _atom_site_symmetry_multiplicity
 _atom_site_fract_x
 _atom_site_fract_y
 _atom_site_fract_z
 _atom_site_occupancy
  N  N0  1  0.12500000  0.00000000  0.25000000  1
  Mn  Mn1  1  0.00000000  0.00000000  0.00000000  1
  Mn  Mn2  1  0.37500000  0.00000000  0.25000000  1
  Sb  Sb3  1  0.25000000  0.25000000  0.25000000  1
  Sb  Sb4  1  0.00000000  0.25000000  0.12500000  1
  Sb  Sb5  1  0.84473702  0.58433428  0.09985042  1
  Sb  Sb6  1  0.58565288  0.46366375  0.07925981  1
  P  P7  1  0.04348787  0.77632148  0.47949593  1
  P  P8  1  0.01824844  0.19207385  0.36835726  1
  P  P9  1  0.17672927  0.83534862  0.45531267  1
  Li  Li10  1  0.20380055  0.68160156  0.26892560  1
  Li  Li11  1  0.90507361  0.10424711  0.30072609  1
