# generated using pymatgen
data_Li2Mn2Sb4Mo2P3
_symmetry_space_group_name_H-M   'P 1'
_cell_length_a   4.43970680
_cell_length_b   4.70642934
_cell_length_c   6.07653486
_cell_angle_alpha   99.56799382
_cell_angle_beta   96.41186704
_cell_angle_gamma   98.79456732
_symmetry_Int_Tables_number   1
_chemical_formula_structural   Li2Mn2Sb4Mo2P3
_chemical_formula_sum   'Li2 Mn2 Sb4 Mo2 P3'
_cell_volume   122.50146296
_cell_formula_units_Z   1
loop_
 _symmetry_equiv_pos_site_id
 _symmetry_equiv_pos_as_xyz
  1  'x, y, z'
loop_
 _atom_site_type_symbol
 _atom_site_label
 _atom_site_symmetry_multiplicity
 _atom_site_fract_x
 _atom_site_fract_y
 _atom_site_fract_z
 _atom_site_occupancy
  Mn  Mn0  1  0.00000000  0.00000000  0.00000000  1
  Mn  Mn1  1  0.50000000  0.50000000  0.50000000  1
  Sb  Sb2  1  0.50000000  0.50000000  0.00000000  1
  Sb  Sb3  1  0.50000000  0.00000000  0.50000000  1
  Sb  Sb4  1  0.00000000  0.50000000  0.50000000  1
  Sb  Sb5  1  0.19909039  0.82682132  0.33385438  1
  P  P6  1  0.91419973  0.21017420  0.72571734  1
  P  P7  1  0.53287311  0.87573019  0.36394093  1
  P  P8  1  0.55157275  0.56658727  0.70085245  1
  Mo  Mo9  1  0.38220496  0.59545749  0.42625461  1
  Mo  Mo10  1  0.48220580  0.75898388  0.05242734  1
  Li  Li11  1  0.85669853  0.80526745  0.10955879  1
  Li  Li12  1  0.51689663  0.22699362  0.38378978  1
