# generated using pymatgen
data_LiTi3Nb2(OF)3
_symmetry_space_group_name_H-M   'P 1'
_cell_length_a   6.37324433
_cell_length_b   6.12435503
_cell_length_c   7.66307865
_cell_angle_alpha   90.95280081
_cell_angle_beta   94.53313689
_cell_angle_gamma   91.08930575
_symmetry_Int_Tables_number   1
_chemical_formula_structural   LiTi3Nb2(OF)3
_chemical_formula_sum   'Li1 Ti3 Nb2 O3 F3'
_cell_volume   298.06648801
_cell_formula_units_Z   1
loop_
 _symmetry_equiv_pos_site_id
 _symmetry_equiv_pos_as_xyz
  1  'x, y, z'
loop_
 _atom_site_type_symbol
 _atom_site_label
 _atom_site_symmetry_multiplicity
 _atom_site_fract_x
 _atom_site_fract_y
 _atom_site_fract_z
 _atom_site_occupancy
  Li  Li0  1  0.00000000  0.00000000  0.00000000  1
  Nb  Nb1  1  0.50000000  0.50000000  0.50000000  1
  Nb  Nb2  1  0.50000000  0.50000000  0.00000000  1
  F  F3  1  0.50000000  0.00000000  0.50000000  1
  F  F4  1  0.00000000  0.50000000  0.50000000  1
  F  F5  1  0.39901700  0.91518528  0.81005924  1
  Ti  Ti6  1  0.76805609  0.26362649  0.06865508  1
  Ti  Ti7  1  0.28225243  0.71811990  0.17764507  1
  Ti  Ti8  1  0.69068566  0.19023974  0.60424593  1
  O  O9  1  0.87718855  0.08231616  0.92268679  1
  O  O10  1  0.65913304  0.42801363  0.81963833  1
  O  O11  1  0.13672723  0.85773023  0.30297519  1
