# generated using pymatgen
data_Li2Sb4P3
_symmetry_space_group_name_H-M   'P 1'
_cell_length_a   5.78346439
_cell_length_b   6.19059020
_cell_length_c   6.67125071
_cell_angle_alpha   98.14912563
_cell_angle_beta   90.84624511
_cell_angle_gamma   98.04819588
_symmetry_Int_Tables_number   1
_chemical_formula_structural   Li2Sb4P3
_chemical_formula_sum   'Li2 Sb4 P3'
_cell_volume   233.96455888
_cell_formula_units_Z   1
loop_
 _symmetry_equiv_pos_site_id
 _symmetry_equiv_pos_as_xyz
  1  'x, y, z'
loop_
 _atom_site_type_symbol
 _atom_site_label
 _atom_site_symmetry_multiplicity
 _atom_site_fract_x
 _atom_site_fract_y
 _atom_site_fract_z
 _atom_site_occupancy
  Sb  Sb0  1  0.00000000  0.00000000  0.00000000  1
  Sb  Sb1  1  0.50000000  0.50000000  0.50000000  1
  Sb  Sb2  1  0.50000000  0.50000000  0.00000000  1
  Sb  Sb3  1  0.50000000  0.00000000  0.50000000  1
  P  P4  1  0.00000000  0.50000000  0.50000000  1
  P  P5  1  0.01222250  0.09734132  0.37041230  1
  P  P6  1  0.64210696  0.98113450  0.91462763  1
  Li  Li7  1  0.59913817  0.73206820  0.39466592  1
  Li  Li8  1  0.87413976  0.02448623  0.23226154  1
