# generated using pymatgen
data_Li2Mn3Sb4P3
_symmetry_space_group_name_H-M   'P 1'
_cell_length_a   6.85322399
_cell_length_b   6.98502465
_cell_length_c   7.25709695
_cell_angle_alpha   94.47467390
_cell_angle_beta   90.22354023
_cell_angle_gamma   94.38567262
_symmetry_Int_Tables_number   1
_chemical_formula_structural   Li2Mn3Sb4P3
_chemical_formula_sum   'Li2 Mn3 Sb4 P3'
_cell_volume   345.30676569
_cell_formula_units_Z   1
loop_
 _symmetry_equiv_pos_site_id
 _symmetry_equiv_pos_as_xyz
  1  'x, y, z'
loop_
 _atom_site_type_symbol
 _atom_site_label
 _atom_site_symmetry_multiplicity
 _atom_site_fract_x
 _atom_site_fract_y
 _atom_site_fract_z
 _atom_site_occupancy
  Mn  Mn0  1  0.00000000  0.00000000  0.00000000  1
  Mn  Mn1  1  0.33300000  0.66700000  0.25000000  1
  Mn  Mn2  1  0.66700000  0.33300000  0.50000000  1
  Sb  Sb3  1  0.00000000  0.00000000  0.75000000  1
  Sb  Sb4  1  0.00180527  0.35535774  0.83400354  1
  Sb  Sb5  1  0.29458834  0.49732432  0.15897255  1
  Sb  Sb6  1  0.83492379  0.54508453  0.97294940  1
  P  P7  1  0.90451127  0.82531064  0.10744115  1
  P  P8  1  0.12730876  0.29935835  0.36324056  1
  P  P9  1  0.64120805  0.91518412  0.38740529  1
  Li  Li10  1  0.99665421  0.74152676  0.99965404  1
  Li  Li11  1  0.44341307  0.51335855  0.49802166  1
