# generated using pymatgen
data_Li2(NiP)3
_symmetry_space_group_name_H-M   'P 1'
_cell_length_a   4.22098474
_cell_length_b   4.25440754
_cell_length_c   6.49696281
_cell_angle_alpha   101.58384300
_cell_angle_beta   96.29619203
_cell_angle_gamma   101.98396024
_symmetry_Int_Tables_number   1
_chemical_formula_structural   Li2(NiP)3
_chemical_formula_sum   'Li2 Ni3 P3'
_cell_volume   110.40026441
_cell_formula_units_Z   1
loop_
 _symmetry_equiv_pos_site_id
 _symmetry_equiv_pos_as_xyz
  1  'x, y, z'
loop_
 _atom_site_type_symbol
 _atom_site_label
 _atom_site_symmetry_multiplicity
 _atom_site_fract_x
 _atom_site_fract_y
 _atom_site_fract_z
 _atom_site_occupancy
  P  P0  1  0.00000000  0.00000000  0.00000000  1
  P  P1  1  0.50000000  0.50000000  0.50000000  1
  P  P2  1  0.50000000  0.50000000  0.00000000  1
  Li  Li3  1  0.50000000  0.00000000  0.50000000  1
  Li  Li4  1  0.00000000  0.50000000  0.50000000  1
  Ni  Ni5  1  0.64273581  0.53758908  0.98850415  1
  Ni  Ni6  1  0.77817309  0.53763489  0.50428578  1
  Ni  Ni7  1  0.77755383  0.15601308  0.26747458  1
