# generated using pymatgen
data_Li2Ti2P3S2
_symmetry_space_group_name_H-M   'P 1'
_cell_length_a   6.57333628
_cell_length_b   6.12276357
_cell_length_c   6.72931151
_cell_angle_alpha   92.41222871
_cell_angle_beta   94.96719879
_cell_angle_gamma   92.32465795
_symmetry_Int_Tables_number   1
_chemical_formula_structural   Li2Ti2P3S2
_chemical_formula_sum   'Li2 Ti2 P3 S2'
_cell_volume   269.31226699
_cell_formula_units_Z   1
loop_
 _symmetry_equiv_pos_site_id
 _symmetry_equiv_pos_as_xyz
  1  'x, y, z'
loop_
 _atom_site_type_symbol
 _atom_site_label
 _atom_site_symmetry_multiplicity
 _atom_site_fract_x
 _atom_site_fract_y
 _atom_site_fract_z
 _atom_site_occupancy
  P  P0  1  0.00000000  0.00000000  0.00000000  1
  P  P1  1  0.33300000  0.66700000  0.25000000  1
  P  P2  1  0.66700000  0.33300000  0.50000000  1
  Li  Li3  1  0.00000000  0.00000000  0.75000000  1
  Li  Li4  1  0.68199294  0.77863686  0.36712444  1
  S  S5  1  0.21715040  0.79277049  0.37672173  1
  S  S6  1  0.33413501  0.69894971  0.95801037  1
  Ti  Ti7  1  0.37015003  0.39298605  0.21758992  1
  Ti  Ti8  1  0.03599488  0.98658171  0.82486581  1
