# generated using pymatgen
data_Li2Sb4Mo2P3
_symmetry_space_group_name_H-M   'P 1'
_cell_length_a   4.64701015
_cell_length_b   4.94600762
_cell_length_c   6.58968505
_cell_angle_alpha   100.44395641
_cell_angle_beta   95.34385739
_cell_angle_gamma   100.90777076
_symmetry_Int_Tables_number   1
_chemical_formula_structural   Li2Sb4Mo2P3
_chemical_formula_sum   'Li2 Sb4 Mo2 P3'
_cell_volume   144.97884788
_cell_formula_units_Z   1
loop_
 _symmetry_equiv_pos_site_id
 _symmetry_equiv_pos_as_xyz
  1  'x, y, z'
loop_
 _atom_site_type_symbol
 _atom_site_label
 _atom_site_symmetry_multiplicity
 _atom_site_fract_x
 _atom_site_fract_y
 _atom_site_fract_z
 _atom_site_occupancy
  Sb  Sb0  1  0.00000000  0.00000000  0.00000000  1
  Sb  Sb1  1  0.50000000  0.50000000  0.50000000  1
  Sb  Sb2  1  0.50000000  0.50000000  0.00000000  1
  Sb  Sb3  1  0.50000000  0.00000000  0.50000000  1
  P  P4  1  0.00000000  0.50000000  0.50000000  1
  P  P5  1  0.19336226  0.20604325  0.71748822  1
  P  P6  1  0.25315892  0.98835291  0.85598209  1
  Mo  Mo7  1  0.96915622  0.58819704  0.72251976  1
  Mo  Mo8  1  0.89565769  0.68785394  0.36641413  1
  Li  Li9  1  0.11174650  0.86732660  0.91753276  1
  Li  Li10  1  0.89109877  0.07531844  0.82624837  1
