# generated using pymatgen
data_LiMnSb2P
_symmetry_space_group_name_H-M   'P 1'
_cell_length_a   4.92449331
_cell_length_b   5.22401583
_cell_length_c   6.22481496
_cell_angle_alpha   101.98046436
_cell_angle_beta   93.02055300
_cell_angle_gamma   100.85313478
_symmetry_Int_Tables_number   1
_chemical_formula_structural   LiMnSb2P
_chemical_formula_sum   'Li2 Mn2 Sb4 P2'
_cell_volume   153.14363434
_cell_formula_units_Z   2
loop_
 _symmetry_equiv_pos_site_id
 _symmetry_equiv_pos_as_xyz
  1  'x, y, z'
loop_
 _atom_site_type_symbol
 _atom_site_label
 _atom_site_symmetry_multiplicity
 _atom_site_fract_x
 _atom_site_fract_y
 _atom_site_fract_z
 _atom_site_occupancy
  Mn  Mn0  1  0.00000000  0.00000000  0.00000000  1
  Mn  Mn1  1  0.50000000  0.50000000  0.50000000  1
  Sb  Sb2  1  0.50000000  0.50000000  0.00000000  1
  Sb  Sb3  1  0.50000000  0.00000000  0.50000000  1
  Sb  Sb4  1  0.00000000  0.50000000  0.50000000  1
  Sb  Sb5  1  0.34170418  0.68916204  0.52880507  1
  P  P6  1  0.95308098  0.45154489  0.79954492  1
  P  P7  1  0.12669375  0.17928688  0.86844678  1
  Li  Li8  1  0.80887309  0.67236300  0.36109805  1
  Li  Li9  1  0.33043398  0.36655034  0.35495438  1
