# generated using pymatgen
data_LiMn3Sb4P3
_symmetry_space_group_name_H-M   'P 1'
_cell_length_a   5.82895272
_cell_length_b   6.21894992
_cell_length_c   6.58134045
_cell_angle_alpha   96.38669310
_cell_angle_beta   90.58999625
_cell_angle_gamma   96.39405345
_symmetry_Int_Tables_number   1
_chemical_formula_structural   LiMn3Sb4P3
_chemical_formula_sum   'Li1 Mn3 Sb4 P3'
_cell_volume   235.55571764
_cell_formula_units_Z   1
loop_
 _symmetry_equiv_pos_site_id
 _symmetry_equiv_pos_as_xyz
  1  'x, y, z'
loop_
 _atom_site_type_symbol
 _atom_site_label
 _atom_site_symmetry_multiplicity
 _atom_site_fract_x
 _atom_site_fract_y
 _atom_site_fract_z
 _atom_site_occupancy
  Mn  Mn0  1  0.00000000  0.00000000  0.00000000  1
  Mn  Mn1  1  0.33300000  0.66700000  0.25000000  1
  Mn  Mn2  1  0.66700000  0.33300000  0.50000000  1
  Sb  Sb3  1  0.00000000  0.00000000  0.75000000  1
  Sb  Sb4  1  0.13059567  0.68984948  0.51029237  1
  Sb  Sb5  1  0.54123584  0.98679833  0.36288785  1
  Sb  Sb6  1  0.37578793  0.96204598  0.45829117  1
  P  P7  1  0.13019299  0.33675717  0.44835164  1
  P  P8  1  0.22920013  0.85838119  0.81662611  1
  P  P9  1  0.84497020  0.34017913  0.04252302  1
  Li  Li10  1  0.97156875  0.81403045  0.50580498  1
