# generated using pymatgen
data_Li(AsO)2
_symmetry_space_group_name_H-M   'P 1'
_cell_length_a   8.17311986
_cell_length_b   8.27050069
_cell_length_c   8.34155808
_cell_angle_alpha   90.14664239
_cell_angle_beta   91.02735355
_cell_angle_gamma   90.15645709
_symmetry_Int_Tables_number   1
_chemical_formula_structural   Li(AsO)2
_chemical_formula_sum   'Li3 As6 O6'
_cell_volume   563.75957701
_cell_formula_units_Z   3
loop_
 _symmetry_equiv_pos_site_id
 _symmetry_equiv_pos_as_xyz
  1  'x, y, z'
loop_
 _atom_site_type_symbol
 _atom_site_label
 _atom_site_symmetry_multiplicity
 _atom_site_fract_x
 _atom_site_fract_y
 _atom_site_fract_z
 _atom_site_occupancy
  Li  Li0  1  0.12500000  0.00000000  0.25000000  1
  Li  Li1  1  0.00000000  0.00000000  0.00000000  1
  Li  Li2  1  0.37500000  0.00000000  0.25000000  1
  As  As3  1  0.25000000  0.25000000  0.25000000  1
  As  As4  1  0.00000000  0.25000000  0.12500000  1
  As  As5  1  0.93438344  0.81861714  0.29662902  1
  As  As6  1  0.20410210  0.33620828  0.83166355  1
  As  As7  1  0.48823487  0.74523054  0.74319330  1
  As  As8  1  0.05278696  0.73250349  0.70630761  1
  O  O9  1  0.36933472  0.41563789  0.88007425  1
  O  O10  1  0.51211577  0.17437954  0.26493895  1
  O  O11  1  0.82535340  0.83101910  0.89516234  1
  O  O12  1  0.76773631  0.21479411  0.87300271  1
  O  O13  1  0.54235444  0.61462207  0.48749605  1
  O  O14  1  0.50022916  0.42616097  0.69240341  1
