# generated using pymatgen
data_Li5ZrTi(ClO2)2
_symmetry_space_group_name_H-M   'P 1'
_cell_length_a   6.38093848
_cell_length_b   6.08668851
_cell_length_c   6.88607203
_cell_angle_alpha   101.17355337
_cell_angle_beta   104.26606135
_cell_angle_gamma   100.51113913
_symmetry_Int_Tables_number   1
_chemical_formula_structural   Li5ZrTi(ClO2)2
_chemical_formula_sum   'Li5 Zr1 Ti1 Cl2 O4'
_cell_volume   246.72172772
_cell_formula_units_Z   1
loop_
 _symmetry_equiv_pos_site_id
 _symmetry_equiv_pos_as_xyz
  1  'x, y, z'
loop_
 _atom_site_type_symbol
 _atom_site_label
 _atom_site_symmetry_multiplicity
 _atom_site_fract_x
 _atom_site_fract_y
 _atom_site_fract_z
 _atom_site_occupancy
  Li  Li0  1  0.00000000  0.00000000  0.00000000  1
  Li  Li1  1  0.50000000  0.50000000  0.50000000  1
  Li  Li2  1  0.25000000  0.25000000  0.25000000  1
  Li  Li3  1  0.75000000  0.25000000  0.00000000  1
  Li  Li4  1  0.25000000  0.75000000  0.50000000  1
  Cl  Cl5  1  0.06749522  0.59039102  0.23781283  1
  Cl  Cl6  1  0.32252625  0.72066436  0.13743256  1
  Ti  Ti7  1  0.53755886  0.31705844  0.64238500  1
  O  O8  1  0.82567146  0.01012310  0.33916359  1
  O  O9  1  0.65306813  0.25148269  0.83239738  1
  O  O10  1  0.27308810  0.75054507  0.30256101  1
  O  O11  1  0.32670301  0.85290528  0.12994731  1
  Zr  Zr12  1  0.40104898  0.48135669  0.53074328  1
