# generated using pymatgen
data_Li2Ti2P4Se2O
_symmetry_space_group_name_H-M   'P 1'
_cell_length_a   7.65234885
_cell_length_b   7.57756093
_cell_length_c   7.43208092
_cell_angle_alpha   90.33407980
_cell_angle_beta   91.58945022
_cell_angle_gamma   90.38194242
_symmetry_Int_Tables_number   1
_chemical_formula_structural   Li2Ti2P4Se2O
_chemical_formula_sum   'Li2 Ti2 P4 Se2 O1'
_cell_volume   430.77449395
_cell_formula_units_Z   1
loop_
 _symmetry_equiv_pos_site_id
 _symmetry_equiv_pos_as_xyz
  1  'x, y, z'
loop_
 _atom_site_type_symbol
 _atom_site_label
 _atom_site_symmetry_multiplicity
 _atom_site_fract_x
 _atom_site_fract_y
 _atom_site_fract_z
 _atom_site_occupancy
  P  P0  1  0.00000000  0.00000000  0.00000000  1
  P  P1  1  0.50000000  0.50000000  0.50000000  1
  P  P2  1  0.25000000  0.25000000  0.25000000  1
  P  P3  1  0.75000000  0.25000000  0.00000000  1
  Li  Li4  1  0.25000000  0.75000000  0.50000000  1
  Li  Li5  1  0.02037104  0.35016720  0.76469275  1
  Se  Se6  1  0.94258377  0.02431488  0.11844061  1
  Se  Se7  1  0.40199542  0.31989722  0.75888729  1
  Ti  Ti8  1  0.76256040  0.60574485  0.59312573  1
  Ti  Ti9  1  0.57508060  0.87723703  0.32359780  1
  O  O10  1  0.64189673  0.53046445  0.21099103  1
