# generated using pymatgen
data_Li2Mn2Mo2P3N
_symmetry_space_group_name_H-M   'P 1'
_cell_length_a   4.85473231
_cell_length_b   5.15901689
_cell_length_c   6.04902694
_cell_angle_alpha   98.61721872
_cell_angle_beta   94.76082127
_cell_angle_gamma   97.48912180
_symmetry_Int_Tables_number   1
_chemical_formula_structural   Li2Mn2Mo2P3N
_chemical_formula_sum   'Li2 Mn2 Mo2 P3 N1'
_cell_volume   147.69926191
_cell_formula_units_Z   1
loop_
 _symmetry_equiv_pos_site_id
 _symmetry_equiv_pos_as_xyz
  1  'x, y, z'
loop_
 _atom_site_type_symbol
 _atom_site_label
 _atom_site_symmetry_multiplicity
 _atom_site_fract_x
 _atom_site_fract_y
 _atom_site_fract_z
 _atom_site_occupancy
  N  N0  1  0.00000000  0.00000000  0.00000000  1
  Mn  Mn1  1  0.50000000  0.50000000  0.50000000  1
  Mn  Mn2  1  0.50000000  0.50000000  0.00000000  1
  P  P3  1  0.50000000  0.00000000  0.50000000  1
  P  P4  1  0.00000000  0.50000000  0.50000000  1
  P  P5  1  0.36207833  0.46660978  0.55383806  1
  Mo  Mo6  1  0.50192885  0.88382772  0.47737966  1
  Mo  Mo7  1  0.84082427  0.34471899  0.22123886  1
  Li  Li8  1  0.62904611  0.51814372  0.94676346  1
  Li  Li9  1  0.38851365  0.94576979  0.50416465  1
