# generated using pymatgen
data_LiSb3Mo2P3
_symmetry_space_group_name_H-M   'P 1'
_cell_length_a   5.42453292
_cell_length_b   5.74065984
_cell_length_c   6.32696502
_cell_angle_alpha   97.70950966
_cell_angle_beta   90.63395125
_cell_angle_gamma   97.68208500
_symmetry_Int_Tables_number   1
_chemical_formula_structural   LiSb3Mo2P3
_chemical_formula_sum   'Li1 Sb3 Mo2 P3'
_cell_volume   193.40663593
_cell_formula_units_Z   1
loop_
 _symmetry_equiv_pos_site_id
 _symmetry_equiv_pos_as_xyz
  1  'x, y, z'
loop_
 _atom_site_type_symbol
 _atom_site_label
 _atom_site_symmetry_multiplicity
 _atom_site_fract_x
 _atom_site_fract_y
 _atom_site_fract_z
 _atom_site_occupancy
  Sb  Sb0  1  0.00000000  0.00000000  0.00000000  1
  Sb  Sb1  1  0.50000000  0.50000000  0.50000000  1
  Sb  Sb2  1  0.25000000  0.25000000  0.25000000  1
  P  P3  1  0.75000000  0.25000000  0.00000000  1
  P  P4  1  0.25000000  0.75000000  0.50000000  1
  P  P5  1  0.74120734  0.46865685  0.20965810  1
  Mo  Mo6  1  0.04838328  0.09745194  0.81771465  1
  Mo  Mo7  1  0.53482822  0.89565247  0.09576049  1
  Li  Li8  1  0.71841885  0.20429506  0.75837669  1
