# generated using pymatgen
data_LiTi2P5OF2
_symmetry_space_group_name_H-M   'P 1'
_cell_length_a   6.81371837
_cell_length_b   6.69355169
_cell_length_c   7.25475353
_cell_angle_alpha   90.88295137
_cell_angle_beta   94.20081444
_cell_angle_gamma   91.00944918
_symmetry_Int_Tables_number   1
_chemical_formula_structural   LiTi2P5OF2
_chemical_formula_sum   'Li1 Ti2 P5 O1 F2'
_cell_volume   329.88822163
_cell_formula_units_Z   1
loop_
 _symmetry_equiv_pos_site_id
 _symmetry_equiv_pos_as_xyz
  1  'x, y, z'
loop_
 _atom_site_type_symbol
 _atom_site_label
 _atom_site_symmetry_multiplicity
 _atom_site_fract_x
 _atom_site_fract_y
 _atom_site_fract_z
 _atom_site_occupancy
  P  P0  1  0.00000000  0.00000000  0.00000000  1
  P  P1  1  0.50000000  0.50000000  0.50000000  1
  P  P2  1  0.50000000  0.50000000  0.00000000  1
  P  P3  1  0.50000000  0.00000000  0.50000000  1
  P  P4  1  0.00000000  0.50000000  0.50000000  1
  Li  Li5  1  0.41280069  0.52759680  0.46666257  1
  F  F6  1  0.23982931  0.29630736  0.41228036  1
  F  F7  1  0.01255234  0.23171478  0.09331058  1
  Ti  Ti8  1  0.93118389  0.67712271  0.67175985  1
  Ti  Ti9  1  0.70040311  0.87770979  0.97902620  1
  O  O10  1  0.70859535  0.41983574  0.94595507  1
