# generated using pymatgen
data_LiTiI4O4F3
_symmetry_space_group_name_H-M   'P 1'
_cell_length_a   5.48602336
_cell_length_b   5.48275686
_cell_length_c   6.18148602
_cell_angle_alpha   91.86590079
_cell_angle_beta   103.07220792
_cell_angle_gamma   91.99078463
_symmetry_Int_Tables_number   1
_chemical_formula_structural   LiTiI4O4F3
_chemical_formula_sum   'Li1 Ti1 I4 O4 F3'
_cell_volume   180.84641620
_cell_formula_units_Z   1
loop_
 _symmetry_equiv_pos_site_id
 _symmetry_equiv_pos_as_xyz
  1  'x, y, z'
loop_
 _atom_site_type_symbol
 _atom_site_label
 _atom_site_symmetry_multiplicity
 _atom_site_fract_x
 _atom_site_fract_y
 _atom_site_fract_z
 _atom_site_occupancy
  F  F0  1  0.12500000  0.00000000  0.25000000  1
  F  F1  1  0.00000000  0.00000000  0.00000000  1
  F  F2  1  0.37500000  0.00000000  0.25000000  1
  Ti  Ti3  1  0.25000000  0.25000000  0.25000000  1
  O  O4  1  0.00000000  0.25000000  0.12500000  1
  O  O5  1  0.51916548  0.18072826  0.99661471  1
  O  O6  1  0.25126274  0.90174238  0.88096444  1
  O  O7  1  0.45956114  0.87241168  0.55147150  1
  I  I8  1  0.40099402  0.67720897  0.86549163  1
  I  I9  1  0.93281085  0.63955681  0.05867832  1
  I  I10  1  0.85921761  0.91338724  0.38634358  1
  I  I11  1  0.33583681  0.39717966  0.19478892  1
  Li  Li12  1  0.77783576  0.74344791  0.00534147  1
