# generated using pymatgen
data_Li2Ti2Sb3Se2O
_symmetry_space_group_name_H-M   'P 1'
_cell_length_a   7.79845136
_cell_length_b   7.60201449
_cell_length_c   6.97259372
_cell_angle_alpha   90.29734264
_cell_angle_beta   91.41466599
_cell_angle_gamma   90.33994204
_symmetry_Int_Tables_number   1
_chemical_formula_structural   Li2Ti2Sb3Se2O
_chemical_formula_sum   'Li2 Ti2 Sb3 Se2 O1'
_cell_volume   413.22367740
_cell_formula_units_Z   1
loop_
 _symmetry_equiv_pos_site_id
 _symmetry_equiv_pos_as_xyz
  1  'x, y, z'
loop_
 _atom_site_type_symbol
 _atom_site_label
 _atom_site_symmetry_multiplicity
 _atom_site_fract_x
 _atom_site_fract_y
 _atom_site_fract_z
 _atom_site_occupancy
  Li  Li0  1  0.12500000  0.00000000  0.25000000  1
  Li  Li1  1  0.00000000  0.00000000  0.00000000  1
  Sb  Sb2  1  0.37500000  0.00000000  0.25000000  1
  Sb  Sb3  1  0.25000000  0.25000000  0.25000000  1
  Sb  Sb4  1  0.00000000  0.25000000  0.12500000  1
  Se  Se5  1  0.53489970  0.95648577  0.75815396  1
  Se  Se6  1  0.44936518  0.38283555  0.69447855  1
  Ti  Ti7  1  0.53292020  0.38093072  0.19379074  1
  Ti  Ti8  1  0.41583375  0.12348635  0.49424897  1
  O  O9  1  0.23689684  0.86617225  0.55524876  1
