# generated using pymatgen
data_Li2MnSb4Mo2P3
_symmetry_space_group_name_H-M   'P 1'
_cell_length_a   4.04194628
_cell_length_b   4.25413295
_cell_length_c   6.33852919
_cell_angle_alpha   102.92443603
_cell_angle_beta   95.99968404
_cell_angle_gamma   103.41298933
_symmetry_Int_Tables_number   1
_chemical_formula_structural   Li2MnSb4Mo2P3
_chemical_formula_sum   'Li2 Mn1 Sb4 Mo2 P3'
_cell_volume   101.91625810
_cell_formula_units_Z   1
loop_
 _symmetry_equiv_pos_site_id
 _symmetry_equiv_pos_as_xyz
  1  'x, y, z'
loop_
 _atom_site_type_symbol
 _atom_site_label
 _atom_site_symmetry_multiplicity
 _atom_site_fract_x
 _atom_site_fract_y
 _atom_site_fract_z
 _atom_site_occupancy
  Mn  Mn0  1  0.00000000  0.00000000  0.00000000  1
  Sb  Sb1  1  0.50000000  0.50000000  0.50000000  1
  Sb  Sb2  1  0.50000000  0.50000000  0.00000000  1
  Sb  Sb3  1  0.50000000  0.00000000  0.50000000  1
  Sb  Sb4  1  0.00000000  0.50000000  0.50000000  1
  P  P5  1  0.53482583  0.35807667  0.25915412  1
  P  P6  1  0.77095864  0.67529519  0.83959359  1
  P  P7  1  0.82839672  0.90504184  0.70671557  1
  Mo  Mo8  1  0.58290186  0.99225304  0.87986532  1
  Mo  Mo9  1  0.49007646  0.52888846  0.04902101  1
  Li  Li10  1  0.82326109  0.41473812  0.69609082  1
  Li  Li11  1  0.74860187  0.99783444  0.80647196  1
