# generated using pymatgen
data_Li2ScTiBr2O3
_symmetry_space_group_name_H-M   'P 1'
_cell_length_a   8.52324904
_cell_length_b   8.83867370
_cell_length_c   7.70407931
_cell_angle_alpha   90.00000000
_cell_angle_beta   90.00000000
_cell_angle_gamma   90.00000000
_symmetry_Int_Tables_number   1
_chemical_formula_structural   Li2ScTiBr2O3
_chemical_formula_sum   'Li2 Sc1 Ti1 Br2 O3'
_cell_volume   580.38078328
_cell_formula_units_Z   1
loop_
 _symmetry_equiv_pos_site_id
 _symmetry_equiv_pos_as_xyz
  1  'x, y, z'
loop_
 _atom_site_type_symbol
 _atom_site_label
 _atom_site_symmetry_multiplicity
 _atom_site_fract_x
 _atom_site_fract_y
 _atom_site_fract_z
 _atom_site_occupancy
  Sc  Sc0  1  0.00000000  0.00000000  0.00000000  1
  Li  Li1  1  0.50000000  0.50000000  0.50000000  1
  Li  Li2  1  0.25000000  0.25000000  0.25000000  1
  Br  Br3  1  0.75000000  0.25000000  0.00000000  1
  Br  Br4  1  0.25000000  0.75000000  0.50000000  1
  Ti  Ti5  1  0.02131308  0.14406330  0.42962883  1
  O  O6  1  0.13279505  0.46936191  0.14811292  1
  O  O7  1  0.65660548  0.18830815  0.56496467  1
  O  O8  1  0.83909471  0.04361491  0.30628996  1
