# generated using pymatgen
data_Li2Mn2Sb4Mo2P3
_symmetry_space_group_name_H-M   'P 1'
_cell_length_a   6.51927247
_cell_length_b   6.94984090
_cell_length_c   7.16283069
_cell_angle_alpha   94.38376337
_cell_angle_beta   91.44993965
_cell_angle_gamma   94.46799560
_symmetry_Int_Tables_number   1
_chemical_formula_structural   Li2Mn2Sb4Mo2P3
_chemical_formula_sum   'Li2 Mn2 Sb4 Mo2 P3'
_cell_volume   322.44052328
_cell_formula_units_Z   1
loop_
 _symmetry_equiv_pos_site_id
 _symmetry_equiv_pos_as_xyz
  1  'x, y, z'
loop_
 _atom_site_type_symbol
 _atom_site_label
 _atom_site_symmetry_multiplicity
 _atom_site_fract_x
 _atom_site_fract_y
 _atom_site_fract_z
 _atom_site_occupancy
  Mn  Mn0  1  0.00000000  0.00000000  0.00000000  1
  Mn  Mn1  1  0.50000000  0.50000000  0.50000000  1
  Sb  Sb2  1  0.25000000  0.25000000  0.25000000  1
  Sb  Sb3  1  0.75000000  0.25000000  0.00000000  1
  Sb  Sb4  1  0.25000000  0.75000000  0.50000000  1
  Sb  Sb5  1  0.23529138  0.03896041  0.45798495  1
  P  P6  1  0.88631650  0.25330853  0.93731298  1
  P  P7  1  0.98826837  0.35317094  0.88497994  1
  P  P8  1  0.08265624  0.92814018  0.12518464  1
  Mo  Mo9  1  0.57329708  0.27397119  0.40356902  1
  Mo  Mo10  1  0.31317020  0.75751721  0.08814754  1
  Li  Li11  1  0.52095439  0.27008574  0.84120955  1
  Li  Li12  1  0.07116890  0.56729954  0.20399597  1
