# generated using pymatgen
data_Li2Mn2Sb4P3
_symmetry_space_group_name_H-M   'P 1'
_cell_length_a   7.45551874
_cell_length_b   7.91434476
_cell_length_c   7.60595761
_cell_angle_alpha   90.61334415
_cell_angle_beta   90.72656282
_cell_angle_gamma   90.69806137
_symmetry_Int_Tables_number   1
_chemical_formula_structural   Li2Mn2Sb4P3
_chemical_formula_sum   'Li2 Mn2 Sb4 P3'
_cell_volume   448.69782303
_cell_formula_units_Z   1
loop_
 _symmetry_equiv_pos_site_id
 _symmetry_equiv_pos_as_xyz
  1  'x, y, z'
loop_
 _atom_site_type_symbol
 _atom_site_label
 _atom_site_symmetry_multiplicity
 _atom_site_fract_x
 _atom_site_fract_y
 _atom_site_fract_z
 _atom_site_occupancy
  Mn  Mn0  1  0.00000000  0.00000000  0.00000000  1
  Mn  Mn1  1  0.33300000  0.66700000  0.25000000  1
  Sb  Sb2  1  0.66700000  0.33300000  0.50000000  1
  Sb  Sb3  1  0.00000000  0.00000000  0.75000000  1
  Sb  Sb4  1  0.41997365  0.79617048  0.30077614  1
  Sb  Sb5  1  0.66044318  0.30803954  0.56714484  1
  P  P6  1  0.40912839  0.51098648  0.71895483  1
  P  P7  1  0.42541531  0.68109137  0.45279432  1
  P  P8  1  0.65242185  0.16110326  0.80658757  1
  Li  Li9  1  0.00222013  0.55804723  0.74324648  1
  Li  Li10  1  0.44064355  0.33157537  0.29484515  1
