# generated using pymatgen
data_LiMnSb4P3N
_symmetry_space_group_name_H-M   'P 1'
_cell_length_a   4.82125346
_cell_length_b   5.08125154
_cell_length_c   6.25715505
_cell_angle_alpha   97.82775822
_cell_angle_beta   94.68736621
_cell_angle_gamma   97.44209586
_symmetry_Int_Tables_number   1
_chemical_formula_structural   LiMnSb4P3N
_chemical_formula_sum   'Li1 Mn1 Sb4 P3 N1'
_cell_volume   149.80799545
_cell_formula_units_Z   1
loop_
 _symmetry_equiv_pos_site_id
 _symmetry_equiv_pos_as_xyz
  1  'x, y, z'
loop_
 _atom_site_type_symbol
 _atom_site_label
 _atom_site_symmetry_multiplicity
 _atom_site_fract_x
 _atom_site_fract_y
 _atom_site_fract_z
 _atom_site_occupancy
  N  N0  1  0.12500000  0.00000000  0.25000000  1
  Mn  Mn1  1  0.00000000  0.00000000  0.00000000  1
  Sb  Sb2  1  0.37500000  0.00000000  0.25000000  1
  Sb  Sb3  1  0.25000000  0.25000000  0.25000000  1
  Sb  Sb4  1  0.00000000  0.25000000  0.12500000  1
  Sb  Sb5  1  0.76340047  0.59586815  0.19320600  1
  P  P6  1  0.39131441  0.97275521  0.35373520  1
  P  P7  1  0.40121000  0.41204008  0.11376091  1
  P  P8  1  0.39289815  0.45906661  0.08240510  1
  Li  Li9  1  0.63530668  0.20327260  0.98599030  1
