# generated using pymatgen
data_LiMn2Sb4P3
_symmetry_space_group_name_H-M   'P 1'
_cell_length_a   6.18202222
_cell_length_b   6.49372816
_cell_length_c   6.88430164
_cell_angle_alpha   94.29657887
_cell_angle_beta   92.53015340
_cell_angle_gamma   94.72159346
_symmetry_Int_Tables_number   1
_chemical_formula_structural   LiMn2Sb4P3
_chemical_formula_sum   'Li1 Mn2 Sb4 P3'
_cell_volume   274.30184888
_cell_formula_units_Z   1
loop_
 _symmetry_equiv_pos_site_id
 _symmetry_equiv_pos_as_xyz
  1  'x, y, z'
loop_
 _atom_site_type_symbol
 _atom_site_label
 _atom_site_symmetry_multiplicity
 _atom_site_fract_x
 _atom_site_fract_y
 _atom_site_fract_z
 _atom_site_occupancy
  Mn  Mn0  1  0.12500000  0.12500000  0.12500000  1
  Mn  Mn1  1  0.50000000  0.50000000  0.50000000  1
  Sb  Sb2  1  0.25000000  0.25000000  0.25000000  1
  Sb  Sb3  1  0.75000000  0.75000000  0.75000000  1
  Sb  Sb4  1  0.10227613  0.22136162  0.68951924  1
  Sb  Sb5  1  0.41695089  0.78985063  0.39863105  1
  P  P6  1  0.26544004  0.98020827  0.33307701  1
  P  P7  1  0.54487554  0.53153033  0.18311895  1
  P  P8  1  0.51887412  0.66118975  0.45325580  1
  Li  Li9  1  0.41288985  0.51069343  0.02832767  1
