# generated using pymatgen
data_Li2LuZr3P4
_symmetry_space_group_name_H-M   'P 1'
_cell_length_a   8.06125956
_cell_length_b   7.74158995
_cell_length_c   9.21636121
_cell_angle_alpha   95.56267119
_cell_angle_beta   97.43724625
_cell_angle_gamma   95.58824494
_symmetry_Int_Tables_number   1
_chemical_formula_structural   Li2LuZr3P4
_chemical_formula_sum   'Li2 Lu1 Zr3 P4'
_cell_volume   564.10848701
_cell_formula_units_Z   1
loop_
 _symmetry_equiv_pos_site_id
 _symmetry_equiv_pos_as_xyz
  1  'x, y, z'
loop_
 _atom_site_type_symbol
 _atom_site_label
 _atom_site_symmetry_multiplicity
 _atom_site_fract_x
 _atom_site_fract_y
 _atom_site_fract_z
 _atom_site_occupancy
  P  P0  1  0.00000000  0.00000000  0.00000000  1
  P  P1  1  0.50000000  0.50000000  0.50000000  1
  P  P2  1  0.50000000  0.50000000  0.00000000  1
  P  P3  1  0.50000000  0.00000000  0.50000000  1
  Lu  Lu4  1  0.00000000  0.50000000  0.50000000  1
  Li  Li5  1  0.25551742  0.29540225  0.67612347  1
  Li  Li6  1  0.64876108  0.03791857  0.94028529  1
  Zr  Zr7  1  0.09946983  0.19510848  0.75242361  1
  Zr  Zr8  1  0.79503239  0.56106301  0.77540908  1
  Zr  Zr9  1  0.76129820  0.77570233  0.26397320  1
