# generated using pymatgen
data_Li2MnMo2P3
_symmetry_space_group_name_H-M   'P 1'
_cell_length_a   3.28720433
_cell_length_b   3.45624379
_cell_length_c   6.23698578
_cell_angle_alpha   102.08904899
_cell_angle_beta   101.30074142
_cell_angle_gamma   102.47354506
_symmetry_Int_Tables_number   1
_chemical_formula_structural   Li2MnMo2P3
_chemical_formula_sum   'Li2 Mn1 Mo2 P3'
_cell_volume   65.45935271
_cell_formula_units_Z   1
loop_
 _symmetry_equiv_pos_site_id
 _symmetry_equiv_pos_as_xyz
  1  'x, y, z'
loop_
 _atom_site_type_symbol
 _atom_site_label
 _atom_site_symmetry_multiplicity
 _atom_site_fract_x
 _atom_site_fract_y
 _atom_site_fract_z
 _atom_site_occupancy
  Mn  Mn0  1  0.00000000  0.00000000  0.00000000  1
  P  P1  1  0.33300000  0.66700000  0.25000000  1
  P  P2  1  0.66700000  0.33300000  0.50000000  1
  P  P3  1  0.00000000  0.00000000  0.75000000  1
  Mo  Mo4  1  0.02948385  0.29457109  0.71740441  1
  Mo  Mo5  1  0.25351758  0.08634465  0.59516326  1
  Li  Li6  1  0.76215010  0.73424273  0.24832752  1
  Li  Li7  1  0.88536261  0.04249845  0.38924918  1
