# generated using pymatgen
data_Li3(NiP2)2
_symmetry_space_group_name_H-M   'P 1'
_cell_length_a   6.91444141
_cell_length_b   6.78026375
_cell_length_c   8.29328182
_cell_angle_alpha   94.22368390
_cell_angle_beta   94.00201368
_cell_angle_gamma   94.31768501
_symmetry_Int_Tables_number   1
_chemical_formula_structural   Li3(NiP2)2
_chemical_formula_sum   'Li3 Ni2 P4'
_cell_volume   385.53596710
_cell_formula_units_Z   1
loop_
 _symmetry_equiv_pos_site_id
 _symmetry_equiv_pos_as_xyz
  1  'x, y, z'
loop_
 _atom_site_type_symbol
 _atom_site_label
 _atom_site_symmetry_multiplicity
 _atom_site_fract_x
 _atom_site_fract_y
 _atom_site_fract_z
 _atom_site_occupancy
  P  P0  1  0.00000000  0.00000000  0.00000000  1
  P  P1  1  0.33300000  0.66700000  0.25000000  1
  P  P2  1  0.66700000  0.33300000  0.50000000  1
  P  P3  1  0.00000000  0.00000000  0.75000000  1
  Li  Li4  1  0.89479072  0.10683814  0.23886665  1
  Li  Li5  1  0.04421048  0.20286507  0.25875324  1
  Li  Li6  1  0.07661615  0.98421182  0.99564753  1
  Ni  Ni7  1  0.48597614  0.68587771  0.84800621  1
  Ni  Ni8  1  0.77647551  0.46689390  0.42188414  1
