# generated using pymatgen
data_Li3TiTe6(IO)4
_symmetry_space_group_name_H-M   'P 1'
_cell_length_a   8.70139958
_cell_length_b   8.74008807
_cell_length_c   7.65034004
_cell_angle_alpha   90.00000000
_cell_angle_beta   90.00000000
_cell_angle_gamma   90.00000000
_symmetry_Int_Tables_number   1
_chemical_formula_structural   Li3TiTe6(IO)4
_chemical_formula_sum   'Li3 Ti1 Te6 I4 O4'
_cell_volume   581.81599980
_cell_formula_units_Z   1
loop_
 _symmetry_equiv_pos_site_id
 _symmetry_equiv_pos_as_xyz
  1  'x, y, z'
loop_
 _atom_site_type_symbol
 _atom_site_label
 _atom_site_symmetry_multiplicity
 _atom_site_fract_x
 _atom_site_fract_y
 _atom_site_fract_z
 _atom_site_occupancy
  I  I0  1  0.00000000  0.00000000  0.00000000  1
  I  I1  1  0.50000000  0.50000000  0.50000000  1
  I  I2  1  0.25000000  0.25000000  0.25000000  1
  I  I3  1  0.75000000  0.25000000  0.00000000  1
  Li  Li4  1  0.25000000  0.75000000  0.50000000  1
  Li  Li5  1  0.73739450  0.70701834  0.30579490  1
  Li  Li6  1  0.29252837  0.34384679  0.20126778  1
  Ti  Ti7  1  0.33370475  0.07892604  0.40252051  1
  Te  Te8  1  0.69553449  0.52293617  0.35418656  1
  Te  Te9  1  0.88327932  0.99795533  0.97548875  1
  Te  Te10  1  0.30346025  0.76578613  0.33366665  1
  Te  Te11  1  0.08690133  0.55559159  0.22758047  1
  Te  Te12  1  0.11397285  0.59075819  0.51188510  1
  Te  Te13  1  0.94948950  0.58015654  0.75000856  1
  O  O14  1  0.83138156  0.64081774  0.08895558  1
  O  O15  1  0.59566882  0.30987914  0.30004314  1
  O  O16  1  0.93570007  0.47853972  0.02296188  1
  O  O17  1  0.37551387  0.16983956  0.64413995  1
