# generated using pymatgen
data_Li2MnNi3Mo2P3
_symmetry_space_group_name_H-M   'P 1'
_cell_length_a   6.02042684
_cell_length_b   5.77461772
_cell_length_c   6.85064945
_cell_angle_alpha   94.17470528
_cell_angle_beta   91.58904514
_cell_angle_gamma   93.63215308
_symmetry_Int_Tables_number   1
_chemical_formula_structural   Li2MnNi3Mo2P3
_chemical_formula_sum   'Li2 Mn1 Ni3 Mo2 P3'
_cell_volume   236.93313763
_cell_formula_units_Z   1
loop_
 _symmetry_equiv_pos_site_id
 _symmetry_equiv_pos_as_xyz
  1  'x, y, z'
loop_
 _atom_site_type_symbol
 _atom_site_label
 _atom_site_symmetry_multiplicity
 _atom_site_fract_x
 _atom_site_fract_y
 _atom_site_fract_z
 _atom_site_occupancy
  Ni  Ni0  1  0.12500000  0.00000000  0.25000000  1
  Ni  Ni1  1  0.00000000  0.00000000  0.00000000  1
  Ni  Ni2  1  0.37500000  0.00000000  0.25000000  1
  Mn  Mn3  1  0.25000000  0.25000000  0.25000000  1
  P  P4  1  0.00000000  0.25000000  0.12500000  1
  P  P5  1  0.36654433  0.18527809  0.33685054  1
  P  P6  1  0.21464850  0.27765321  0.02323028  1
  Mo  Mo7  1  0.41458671  0.47912421  0.47944576  1
  Mo  Mo8  1  0.78777179  0.94151460  0.91740833  1
  Li  Li9  1  0.93429769  0.66410497  0.36944871  1
  Li  Li10  1  0.14535992  0.13969612  0.47951600  1
