# generated using pymatgen
data_Li3Ti(As3O2)2
_symmetry_space_group_name_H-M   'P 1'
_cell_length_a   8.50552216
_cell_length_b   8.37060703
_cell_length_c   8.81744757
_cell_angle_alpha   90.00000000
_cell_angle_beta   90.00000000
_cell_angle_gamma   90.00000000
_symmetry_Int_Tables_number   1
_chemical_formula_structural   Li3Ti(As3O2)2
_chemical_formula_sum   'Li3 Ti1 As6 O4'
_cell_volume   627.77037943
_cell_formula_units_Z   1
loop_
 _symmetry_equiv_pos_site_id
 _symmetry_equiv_pos_as_xyz
  1  'x, y, z'
loop_
 _atom_site_type_symbol
 _atom_site_label
 _atom_site_symmetry_multiplicity
 _atom_site_fract_x
 _atom_site_fract_y
 _atom_site_fract_z
 _atom_site_occupancy
  Li  Li0  1  0.12500000  0.00000000  0.25000000  1
  Li  Li1  1  0.00000000  0.00000000  0.00000000  1
  Li  Li2  1  0.37500000  0.00000000  0.25000000  1
  Ti  Ti3  1  0.25000000  0.25000000  0.25000000  1
  As  As4  1  0.00000000  0.25000000  0.12500000  1
  As  As5  1  0.90679108  0.79341095  0.68958038  1
  As  As6  1  0.79097741  0.86759737  0.51840321  1
  As  As7  1  0.15842602  0.30792919  0.80987258  1
  As  As8  1  0.66469495  0.73289370  0.44000165  1
  As  As9  1  0.70821453  0.69928637  0.60827134  1
  O  O10  1  0.92074283  0.86842675  0.49722473  1
  O  O11  1  0.55333540  0.61399358  0.85779982  1
  O  O12  1  0.78249882  0.19202770  0.71157237  1
  O  O13  1  0.93924370  0.93515034  0.45264200  1
