# generated using pymatgen
data_Li3P3ClO2F3
_symmetry_space_group_name_H-M   'P 1'
_cell_length_a   8.13255793
_cell_length_b   8.20876532
_cell_length_c   7.79229146
_cell_angle_alpha   90.00000000
_cell_angle_beta   90.00000000
_cell_angle_gamma   90.00000000
_symmetry_Int_Tables_number   1
_chemical_formula_structural   Li3P3ClO2F3
_chemical_formula_sum   'Li3 P3 Cl1 O2 F3'
_cell_volume   520.19981558
_cell_formula_units_Z   1
loop_
 _symmetry_equiv_pos_site_id
 _symmetry_equiv_pos_as_xyz
  1  'x, y, z'
loop_
 _atom_site_type_symbol
 _atom_site_label
 _atom_site_symmetry_multiplicity
 _atom_site_fract_x
 _atom_site_fract_y
 _atom_site_fract_z
 _atom_site_occupancy
  P  P0  1  0.12500000  0.00000000  0.25000000  1
  P  P1  1  0.00000000  0.00000000  0.00000000  1
  P  P2  1  0.37500000  0.00000000  0.25000000  1
  Li  Li3  1  0.25000000  0.25000000  0.25000000  1
  Li  Li4  1  0.00000000  0.25000000  0.12500000  1
  Li  Li5  1  0.70697380  0.09284729  0.59121435  1
  F  F6  1  0.07910357  0.19955060  0.17879115  1
  F  F7  1  0.19880988  0.45031129  0.44142663  1
  F  F8  1  0.92217772  0.15980979  0.34411430  1
  Cl  Cl9  1  0.45175883  0.28432366  0.94563282  1
  O  O10  1  0.06033163  0.25272389  0.69336769  1
  O  O11  1  0.74213462  0.06733855  0.65626109  1
