# generated using pymatgen
data_Li2Ti2Cu2P7O
_symmetry_space_group_name_H-M   'P 1'
_cell_length_a   7.79650074
_cell_length_b   7.90399035
_cell_length_c   7.77139791
_cell_angle_alpha   90.22878938
_cell_angle_beta   91.08851037
_cell_angle_gamma   90.26156735
_symmetry_Int_Tables_number   1
_chemical_formula_structural   Li2Ti2Cu2P7O
_chemical_formula_sum   'Li2 Ti2 Cu2 P7 O1'
_cell_volume   478.80508205
_cell_formula_units_Z   1
loop_
 _symmetry_equiv_pos_site_id
 _symmetry_equiv_pos_as_xyz
  1  'x, y, z'
loop_
 _atom_site_type_symbol
 _atom_site_label
 _atom_site_symmetry_multiplicity
 _atom_site_fract_x
 _atom_site_fract_y
 _atom_site_fract_z
 _atom_site_occupancy
  P  P0  1  0.12500000  0.00000000  0.25000000  1
  P  P1  1  0.00000000  0.00000000  0.00000000  1
  P  P2  1  0.37500000  0.00000000  0.25000000  1
  P  P3  1  0.25000000  0.25000000  0.25000000  1
  P  P4  1  0.00000000  0.25000000  0.12500000  1
  P  P5  1  0.96421820  0.63958370  0.77060647  1
  P  P6  1  0.23170152  0.94745995  0.17787253  1
  Li  Li7  1  0.59352081  0.71823782  0.86570240  1
  Li  Li8  1  0.57028858  0.75327639  0.65116551  1
  Cu  Cu9  1  0.20592706  0.20482453  0.12937480  1
  Cu  Cu10  1  0.56514890  0.82942007  0.62910527  1
  Ti  Ti11  1  0.37978089  0.47133260  0.61878204  1
  Ti  Ti12  1  0.56165588  0.74115256  0.46282556  1
  O  O13  1  0.21925945  0.14488022  0.26781429  1
