# generated using pymatgen
data_Li2MnSb4P3
_symmetry_space_group_name_H-M   'P 1'
_cell_length_a   6.79911240
_cell_length_b   7.17358487
_cell_length_c   7.49752500
_cell_angle_alpha   92.35680068
_cell_angle_beta   92.79184817
_cell_angle_gamma   92.68233016
_symmetry_Int_Tables_number   1
_chemical_formula_structural   Li2MnSb4P3
_chemical_formula_sum   'Li2 Mn1 Sb4 P3'
_cell_volume   364.50476126
_cell_formula_units_Z   1
loop_
 _symmetry_equiv_pos_site_id
 _symmetry_equiv_pos_as_xyz
  1  'x, y, z'
loop_
 _atom_site_type_symbol
 _atom_site_label
 _atom_site_symmetry_multiplicity
 _atom_site_fract_x
 _atom_site_fract_y
 _atom_site_fract_z
 _atom_site_occupancy
  Mn  Mn0  1  0.12500000  0.12500000  0.12500000  1
  Sb  Sb1  1  0.50000000  0.50000000  0.50000000  1
  Sb  Sb2  1  0.25000000  0.25000000  0.25000000  1
  Sb  Sb3  1  0.75000000  0.75000000  0.75000000  1
  Sb  Sb4  1  0.95351218  0.45606776  0.81397822  1
  P  P5  1  0.24122157  0.80129033  0.60831406  1
  P  P6  1  0.41517138  0.15491304  0.38677509  1
  P  P7  1  0.71361149  0.59079511  0.59344071  1
  Li  Li8  1  0.05874869  0.09230152  0.40162719  1
  Li  Li9  1  0.78790577  0.65582255  0.08317476  1
