# generated using pymatgen
data_Li5ZrSe(I2Cl)2
_symmetry_space_group_name_H-M   'P 1'
_cell_length_a   5.52840781
_cell_length_b   5.17438613
_cell_length_c   6.77647467
_cell_angle_alpha   104.99008028
_cell_angle_beta   109.13888966
_cell_angle_gamma   104.10140662
_symmetry_Int_Tables_number   1
_chemical_formula_structural   Li5ZrSe(I2Cl)2
_chemical_formula_sum   'Li5 Zr1 Se1 I4 Cl2'
_cell_volume   165.04772046
_cell_formula_units_Z   1
loop_
 _symmetry_equiv_pos_site_id
 _symmetry_equiv_pos_as_xyz
  1  'x, y, z'
loop_
 _atom_site_type_symbol
 _atom_site_label
 _atom_site_symmetry_multiplicity
 _atom_site_fract_x
 _atom_site_fract_y
 _atom_site_fract_z
 _atom_site_occupancy
  I  I0  1  0.00000000  0.00000000  0.00000000  1
  I  I1  1  0.50000000  0.50000000  0.50000000  1
  I  I2  1  0.25000000  0.25000000  0.25000000  1
  I  I3  1  0.75000000  0.25000000  0.00000000  1
  Li  Li4  1  0.25000000  0.75000000  0.50000000  1
  Li  Li5  1  0.81411637  0.23959813  0.69195114  1
  Li  Li6  1  0.12294902  0.12655649  0.31404865  1
  Li  Li7  1  0.89455202  0.15584124  0.23637338  1
  Li  Li8  1  0.39884888  0.54632302  0.58028568  1
  Se  Se9  1  0.19539700  0.27529837  0.93050874  1
  Cl  Cl10  1  0.85750155  0.11012356  0.29982603  1
  Cl  Cl11  1  0.57868929  0.17145885  0.26140093  1
  Zr  Zr12  1  0.10457201  0.22090121  0.92402717  1
