# generated using pymatgen
data_Li2Ti2P2Br3O
_symmetry_space_group_name_H-M   'P 1'
_cell_length_a   7.68713656
_cell_length_b   7.62117166
_cell_length_c   7.13936930
_cell_angle_alpha   90.92435001
_cell_angle_beta   91.60575531
_cell_angle_gamma   91.17462240
_symmetry_Int_Tables_number   1
_chemical_formula_structural   Li2Ti2P2Br3O
_chemical_formula_sum   'Li2 Ti2 P2 Br3 O1'
_cell_volume   417.94934263
_cell_formula_units_Z   1
loop_
 _symmetry_equiv_pos_site_id
 _symmetry_equiv_pos_as_xyz
  1  'x, y, z'
loop_
 _atom_site_type_symbol
 _atom_site_label
 _atom_site_symmetry_multiplicity
 _atom_site_fract_x
 _atom_site_fract_y
 _atom_site_fract_z
 _atom_site_occupancy
  P  P0  1  0.00000000  0.00000000  0.00000000  1
  P  P1  1  0.50000000  0.50000000  0.50000000  1
  Li  Li2  1  0.25000000  0.25000000  0.25000000  1
  Li  Li3  1  0.75000000  0.25000000  0.00000000  1
  Br  Br4  1  0.25000000  0.75000000  0.50000000  1
  Br  Br5  1  0.89917423  0.19945888  0.92756776  1
  Br  Br6  1  0.80985941  0.50319778  0.93146808  1
  Ti  Ti7  1  0.16318363  0.35770479  0.20352315  1
  Ti  Ti8  1  0.92671460  0.92099583  0.59031180  1
  O  O9  1  0.56622880  0.73017518  0.21363242  1
