# generated using pymatgen
data_Li4Sb3SeI4O
_symmetry_space_group_name_H-M   'P 1'
_cell_length_a   6.82473008
_cell_length_b   6.72324668
_cell_length_c   6.98677109
_cell_angle_alpha   97.54361368
_cell_angle_beta   99.63146207
_cell_angle_gamma   97.09639721
_symmetry_Int_Tables_number   1
_chemical_formula_structural   Li4Sb3SeI4O
_chemical_formula_sum   'Li4 Sb3 Se1 I4 O1'
_cell_volume   309.83748141
_cell_formula_units_Z   1
loop_
 _symmetry_equiv_pos_site_id
 _symmetry_equiv_pos_as_xyz
  1  'x, y, z'
loop_
 _atom_site_type_symbol
 _atom_site_label
 _atom_site_symmetry_multiplicity
 _atom_site_fract_x
 _atom_site_fract_y
 _atom_site_fract_z
 _atom_site_occupancy
  I  I0  1  0.00000000  0.00000000  0.00000000  1
  I  I1  1  0.50000000  0.50000000  0.50000000  1
  I  I2  1  0.25000000  0.25000000  0.25000000  1
  I  I3  1  0.75000000  0.25000000  0.00000000  1
  Li  Li4  1  0.25000000  0.75000000  0.50000000  1
  Li  Li5  1  0.69707999  0.59993471  0.52850900  1
  Li  Li6  1  0.19504005  0.85457343  0.06552719  1
  Li  Li7  1  0.70816817  0.37031028  0.85059016  1
  Sb  Sb8  1  0.21023114  0.73627768  0.21776313  1
  Sb  Sb9  1  0.93092068  0.64519584  0.71102196  1
  Sb  Sb10  1  0.05186089  0.58549859  0.58845130  1
  Se  Se11  1  0.91965806  0.66046713  0.71927096  1
  O  O12  1  0.18034948  0.46746876  0.73811747  1
