# generated using pymatgen
data_Li3Ti2I4(OF)3
_symmetry_space_group_name_H-M   'P 1'
_cell_length_a   6.62285090
_cell_length_b   6.79587210
_cell_length_c   7.10455953
_cell_angle_alpha   93.84664041
_cell_angle_beta   95.35412164
_cell_angle_gamma   93.53619317
_symmetry_Int_Tables_number   1
_chemical_formula_structural   Li3Ti2I4(OF)3
_chemical_formula_sum   'Li3 Ti2 I4 O3 F3'
_cell_volume   316.90626873
_cell_formula_units_Z   1
loop_
 _symmetry_equiv_pos_site_id
 _symmetry_equiv_pos_as_xyz
  1  'x, y, z'
loop_
 _atom_site_type_symbol
 _atom_site_label
 _atom_site_symmetry_multiplicity
 _atom_site_fract_x
 _atom_site_fract_y
 _atom_site_fract_z
 _atom_site_occupancy
  I  I0  1  0.00000000  0.00000000  0.00000000  1
  I  I1  1  0.50000000  0.50000000  0.50000000  1
  I  I2  1  0.50000000  0.50000000  0.00000000  1
  I  I3  1  0.50000000  0.00000000  0.50000000  1
  Li  Li4  1  0.00000000  0.50000000  0.50000000  1
  Li  Li5  1  0.27339771  0.94892815  0.29692955  1
  Li  Li6  1  0.63565868  0.75678468  0.41260532  1
  F  F7  1  0.35212807  0.99690400  0.48621280  1
  F  F8  1  0.82717476  0.80756721  0.43545428  1
  F  F9  1  0.76968502  0.66439333  0.48151743  1
  Ti  Ti10  1  0.09485934  0.96428694  0.05423372  1
  Ti  Ti11  1  0.95426019  0.72331211  0.74478683  1
  O  O12  1  0.69484628  0.06457237  0.90321164  1
  O  O13  1  0.02313413  0.69808750  0.08425648  1
  O  O14  1  0.47138727  0.99274529  0.85007341  1
