# generated using pymatgen
data_Li2Mn3Sb4Mo2P3
_symmetry_space_group_name_H-M   'P 1'
_cell_length_a   6.10961138
_cell_length_b   6.59634983
_cell_length_c   7.03977303
_cell_angle_alpha   95.39941257
_cell_angle_beta   92.44421372
_cell_angle_gamma   95.59484372
_symmetry_Int_Tables_number   1
_chemical_formula_structural   Li2Mn3Sb4Mo2P3
_chemical_formula_sum   'Li2 Mn3 Sb4 Mo2 P3'
_cell_volume   280.72171303
_cell_formula_units_Z   1
loop_
 _symmetry_equiv_pos_site_id
 _symmetry_equiv_pos_as_xyz
  1  'x, y, z'
loop_
 _atom_site_type_symbol
 _atom_site_label
 _atom_site_symmetry_multiplicity
 _atom_site_fract_x
 _atom_site_fract_y
 _atom_site_fract_z
 _atom_site_occupancy
  Mn  Mn0  1  0.12500000  0.00000000  0.25000000  1
  Mn  Mn1  1  0.00000000  0.00000000  0.00000000  1
  Mn  Mn2  1  0.37500000  0.00000000  0.25000000  1
  Sb  Sb3  1  0.25000000  0.25000000  0.25000000  1
  Sb  Sb4  1  0.00000000  0.25000000  0.12500000  1
  Sb  Sb5  1  0.89053462  0.89423987  0.76080279  1
  Sb  Sb6  1  0.79550465  0.23704028  0.86929195  1
  P  P7  1  0.29399366  0.59524583  0.48417482  1
  P  P8  1  0.40329048  0.31131339  0.44570571  1
  P  P9  1  0.76776211  0.85598400  0.42588079  1
  Mo  Mo10  1  0.59114078  0.35436217  0.64089301  1
  Mo  Mo11  1  0.11773340  0.07740430  0.94721234  1
  Li  Li12  1  0.38751998  0.81620799  0.54619460  1
  Li  Li13  1  0.64740390  0.37267412  0.16746936  1
