# generated using pymatgen
data_Li3Te6As6I4O5
_symmetry_space_group_name_H-M   'P 1'
_cell_length_a   8.46968825
_cell_length_b   8.67859592
_cell_length_c   8.30951680
_cell_angle_alpha   90.00000000
_cell_angle_beta   90.00000000
_cell_angle_gamma   90.00000000
_symmetry_Int_Tables_number   1
_chemical_formula_structural   Li3Te6As6I4O5
_chemical_formula_sum   'Li3 Te6 As6 I4 O5'
_cell_volume   610.79104820
_cell_formula_units_Z   1
loop_
 _symmetry_equiv_pos_site_id
 _symmetry_equiv_pos_as_xyz
  1  'x, y, z'
loop_
 _atom_site_type_symbol
 _atom_site_label
 _atom_site_symmetry_multiplicity
 _atom_site_fract_x
 _atom_site_fract_y
 _atom_site_fract_z
 _atom_site_occupancy
  I  I0  1  0.12500000  0.00000000  0.25000000  1
  I  I1  1  0.00000000  0.00000000  0.00000000  1
  I  I2  1  0.37500000  0.00000000  0.25000000  1
  I  I3  1  0.25000000  0.25000000  0.25000000  1
  Li  Li4  1  0.00000000  0.25000000  0.12500000  1
  Li  Li5  1  0.24940569  0.78172747  0.28394185  1
  Li  Li6  1  0.51520239  0.03307365  0.70276717  1
  Te  Te7  1  0.48101376  0.32613914  0.81490365  1
  Te  Te8  1  0.82284846  0.89894154  0.69751711  1
  Te  Te9  1  0.38996580  0.76392283  0.92644368  1
  Te  Te10  1  0.61126113  0.68397556  0.80331182  1
  Te  Te11  1  0.49001168  0.48802951  0.12920381  1
  Te  Te12  1  0.18427685  0.40444243  0.97500451  1
  As  As13  1  0.42934480  0.06665114  0.37569786  1
  As  As14  1  0.90676126  0.57925849  0.41561198  1
  As  As15  1  0.08263035  0.21766736  0.95663300  1
  As  As16  1  0.83660469  0.82075355  0.91819754  1
  As  As17  1  0.66564711  0.31590139  0.36935583  1
  As  As18  1  0.80865422  0.44997745  0.55812580  1
  O  O19  1  0.95351524  0.95103761  0.02999515  1
  O  O20  1  0.90114586  0.48081249  0.27930533  1
  O  O21  1  0.42219123  0.83195950  0.55499800  1
  O  O22  1  0.09246266  0.21195988  0.56268649  1
  O  O23  1  0.68969467  0.90146887  0.78260359  1
