# generated using pymatgen
data_LiSb4P3
_symmetry_space_group_name_H-M   'P 1'
_cell_length_a   5.36998419
_cell_length_b   5.59713264
_cell_length_c   6.32660234
_cell_angle_alpha   94.99317810
_cell_angle_beta   91.75209854
_cell_angle_gamma   94.77349795
_symmetry_Int_Tables_number   1
_chemical_formula_structural   LiSb4P3
_chemical_formula_sum   'Li1 Sb4 P3'
_cell_volume   188.63989921
_cell_formula_units_Z   1
loop_
 _symmetry_equiv_pos_site_id
 _symmetry_equiv_pos_as_xyz
  1  'x, y, z'
loop_
 _atom_site_type_symbol
 _atom_site_label
 _atom_site_symmetry_multiplicity
 _atom_site_fract_x
 _atom_site_fract_y
 _atom_site_fract_z
 _atom_site_occupancy
  Sb  Sb0  1  0.12500000  0.12500000  0.12500000  1
  Sb  Sb1  1  0.50000000  0.50000000  0.50000000  1
  Sb  Sb2  1  0.25000000  0.25000000  0.25000000  1
  Sb  Sb3  1  0.75000000  0.75000000  0.75000000  1
  P  P4  1  0.94445265  0.16719107  0.93084769  1
  P  P5  1  0.45058152  0.01598770  0.57996541  1
  P  P6  1  0.67636556  0.73350757  0.04526095  1
  Li  Li7  1  0.46081737  0.96621715  0.84620129  1
