# generated using pymatgen
data_LiTiI4O3F2
_symmetry_space_group_name_H-M   'P 1'
_cell_length_a   7.00215481
_cell_length_b   6.82914580
_cell_length_c   7.21347530
_cell_angle_alpha   90.92070836
_cell_angle_beta   94.38045074
_cell_angle_gamma   91.05261550
_symmetry_Int_Tables_number   1
_chemical_formula_structural   LiTiI4O3F2
_chemical_formula_sum   'Li1 Ti1 I4 O3 F2'
_cell_volume   343.82080357
_cell_formula_units_Z   1
loop_
 _symmetry_equiv_pos_site_id
 _symmetry_equiv_pos_as_xyz
  1  'x, y, z'
loop_
 _atom_site_type_symbol
 _atom_site_label
 _atom_site_symmetry_multiplicity
 _atom_site_fract_x
 _atom_site_fract_y
 _atom_site_fract_z
 _atom_site_occupancy
  I  I0  1  0.00000000  0.00000000  0.00000000  1
  I  I1  1  0.50000000  0.50000000  0.50000000  1
  I  I2  1  0.50000000  0.50000000  0.00000000  1
  I  I3  1  0.50000000  0.00000000  0.50000000  1
  Li  Li4  1  0.00000000  0.50000000  0.50000000  1
  F  F5  1  0.92240916  0.13039624  0.96583379  1
  F  F6  1  0.91491128  0.46126372  0.32919646  1
  Ti  Ti7  1  0.18426536  0.18874740  0.07996881  1
  O  O8  1  0.41870464  0.38266133  0.85004531  1
  O  O9  1  0.83115942  0.68242530  0.32849561  1
  O  O10  1  0.04171089  0.27878080  0.99865700  1
