# generated using pymatgen
data_Li2Mn2Sb4P3
_symmetry_space_group_name_H-M   'P 1'
_cell_length_a   6.58570322
_cell_length_b   7.14064343
_cell_length_c   7.23664843
_cell_angle_alpha   93.45217514
_cell_angle_beta   91.92193951
_cell_angle_gamma   93.62715029
_symmetry_Int_Tables_number   1
_chemical_formula_structural   Li2Mn2Sb4P3
_chemical_formula_sum   'Li2 Mn2 Sb4 P3'
_cell_volume   338.77546453
_cell_formula_units_Z   1
loop_
 _symmetry_equiv_pos_site_id
 _symmetry_equiv_pos_as_xyz
  1  'x, y, z'
loop_
 _atom_site_type_symbol
 _atom_site_label
 _atom_site_symmetry_multiplicity
 _atom_site_fract_x
 _atom_site_fract_y
 _atom_site_fract_z
 _atom_site_occupancy
  Mn  Mn0  1  0.12500000  0.12500000  0.12500000  1
  Mn  Mn1  1  0.50000000  0.50000000  0.50000000  1
  Sb  Sb2  1  0.25000000  0.25000000  0.25000000  1
  Sb  Sb3  1  0.75000000  0.75000000  0.75000000  1
  Sb  Sb4  1  0.38977327  0.15524687  0.13578108  1
  Sb  Sb5  1  0.37003352  0.32431164  0.73269617  1
  P  P6  1  0.95532578  0.31528488  0.84452114  1
  P  P7  1  0.83613296  0.48722032  0.64608007  1
  P  P8  1  0.04435871  0.00629971  0.63987963  1
  Li  Li9  1  0.80922336  0.69693038  0.81540966  1
  Li  Li10  1  0.69624282  0.44327926  0.41012050  1
