# generated using pymatgen
data_LiMn2Sb4P2N
_symmetry_space_group_name_H-M   'P 1'
_cell_length_a   5.49678955
_cell_length_b   5.94935764
_cell_length_c   6.73854705
_cell_angle_alpha   97.26563675
_cell_angle_beta   96.35196801
_cell_angle_gamma   95.95732693
_symmetry_Int_Tables_number   1
_chemical_formula_structural   LiMn2Sb4P2N
_chemical_formula_sum   'Li1 Mn2 Sb4 P2 N1'
_cell_volume   215.69910391
_cell_formula_units_Z   1
loop_
 _symmetry_equiv_pos_site_id
 _symmetry_equiv_pos_as_xyz
  1  'x, y, z'
loop_
 _atom_site_type_symbol
 _atom_site_label
 _atom_site_symmetry_multiplicity
 _atom_site_fract_x
 _atom_site_fract_y
 _atom_site_fract_z
 _atom_site_occupancy
  N  N0  1  0.00000000  0.00000000  0.00000000  1
  Mn  Mn1  1  0.50000000  0.50000000  0.50000000  1
  Mn  Mn2  1  0.25000000  0.25000000  0.25000000  1
  Sb  Sb3  1  0.75000000  0.25000000  0.00000000  1
  Sb  Sb4  1  0.25000000  0.75000000  0.50000000  1
  Sb  Sb5  1  0.89745725  0.20894742  0.62374677  1
  Sb  Sb6  1  0.38969639  0.03619627  0.15286789  1
  P  P7  1  0.88292646  0.15030173  0.67341270  1
  P  P8  1  0.20010807  0.50618590  0.60395969  1
  Li  Li9  1  0.54172910  0.00164797  0.33264538  1
