# generated using pymatgen
data_Li3Ti2Cu2P6F2
_symmetry_space_group_name_H-M   'P 1'
_cell_length_a   6.62981076
_cell_length_b   6.69600336
_cell_length_c   7.24877696
_cell_angle_alpha   96.40358725
_cell_angle_beta   98.96009796
_cell_angle_gamma   98.22872865
_symmetry_Int_Tables_number   1
_chemical_formula_structural   Li3Ti2Cu2P6F2
_chemical_formula_sum   'Li3 Ti2 Cu2 P6 F2'
_cell_volume   311.63587478
_cell_formula_units_Z   1
loop_
 _symmetry_equiv_pos_site_id
 _symmetry_equiv_pos_as_xyz
  1  'x, y, z'
loop_
 _atom_site_type_symbol
 _atom_site_label
 _atom_site_symmetry_multiplicity
 _atom_site_fract_x
 _atom_site_fract_y
 _atom_site_fract_z
 _atom_site_occupancy
  P  P0  1  0.00000000  0.00000000  0.00000000  1
  P  P1  1  0.50000000  0.50000000  0.50000000  1
  P  P2  1  0.25000000  0.25000000  0.25000000  1
  P  P3  1  0.75000000  0.25000000  0.00000000  1
  P  P4  1  0.25000000  0.75000000  0.50000000  1
  P  P5  1  0.48764687  0.58678282  0.35749793  1
  Li  Li6  1  0.26801828  0.32722991  0.52855477  1
  Li  Li7  1  0.15419631  0.69305634  0.50820013  1
  Li  Li8  1  0.13086438  0.46833076  0.23991182  1
  Cu  Cu9  1  0.80221136  0.71268938  0.88864974  1
  Cu  Cu10  1  0.89061449  0.04801824  0.79322174  1
  F  F11  1  0.55040172  0.55620653  0.50609029  1
  F  F12  1  0.92677161  0.18123807  0.94755027  1
  Ti  Ti13  1  0.19085020  0.69890477  0.07626647  1
  Ti  Ti14  1  0.31949215  0.34029514  0.31030893  1
