# generated using pymatgen
data_Li5Ni2As6O7
_symmetry_space_group_name_H-M   'P 1'
_cell_length_a   6.88000725
_cell_length_b   6.63146376
_cell_length_c   8.66248452
_cell_angle_alpha   97.22280662
_cell_angle_beta   99.22186514
_cell_angle_gamma   96.79460891
_symmetry_Int_Tables_number   1
_chemical_formula_structural   Li5Ni2As6O7
_chemical_formula_sum   'Li5 Ni2 As6 O7'
_cell_volume   383.12962538
_cell_formula_units_Z   1
loop_
 _symmetry_equiv_pos_site_id
 _symmetry_equiv_pos_as_xyz
  1  'x, y, z'
loop_
 _atom_site_type_symbol
 _atom_site_label
 _atom_site_symmetry_multiplicity
 _atom_site_fract_x
 _atom_site_fract_y
 _atom_site_fract_z
 _atom_site_occupancy
  Ni  Ni0  1  0.00000000  0.00000000  0.00000000  1
  Ni  Ni1  1  0.50000000  0.50000000  0.50000000  1
  O  O2  1  0.25000000  0.25000000  0.25000000  1
  O  O3  1  0.75000000  0.25000000  0.00000000  1
  O  O4  1  0.25000000  0.75000000  0.50000000  1
  O  O5  1  0.54133782  0.20090300  0.49620033  1
  O  O6  1  0.67926527  0.30963143  0.70542099  1
  O  O7  1  0.52208515  0.90383698  0.78708248  1
  O  O8  1  0.45817134  0.57546916  0.22090212  1
  As  As9  1  0.38400490  0.98115573  0.68536963  1
  As  As10  1  0.84878175  0.69437815  0.00004017  1
  As  As11  1  0.52563971  0.82758470  0.27112806  1
  As  As12  1  0.59273793  0.23436833  0.71212609  1
  As  As13  1  0.07557488  0.40731964  0.01495191  1
  As  As14  1  0.00424338  0.27240347  0.37457935  1
  Li  Li15  1  0.18238230  0.19227471  0.46356579  1
  Li  Li16  1  0.38877402  0.12610196  0.48454728  1
  Li  Li17  1  0.42459015  0.20321043  0.83826891  1
  Li  Li18  1  0.24582836  0.81224552  0.36345391  1
  Li  Li19  1  0.88748631  0.43874946  0.07748530  1
