# generated using pymatgen
data_LiTi2P3S2
_symmetry_space_group_name_H-M   'P 1'
_cell_length_a   5.67153844
_cell_length_b   5.39776546
_cell_length_c   6.93179808
_cell_angle_alpha   93.35157727
_cell_angle_beta   97.87602503
_cell_angle_gamma   93.29475534
_symmetry_Int_Tables_number   1
_chemical_formula_structural   LiTi2P3S2
_chemical_formula_sum   'Li1 Ti2 P3 S2'
_cell_volume   209.38560498
_cell_formula_units_Z   1
loop_
 _symmetry_equiv_pos_site_id
 _symmetry_equiv_pos_as_xyz
  1  'x, y, z'
loop_
 _atom_site_type_symbol
 _atom_site_label
 _atom_site_symmetry_multiplicity
 _atom_site_fract_x
 _atom_site_fract_y
 _atom_site_fract_z
 _atom_site_occupancy
  P  P0  1  0.00000000  0.00000000  0.00000000  1
  P  P1  1  0.33300000  0.66700000  0.25000000  1
  P  P2  1  0.66700000  0.33300000  0.50000000  1
  Li  Li3  1  0.00000000  0.00000000  0.75000000  1
  S  S4  1  0.82748531  0.42536104  0.38234904  1
  S  S5  1  0.58763116  0.24833736  0.81140625  1
  Ti  Ti6  1  0.52465925  0.66044962  0.30678581  1
  Ti  Ti7  1  0.08898614  0.78441378  0.13178252  1
