# generated using pymatgen
data_LiTiNi(AsP)3
_symmetry_space_group_name_H-M   'P 1'
_cell_length_a   8.37116190
_cell_length_b   8.13154139
_cell_length_c   8.67023538
_cell_angle_alpha   90.10066549
_cell_angle_beta   90.47893584
_cell_angle_gamma   90.11508754
_symmetry_Int_Tables_number   1
_chemical_formula_structural   LiTiNi(AsP)3
_chemical_formula_sum   'Li2 Ti2 Ni2 As6 P6'
_cell_volume   590.16408132
_cell_formula_units_Z   2
loop_
 _symmetry_equiv_pos_site_id
 _symmetry_equiv_pos_as_xyz
  1  'x, y, z'
loop_
 _atom_site_type_symbol
 _atom_site_label
 _atom_site_symmetry_multiplicity
 _atom_site_fract_x
 _atom_site_fract_y
 _atom_site_fract_z
 _atom_site_occupancy
  P  P0  1  0.00000000  0.00000000  0.00000000  1
  P  P1  1  0.50000000  0.50000000  0.50000000  1
  P  P2  1  0.50000000  0.50000000  0.00000000  1
  P  P3  1  0.50000000  0.00000000  0.50000000  1
  P  P4  1  0.00000000  0.50000000  0.50000000  1
  P  P5  1  0.43250592  0.39144986  0.45118378  1
  Li  Li6  1  0.72118834  0.49060357  0.37074224  1
  Li  Li7  1  0.96887808  0.54508459  0.77453064  1
  Ni  Ni8  1  0.41262718  0.76576413  0.62219527  1
  Ni  Ni9  1  0.04472373  0.51666350  0.47759385  1
  Ti  Ti10  1  0.19314919  0.28505218  0.75927590  1
  Ti  Ti11  1  0.08024764  0.85072024  0.64167489  1
  As  As12  1  0.73754374  0.45631178  0.68044567  1
  As  As13  1  0.14875347  0.79564724  0.19054620  1
  As  As14  1  0.70639100  0.51340472  0.26569409  1
  As  As15  1  0.18789219  0.52672866  0.06137186  1
  As  As16  1  0.39916310  0.19032570  0.30120955  1
  As  As17  1  0.91400107  0.13557281  0.99119503  1
