# generated using pymatgen
data_Li2Ti2Cu2P5O
_symmetry_space_group_name_H-M   'P 1'
_cell_length_a   7.95097840
_cell_length_b   7.76066625
_cell_length_c   7.60886268
_cell_angle_alpha   90.27934218
_cell_angle_beta   91.32902525
_cell_angle_gamma   90.31936270
_symmetry_Int_Tables_number   1
_chemical_formula_structural   Li2Ti2Cu2P5O
_chemical_formula_sum   'Li2 Ti2 Cu2 P5 O1'
_cell_volume   469.36455723
_cell_formula_units_Z   1
loop_
 _symmetry_equiv_pos_site_id
 _symmetry_equiv_pos_as_xyz
  1  'x, y, z'
loop_
 _atom_site_type_symbol
 _atom_site_label
 _atom_site_symmetry_multiplicity
 _atom_site_fract_x
 _atom_site_fract_y
 _atom_site_fract_z
 _atom_site_occupancy
  P  P0  1  0.00000000  0.00000000  0.00000000  1
  P  P1  1  0.50000000  0.50000000  0.50000000  1
  P  P2  1  0.25000000  0.25000000  0.25000000  1
  P  P3  1  0.75000000  0.25000000  0.00000000  1
  P  P4  1  0.25000000  0.75000000  0.50000000  1
  Li  Li5  1  0.68874686  0.68378929  0.67386624  1
  Li  Li6  1  0.70813655  0.19703925  0.55320436  1
  Cu  Cu7  1  0.29177794  0.71652638  0.09352118  1
  Cu  Cu8  1  0.26067735  0.59870009  0.97584166  1
  Ti  Ti9  1  0.03388808  0.59237387  0.79366976  1
  Ti  Ti10  1  0.70224091  0.40077309  0.27538467  1
  O  O11  1  0.75808030  0.41136337  0.56024523  1
