# generated using pymatgen
data_Li2MnSb4Mo2P3
_symmetry_space_group_name_H-M   'P 1'
_cell_length_a   5.62844334
_cell_length_b   5.77342886
_cell_length_c   6.79756775
_cell_angle_alpha   98.72835273
_cell_angle_beta   93.16539273
_cell_angle_gamma   98.99777169
_symmetry_Int_Tables_number   1
_chemical_formula_structural   Li2MnSb4Mo2P3
_chemical_formula_sum   'Li2 Mn1 Sb4 Mo2 P3'
_cell_volume   214.93861794
_cell_formula_units_Z   1
loop_
 _symmetry_equiv_pos_site_id
 _symmetry_equiv_pos_as_xyz
  1  'x, y, z'
loop_
 _atom_site_type_symbol
 _atom_site_label
 _atom_site_symmetry_multiplicity
 _atom_site_fract_x
 _atom_site_fract_y
 _atom_site_fract_z
 _atom_site_occupancy
  Mn  Mn0  1  0.00000000  0.00000000  0.00000000  1
  Sb  Sb1  1  0.50000000  0.50000000  0.50000000  1
  Sb  Sb2  1  0.50000000  0.50000000  0.00000000  1
  Sb  Sb3  1  0.50000000  0.00000000  0.50000000  1
  Sb  Sb4  1  0.00000000  0.50000000  0.50000000  1
  P  P5  1  0.09438687  0.15426251  0.05285135  1
  P  P6  1  0.21152426  0.33737125  0.87688618  1
  P  P7  1  0.33745363  0.49904898  0.88068914  1
  Mo  Mo8  1  0.43730824  0.66790211  0.54926386  1
  Mo  Mo9  1  0.55353318  0.23439280  0.01483990  1
  Li  Li10  1  0.25249944  0.99763016  0.95313947  1
  Li  Li11  1  0.92395861  0.07129900  0.59053172  1
