# generated using pymatgen
data_LiTi2Cu2P5
_symmetry_space_group_name_H-M   'P 1'
_cell_length_a   4.99542912
_cell_length_b   4.99938052
_cell_length_c   6.21102871
_cell_angle_alpha   92.02642049
_cell_angle_beta   103.93849486
_cell_angle_gamma   92.17081824
_symmetry_Int_Tables_number   1
_chemical_formula_structural   LiTi2Cu2P5
_chemical_formula_sum   'Li1 Ti2 Cu2 P5'
_cell_volume   150.28080733
_cell_formula_units_Z   1
loop_
 _symmetry_equiv_pos_site_id
 _symmetry_equiv_pos_as_xyz
  1  'x, y, z'
loop_
 _atom_site_type_symbol
 _atom_site_label
 _atom_site_symmetry_multiplicity
 _atom_site_fract_x
 _atom_site_fract_y
 _atom_site_fract_z
 _atom_site_occupancy
  P  P0  1  0.00000000  0.00000000  0.00000000  1
  P  P1  1  0.33300000  0.66700000  0.25000000  1
  P  P2  1  0.66700000  0.33300000  0.50000000  1
  P  P3  1  0.00000000  0.00000000  0.75000000  1
  P  P4  1  0.87700963  0.33227793  0.67180744  1
  Li  Li5  1  0.14826457  0.33594093  0.18918035  1
  Cu  Cu6  1  0.59895418  0.28200916  0.05349644  1
  Cu  Cu7  1  0.72145719  0.84956456  0.55704086  1
  Ti  Ti8  1  0.10344904  0.20725707  0.57007975  1
  Ti  Ti9  1  0.65810960  0.58028607  0.42251000  1
