# generated using pymatgen
data_LiMnSb2P
_symmetry_space_group_name_H-M   'P 1'
_cell_length_a   5.44579322
_cell_length_b   5.80918806
_cell_length_c   6.96031765
_cell_angle_alpha   96.93726885
_cell_angle_beta   97.46504128
_cell_angle_gamma   96.07114523
_symmetry_Int_Tables_number   1
_chemical_formula_structural   LiMnSb2P
_chemical_formula_sum   'Li2 Mn2 Sb4 P2'
_cell_volume   215.07302361
_cell_formula_units_Z   2
loop_
 _symmetry_equiv_pos_site_id
 _symmetry_equiv_pos_as_xyz
  1  'x, y, z'
loop_
 _atom_site_type_symbol
 _atom_site_label
 _atom_site_symmetry_multiplicity
 _atom_site_fract_x
 _atom_site_fract_y
 _atom_site_fract_z
 _atom_site_occupancy
  Mn  Mn0  1  0.00000000  0.00000000  0.00000000  1
  Mn  Mn1  1  0.50000000  0.50000000  0.50000000  1
  Sb  Sb2  1  0.50000000  0.50000000  0.00000000  1
  Sb  Sb3  1  0.50000000  0.00000000  0.50000000  1
  Sb  Sb4  1  0.00000000  0.50000000  0.50000000  1
  Sb  Sb5  1  0.91378753  0.82286631  0.19250849  1
  P  P6  1  0.85951073  0.43610933  0.60540962  1
  P  P7  1  0.06700097  0.62773382  0.32830709  1
  Li  Li8  1  0.62653413  0.92236976  0.69415632  1
  Li  Li9  1  0.63705586  0.53340640  0.13187625  1
