# generated using pymatgen
data_Li2Sb4Mo2P3N
_symmetry_space_group_name_H-M   'P 1'
_cell_length_a   4.48135304
_cell_length_b   4.69805142
_cell_length_c   5.76411706
_cell_angle_alpha   102.11313719
_cell_angle_beta   92.87146168
_cell_angle_gamma   101.01297293
_symmetry_Int_Tables_number   1
_chemical_formula_structural   Li2Sb4Mo2P3N
_chemical_formula_sum   'Li2 Sb4 Mo2 P3 N1'
_cell_volume   115.95315006
_cell_formula_units_Z   1
loop_
 _symmetry_equiv_pos_site_id
 _symmetry_equiv_pos_as_xyz
  1  'x, y, z'
loop_
 _atom_site_type_symbol
 _atom_site_label
 _atom_site_symmetry_multiplicity
 _atom_site_fract_x
 _atom_site_fract_y
 _atom_site_fract_z
 _atom_site_occupancy
  N  N0  1  0.00000000  0.00000000  0.00000000  1
  Sb  Sb1  1  0.50000000  0.50000000  0.50000000  1
  Sb  Sb2  1  0.50000000  0.50000000  0.00000000  1
  Sb  Sb3  1  0.50000000  0.00000000  0.50000000  1
  Sb  Sb4  1  0.00000000  0.50000000  0.50000000  1
  P  P5  1  0.79069361  0.19012565  0.94999173  1
  P  P6  1  0.80349187  0.56188446  0.73702809  1
  P  P7  1  0.88681465  0.05400099  0.54978570  1
  Mo  Mo8  1  0.57612545  0.05527850  0.74631358  1
  Mo  Mo9  1  0.29173846  0.47615402  0.13749138  1
  Li  Li10  1  0.12197677  0.45034183  0.77153464  1
  Li  Li11  1  0.62461378  0.67432303  0.70493180  1
