# generated using pymatgen
data_Li2MnSb4Mo2P3
_symmetry_space_group_name_H-M   'P 1'
_cell_length_a   4.71581374
_cell_length_b   4.97151970
_cell_length_c   6.30243013
_cell_angle_alpha   102.08820194
_cell_angle_beta   92.66238099
_cell_angle_gamma   102.13444083
_symmetry_Int_Tables_number   1
_chemical_formula_structural   Li2MnSb4Mo2P3
_chemical_formula_sum   'Li2 Mn1 Sb4 Mo2 P3'
_cell_volume   140.62047180
_cell_formula_units_Z   1
loop_
 _symmetry_equiv_pos_site_id
 _symmetry_equiv_pos_as_xyz
  1  'x, y, z'
loop_
 _atom_site_type_symbol
 _atom_site_label
 _atom_site_symmetry_multiplicity
 _atom_site_fract_x
 _atom_site_fract_y
 _atom_site_fract_z
 _atom_site_occupancy
  Mn  Mn0  1  0.12500000  0.00000000  0.25000000  1
  Sb  Sb1  1  0.00000000  0.00000000  0.00000000  1
  Sb  Sb2  1  0.37500000  0.00000000  0.25000000  1
  Sb  Sb3  1  0.25000000  0.25000000  0.25000000  1
  Sb  Sb4  1  0.00000000  0.25000000  0.12500000  1
  P  P5  1  0.25195361  0.18636815  0.07886097  1
  P  P6  1  0.37494608  0.99681232  0.64150388  1
  P  P7  1  0.30310697  0.23163524  0.48839397  1
  Mo  Mo8  1  0.75079768  0.08081203  0.98884050  1
  Mo  Mo9  1  0.16384444  0.16222294  0.98412237  1
  Li  Li10  1  0.67670543  0.74273607  0.74319197  1
  Li  Li11  1  0.90684288  0.53937327  0.66088612  1
