# generated using pymatgen
data_Li2Sb4Mo2P3
_symmetry_space_group_name_H-M   'P 1'
_cell_length_a   5.39494732
_cell_length_b   5.79967318
_cell_length_c   6.88891515
_cell_angle_alpha   97.44581426
_cell_angle_beta   94.43916353
_cell_angle_gamma   97.86412927
_symmetry_Int_Tables_number   1
_chemical_formula_structural   Li2Sb4Mo2P3
_chemical_formula_sum   'Li2 Sb4 Mo2 P3'
_cell_volume   210.72389610
_cell_formula_units_Z   1
loop_
 _symmetry_equiv_pos_site_id
 _symmetry_equiv_pos_as_xyz
  1  'x, y, z'
loop_
 _atom_site_type_symbol
 _atom_site_label
 _atom_site_symmetry_multiplicity
 _atom_site_fract_x
 _atom_site_fract_y
 _atom_site_fract_z
 _atom_site_occupancy
  Sb  Sb0  1  0.12500000  0.00000000  0.25000000  1
  Sb  Sb1  1  0.00000000  0.00000000  0.00000000  1
  Sb  Sb2  1  0.37500000  0.00000000  0.25000000  1
  Sb  Sb3  1  0.25000000  0.25000000  0.25000000  1
  P  P4  1  0.00000000  0.25000000  0.12500000  1
  P  P5  1  0.51199158  0.94707421  0.64726195  1
  P  P6  1  0.24864728  0.88959410  0.41435199  1
  Mo  Mo7  1  0.22548676  0.24504088  0.13700990  1
  Mo  Mo8  1  0.73304095  0.93470504  0.80687536  1
  Li  Li9  1  0.17602724  0.90353710  0.10745232  1
  Li  Li10  1  0.30854394  0.27101046  0.90139399  1
