# generated using pymatgen
data_Li5Se(ClO)2
_symmetry_space_group_name_H-M   'P 1'
_cell_length_a   4.41658303
_cell_length_b   4.40111845
_cell_length_c   6.58139428
_cell_angle_alpha   107.24475551
_cell_angle_beta   112.50475387
_cell_angle_gamma   108.39360653
_symmetry_Int_Tables_number   1
_chemical_formula_structural   Li5Se(ClO)2
_chemical_formula_sum   'Li5 Se1 Cl2 O2'
_cell_volume   98.63216398
_cell_formula_units_Z   1
loop_
 _symmetry_equiv_pos_site_id
 _symmetry_equiv_pos_as_xyz
  1  'x, y, z'
loop_
 _atom_site_type_symbol
 _atom_site_label
 _atom_site_symmetry_multiplicity
 _atom_site_fract_x
 _atom_site_fract_y
 _atom_site_fract_z
 _atom_site_occupancy
  Li  Li0  1  0.12500000  0.12500000  0.12500000  1
  Li  Li1  1  0.50000000  0.50000000  0.50000000  1
  Li  Li2  1  0.25000000  0.25000000  0.25000000  1
  Li  Li3  1  0.75000000  0.75000000  0.75000000  1
  Li  Li4  1  0.45264456  0.63870050  0.49226548  1
  Se  Se5  1  0.30487560  0.65095072  0.60313489  1
  Cl  Cl6  1  0.02135195  0.42173660  0.98125165  1
  Cl  Cl7  1  0.41737213  0.74752050  0.19792591  1
  O  O8  1  0.92264598  0.09813468  0.96675601  1
  O  O9  1  0.63570417  0.96711195  0.26999058  1
