# generated using pymatgen
data_Li3Ti2Sb3Se2O
_symmetry_space_group_name_H-M   'P 1'
_cell_length_a   5.43397832
_cell_length_b   5.17349060
_cell_length_c   6.95438811
_cell_angle_alpha   98.52928264
_cell_angle_beta   99.34836258
_cell_angle_gamma   97.67299399
_symmetry_Int_Tables_number   1
_chemical_formula_structural   Li3Ti2Sb3Se2O
_chemical_formula_sum   'Li3 Ti2 Sb3 Se2 O1'
_cell_volume   188.27115551
_cell_formula_units_Z   1
loop_
 _symmetry_equiv_pos_site_id
 _symmetry_equiv_pos_as_xyz
  1  'x, y, z'
loop_
 _atom_site_type_symbol
 _atom_site_label
 _atom_site_symmetry_multiplicity
 _atom_site_fract_x
 _atom_site_fract_y
 _atom_site_fract_z
 _atom_site_occupancy
  Li  Li0  1  0.00000000  0.00000000  0.00000000  1
  Li  Li1  1  0.50000000  0.50000000  0.50000000  1
  Li  Li2  1  0.50000000  0.50000000  0.00000000  1
  Sb  Sb3  1  0.50000000  0.00000000  0.50000000  1
  Sb  Sb4  1  0.00000000  0.50000000  0.50000000  1
  Sb  Sb5  1  0.19078638  0.86000669  0.66398884  1
  Se  Se6  1  0.49522020  0.35643242  0.05879272  1
  Se  Se7  1  0.02073237  0.84981598  0.14893293  1
  Ti  Ti8  1  0.40570347  0.69450726  0.27433433  1
  Ti  Ti9  1  0.17601497  0.66563726  0.04505289  1
  O  O10  1  0.28416116  0.48196910  0.14609345  1
