# generated using pymatgen
data_Li2P8S3(OF)2
_symmetry_space_group_name_H-M   'P 1'
_cell_length_a   6.97097387
_cell_length_b   7.23015077
_cell_length_c   7.94440581
_cell_angle_alpha   90.75676720
_cell_angle_beta   93.60046853
_cell_angle_gamma   90.86518699
_symmetry_Int_Tables_number   1
_chemical_formula_structural   Li2P8S3(OF)2
_chemical_formula_sum   'Li2 P8 S3 O2 F2'
_cell_volume   399.53144006
_cell_formula_units_Z   1
loop_
 _symmetry_equiv_pos_site_id
 _symmetry_equiv_pos_as_xyz
  1  'x, y, z'
loop_
 _atom_site_type_symbol
 _atom_site_label
 _atom_site_symmetry_multiplicity
 _atom_site_fract_x
 _atom_site_fract_y
 _atom_site_fract_z
 _atom_site_occupancy
  P  P0  1  0.12500000  0.00000000  0.25000000  1
  P  P1  1  0.00000000  0.00000000  0.00000000  1
  P  P2  1  0.37500000  0.00000000  0.25000000  1
  P  P3  1  0.25000000  0.25000000  0.25000000  1
  P  P4  1  0.00000000  0.25000000  0.12500000  1
  P  P5  1  0.24220271  0.00482844  0.19736708  1
  P  P6  1  0.72707919  0.34959434  0.65127890  1
  P  P7  1  0.11530698  0.21437429  0.24363216  1
  Li  Li8  1  0.91560003  0.86544743  0.11719919  1
  Li  Li9  1  0.81135052  0.75611748  0.22617545  1
  F  F10  1  0.77380979  0.98503080  0.56044626  1
  F  F11  1  0.73241570  0.61932417  0.95751174  1
  S  S12  1  0.77828574  0.96046727  0.08016795  1
  S  S13  1  0.33676642  0.73455781  0.05851301  1
  S  S14  1  0.03942816  0.85734779  0.66214351  1
  O  O15  1  0.45426459  0.57287336  0.36143377  1
  O  O16  1  0.01213665  0.43392887  0.47264127  1
