# generated using pymatgen
data_Li3VNi2Te6O5
_symmetry_space_group_name_H-M   'P 1'
_cell_length_a   7.07318306
_cell_length_b   6.90339006
_cell_length_c   7.44951106
_cell_angle_alpha   93.08655968
_cell_angle_beta   93.56272735
_cell_angle_gamma   93.54550250
_symmetry_Int_Tables_number   1
_chemical_formula_structural   Li3VNi2Te6O5
_chemical_formula_sum   'Li3 V1 Ni2 Te6 O5'
_cell_volume   361.74576661
_cell_formula_units_Z   1
loop_
 _symmetry_equiv_pos_site_id
 _symmetry_equiv_pos_as_xyz
  1  'x, y, z'
loop_
 _atom_site_type_symbol
 _atom_site_label
 _atom_site_symmetry_multiplicity
 _atom_site_fract_x
 _atom_site_fract_y
 _atom_site_fract_z
 _atom_site_occupancy
  Li  Li0  1  0.00000000  0.00000000  0.00000000  1
  Li  Li1  1  0.50000000  0.50000000  0.50000000  1
  Li  Li2  1  0.25000000  0.25000000  0.25000000  1
  Ni  Ni3  1  0.75000000  0.25000000  0.00000000  1
  Ni  Ni4  1  0.25000000  0.75000000  0.50000000  1
  Te  Te5  1  0.54096376  0.10385096  0.99347341  1
  Te  Te6  1  0.32893454  0.04143550  0.47427342  1
  Te  Te7  1  0.16804658  0.38526176  0.62439172  1
  Te  Te8  1  0.65598355  0.89594303  0.00410301  1
  Te  Te9  1  0.24941677  0.33765836  0.60233220  1
  Te  Te10  1  0.76273343  0.09688528  0.51866775  1
  V  V11  1  0.89127378  0.05534935  0.34509225  1
  O  O12  1  0.89807969  0.41140040  0.34379339  1
  O  O13  1  0.63620927  0.51186794  0.14221582  1
  O  O14  1  0.74186589  0.53525121  0.90496485  1
  O  O15  1  0.66469467  0.78321867  0.17633711  1
  O  O16  1  0.01694752  0.59619724  0.65986606  1
