# generated using pymatgen
data_Li5ZrNi2(Te3Cl)2
_symmetry_space_group_name_H-M   'P 1'
_cell_length_a   7.00696037
_cell_length_b   7.01865259
_cell_length_c   7.68376847
_cell_angle_alpha   97.16192020
_cell_angle_beta   99.14412717
_cell_angle_gamma   96.73733209
_symmetry_Int_Tables_number   1
_chemical_formula_structural   Li5ZrNi2(Te3Cl)2
_chemical_formula_sum   'Li5 Zr1 Ni2 Te6 Cl2'
_cell_volume   366.52516947
_cell_formula_units_Z   1
loop_
 _symmetry_equiv_pos_site_id
 _symmetry_equiv_pos_as_xyz
  1  'x, y, z'
loop_
 _atom_site_type_symbol
 _atom_site_label
 _atom_site_symmetry_multiplicity
 _atom_site_fract_x
 _atom_site_fract_y
 _atom_site_fract_z
 _atom_site_occupancy
  Li  Li0  1  0.12500000  0.00000000  0.25000000  1
  Li  Li1  1  0.00000000  0.00000000  0.00000000  1
  Li  Li2  1  0.37500000  0.00000000  0.25000000  1
  Li  Li3  1  0.25000000  0.25000000  0.25000000  1
  Li  Li4  1  0.00000000  0.25000000  0.12500000  1
  Cl  Cl5  1  0.84948230  0.82331395  0.99593788  1
  Cl  Cl6  1  0.97784178  0.97086979  0.10614618  1
  Ni  Ni7  1  0.75720883  0.81867115  0.65187032  1
  Ni  Ni8  1  0.24821544  0.85577007  0.96511134  1
  Te  Te9  1  0.40638979  0.69411560  0.94043301  1
  Te  Te10  1  0.29167511  0.17771391  0.23933480  1
  Te  Te11  1  0.34647675  0.91927742  0.07543853  1
  Te  Te12  1  0.41754964  0.62368891  0.13178097  1
  Te  Te13  1  0.41896395  0.67268736  0.39508159  1
  Te  Te14  1  0.09489310  0.45665591  0.88285075  1
  Zr  Zr15  1  0.21286958  0.47113505  0.93034544  1
