# generated using pymatgen
data_LiMn2Sb4Mo2P3
_symmetry_space_group_name_H-M   'P 1'
_cell_length_a   6.19950451
_cell_length_b   6.57955032
_cell_length_c   6.73951280
_cell_angle_alpha   92.66121966
_cell_angle_beta   90.94754823
_cell_angle_gamma   92.47503535
_symmetry_Int_Tables_number   1
_chemical_formula_structural   LiMn2Sb4Mo2P3
_chemical_formula_sum   'Li1 Mn2 Sb4 Mo2 P3'
_cell_volume   274.30439664
_cell_formula_units_Z   1
loop_
 _symmetry_equiv_pos_site_id
 _symmetry_equiv_pos_as_xyz
  1  'x, y, z'
loop_
 _atom_site_type_symbol
 _atom_site_label
 _atom_site_symmetry_multiplicity
 _atom_site_fract_x
 _atom_site_fract_y
 _atom_site_fract_z
 _atom_site_occupancy
  Mn  Mn0  1  0.00000000  0.00000000  0.00000000  1
  Mn  Mn1  1  0.50000000  0.50000000  0.50000000  1
  Sb  Sb2  1  0.25000000  0.25000000  0.25000000  1
  Sb  Sb3  1  0.75000000  0.25000000  0.00000000  1
  Sb  Sb4  1  0.25000000  0.75000000  0.50000000  1
  Sb  Sb5  1  0.52630176  0.53168485  0.33607666  1
  P  P6  1  0.45373657  0.80632904  0.76578932  1
  P  P7  1  0.93088399  0.22156826  0.89260302  1
  P  P8  1  0.11850396  0.40191295  0.52414049  1
  Mo  Mo9  1  0.19539866  0.75743501  0.30896654  1
  Mo  Mo10  1  0.72464300  0.27042294  0.32638674  1
  Li  Li11  1  0.41421491  0.33952191  0.90714361  1
