# generated using pymatgen
data_LiTi2Cu2(I2F)2
_symmetry_space_group_name_H-M   'P 1'
_cell_length_a   6.81802971
_cell_length_b   6.69793894
_cell_length_c   7.25538659
_cell_angle_alpha   90.88013952
_cell_angle_beta   94.18743654
_cell_angle_gamma   91.00623449
_symmetry_Int_Tables_number   1
_chemical_formula_structural   LiTi2Cu2(I2F)2
_chemical_formula_sum   'Li1 Ti2 Cu2 I4 F2'
_cell_volume   330.34844202
_cell_formula_units_Z   1
loop_
 _symmetry_equiv_pos_site_id
 _symmetry_equiv_pos_as_xyz
  1  'x, y, z'
loop_
 _atom_site_type_symbol
 _atom_site_label
 _atom_site_symmetry_multiplicity
 _atom_site_fract_x
 _atom_site_fract_y
 _atom_site_fract_z
 _atom_site_occupancy
  I  I0  1  0.00000000  0.00000000  0.00000000  1
  I  I1  1  0.50000000  0.50000000  0.50000000  1
  I  I2  1  0.50000000  0.50000000  0.00000000  1
  I  I3  1  0.50000000  0.00000000  0.50000000  1
  Li  Li4  1  0.00000000  0.50000000  0.50000000  1
  Cu  Cu5  1  0.01400449  0.60180518  0.79725277  1
  Cu  Cu6  1  0.66791256  0.90922183  0.14446516  1
  F  F7  1  0.65274725  0.61862120  0.87543212  1
  F  F8  1  0.95031934  0.26679140  0.20404960  1
  Ti  Ti9  1  0.51607261  0.35005209  0.58255198  1
  Ti  Ti10  1  0.46714701  0.75572831  0.19965410  1
