# generated using pymatgen
data_LiSb4P3
_symmetry_space_group_name_H-M   'P 1'
_cell_length_a   6.30032063
_cell_length_b   6.77943224
_cell_length_c   6.92091964
_cell_angle_alpha   93.91086042
_cell_angle_beta   91.18028419
_cell_angle_gamma   94.05268521
_symmetry_Int_Tables_number   1
_chemical_formula_structural   LiSb4P3
_chemical_formula_sum   'Li1 Sb4 P3'
_cell_volume   294.08864832
_cell_formula_units_Z   1
loop_
 _symmetry_equiv_pos_site_id
 _symmetry_equiv_pos_as_xyz
  1  'x, y, z'
loop_
 _atom_site_type_symbol
 _atom_site_label
 _atom_site_symmetry_multiplicity
 _atom_site_fract_x
 _atom_site_fract_y
 _atom_site_fract_z
 _atom_site_occupancy
  Sb  Sb0  1  0.12500000  0.00000000  0.25000000  1
  Sb  Sb1  1  0.00000000  0.00000000  0.00000000  1
  Sb  Sb2  1  0.37500000  0.00000000  0.25000000  1
  Sb  Sb3  1  0.25000000  0.25000000  0.25000000  1
  P  P4  1  0.00000000  0.25000000  0.12500000  1
  P  P5  1  0.39204683  0.36829147  0.95597289  1
  P  P6  1  0.27271785  0.40889519  0.48172352  1
  Li  Li7  1  0.38789301  0.96383355  0.28326345  1
