# generated using pymatgen
data_Li2Mo2P3N
_symmetry_space_group_name_H-M   'P 1'
_cell_length_a   3.68285260
_cell_length_b   3.76989759
_cell_length_c   5.38251377
_cell_angle_alpha   106.29194455
_cell_angle_beta   92.70113381
_cell_angle_gamma   105.25238739
_symmetry_Int_Tables_number   1
_chemical_formula_structural   Li2Mo2P3N
_chemical_formula_sum   'Li2 Mo2 P3 N1'
_cell_volume   68.61070391
_cell_formula_units_Z   1
loop_
 _symmetry_equiv_pos_site_id
 _symmetry_equiv_pos_as_xyz
  1  'x, y, z'
loop_
 _atom_site_type_symbol
 _atom_site_label
 _atom_site_symmetry_multiplicity
 _atom_site_fract_x
 _atom_site_fract_y
 _atom_site_fract_z
 _atom_site_occupancy
  P  P0  1  0.12500000  0.12500000  0.12500000  1
  P  P1  1  0.50000000  0.50000000  0.50000000  1
  P  P2  1  0.25000000  0.25000000  0.25000000  1
  Mo  Mo3  1  0.75000000  0.75000000  0.75000000  1
  Mo  Mo4  1  0.71301523  0.37059593  0.50795581  1
  Li  Li5  1  0.52040844  0.97523254  0.94632071  1
  Li  Li6  1  0.40725758  0.53696916  0.45339429  1
  N  N7  1  0.69938210  0.16565920  0.69894351  1
