# generated using pymatgen
data_Li3Cu2Ni2O5
_symmetry_space_group_name_H-M   'P 1'
_cell_length_a   8.18867834
_cell_length_b   8.44214925
_cell_length_c   8.94971214
_cell_angle_alpha   90.00000000
_cell_angle_beta   90.00000000
_cell_angle_gamma   90.00000000
_symmetry_Int_Tables_number   1
_chemical_formula_structural   Li3Cu2Ni2O5
_chemical_formula_sum   'Li3 Cu2 Ni2 O5'
_cell_volume   618.69399990
_cell_formula_units_Z   1
loop_
 _symmetry_equiv_pos_site_id
 _symmetry_equiv_pos_as_xyz
  1  'x, y, z'
loop_
 _atom_site_type_symbol
 _atom_site_label
 _atom_site_symmetry_multiplicity
 _atom_site_fract_x
 _atom_site_fract_y
 _atom_site_fract_z
 _atom_site_occupancy
  Li  Li0  1  0.12500000  0.00000000  0.25000000  1
  Li  Li1  1  0.00000000  0.00000000  0.00000000  1
  Li  Li2  1  0.37500000  0.00000000  0.25000000  1
  Cu  Cu3  1  0.25000000  0.25000000  0.25000000  1
  Cu  Cu4  1  0.00000000  0.25000000  0.12500000  1
  Ni  Ni5  1  0.95393423  0.41443515  0.65574430  1
  Ni  Ni6  1  0.82512185  0.25754993  0.69655580  1
  O  O7  1  0.32833434  0.85152583  0.89504519  1
  O  O8  1  0.31982449  0.53647616  0.65495214  1
  O  O9  1  0.40474861  0.32247460  0.15135080  1
  O  O10  1  0.76940009  0.29984915  0.61058145  1
  O  O11  1  0.30599351  0.43636602  0.46936037  1
