# generated using pymatgen
data_LiMn2Sb2(MoP)2
_symmetry_space_group_name_H-M   'P 1'
_cell_length_a   4.95668073
_cell_length_b   5.29511664
_cell_length_c   6.27662825
_cell_angle_alpha   96.46648137
_cell_angle_beta   95.43149471
_cell_angle_gamma   96.07888170
_symmetry_Int_Tables_number   1
_chemical_formula_structural   LiMn2Sb2(MoP)2
_chemical_formula_sum   'Li1 Mn2 Sb2 Mo2 P2'
_cell_volume   161.81938871
_cell_formula_units_Z   1
loop_
 _symmetry_equiv_pos_site_id
 _symmetry_equiv_pos_as_xyz
  1  'x, y, z'
loop_
 _atom_site_type_symbol
 _atom_site_label
 _atom_site_symmetry_multiplicity
 _atom_site_fract_x
 _atom_site_fract_y
 _atom_site_fract_z
 _atom_site_occupancy
  Mn  Mn0  1  0.00000000  0.00000000  0.00000000  1
  Mn  Mn1  1  0.50000000  0.50000000  0.50000000  1
  Sb  Sb2  1  0.50000000  0.50000000  0.00000000  1
  Sb  Sb3  1  0.50000000  0.00000000  0.50000000  1
  P  P4  1  0.00000000  0.50000000  0.50000000  1
  P  P5  1  0.32481997  0.61421936  0.19617970  1
  Mo  Mo6  1  0.42715507  0.53848567  0.20931115  1
  Mo  Mo7  1  0.72997159  0.58183712  0.03282814  1
  Li  Li8  1  0.76558777  0.64172126  0.78854796  1
