# generated using pymatgen
data_Li2Ti2P5OF2
_symmetry_space_group_name_H-M   'P 1'
_cell_length_a   8.02304392
_cell_length_b   7.81389408
_cell_length_c   7.66116991
_cell_angle_alpha   90.26313749
_cell_angle_beta   91.25192827
_cell_angle_gamma   90.30083642
_symmetry_Int_Tables_number   1
_chemical_formula_structural   Li2Ti2P5OF2
_chemical_formula_sum   'Li2 Ti2 P5 O1 F2'
_cell_volume   480.16146319
_cell_formula_units_Z   1
loop_
 _symmetry_equiv_pos_site_id
 _symmetry_equiv_pos_as_xyz
  1  'x, y, z'
loop_
 _atom_site_type_symbol
 _atom_site_label
 _atom_site_symmetry_multiplicity
 _atom_site_fract_x
 _atom_site_fract_y
 _atom_site_fract_z
 _atom_site_occupancy
  P  P0  1  0.00000000  0.00000000  0.00000000  1
  P  P1  1  0.50000000  0.50000000  0.50000000  1
  P  P2  1  0.25000000  0.25000000  0.25000000  1
  P  P3  1  0.75000000  0.25000000  0.00000000  1
  P  P4  1  0.25000000  0.75000000  0.50000000  1
  Li  Li5  1  0.86995682  0.61987237  0.21977413  1
  Li  Li6  1  0.20033923  0.00254734  0.83654819  1
  F  F7  1  0.63562026  0.29664712  0.97697319  1
  F  F8  1  0.36923855  0.68163219  0.74722097  1
  Ti  Ti9  1  0.85468865  0.41705008  0.34104080  1
  Ti  Ti10  1  0.69317842  0.79278032  0.58834581  1
  O  O11  1  0.89168270  0.77813396  0.31673100  1
