# generated using pymatgen
data_Li3Ti2V3P3O2
_symmetry_space_group_name_H-M   'P 1'
_cell_length_a   8.19692474
_cell_length_b   8.17118155
_cell_length_c   7.58472680
_cell_angle_alpha   90.00000000
_cell_angle_beta   90.00000000
_cell_angle_gamma   90.00000000
_symmetry_Int_Tables_number   1
_chemical_formula_structural   Li3Ti2V3P3O2
_chemical_formula_sum   'Li3 Ti2 V3 P3 O2'
_cell_volume   508.01408096
_cell_formula_units_Z   1
loop_
 _symmetry_equiv_pos_site_id
 _symmetry_equiv_pos_as_xyz
  1  'x, y, z'
loop_
 _atom_site_type_symbol
 _atom_site_label
 _atom_site_symmetry_multiplicity
 _atom_site_fract_x
 _atom_site_fract_y
 _atom_site_fract_z
 _atom_site_occupancy
  P  P0  1  0.12500000  0.00000000  0.25000000  1
  P  P1  1  0.00000000  0.00000000  0.00000000  1
  P  P2  1  0.37500000  0.00000000  0.25000000  1
  Li  Li3  1  0.25000000  0.25000000  0.25000000  1
  Li  Li4  1  0.00000000  0.25000000  0.12500000  1
  Li  Li5  1  0.80157862  0.67287357  0.71570424  1
  Ti  Ti6  1  0.51802837  0.21108000  0.41895306  1
  Ti  Ti7  1  0.69586174  0.81950016  0.21922276  1
  V  V8  1  0.39505015  0.11331024  0.81309130  1
  V  V9  1  0.57592620  0.48834468  0.42221902  1
  V  V10  1  0.02669431  0.24523054  0.71637727  1
  O  O11  1  0.08181324  0.22160645  0.02829895  1
  O  O12  1  0.13540095  0.43638809  0.64787962  1
