# generated using pymatgen
data_Li4Ti2S2F3
_symmetry_space_group_name_H-M   'P 1'
_cell_length_a   4.60479839
_cell_length_b   4.19519276
_cell_length_c   7.34277442
_cell_angle_alpha   100.42924663
_cell_angle_beta   102.21336679
_cell_angle_gamma   99.40437019
_symmetry_Int_Tables_number   1
_chemical_formula_structural   Li4Ti2S2F3
_chemical_formula_sum   'Li4 Ti2 S2 F3'
_cell_volume   133.31144244
_cell_formula_units_Z   1
loop_
 _symmetry_equiv_pos_site_id
 _symmetry_equiv_pos_as_xyz
  1  'x, y, z'
loop_
 _atom_site_type_symbol
 _atom_site_label
 _atom_site_symmetry_multiplicity
 _atom_site_fract_x
 _atom_site_fract_y
 _atom_site_fract_z
 _atom_site_occupancy
  F  F0  1  0.12500000  0.00000000  0.25000000  1
  F  F1  1  0.00000000  0.00000000  0.00000000  1
  F  F2  1  0.37500000  0.00000000  0.25000000  1
  S  S3  1  0.25000000  0.25000000  0.25000000  1
  S  S4  1  0.00000000  0.25000000  0.12500000  1
  Ti  Ti5  1  0.97566017  0.88074387  0.05881464  1
  Ti  Ti6  1  0.77874498  0.37123272  0.36357091  1
  Li  Li7  1  0.43843838  0.33436769  0.47772747  1
  Li  Li8  1  0.79454330  0.61641006  0.22806759  1
  Li  Li9  1  0.53520738  0.65560459  0.79548646  1
  Li  Li10  1  0.79632061  0.65246979  0.26689282  1
