# generated using pymatgen
data_Li2Sb4Mo2P3
_symmetry_space_group_name_H-M   'P 1'
_cell_length_a   4.35829793
_cell_length_b   4.62724392
_cell_length_c   6.55062251
_cell_angle_alpha   101.13808299
_cell_angle_beta   96.33293906
_cell_angle_gamma   101.72100510
_symmetry_Int_Tables_number   1
_chemical_formula_structural   Li2Sb4Mo2P3
_chemical_formula_sum   'Li2 Sb4 Mo2 P3'
_cell_volume   125.36768049
_cell_formula_units_Z   1
loop_
 _symmetry_equiv_pos_site_id
 _symmetry_equiv_pos_as_xyz
  1  'x, y, z'
loop_
 _atom_site_type_symbol
 _atom_site_label
 _atom_site_symmetry_multiplicity
 _atom_site_fract_x
 _atom_site_fract_y
 _atom_site_fract_z
 _atom_site_occupancy
  Sb  Sb0  1  0.12500000  0.12500000  0.12500000  1
  Sb  Sb1  1  0.50000000  0.50000000  0.50000000  1
  Sb  Sb2  1  0.25000000  0.25000000  0.25000000  1
  Sb  Sb3  1  0.75000000  0.75000000  0.75000000  1
  P  P4  1  0.21029607  0.26171854  0.66662731  1
  P  P5  1  0.84189892  0.86614728  0.33540271  1
  P  P6  1  0.59482515  0.50936697  0.30467805  1
  Mo  Mo7  1  0.37823181  0.64843046  0.63888772  1
  Mo  Mo8  1  0.82695587  0.05285143  0.99253613  1
  Li  Li9  1  0.47524321  0.87773158  0.64775299  1
  Li  Li10  1  0.54445977  0.73473228  0.10880377  1
