# generated using pymatgen
data_Li2Mn2Ni3Sb4P3
_symmetry_space_group_name_H-M   'P 1'
_cell_length_a   5.86961212
_cell_length_b   5.91368001
_cell_length_c   7.14572422
_cell_angle_alpha   94.94175476
_cell_angle_beta   93.99349307
_cell_angle_gamma   95.03027365
_symmetry_Int_Tables_number   1
_chemical_formula_structural   Li2Mn2Ni3Sb4P3
_chemical_formula_sum   'Li2 Mn2 Ni3 Sb4 P3'
_cell_volume   245.41572279
_cell_formula_units_Z   1
loop_
 _symmetry_equiv_pos_site_id
 _symmetry_equiv_pos_as_xyz
  1  'x, y, z'
loop_
 _atom_site_type_symbol
 _atom_site_label
 _atom_site_symmetry_multiplicity
 _atom_site_fract_x
 _atom_site_fract_y
 _atom_site_fract_z
 _atom_site_occupancy
  Ni  Ni0  1  0.00000000  0.00000000  0.00000000  1
  Ni  Ni1  1  0.50000000  0.50000000  0.50000000  1
  Ni  Ni2  1  0.25000000  0.25000000  0.25000000  1
  Mn  Mn3  1  0.75000000  0.25000000  0.00000000  1
  Mn  Mn4  1  0.25000000  0.75000000  0.50000000  1
  Sb  Sb5  1  0.64193709  0.84719118  0.90009200  1
  Sb  Sb6  1  0.44706201  0.49275453  0.61326450  1
  Sb  Sb7  1  0.81191149  0.66173107  0.85189258  1
  Sb  Sb8  1  0.53956422  0.92983524  0.84974573  1
  P  P9  1  0.00829152  0.05775996  0.34110871  1
  P  P10  1  0.25141708  0.40124251  0.35600800  1
  P  P11  1  0.29535162  0.76861907  0.49965006  1
  Li  Li12  1  0.84511191  0.19162362  0.34482431  1
  Li  Li13  1  0.42692072  0.48793978  0.42887480  1
