# generated using pymatgen
data_Li3LuNi2(P3O)2
_symmetry_space_group_name_H-M   'P 1'
_cell_length_a   7.73399741
_cell_length_b   7.74718989
_cell_length_c   8.70811160
_cell_angle_alpha   91.94048859
_cell_angle_beta   90.68604420
_cell_angle_gamma   92.25073185
_symmetry_Int_Tables_number   1
_chemical_formula_structural   Li3LuNi2(P3O)2
_chemical_formula_sum   'Li3 Lu1 Ni2 P6 O2'
_cell_volume   521.01398058
_cell_formula_units_Z   1
loop_
 _symmetry_equiv_pos_site_id
 _symmetry_equiv_pos_as_xyz
  1  'x, y, z'
loop_
 _atom_site_type_symbol
 _atom_site_label
 _atom_site_symmetry_multiplicity
 _atom_site_fract_x
 _atom_site_fract_y
 _atom_site_fract_z
 _atom_site_occupancy
  P  P0  1  0.00000000  0.00000000  0.00000000  1
  P  P1  1  0.50000000  0.50000000  0.50000000  1
  P  P2  1  0.25000000  0.25000000  0.25000000  1
  P  P3  1  0.75000000  0.25000000  0.00000000  1
  P  P4  1  0.25000000  0.75000000  0.50000000  1
  P  P5  1  0.33700580  0.58749926  0.49887481  1
  Lu  Lu6  1  0.35927901  0.26870143  0.61504859  1
  Li  Li7  1  0.05800768  0.50530237  0.16417689  1
  Li  Li8  1  0.90484052  0.77319878  0.20176815  1
  Li  Li9  1  0.86472227  0.73275156  0.48927932  1
  Ni  Ni10  1  0.19924179  0.84252399  0.40806035  1
  Ni  Ni11  1  0.31992971  0.09401659  0.09421158  1
  O  O12  1  0.82741073  0.86097306  0.62641242  1
  O  O13  1  0.19892598  0.39395682  0.35615313  1
