# generated using pymatgen
data_Li3Ti2(SF)2
_symmetry_space_group_name_H-M   'P 1'
_cell_length_a   6.67163273
_cell_length_b   6.28898079
_cell_length_c   7.54875887
_cell_angle_alpha   95.16697198
_cell_angle_beta   96.08949602
_cell_angle_gamma   94.67660882
_symmetry_Int_Tables_number   1
_chemical_formula_structural   Li3Ti2(SF)2
_chemical_formula_sum   'Li3 Ti2 S2 F2'
_cell_volume   312.33260515
_cell_formula_units_Z   1
loop_
 _symmetry_equiv_pos_site_id
 _symmetry_equiv_pos_as_xyz
  1  'x, y, z'
loop_
 _atom_site_type_symbol
 _atom_site_label
 _atom_site_symmetry_multiplicity
 _atom_site_fract_x
 _atom_site_fract_y
 _atom_site_fract_z
 _atom_site_occupancy
  F  F0  1  0.00000000  0.00000000  0.00000000  1
  F  F1  1  0.50000000  0.50000000  0.50000000  1
  S  S2  1  0.25000000  0.25000000  0.25000000  1
  S  S3  1  0.75000000  0.25000000  0.00000000  1
  Ti  Ti4  1  0.25000000  0.75000000  0.50000000  1
  Ti  Ti5  1  0.51821554  0.94925747  0.10418741  1
  Li  Li6  1  0.13237211  0.63132845  0.72775823  1
  Li  Li7  1  0.50813635  0.37773903  0.83500336  1
  Li  Li8  1  0.86790877  0.45541908  0.67075877  1
