# generated using pymatgen
data_LiMn3(SbP)4
_symmetry_space_group_name_H-M   'P 1'
_cell_length_a   6.96309543
_cell_length_b   7.52343445
_cell_length_c   7.13578565
_cell_angle_alpha   90.11631475
_cell_angle_beta   90.41177454
_cell_angle_gamma   90.31536917
_symmetry_Int_Tables_number   1
_chemical_formula_structural   LiMn3(SbP)4
_chemical_formula_sum   'Li1 Mn3 Sb4 P4'
_cell_volume   373.80194796
_cell_formula_units_Z   1
loop_
 _symmetry_equiv_pos_site_id
 _symmetry_equiv_pos_as_xyz
  1  'x, y, z'
loop_
 _atom_site_type_symbol
 _atom_site_label
 _atom_site_symmetry_multiplicity
 _atom_site_fract_x
 _atom_site_fract_y
 _atom_site_fract_z
 _atom_site_occupancy
  Mn  Mn0  1  0.00000000  0.00000000  0.00000000  1
  Mn  Mn1  1  0.33300000  0.66700000  0.25000000  1
  Mn  Mn2  1  0.66700000  0.33300000  0.50000000  1
  Sb  Sb3  1  0.00000000  0.00000000  0.75000000  1
  Sb  Sb4  1  0.16854057  0.61329156  0.88865416  1
  Sb  Sb5  1  0.95518974  0.19671102  0.16346236  1
  Sb  Sb6  1  0.49635024  0.49418320  0.66532239  1
  P  P7  1  0.74483678  0.89071122  0.20248221  1
  P  P8  1  0.91289340  0.89735136  0.41168438  1
  P  P9  1  0.25595723  0.52106010  0.88932128  1
  P  P10  1  0.13539821  0.43078476  0.76365766  1
  Li  Li11  1  0.16938048  0.59708497  0.22205274  1
