# generated using pymatgen
data_Li2La3Ti2P3S2
_symmetry_space_group_name_H-M   'P 1'
_cell_length_a   6.10471083
_cell_length_b   5.63067935
_cell_length_c   7.87423892
_cell_angle_alpha   97.74868268
_cell_angle_beta   99.61180640
_cell_angle_gamma   97.04522445
_symmetry_Int_Tables_number   1
_chemical_formula_structural   Li2La3Ti2P3S2
_chemical_formula_sum   'Li2 La3 Ti2 P3 S2'
_cell_volume   261.49458865
_cell_formula_units_Z   1
loop_
 _symmetry_equiv_pos_site_id
 _symmetry_equiv_pos_as_xyz
  1  'x, y, z'
loop_
 _atom_site_type_symbol
 _atom_site_label
 _atom_site_symmetry_multiplicity
 _atom_site_fract_x
 _atom_site_fract_y
 _atom_site_fract_z
 _atom_site_occupancy
  P  P0  1  0.00000000  0.00000000  0.00000000  1
  P  P1  1  0.50000000  0.50000000  0.50000000  1
  P  P2  1  0.50000000  0.50000000  0.00000000  1
  Li  Li3  1  0.50000000  0.00000000  0.50000000  1
  Li  Li4  1  0.00000000  0.50000000  0.50000000  1
  La  La5  1  0.40568423  0.39756166  0.08469715  1
  La  La6  1  0.21927369  0.66723157  0.97367718  1
  La  La7  1  0.46452899  0.48272099  0.28917893  1
  S  S8  1  0.51701695  0.46072152  0.70229847  1
  S  S9  1  0.26614907  0.99694344  0.01249307  1
  Ti  Ti10  1  0.70952218  0.58667433  0.71082493  1
  Ti  Ti11  1  0.83605565  0.47262300  0.62871932  1
