# generated using pymatgen
data_Li2Ti2P5(SeF)2
_symmetry_space_group_name_H-M   'P 1'
_cell_length_a   8.16571128
_cell_length_b   7.81800253
_cell_length_c   7.58149042
_cell_angle_alpha   90.22920120
_cell_angle_beta   91.09046972
_cell_angle_gamma   90.26203818
_symmetry_Int_Tables_number   1
_chemical_formula_structural   Li2Ti2P5(SeF)2
_chemical_formula_sum   'Li2 Ti2 P5 Se2 F2'
_cell_volume   483.90218705
_cell_formula_units_Z   1
loop_
 _symmetry_equiv_pos_site_id
 _symmetry_equiv_pos_as_xyz
  1  'x, y, z'
loop_
 _atom_site_type_symbol
 _atom_site_label
 _atom_site_symmetry_multiplicity
 _atom_site_fract_x
 _atom_site_fract_y
 _atom_site_fract_z
 _atom_site_occupancy
  P  P0  1  0.12500000  0.00000000  0.25000000  1
  P  P1  1  0.00000000  0.00000000  0.00000000  1
  P  P2  1  0.37500000  0.00000000  0.25000000  1
  P  P3  1  0.25000000  0.25000000  0.25000000  1
  P  P4  1  0.00000000  0.25000000  0.12500000  1
  Li  Li5  1  0.39731623  0.38436148  0.37826218  1
  Li  Li6  1  0.12690722  0.29706598  0.59151395  1
  Se  Se7  1  0.44750276  0.82001472  0.64618539  1
  Se  Se8  1  0.10680061  0.84908092  0.15706164  1
  F  F9  1  0.87724233  0.93623648  0.95079063  1
  F  F10  1  0.82180982  0.98452025  0.28374774  1
  Ti  Ti11  1  0.43597744  0.51716873  0.97920849  1
  Ti  Ti12  1  0.11328239  0.34541672  0.48329771  1
