# generated using pymatgen
data_LiMn2(Sb2P)2
_symmetry_space_group_name_H-M   'P 1'
_cell_length_a   5.46701038
_cell_length_b   5.91334858
_cell_length_c   6.70834936
_cell_angle_alpha   97.34702816
_cell_angle_beta   96.06526562
_cell_angle_gamma   96.18023463
_symmetry_Int_Tables_number   1
_chemical_formula_structural   LiMn2(Sb2P)2
_chemical_formula_sum   'Li1 Mn2 Sb4 P2'
_cell_volume   212.26484877
_cell_formula_units_Z   1
loop_
 _symmetry_equiv_pos_site_id
 _symmetry_equiv_pos_as_xyz
  1  'x, y, z'
loop_
 _atom_site_type_symbol
 _atom_site_label
 _atom_site_symmetry_multiplicity
 _atom_site_fract_x
 _atom_site_fract_y
 _atom_site_fract_z
 _atom_site_occupancy
  Mn  Mn0  1  0.00000000  0.00000000  0.00000000  1
  Mn  Mn1  1  0.33300000  0.66700000  0.25000000  1
  Sb  Sb2  1  0.66700000  0.33300000  0.50000000  1
  Sb  Sb3  1  0.00000000  0.00000000  0.75000000  1
  Sb  Sb4  1  0.36414194  0.34772895  0.31541135  1
  Sb  Sb5  1  0.48483793  0.40710035  0.87038002  1
  P  P6  1  0.64998565  0.48961454  0.03650093  1
  P  P7  1  0.05432327  0.13611711  0.22763733  1
  Li  Li8  1  0.69632180  0.95446521  0.74022133  1
