# generated using pymatgen
data_Li2Ti2P5Se2O3
_symmetry_space_group_name_H-M   'P 1'
_cell_length_a   7.96429759
_cell_length_b   7.62137548
_cell_length_c   7.62504423
_cell_angle_alpha   90.28416397
_cell_angle_beta   91.35196588
_cell_angle_gamma   90.32487530
_symmetry_Int_Tables_number   1
_chemical_formula_structural   Li2Ti2P5Se2O3
_chemical_formula_sum   'Li2 Ti2 P5 Se2 O3'
_cell_volume   462.68952994
_cell_formula_units_Z   1
loop_
 _symmetry_equiv_pos_site_id
 _symmetry_equiv_pos_as_xyz
  1  'x, y, z'
loop_
 _atom_site_type_symbol
 _atom_site_label
 _atom_site_symmetry_multiplicity
 _atom_site_fract_x
 _atom_site_fract_y
 _atom_site_fract_z
 _atom_site_occupancy
  P  P0  1  0.12500000  0.00000000  0.25000000  1
  P  P1  1  0.00000000  0.00000000  0.00000000  1
  P  P2  1  0.37500000  0.00000000  0.25000000  1
  P  P3  1  0.25000000  0.25000000  0.25000000  1
  P  P4  1  0.00000000  0.25000000  0.12500000  1
  Li  Li5  1  0.34762803  0.11048776  0.49859214  1
  Li  Li6  1  0.87172508  0.71323062  0.64060517  1
  Se  Se7  1  0.74362575  0.11406916  0.50167247  1
  Se  Se8  1  0.76769897  0.22139835  0.39526368  1
  Ti  Ti9  1  0.53207697  0.63583818  0.83109270  1
  Ti  Ti10  1  0.99193755  0.91871811  0.19003813  1
  O  O11  1  0.76650817  0.55085435  0.53827786  1
  O  O12  1  0.17472532  0.56113388  0.62174135  1
  O  O13  1  0.82694162  0.92283788  0.58907065  1
