# generated using pymatgen
data_Li2Ti2(PO)3
_symmetry_space_group_name_H-M   'P 1'
_cell_length_a   7.78274085
_cell_length_b   7.94789874
_cell_length_c   7.66429014
_cell_angle_alpha   91.30850664
_cell_angle_beta   91.95220625
_cell_angle_gamma   91.67633548
_symmetry_Int_Tables_number   1
_chemical_formula_structural   Li2Ti2(PO)3
_chemical_formula_sum   'Li2 Ti2 P3 O3'
_cell_volume   473.47294238
_cell_formula_units_Z   1
loop_
 _symmetry_equiv_pos_site_id
 _symmetry_equiv_pos_as_xyz
  1  'x, y, z'
loop_
 _atom_site_type_symbol
 _atom_site_label
 _atom_site_symmetry_multiplicity
 _atom_site_fract_x
 _atom_site_fract_y
 _atom_site_fract_z
 _atom_site_occupancy
  P  P0  1  0.00000000  0.00000000  0.00000000  1
  P  P1  1  0.33300000  0.66700000  0.25000000  1
  P  P2  1  0.66700000  0.33300000  0.50000000  1
  Li  Li3  1  0.00000000  0.00000000  0.75000000  1
  Li  Li4  1  0.45757939  0.38311230  0.92173534  1
  Ti  Ti5  1  0.59601294  0.38563393  0.68843969  1
  Ti  Ti6  1  0.69758455  0.70084291  0.48338063  1
  O  O7  1  0.99853516  0.39320370  0.88325136  1
  O  O8  1  0.35011933  0.51958244  0.64161871  1
  O  O9  1  0.09558904  0.19580306  0.81620958  1
