# generated using pymatgen
data_Li2Mn2Sb4P3
_symmetry_space_group_name_H-M   'P 1'
_cell_length_a   5.93114662
_cell_length_b   6.37251597
_cell_length_c   6.82529296
_cell_angle_alpha   96.98175861
_cell_angle_beta   91.46244549
_cell_angle_gamma   96.99798366
_symmetry_Int_Tables_number   1
_chemical_formula_structural   Li2Mn2Sb4P3
_chemical_formula_sum   'Li2 Mn2 Sb4 P3'
_cell_volume   253.93754996
_cell_formula_units_Z   1
loop_
 _symmetry_equiv_pos_site_id
 _symmetry_equiv_pos_as_xyz
  1  'x, y, z'
loop_
 _atom_site_type_symbol
 _atom_site_label
 _atom_site_symmetry_multiplicity
 _atom_site_fract_x
 _atom_site_fract_y
 _atom_site_fract_z
 _atom_site_occupancy
  Mn  Mn0  1  0.00000000  0.00000000  0.00000000  1
  Mn  Mn1  1  0.50000000  0.50000000  0.50000000  1
  Sb  Sb2  1  0.50000000  0.50000000  0.00000000  1
  Sb  Sb3  1  0.50000000  0.00000000  0.50000000  1
  Sb  Sb4  1  0.00000000  0.50000000  0.50000000  1
  Sb  Sb5  1  0.92264857  0.25287099  0.38212960  1
  P  P6  1  0.77466001  0.43211666  0.01944492  1
  P  P7  1  0.10701996  0.89849013  0.03770309  1
  P  P8  1  0.77872604  0.27013823  0.22254995  1
  Li  Li9  1  0.75635566  0.50457803  0.63708243  1
  Li  Li10  1  0.56733622  0.33748162  0.90534688  1
