# generated using pymatgen
data_Li2Lu(Te3S)2
_symmetry_space_group_name_H-M   'P 1'
_cell_length_a   6.78138671
_cell_length_b   6.71042192
_cell_length_c   8.14564382
_cell_angle_alpha   94.41016897
_cell_angle_beta   94.71228441
_cell_angle_gamma   94.38469237
_symmetry_Int_Tables_number   1
_chemical_formula_structural   Li2Lu(Te3S)2
_chemical_formula_sum   'Li2 Lu1 Te6 S2'
_cell_volume   367.04858408
_cell_formula_units_Z   1
loop_
 _symmetry_equiv_pos_site_id
 _symmetry_equiv_pos_as_xyz
  1  'x, y, z'
loop_
 _atom_site_type_symbol
 _atom_site_label
 _atom_site_symmetry_multiplicity
 _atom_site_fract_x
 _atom_site_fract_y
 _atom_site_fract_z
 _atom_site_occupancy
  Lu  Lu0  1  0.00000000  0.00000000  0.00000000  1
  Li  Li1  1  0.50000000  0.50000000  0.50000000  1
  Li  Li2  1  0.25000000  0.25000000  0.25000000  1
  Te  Te3  1  0.75000000  0.25000000  0.00000000  1
  Te  Te4  1  0.25000000  0.75000000  0.50000000  1
  Te  Te5  1  0.74738853  0.84766207  0.84371841  1
  Te  Te6  1  0.31175145  0.98811691  0.65547985  1
  Te  Te7  1  0.70009314  0.12861446  0.89137968  1
  Te  Te8  1  0.81132084  0.13332634  0.18523159  1
  S  S9  1  0.16662878  0.70552477  0.62790756  1
  S  S10  1  0.51472312  0.84561335  0.33627584  1
