# generated using pymatgen
data_LiTiAs3
_symmetry_space_group_name_H-M   'P 1'
_cell_length_a   6.38473834
_cell_length_b   6.39860134
_cell_length_c   7.50509277
_cell_angle_alpha   91.19872506
_cell_angle_beta   99.54958525
_cell_angle_gamma   91.23985492
_symmetry_Int_Tables_number   1
_chemical_formula_structural   LiTiAs3
_chemical_formula_sum   'Li2 Ti2 As6'
_cell_volume   302.19544598
_cell_formula_units_Z   2
loop_
 _symmetry_equiv_pos_site_id
 _symmetry_equiv_pos_as_xyz
  1  'x, y, z'
loop_
 _atom_site_type_symbol
 _atom_site_label
 _atom_site_symmetry_multiplicity
 _atom_site_fract_x
 _atom_site_fract_y
 _atom_site_fract_z
 _atom_site_occupancy
  Ti  Ti0  1  0.00000000  0.00000000  0.00000000  1
  Ti  Ti1  1  0.50000000  0.50000000  0.50000000  1
  As  As2  1  0.25000000  0.25000000  0.25000000  1
  As  As3  1  0.75000000  0.25000000  0.00000000  1
  As  As4  1  0.25000000  0.75000000  0.50000000  1
  As  As5  1  0.00774263  0.95934004  0.01556868  1
  As  As6  1  0.82466782  0.74895260  0.63021272  1
  As  As7  1  0.34190823  0.65128592  0.68358451  1
  Li  Li8  1  0.03311586  0.67753163  0.74425235  1
  Li  Li9  1  0.86434188  0.56261691  0.00118445  1
