# generated using pymatgen
data_Li3As6F2
_symmetry_space_group_name_H-M   'P 1'
_cell_length_a   6.66419020
_cell_length_b   6.33908621
_cell_length_c   7.90151733
_cell_angle_alpha   98.54431820
_cell_angle_beta   101.11996053
_cell_angle_gamma   98.05004373
_symmetry_Int_Tables_number   1
_chemical_formula_structural   Li3As6F2
_chemical_formula_sum   'Li3 As6 F2'
_cell_volume   318.96429418
_cell_formula_units_Z   1
loop_
 _symmetry_equiv_pos_site_id
 _symmetry_equiv_pos_as_xyz
  1  'x, y, z'
loop_
 _atom_site_type_symbol
 _atom_site_label
 _atom_site_symmetry_multiplicity
 _atom_site_fract_x
 _atom_site_fract_y
 _atom_site_fract_z
 _atom_site_occupancy
  F  F0  1  0.00000000  0.00000000  0.00000000  1
  F  F1  1  0.33300000  0.66700000  0.25000000  1
  As  As2  1  0.66700000  0.33300000  0.50000000  1
  As  As3  1  0.00000000  0.00000000  0.75000000  1
  As  As4  1  0.88496043  0.85668818  0.51810392  1
  As  As5  1  0.09013540  0.07901998  0.35370998  1
  As  As6  1  0.48464262  0.26548404  0.34227983  1
  As  As7  1  0.38400177  0.93007498  0.12291224  1
  Li  Li8  1  0.69192547  0.20654096  0.86987226  1
  Li  Li9  1  0.06717941  0.25846516  0.20617430  1
  Li  Li10  1  0.18752608  0.81440988  0.12737120  1
