# generated using pymatgen
data_Li2TiP3(SeO)2
_symmetry_space_group_name_H-M   'P 1'
_cell_length_a   8.28021189
_cell_length_b   8.04142378
_cell_length_c   7.04117410
_cell_angle_alpha   90.21245361
_cell_angle_beta   91.01078974
_cell_angle_gamma   90.24289120
_symmetry_Int_Tables_number   1
_chemical_formula_structural   Li2TiP3(SeO)2
_chemical_formula_sum   'Li2 Ti1 P3 Se2 O2'
_cell_volume   468.75389277
_cell_formula_units_Z   1
loop_
 _symmetry_equiv_pos_site_id
 _symmetry_equiv_pos_as_xyz
  1  'x, y, z'
loop_
 _atom_site_type_symbol
 _atom_site_label
 _atom_site_symmetry_multiplicity
 _atom_site_fract_x
 _atom_site_fract_y
 _atom_site_fract_z
 _atom_site_occupancy
  P  P0  1  0.12500000  0.00000000  0.25000000  1
  P  P1  1  0.00000000  0.00000000  0.00000000  1
  P  P2  1  0.37500000  0.00000000  0.25000000  1
  Li  Li3  1  0.25000000  0.25000000  0.25000000  1
  Li  Li4  1  0.00000000  0.25000000  0.12500000  1
  Se  Se5  1  0.37180456  0.32230557  0.86414513  1
  Se  Se6  1  0.62746916  0.02819909  0.03936495  1
  Ti  Ti7  1  0.96468003  0.38503760  0.84272977  1
  O  O8  1  0.01727682  0.82847602  0.83043833  1
  O  O9  1  0.24949667  0.76254892  0.16439059  1
