# generated using pymatgen
data_Li2Mn3Sb4P3
_symmetry_space_group_name_H-M   'P 1'
_cell_length_a   5.63161722
_cell_length_b   6.00766281
_cell_length_c   6.54219641
_cell_angle_alpha   99.17168372
_cell_angle_beta   90.45818763
_cell_angle_gamma   98.98925889
_symmetry_Int_Tables_number   1
_chemical_formula_structural   Li2Mn3Sb4P3
_chemical_formula_sum   'Li2 Mn3 Sb4 P3'
_cell_volume   215.70465238
_cell_formula_units_Z   1
loop_
 _symmetry_equiv_pos_site_id
 _symmetry_equiv_pos_as_xyz
  1  'x, y, z'
loop_
 _atom_site_type_symbol
 _atom_site_label
 _atom_site_symmetry_multiplicity
 _atom_site_fract_x
 _atom_site_fract_y
 _atom_site_fract_z
 _atom_site_occupancy
  Mn  Mn0  1  0.12500000  0.12500000  0.12500000  1
  Mn  Mn1  1  0.50000000  0.50000000  0.50000000  1
  Mn  Mn2  1  0.25000000  0.25000000  0.25000000  1
  Sb  Sb3  1  0.75000000  0.75000000  0.75000000  1
  Sb  Sb4  1  0.88970569  0.99876003  0.37992254  1
  Sb  Sb5  1  0.32256800  0.26717447  0.47019397  1
  Sb  Sb6  1  0.33156040  0.90700758  0.05369491  1
  P  P7  1  0.61186820  0.34743006  0.94878182  1
  P  P8  1  0.22019544  0.73677357  0.03540134  1
  P  P9  1  0.52715131  0.19770768  0.92384821  1
  Li  Li10  1  0.17743570  0.85643018  0.09831045  1
  Li  Li11  1  0.43631514  0.18606575  0.21041725  1
