# generated using pymatgen
data_Li2Mo2P3N
_symmetry_space_group_name_H-M   'P 1'
_cell_length_a   3.70998179
_cell_length_b   3.82062443
_cell_length_c   4.83557746
_cell_angle_alpha   102.20128295
_cell_angle_beta   95.53959306
_cell_angle_gamma   99.26143120
_symmetry_Int_Tables_number   1
_chemical_formula_structural   Li2Mo2P3N
_chemical_formula_sum   'Li2 Mo2 P3 N1'
_cell_volume   65.51179868
_cell_formula_units_Z   1
loop_
 _symmetry_equiv_pos_site_id
 _symmetry_equiv_pos_as_xyz
  1  'x, y, z'
loop_
 _atom_site_type_symbol
 _atom_site_label
 _atom_site_symmetry_multiplicity
 _atom_site_fract_x
 _atom_site_fract_y
 _atom_site_fract_z
 _atom_site_occupancy
  P  P0  1  0.00000000  0.00000000  0.00000000  1
  P  P1  1  0.50000000  0.50000000  0.50000000  1
  P  P2  1  0.25000000  0.25000000  0.25000000  1
  Mo  Mo3  1  0.75000000  0.25000000  0.00000000  1
  Mo  Mo4  1  0.25000000  0.75000000  0.50000000  1
  Li  Li5  1  0.70460348  0.70629321  0.70362426  1
  Li  Li6  1  0.85014951  0.70413522  0.27221355  1
  N  N7  1  0.45346112  0.96157737  0.88353869  1
