# generated using pymatgen
data_Li3Ni2P4(SeI2)2
_symmetry_space_group_name_H-M   'P 1'
_cell_length_a   7.90712098
_cell_length_b   7.77363401
_cell_length_c   7.98331479
_cell_angle_alpha   91.64059032
_cell_angle_beta   90.58001757
_cell_angle_gamma   91.90288616
_symmetry_Int_Tables_number   1
_chemical_formula_structural   Li3Ni2P4(SeI2)2
_chemical_formula_sum   'Li3 Ni2 P4 Se2 I4'
_cell_volume   490.20916398
_cell_formula_units_Z   1
loop_
 _symmetry_equiv_pos_site_id
 _symmetry_equiv_pos_as_xyz
  1  'x, y, z'
loop_
 _atom_site_type_symbol
 _atom_site_label
 _atom_site_symmetry_multiplicity
 _atom_site_fract_x
 _atom_site_fract_y
 _atom_site_fract_z
 _atom_site_occupancy
  P  P0  1  0.00000000  0.00000000  0.00000000  1
  P  P1  1  0.50000000  0.50000000  0.50000000  1
  P  P2  1  0.25000000  0.25000000  0.25000000  1
  P  P3  1  0.75000000  0.25000000  0.00000000  1
  I  I4  1  0.25000000  0.75000000  0.50000000  1
  I  I5  1  0.75252798  0.00106767  0.29329699  1
  I  I6  1  0.57735311  0.85257107  0.67970153  1
  I  I7  1  0.07752500  0.11944421  0.52196954  1
  Li  Li8  1  0.77379519  0.59513777  0.29080181  1
  Li  Li9  1  0.43126255  0.18958433  0.43995937  1
  Li  Li10  1  0.83446810  0.31256228  0.55594716  1
  Se  Se11  1  0.47568724  0.53292609  0.37759712  1
  Se  Se12  1  0.68321481  0.86168673  0.97513197  1
  Ni  Ni13  1  0.97844551  0.69351691  0.34406047  1
  Ni  Ni14  1  0.31783760  0.05353778  0.27165319  1
