# generated using pymatgen
data_Li2Mn2Sb4Mo2P3
_symmetry_space_group_name_H-M   'P 1'
_cell_length_a   4.32179820
_cell_length_b   4.49834625
_cell_length_c   6.00197785
_cell_angle_alpha   104.53789405
_cell_angle_beta   91.95764732
_cell_angle_gamma   104.42022189
_symmetry_Int_Tables_number   1
_chemical_formula_structural   Li2Mn2Sb4Mo2P3
_chemical_formula_sum   'Li2 Mn2 Sb4 Mo2 P3'
_cell_volume   108.80655951
_cell_formula_units_Z   1
loop_
 _symmetry_equiv_pos_site_id
 _symmetry_equiv_pos_as_xyz
  1  'x, y, z'
loop_
 _atom_site_type_symbol
 _atom_site_label
 _atom_site_symmetry_multiplicity
 _atom_site_fract_x
 _atom_site_fract_y
 _atom_site_fract_z
 _atom_site_occupancy
  Mn  Mn0  1  0.00000000  0.00000000  0.00000000  1
  Mn  Mn1  1  0.50000000  0.50000000  0.50000000  1
  Sb  Sb2  1  0.25000000  0.25000000  0.25000000  1
  Sb  Sb3  1  0.75000000  0.25000000  0.00000000  1
  Sb  Sb4  1  0.25000000  0.75000000  0.50000000  1
  Sb  Sb5  1  0.07141767  0.21699255  0.74872245  1
  P  P6  1  0.74485897  0.71589268  0.24354520  1
  P  P7  1  0.73013830  0.61449891  0.94318034  1
  P  P8  1  0.87894179  0.82859449  0.87843683  1
  Mo  Mo9  1  0.92444991  0.09698855  0.75389683  1
  Mo  Mo10  1  0.43829994  0.05624276  0.79731380  1
  Li  Li11  1  0.88118862  0.26457481  0.64645565  1
  Li  Li12  1  0.08045202  0.08666737  0.33987817  1
