# generated using pymatgen
data_Li2MnSb4P3
_symmetry_space_group_name_H-M   'P 1'
_cell_length_a   4.42365336
_cell_length_b   4.66711710
_cell_length_c   6.33011755
_cell_angle_alpha   102.37062505
_cell_angle_beta   94.18932516
_cell_angle_gamma   102.62192946
_symmetry_Int_Tables_number   1
_chemical_formula_structural   Li2MnSb4P3
_chemical_formula_sum   'Li2 Mn1 Sb4 P3'
_cell_volume   123.58149798
_cell_formula_units_Z   1
loop_
 _symmetry_equiv_pos_site_id
 _symmetry_equiv_pos_as_xyz
  1  'x, y, z'
loop_
 _atom_site_type_symbol
 _atom_site_label
 _atom_site_symmetry_multiplicity
 _atom_site_fract_x
 _atom_site_fract_y
 _atom_site_fract_z
 _atom_site_occupancy
  Mn  Mn0  1  0.00000000  0.00000000  0.00000000  1
  Sb  Sb1  1  0.50000000  0.50000000  0.50000000  1
  Sb  Sb2  1  0.50000000  0.50000000  0.00000000  1
  Sb  Sb3  1  0.50000000  0.00000000  0.50000000  1
  Sb  Sb4  1  0.00000000  0.50000000  0.50000000  1
  P  P5  1  0.16394750  0.96760292  0.92950423  1
  P  P6  1  0.25580718  0.23999565  0.14860270  1
  P  P7  1  0.47426651  0.58479325  0.26341580  1
  Li  Li8  1  0.62209860  0.73199490  0.07547425  1
  Li  Li9  1  0.45161094  0.67195856  0.37547999  1
