# generated using pymatgen
data_Li2TiP3(I2O)2
_symmetry_space_group_name_H-M   'P 1'
_cell_length_a   7.90950233
_cell_length_b   7.59644907
_cell_length_c   6.93818395
_cell_angle_alpha   90.34445272
_cell_angle_beta   91.63880142
_cell_angle_gamma   90.39380143
_symmetry_Int_Tables_number   1
_chemical_formula_structural   Li2TiP3(I2O)2
_chemical_formula_sum   'Li2 Ti1 P3 I4 O2'
_cell_volume   416.68636592
_cell_formula_units_Z   1
loop_
 _symmetry_equiv_pos_site_id
 _symmetry_equiv_pos_as_xyz
  1  'x, y, z'
loop_
 _atom_site_type_symbol
 _atom_site_label
 _atom_site_symmetry_multiplicity
 _atom_site_fract_x
 _atom_site_fract_y
 _atom_site_fract_z
 _atom_site_occupancy
  P  P0  1  0.00000000  0.00000000  0.00000000  1
  P  P1  1  0.50000000  0.50000000  0.50000000  1
  P  P2  1  0.50000000  0.50000000  0.00000000  1
  I  I3  1  0.50000000  0.00000000  0.50000000  1
  I  I4  1  0.00000000  0.50000000  0.50000000  1
  I  I5  1  0.87315928  0.66715481  0.94891863  1
  I  I6  1  0.82785555  0.36745500  0.11523762  1
  Li  Li7  1  0.45352340  0.31254678  0.95122798  1
  Li  Li8  1  0.01624191  0.02849576  0.80708888  1
  Ti  Ti9  1  0.08669121  0.60206846  0.61957474  1
  O  O10  1  0.93867645  0.32607633  0.00162988  1
  O  O11  1  0.43678014  0.75163274  0.74777110  1
