# generated using pymatgen
data_Li3Ti2I4O3
_symmetry_space_group_name_H-M   'P 1'
_cell_length_a   8.35834329
_cell_length_b   8.89004801
_cell_length_c   7.35849576
_cell_angle_alpha   90.00000000
_cell_angle_beta   90.00000000
_cell_angle_gamma   90.00000000
_symmetry_Int_Tables_number   1
_chemical_formula_structural   Li3Ti2I4O3
_chemical_formula_sum   'Li3 Ti2 I4 O3'
_cell_volume   546.78092350
_cell_formula_units_Z   1
loop_
 _symmetry_equiv_pos_site_id
 _symmetry_equiv_pos_as_xyz
  1  'x, y, z'
loop_
 _atom_site_type_symbol
 _atom_site_label
 _atom_site_symmetry_multiplicity
 _atom_site_fract_x
 _atom_site_fract_y
 _atom_site_fract_z
 _atom_site_occupancy
  I  I0  1  0.12500000  0.00000000  0.25000000  1
  I  I1  1  0.00000000  0.00000000  0.00000000  1
  I  I2  1  0.37500000  0.00000000  0.25000000  1
  I  I3  1  0.25000000  0.25000000  0.25000000  1
  Li  Li4  1  0.00000000  0.25000000  0.12500000  1
  Li  Li5  1  0.48509415  0.48875294  0.81448639  1
  Li  Li6  1  0.28732086  0.39798305  0.26115993  1
  Ti  Ti7  1  0.94717880  0.80563202  0.23302354  1
  Ti  Ti8  1  0.10380706  0.33318626  0.94009579  1
  O  O9  1  0.37850104  0.50091609  0.25742979  1
  O  O10  1  0.80204528  0.11948861  0.28016379  1
  O  O11  1  0.39366812  0.55535528  0.17867915  1
