# generated using pymatgen
data_Li3Ni2Te6(IO)4
_symmetry_space_group_name_H-M   'P 1'
_cell_length_a   8.73805233
_cell_length_b   8.74374891
_cell_length_c   7.55772186
_cell_angle_alpha   90.00000000
_cell_angle_beta   90.00000000
_cell_angle_gamma   90.00000000
_symmetry_Int_Tables_number   1
_chemical_formula_structural   Li3Ni2Te6(IO)4
_chemical_formula_sum   'Li3 Ni2 Te6 I4 O4'
_cell_volume   577.43515940
_cell_formula_units_Z   1
loop_
 _symmetry_equiv_pos_site_id
 _symmetry_equiv_pos_as_xyz
  1  'x, y, z'
loop_
 _atom_site_type_symbol
 _atom_site_label
 _atom_site_symmetry_multiplicity
 _atom_site_fract_x
 _atom_site_fract_y
 _atom_site_fract_z
 _atom_site_occupancy
  I  I0  1  0.00000000  0.00000000  0.00000000  1
  I  I1  1  0.50000000  0.50000000  0.50000000  1
  I  I2  1  0.50000000  0.50000000  0.00000000  1
  I  I3  1  0.50000000  0.00000000  0.50000000  1
  Li  Li4  1  0.00000000  0.50000000  0.50000000  1
  Li  Li5  1  0.16863951  0.12816458  0.29094933  1
  Li  Li6  1  0.16615627  0.34449682  0.08190637  1
  Ni  Ni7  1  0.26766936  0.43656531  0.30049577  1
  Ni  Ni8  1  0.23265724  0.83993673  0.22568265  1
  Te  Te9  1  0.55782207  0.88107674  0.59053576  1
  Te  Te10  1  0.17639180  0.25958721  0.81047627  1
  Te  Te11  1  0.30617319  0.45627882  0.85999668  1
  Te  Te12  1  0.28101430  0.50673193  0.75260078  1
  Te  Te13  1  0.40678980  0.93255911  0.74852495  1
  Te  Te14  1  0.91481407  0.36555838  0.69039118  1
  O  O15  1  0.21167663  0.07273706  0.33410695  1
  O  O16  1  0.20658110  0.85543786  0.04794610  1
  O  O17  1  0.50693838  0.78845130  0.02285075  1
  O  O18  1  0.83934535  0.54486966  0.68294269  1
