# generated using pymatgen
data_Li2MnSb4P3
_symmetry_space_group_name_H-M   'P 1'
_cell_length_a   7.33541153
_cell_length_b   7.55798210
_cell_length_c   7.66979762
_cell_angle_alpha   91.23919512
_cell_angle_beta   91.46794112
_cell_angle_gamma   91.41035704
_symmetry_Int_Tables_number   1
_chemical_formula_structural   Li2MnSb4P3
_chemical_formula_sum   'Li2 Mn1 Sb4 P3'
_cell_volume   424.84682557
_cell_formula_units_Z   1
loop_
 _symmetry_equiv_pos_site_id
 _symmetry_equiv_pos_as_xyz
  1  'x, y, z'
loop_
 _atom_site_type_symbol
 _atom_site_label
 _atom_site_symmetry_multiplicity
 _atom_site_fract_x
 _atom_site_fract_y
 _atom_site_fract_z
 _atom_site_occupancy
  Mn  Mn0  1  0.12500000  0.00000000  0.25000000  1
  Sb  Sb1  1  0.00000000  0.00000000  0.00000000  1
  Sb  Sb2  1  0.37500000  0.00000000  0.25000000  1
  Sb  Sb3  1  0.25000000  0.25000000  0.25000000  1
  Sb  Sb4  1  0.00000000  0.25000000  0.12500000  1
  P  P5  1  0.83320515  0.73944150  0.19715870  1
  P  P6  1  0.85428614  0.16577311  0.20735542  1
  P  P7  1  0.57275347  0.43393283  0.99932719  1
  Li  Li8  1  0.35920467  0.30364632  0.79238940  1
  Li  Li9  1  0.09716823  0.86185076  0.15778573  1
