# generated using pymatgen
data_Li4Ti2S2O
_symmetry_space_group_name_H-M   'P 1'
_cell_length_a   5.36711410
_cell_length_b   4.89058372
_cell_length_c   6.78050469
_cell_angle_alpha   97.89548418
_cell_angle_beta   99.26921356
_cell_angle_gamma   97.14378371
_symmetry_Int_Tables_number   1
_chemical_formula_structural   Li4Ti2S2O
_chemical_formula_sum   'Li4 Ti2 S2 O1'
_cell_volume   172.02338189
_cell_formula_units_Z   1
loop_
 _symmetry_equiv_pos_site_id
 _symmetry_equiv_pos_as_xyz
  1  'x, y, z'
loop_
 _atom_site_type_symbol
 _atom_site_label
 _atom_site_symmetry_multiplicity
 _atom_site_fract_x
 _atom_site_fract_y
 _atom_site_fract_z
 _atom_site_occupancy
  Li  Li0  1  0.00000000  0.00000000  0.00000000  1
  Li  Li1  1  0.50000000  0.50000000  0.50000000  1
  Li  Li2  1  0.25000000  0.25000000  0.25000000  1
  Li  Li3  1  0.75000000  0.25000000  0.00000000  1
  S  S4  1  0.25000000  0.75000000  0.50000000  1
  S  S5  1  0.23313493  0.32998379  0.85975854  1
  Ti  Ti6  1  0.16263832  0.84676667  0.61259097  1
  Ti  Ti7  1  0.53397197  0.73207478  0.71025150  1
  O  O8  1  0.10247523  0.91176856  0.56152208  1
