# generated using pymatgen
data_Li3TiP6(ClF)2
_symmetry_space_group_name_H-M   'P 1'
_cell_length_a   7.54613348
_cell_length_b   7.22990285
_cell_length_c   7.55402467
_cell_angle_alpha   94.72363236
_cell_angle_beta   96.42756108
_cell_angle_gamma   94.46667180
_symmetry_Int_Tables_number   1
_chemical_formula_structural   Li3TiP6(ClF)2
_chemical_formula_sum   'Li3 Ti1 P6 Cl2 F2'
_cell_volume   406.56793683
_cell_formula_units_Z   1
loop_
 _symmetry_equiv_pos_site_id
 _symmetry_equiv_pos_as_xyz
  1  'x, y, z'
loop_
 _atom_site_type_symbol
 _atom_site_label
 _atom_site_symmetry_multiplicity
 _atom_site_fract_x
 _atom_site_fract_y
 _atom_site_fract_z
 _atom_site_occupancy
  P  P0  1  0.12500000  0.00000000  0.25000000  1
  P  P1  1  0.00000000  0.00000000  0.00000000  1
  P  P2  1  0.37500000  0.00000000  0.25000000  1
  P  P3  1  0.25000000  0.25000000  0.25000000  1
  P  P4  1  0.00000000  0.25000000  0.12500000  1
  P  P5  1  0.52773994  0.74290477  0.63109724  1
  Li  Li6  1  0.56139941  0.51279998  0.57004832  1
  Li  Li7  1  0.46111334  0.37296125  0.94880135  1
  Li  Li8  1  0.17486808  0.22943306  0.80709651  1
  F  F9  1  0.80809640  0.50820075  0.02865172  1
  F  F10  1  0.91906289  0.02795223  0.87009758  1
  Cl  Cl11  1  0.76065814  0.60205469  0.30777916  1
  Cl  Cl12  1  0.51607160  0.60644988  0.54171516  1
  Ti  Ti13  1  0.96457108  0.63301639  0.01771545  1
