# generated using pymatgen
data_LiMnSb2PN
_symmetry_space_group_name_H-M   'P 1'
_cell_length_a   6.85134352
_cell_length_b   7.50430951
_cell_length_c   7.68907448
_cell_angle_alpha   93.17549858
_cell_angle_beta   93.25796779
_cell_angle_gamma   92.39343350
_symmetry_Int_Tables_number   1
_chemical_formula_structural   LiMnSb2PN
_chemical_formula_sum   'Li2 Mn2 Sb4 P2 N2'
_cell_volume   393.68560946
_cell_formula_units_Z   2
loop_
 _symmetry_equiv_pos_site_id
 _symmetry_equiv_pos_as_xyz
  1  'x, y, z'
loop_
 _atom_site_type_symbol
 _atom_site_label
 _atom_site_symmetry_multiplicity
 _atom_site_fract_x
 _atom_site_fract_y
 _atom_site_fract_z
 _atom_site_occupancy
  N  N0  1  0.00000000  0.00000000  0.00000000  1
  N  N1  1  0.50000000  0.50000000  0.50000000  1
  Mn  Mn2  1  0.25000000  0.25000000  0.25000000  1
  Mn  Mn3  1  0.75000000  0.25000000  0.00000000  1
  Sb  Sb4  1  0.25000000  0.75000000  0.50000000  1
  Sb  Sb5  1  0.63975046  0.63790687  0.00579937  1
  Sb  Sb6  1  0.33157705  0.58525461  0.47031542  1
  Sb  Sb7  1  0.32841204  0.56649890  0.76211827  1
  P  P8  1  0.82998073  0.93181070  0.48446918  1
  P  P9  1  0.54910031  0.10726628  0.32458803  1
  Li  Li10  1  0.64337706  0.17557476  0.86770410  1
  Li  Li11  1  0.20279391  0.81088746  0.13510498  1
