# generated using pymatgen
data_LiSb4Mo2P3
_symmetry_space_group_name_H-M   'P 1'
_cell_length_a   6.73544172
_cell_length_b   6.71469250
_cell_length_c   7.01428895
_cell_angle_alpha   92.42760280
_cell_angle_beta   89.91057123
_cell_angle_gamma   92.13410527
_symmetry_Int_Tables_number   1
_chemical_formula_structural   LiSb4Mo2P3
_chemical_formula_sum   'Li1 Sb4 Mo2 P3'
_cell_volume   316.72664322
_cell_formula_units_Z   1
loop_
 _symmetry_equiv_pos_site_id
 _symmetry_equiv_pos_as_xyz
  1  'x, y, z'
loop_
 _atom_site_type_symbol
 _atom_site_label
 _atom_site_symmetry_multiplicity
 _atom_site_fract_x
 _atom_site_fract_y
 _atom_site_fract_z
 _atom_site_occupancy
  Sb  Sb0  1  0.12500000  0.12500000  0.12500000  1
  Sb  Sb1  1  0.50000000  0.50000000  0.50000000  1
  Sb  Sb2  1  0.25000000  0.25000000  0.25000000  1
  Sb  Sb3  1  0.75000000  0.75000000  0.75000000  1
  P  P4  1  0.05789476  0.69436524  0.57455166  1
  P  P5  1  0.62809135  0.24436073  0.59891518  1
  P  P6  1  0.14034374  0.21772147  0.19983454  1
  Mo  Mo7  1  0.83557016  0.96020944  0.31060807  1
  Mo  Mo8  1  0.57184918  0.61982984  0.72159820  1
  Li  Li9  1  0.92312240  0.66795232  0.78996421  1
