# generated using pymatgen
data_Li3P8(OF)3
_symmetry_space_group_name_H-M   'P 1'
_cell_length_a   7.90009383
_cell_length_b   8.13128806
_cell_length_c   8.54434953
_cell_angle_alpha   90.17196251
_cell_angle_beta   91.20474232
_cell_angle_gamma   90.18347187
_symmetry_Int_Tables_number   1
_chemical_formula_structural   Li3P8(OF)3
_chemical_formula_sum   'Li3 P8 O3 F3'
_cell_volume   548.74467304
_cell_formula_units_Z   1
loop_
 _symmetry_equiv_pos_site_id
 _symmetry_equiv_pos_as_xyz
  1  'x, y, z'
loop_
 _atom_site_type_symbol
 _atom_site_label
 _atom_site_symmetry_multiplicity
 _atom_site_fract_x
 _atom_site_fract_y
 _atom_site_fract_z
 _atom_site_occupancy
  P  P0  1  0.12500000  0.12500000  0.12500000  1
  P  P1  1  0.50000000  0.50000000  0.50000000  1
  P  P2  1  0.25000000  0.25000000  0.25000000  1
  P  P3  1  0.75000000  0.75000000  0.75000000  1
  P  P4  1  0.31550425  0.30202931  0.19835885  1
  P  P5  1  0.55749668  0.04411988  0.85552070  1
  P  P6  1  0.78754125  0.67002802  0.18808856  1
  P  P7  1  0.31562800  0.70744636  0.39515231  1
  Li  Li8  1  0.61910632  0.44613455  0.54284813  1
  Li  Li9  1  0.51443325  0.43082992  0.97068645  1
  Li  Li10  1  0.03494933  0.77741503  0.81751030  1
  F  F11  1  0.28677360  0.66910104  0.95149862  1
  F  F12  1  0.08078779  0.82550934  0.79519340  1
  F  F13  1  0.02856678  0.94108756  0.92710179  1
  O  O14  1  0.40097568  0.91840690  0.41080879  1
  O  O15  1  0.16817246  0.41149711  0.87619897  1
  O  O16  1  0.40644321  0.08394494  0.50844494  1
