# generated using pymatgen
data_Li2SbMo2P3
_symmetry_space_group_name_H-M   'P 1'
_cell_length_a   4.47322235
_cell_length_b   4.50962303
_cell_length_c   6.18130864
_cell_angle_alpha   101.07931635
_cell_angle_beta   93.47226722
_cell_angle_gamma   101.00480249
_symmetry_Int_Tables_number   1
_chemical_formula_structural   Li2SbMo2P3
_chemical_formula_sum   'Li2 Sb1 Mo2 P3'
_cell_volume   119.50486178
_cell_formula_units_Z   1
loop_
 _symmetry_equiv_pos_site_id
 _symmetry_equiv_pos_as_xyz
  1  'x, y, z'
loop_
 _atom_site_type_symbol
 _atom_site_label
 _atom_site_symmetry_multiplicity
 _atom_site_fract_x
 _atom_site_fract_y
 _atom_site_fract_z
 _atom_site_occupancy
  Sb  Sb0  1  0.12500000  0.00000000  0.25000000  1
  P  P1  1  0.00000000  0.00000000  0.00000000  1
  P  P2  1  0.37500000  0.00000000  0.25000000  1
  P  P3  1  0.25000000  0.25000000  0.25000000  1
  Mo  Mo4  1  0.00000000  0.25000000  0.12500000  1
  Mo  Mo5  1  0.18430043  0.10379889  0.78000176  1
  Li  Li6  1  0.78014241  0.84321235  0.26006817  1
  Li  Li7  1  0.56981547  0.22970679  0.18523164  1
