# generated using pymatgen
data_Li4Ti2Cu2P5O
_symmetry_space_group_name_H-M   'P 1'
_cell_length_a   5.57547628
_cell_length_b   5.27473137
_cell_length_c   7.09050884
_cell_angle_alpha   97.20035973
_cell_angle_beta   98.57976887
_cell_angle_gamma   96.52326557
_symmetry_Int_Tables_number   1
_chemical_formula_structural   Li4Ti2Cu2P5O
_chemical_formula_sum   'Li4 Ti2 Cu2 P5 O1'
_cell_volume   202.69716663
_cell_formula_units_Z   1
loop_
 _symmetry_equiv_pos_site_id
 _symmetry_equiv_pos_as_xyz
  1  'x, y, z'
loop_
 _atom_site_type_symbol
 _atom_site_label
 _atom_site_symmetry_multiplicity
 _atom_site_fract_x
 _atom_site_fract_y
 _atom_site_fract_z
 _atom_site_occupancy
  Ti  Ti0  1  0.00000000  0.00000000  0.00000000  1
  Ti  Ti1  1  0.50000000  0.50000000  0.50000000  1
  P  P2  1  0.25000000  0.25000000  0.25000000  1
  P  P3  1  0.75000000  0.25000000  0.00000000  1
  P  P4  1  0.25000000  0.75000000  0.50000000  1
  P  P5  1  0.27310221  0.53213128  0.16028777  1
  P  P6  1  0.10274834  0.02799227  0.94720140  1
  O  O7  1  0.35439522  0.86197262  0.62887378  1
  Li  Li8  1  0.80282741  0.27677565  0.80154065  1
  Li  Li9  1  0.45160915  0.56722757  0.12074220  1
  Li  Li10  1  0.60222100  0.49780997  0.64614335  1
  Li  Li11  1  0.11823717  0.12632007  0.61274585  1
  Cu  Cu12  1  0.92475355  0.26707665  0.49021813  1
  Cu  Cu13  1  0.62623578  0.30902140  0.61352620  1
