# generated using pymatgen
data_Li2Ni3P3W
_symmetry_space_group_name_H-M   'P 1'
_cell_length_a   5.25935361
_cell_length_b   5.23944519
_cell_length_c   6.16705713
_cell_angle_alpha   97.11869457
_cell_angle_beta   93.50794183
_cell_angle_gamma   95.57753624
_symmetry_Int_Tables_number   1
_chemical_formula_structural   Li2Ni3P3W
_chemical_formula_sum   'Li2 Ni3 P3 W1'
_cell_volume   167.36963145
_cell_formula_units_Z   1
loop_
 _symmetry_equiv_pos_site_id
 _symmetry_equiv_pos_as_xyz
  1  'x, y, z'
loop_
 _atom_site_type_symbol
 _atom_site_label
 _atom_site_symmetry_multiplicity
 _atom_site_fract_x
 _atom_site_fract_y
 _atom_site_fract_z
 _atom_site_occupancy
  W  W0  1  0.00000000  0.00000000  0.00000000  1
  P  P1  1  0.50000000  0.50000000  0.50000000  1
  P  P2  1  0.25000000  0.25000000  0.25000000  1
  P  P3  1  0.75000000  0.25000000  0.00000000  1
  Li  Li4  1  0.25000000  0.75000000  0.50000000  1
  Li  Li5  1  0.70145862  0.46835476  0.35778245  1
  Ni  Ni6  1  0.43979978  0.20235834  0.03928747  1
  Ni  Ni7  1  0.38299787  0.11039038  0.37136068  1
  Ni  Ni8  1  0.14696070  0.18012369  0.62903598  1
