# generated using pymatgen
data_LiSb4P3
_symmetry_space_group_name_H-M   'P 1'
_cell_length_a   6.09737633
_cell_length_b   6.41259569
_cell_length_c   6.71733035
_cell_angle_alpha   93.56242821
_cell_angle_beta   89.00656796
_cell_angle_gamma   92.94888741
_symmetry_Int_Tables_number   1
_chemical_formula_structural   LiSb4P3
_chemical_formula_sum   'Li1 Sb4 P3'
_cell_volume   261.76669353
_cell_formula_units_Z   1
loop_
 _symmetry_equiv_pos_site_id
 _symmetry_equiv_pos_as_xyz
  1  'x, y, z'
loop_
 _atom_site_type_symbol
 _atom_site_label
 _atom_site_symmetry_multiplicity
 _atom_site_fract_x
 _atom_site_fract_y
 _atom_site_fract_z
 _atom_site_occupancy
  Sb  Sb0  1  0.12500000  0.12500000  0.12500000  1
  Sb  Sb1  1  0.50000000  0.50000000  0.50000000  1
  Sb  Sb2  1  0.25000000  0.25000000  0.25000000  1
  Sb  Sb3  1  0.75000000  0.75000000  0.75000000  1
  P  P4  1  0.15207965  0.27390541  0.71788482  1
  P  P5  1  0.11206276  0.64556256  0.55338519  1
  P  P6  1  0.81363895  0.47317956  0.78775446  1
  Li  Li7  1  0.10011949  0.90429651  0.31346515  1
