# generated using pymatgen
data_Li4Ti2VP3S2
_symmetry_space_group_name_H-M   'P 1'
_cell_length_a   4.59692311
_cell_length_b   4.07849283
_cell_length_c   6.78869363
_cell_angle_alpha   100.21715560
_cell_angle_beta   101.36961533
_cell_angle_gamma   99.92400489
_symmetry_Int_Tables_number   1
_chemical_formula_structural   Li4Ti2VP3S2
_chemical_formula_sum   'Li4 Ti2 V1 P3 S2'
_cell_volume   119.93329295
_cell_formula_units_Z   1
loop_
 _symmetry_equiv_pos_site_id
 _symmetry_equiv_pos_as_xyz
  1  'x, y, z'
loop_
 _atom_site_type_symbol
 _atom_site_label
 _atom_site_symmetry_multiplicity
 _atom_site_fract_x
 _atom_site_fract_y
 _atom_site_fract_z
 _atom_site_occupancy
  S  S0  1  0.12500000  0.00000000  0.25000000  1
  S  S1  1  0.00000000  0.00000000  0.00000000  1
  Ti  Ti2  1  0.37500000  0.00000000  0.25000000  1
  Ti  Ti3  1  0.25000000  0.25000000  0.25000000  1
  P  P4  1  0.00000000  0.25000000  0.12500000  1
  P  P5  1  0.81118491  0.99882545  0.61465196  1
  P  P6  1  0.66473333  0.06421698  0.95875274  1
  V  V7  1  0.35601312  0.66582893  0.35953446  1
  Li  Li8  1  0.33187718  0.61062811  0.75283640  1
  Li  Li9  1  0.71349569  0.94013249  0.23694951  1
  Li  Li10  1  0.75342124  0.44123002  0.05211540  1
  Li  Li11  1  0.68069051  0.11468577  0.83795391  1
