# generated using pymatgen
data_Li2MnSb4P3
_symmetry_space_group_name_H-M   'P 1'
_cell_length_a   4.71375301
_cell_length_b   5.03706365
_cell_length_c   6.48702696
_cell_angle_alpha   98.48180308
_cell_angle_beta   96.71885838
_cell_angle_gamma   98.37996210
_symmetry_Int_Tables_number   1
_chemical_formula_structural   Li2MnSb4P3
_chemical_formula_sum   'Li2 Mn1 Sb4 P3'
_cell_volume   149.19626187
_cell_formula_units_Z   1
loop_
 _symmetry_equiv_pos_site_id
 _symmetry_equiv_pos_as_xyz
  1  'x, y, z'
loop_
 _atom_site_type_symbol
 _atom_site_label
 _atom_site_symmetry_multiplicity
 _atom_site_fract_x
 _atom_site_fract_y
 _atom_site_fract_z
 _atom_site_occupancy
  Mn  Mn0  1  0.00000000  0.00000000  0.00000000  1
  Sb  Sb1  1  0.33300000  0.66700000  0.25000000  1
  Sb  Sb2  1  0.66700000  0.33300000  0.50000000  1
  Sb  Sb3  1  0.00000000  0.00000000  0.75000000  1
  Sb  Sb4  1  0.84206413  0.66019363  0.97698260  1
  P  P5  1  0.91462556  0.38002663  0.19874656  1
  P  P6  1  0.76137286  0.26389594  0.71856717  1
  P  P7  1  0.13827150  0.97452592  0.11973002  1
  Li  Li8  1  0.24067163  0.42761609  0.67232885  1
  Li  Li9  1  0.92478557  0.72603592  0.15479448  1
