# generated using pymatgen
data_Li2LuTiP6N5
_symmetry_space_group_name_H-M   'P 1'
_cell_length_a   8.13180812
_cell_length_b   7.86292787
_cell_length_c   7.99887785
_cell_angle_alpha   91.43589892
_cell_angle_beta   90.50765056
_cell_angle_gamma   91.66546892
_symmetry_Int_Tables_number   1
_chemical_formula_structural   Li2LuTiP6N5
_chemical_formula_sum   'Li2 Lu1 Ti1 P6 N5'
_cell_volume   511.04669701
_cell_formula_units_Z   1
loop_
 _symmetry_equiv_pos_site_id
 _symmetry_equiv_pos_as_xyz
  1  'x, y, z'
loop_
 _atom_site_type_symbol
 _atom_site_label
 _atom_site_symmetry_multiplicity
 _atom_site_fract_x
 _atom_site_fract_y
 _atom_site_fract_z
 _atom_site_occupancy
  P  P0  1  0.12500000  0.00000000  0.25000000  1
  P  P1  1  0.00000000  0.00000000  0.00000000  1
  P  P2  1  0.37500000  0.00000000  0.25000000  1
  P  P3  1  0.25000000  0.25000000  0.25000000  1
  P  P4  1  0.00000000  0.25000000  0.12500000  1
  P  P5  1  0.57454082  0.86288801  0.92107488  1
  Lu  Lu6  1  0.87137041  0.77103656  0.15467915  1
  Li  Li7  1  0.93098917  0.68849918  0.17514658  1
  Li  Li8  1  0.11142486  0.42141250  0.03518896  1
  Ti  Ti9  1  0.71340016  0.41398911  0.71919436  1
  N  N10  1  0.81166590  0.69169099  0.44317737  1
  N  N11  1  0.36818548  0.86734038  0.54796188  1
  N  N12  1  0.66392674  0.29562335  0.52277786  1
  N  N13  1  0.05796789  0.71475160  0.61126636  1
  N  N14  1  0.35654567  0.97476823  0.87153039  1
