# generated using pymatgen
data_LiMn2Sb4Mo2P3
_symmetry_space_group_name_H-M   'P 1'
_cell_length_a   5.04451569
_cell_length_b   5.34502637
_cell_length_c   6.64310262
_cell_angle_alpha   97.05159909
_cell_angle_beta   94.76693671
_cell_angle_gamma   97.38987080
_symmetry_Int_Tables_number   1
_chemical_formula_structural   LiMn2Sb4Mo2P3
_chemical_formula_sum   'Li1 Mn2 Sb4 Mo2 P3'
_cell_volume   175.39487358
_cell_formula_units_Z   1
loop_
 _symmetry_equiv_pos_site_id
 _symmetry_equiv_pos_as_xyz
  1  'x, y, z'
loop_
 _atom_site_type_symbol
 _atom_site_label
 _atom_site_symmetry_multiplicity
 _atom_site_fract_x
 _atom_site_fract_y
 _atom_site_fract_z
 _atom_site_occupancy
  Mn  Mn0  1  0.00000000  0.00000000  0.00000000  1
  Mn  Mn1  1  0.50000000  0.50000000  0.50000000  1
  Sb  Sb2  1  0.50000000  0.50000000  0.00000000  1
  Sb  Sb3  1  0.50000000  0.00000000  0.50000000  1
  Sb  Sb4  1  0.00000000  0.50000000  0.50000000  1
  Sb  Sb5  1  0.60219614  0.25697370  0.72040399  1
  P  P6  1  0.09707354  0.13019620  0.13425985  1
  P  P7  1  0.14758849  0.97607911  0.44370141  1
  P  P8  1  0.87313027  0.18859987  0.48041591  1
  Mo  Mo9  1  0.98285975  0.33730293  0.50852193  1
  Mo  Mo10  1  0.13143014  0.90559017  0.65212358  1
  Li  Li11  1  0.20635713  0.68102255  0.46144545  1
