# generated using pymatgen
data_Li5ZrCu2P5Cl2
_symmetry_space_group_name_H-M   'P 1'
_cell_length_a   5.42793755
_cell_length_b   5.10953840
_cell_length_c   6.90209097
_cell_angle_alpha   103.22633389
_cell_angle_beta   107.40463166
_cell_angle_gamma   102.47234332
_symmetry_Int_Tables_number   1
_chemical_formula_structural   Li5ZrCu2P5Cl2
_chemical_formula_sum   'Li5 Zr1 Cu2 P5 Cl2'
_cell_volume   169.27549951
_cell_formula_units_Z   1
loop_
 _symmetry_equiv_pos_site_id
 _symmetry_equiv_pos_as_xyz
  1  'x, y, z'
loop_
 _atom_site_type_symbol
 _atom_site_label
 _atom_site_symmetry_multiplicity
 _atom_site_fract_x
 _atom_site_fract_y
 _atom_site_fract_z
 _atom_site_occupancy
  P  P0  1  0.00000000  0.00000000  0.00000000  1
  P  P1  1  0.50000000  0.50000000  0.50000000  1
  P  P2  1  0.50000000  0.50000000  0.00000000  1
  P  P3  1  0.50000000  0.00000000  0.50000000  1
  P  P4  1  0.00000000  0.50000000  0.50000000  1
  Li  Li5  1  0.02627752  0.83086744  0.77672557  1
  Li  Li6  1  0.54866954  0.07906148  0.77034667  1
  Li  Li7  1  0.56598136  0.67195764  0.95779249  1
  Li  Li8  1  0.50706418  0.91933103  0.86900985  1
  Li  Li9  1  0.57453524  0.08358211  0.27374045  1
  Cu  Cu10  1  0.95392694  0.72469288  0.36829175  1
  Cu  Cu11  1  0.48150596  0.31481351  0.00531011  1
  Cl  Cl12  1  0.73393880  0.27062386  0.38529540  1
  Cl  Cl13  1  0.74035385  0.18055137  0.27150932  1
  Zr  Zr14  1  0.47494315  0.71446587  0.73629983  1
