# generated using pymatgen
data_LiTi2As6O7F3
_symmetry_space_group_name_H-M   'P 1'
_cell_length_a   5.43652471
_cell_length_b   5.39685903
_cell_length_c   6.95249774
_cell_angle_alpha   91.76746287
_cell_angle_beta   102.38256735
_cell_angle_gamma   91.88575831
_symmetry_Int_Tables_number   1
_chemical_formula_structural   LiTi2As6O7F3
_chemical_formula_sum   'Li1 Ti2 As6 O7 F3'
_cell_volume   198.98410284
_cell_formula_units_Z   1
loop_
 _symmetry_equiv_pos_site_id
 _symmetry_equiv_pos_as_xyz
  1  'x, y, z'
loop_
 _atom_site_type_symbol
 _atom_site_label
 _atom_site_symmetry_multiplicity
 _atom_site_fract_x
 _atom_site_fract_y
 _atom_site_fract_z
 _atom_site_occupancy
  F  F0  1  0.12500000  0.00000000  0.25000000  1
  F  F1  1  0.00000000  0.00000000  0.00000000  1
  F  F2  1  0.37500000  0.00000000  0.25000000  1
  Ti  Ti3  1  0.25000000  0.25000000  0.25000000  1
  Ti  Ti4  1  0.00000000  0.25000000  0.12500000  1
  O  O5  1  0.20929361  0.90177115  0.50405829  1
  O  O6  1  0.69747141  0.50940816  0.83039213  1
  O  O7  1  0.28117630  0.31418094  0.28601461  1
  O  O8  1  0.14974714  0.67698643  0.24476474  1
  O  O9  1  0.64357472  0.51850082  0.24900882  1
  O  O10  1  0.86667255  0.46085314  0.39549064  1
  O  O11  1  0.14052258  0.20038176  0.38440929  1
  As  As12  1  0.56313380  0.62402984  0.07584630  1
  As  As13  1  0.66234384  0.47132394  0.24752578  1
  As  As14  1  0.30308443  0.03936225  0.61275671  1
  As  As15  1  0.34101383  0.10565398  0.41313170  1
  As  As16  1  0.95166760  0.34879551  0.51251081  1
  As  As17  1  0.63232009  0.68916209  0.53660496  1
  Li  Li18  1  0.95301927  0.35097601  0.33055486  1
