# generated using pymatgen
data_Li2MnSb4P2N
_symmetry_space_group_name_H-M   'P 1'
_cell_length_a   4.80429046
_cell_length_b   5.00045113
_cell_length_c   6.34604157
_cell_angle_alpha   101.79445298
_cell_angle_beta   94.82013120
_cell_angle_gamma   100.67391376
_symmetry_Int_Tables_number   1
_chemical_formula_structural   Li2MnSb4P2N
_chemical_formula_sum   'Li2 Mn1 Sb4 P2 N1'
_cell_volume   145.47191026
_cell_formula_units_Z   1
loop_
 _symmetry_equiv_pos_site_id
 _symmetry_equiv_pos_as_xyz
  1  'x, y, z'
loop_
 _atom_site_type_symbol
 _atom_site_label
 _atom_site_symmetry_multiplicity
 _atom_site_fract_x
 _atom_site_fract_y
 _atom_site_fract_z
 _atom_site_occupancy
  N  N0  1  0.00000000  0.00000000  0.00000000  1
  Mn  Mn1  1  0.50000000  0.50000000  0.50000000  1
  Sb  Sb2  1  0.25000000  0.25000000  0.25000000  1
  Sb  Sb3  1  0.75000000  0.25000000  0.00000000  1
  Sb  Sb4  1  0.25000000  0.75000000  0.50000000  1
  Sb  Sb5  1  0.20069199  0.06116319  0.31185336  1
  P  P6  1  0.02717783  0.12808763  0.22850428  1
  P  P7  1  0.76116028  0.51064935  0.26669751  1
  Li  Li8  1  0.74706817  0.59021352  0.89515767  1
  Li  Li9  1  0.89352979  0.33683446  0.96424615  1
