# generated using pymatgen
data_Li2MnSb4P3
_symmetry_space_group_name_H-M   'P 1'
_cell_length_a   4.66815156
_cell_length_b   5.03308992
_cell_length_c   7.04534712
_cell_angle_alpha   97.64949574
_cell_angle_beta   99.06153450
_cell_angle_gamma   98.70607063
_symmetry_Int_Tables_number   1
_chemical_formula_structural   Li2MnSb4P3
_chemical_formula_sum   'Li2 Mn1 Sb4 P3'
_cell_volume   159.48030651
_cell_formula_units_Z   1
loop_
 _symmetry_equiv_pos_site_id
 _symmetry_equiv_pos_as_xyz
  1  'x, y, z'
loop_
 _atom_site_type_symbol
 _atom_site_label
 _atom_site_symmetry_multiplicity
 _atom_site_fract_x
 _atom_site_fract_y
 _atom_site_fract_z
 _atom_site_occupancy
  Mn  Mn0  1  0.00000000  0.00000000  0.00000000  1
  Sb  Sb1  1  0.50000000  0.50000000  0.50000000  1
  Sb  Sb2  1  0.50000000  0.50000000  0.00000000  1
  Sb  Sb3  1  0.50000000  0.00000000  0.50000000  1
  Sb  Sb4  1  0.00000000  0.50000000  0.50000000  1
  P  P5  1  0.36145376  0.60983953  0.87505721  1
  P  P6  1  0.12279312  0.99227506  0.13432523  1
  P  P7  1  0.83947504  0.21092666  0.28477829  1
  Li  Li8  1  0.26326888  0.12039510  0.81965378  1
  Li  Li9  1  0.00937583  0.85182534  0.88716882  1
