# generated using pymatgen
data_Li2LuTi2P4N5
_symmetry_space_group_name_H-M   'P 1'
_cell_length_a   6.22673903
_cell_length_b   5.96292177
_cell_length_c   7.91747146
_cell_angle_alpha   92.75040717
_cell_angle_beta   95.50853145
_cell_angle_gamma   93.17302958
_symmetry_Int_Tables_number   1
_chemical_formula_structural   Li2LuTi2P4N5
_chemical_formula_sum   'Li2 Lu1 Ti2 P4 N5'
_cell_volume   291.74559312
_cell_formula_units_Z   1
loop_
 _symmetry_equiv_pos_site_id
 _symmetry_equiv_pos_as_xyz
  1  'x, y, z'
loop_
 _atom_site_type_symbol
 _atom_site_label
 _atom_site_symmetry_multiplicity
 _atom_site_fract_x
 _atom_site_fract_y
 _atom_site_fract_z
 _atom_site_occupancy
  P  P0  1  0.00000000  0.00000000  0.00000000  1
  P  P1  1  0.50000000  0.50000000  0.50000000  1
  P  P2  1  0.25000000  0.25000000  0.25000000  1
  P  P3  1  0.75000000  0.25000000  0.00000000  1
  Lu  Lu4  1  0.25000000  0.75000000  0.50000000  1
  Li  Li5  1  0.70263060  0.39967254  0.98984979  1
  Li  Li6  1  0.04084677  0.00978486  0.24260204  1
  Ti  Ti7  1  0.19069724  0.49810669  0.10923358  1
  Ti  Ti8  1  0.14015462  0.61163970  0.53680491  1
  N  N9  1  0.92870824  0.96184374  0.00221287  1
  N  N10  1  0.06444572  0.33317593  0.02290455  1
  N  N11  1  0.22008768  0.18912768  0.44971421  1
  N  N12  1  0.42022611  0.18321708  0.99034484  1
  N  N13  1  0.73486992  0.43329137  0.56368739  1
