# generated using pymatgen
data_Li3Ti2Cu2P6F2
_symmetry_space_group_name_H-M   'P 1'
_cell_length_a   6.94282600
_cell_length_b   6.94278699
_cell_length_c   7.37089079
_cell_angle_alpha   95.31070560
_cell_angle_beta   97.53421095
_cell_angle_gamma   96.81999511
_symmetry_Int_Tables_number   1
_chemical_formula_structural   Li3Ti2Cu2P6F2
_chemical_formula_sum   'Li3 Ti2 Cu2 P6 F2'
_cell_volume   347.61975755
_cell_formula_units_Z   1
loop_
 _symmetry_equiv_pos_site_id
 _symmetry_equiv_pos_as_xyz
  1  'x, y, z'
loop_
 _atom_site_type_symbol
 _atom_site_label
 _atom_site_symmetry_multiplicity
 _atom_site_fract_x
 _atom_site_fract_y
 _atom_site_fract_z
 _atom_site_occupancy
  P  P0  1  0.00000000  0.00000000  0.00000000  1
  P  P1  1  0.50000000  0.50000000  0.50000000  1
  P  P2  1  0.25000000  0.25000000  0.25000000  1
  P  P3  1  0.75000000  0.25000000  0.00000000  1
  P  P4  1  0.25000000  0.75000000  0.50000000  1
  P  P5  1  0.15343211  0.94095493  0.93017216  1
  Li  Li6  1  0.89057160  0.80243294  0.71310423  1
  Li  Li7  1  0.07717005  0.36732072  0.51103523  1
  Li  Li8  1  0.87028162  0.24898530  0.76169557  1
  Cu  Cu9  1  0.35874495  0.49068578  0.35431249  1
  Cu  Cu10  1  0.90125308  0.85867666  0.85826356  1
  F  F11  1  0.72071212  0.76691129  0.71084707  1
  F  F12  1  0.04691225  0.07318150  0.47124577  1
  Ti  Ti13  1  0.36574993  0.08975981  0.68166990  1
  Ti  Ti14  1  0.68289920  0.36017469  0.96241857  1
