# generated using pymatgen
data_LiCuAs3
_symmetry_space_group_name_H-M   'P 1'
_cell_length_a   7.47260980
_cell_length_b   7.66705677
_cell_length_c   8.43237269
_cell_angle_alpha   90.48338108
_cell_angle_beta   92.29978035
_cell_angle_gamma   90.55263364
_symmetry_Int_Tables_number   1
_chemical_formula_structural   LiCuAs3
_chemical_formula_sum   'Li2 Cu2 As6'
_cell_volume   482.68488125
_cell_formula_units_Z   2
loop_
 _symmetry_equiv_pos_site_id
 _symmetry_equiv_pos_as_xyz
  1  'x, y, z'
loop_
 _atom_site_type_symbol
 _atom_site_label
 _atom_site_symmetry_multiplicity
 _atom_site_fract_x
 _atom_site_fract_y
 _atom_site_fract_z
 _atom_site_occupancy
  Li  Li0  1  0.12500000  0.12500000  0.12500000  1
  Li  Li1  1  0.50000000  0.50000000  0.50000000  1
  Cu  Cu2  1  0.25000000  0.25000000  0.25000000  1
  Cu  Cu3  1  0.75000000  0.75000000  0.75000000  1
  As  As4  1  0.71251331  0.66037317  0.80421201  1
  As  As5  1  0.48156641  0.95495204  0.35145161  1
  As  As6  1  0.07826759  0.84586290  0.77176303  1
  As  As7  1  0.94686452  0.72968421  0.76134465  1
  As  As8  1  0.49529954  0.57636025  0.87859882  1
  As  As9  1  0.01376721  0.92964630  0.88530341  1
