# generated using pymatgen
data_LiMn2P3
_symmetry_space_group_name_H-M   'P 1'
_cell_length_a   6.31525679
_cell_length_b   6.80210228
_cell_length_c   6.91966479
_cell_angle_alpha   92.29981019
_cell_angle_beta   92.11029949
_cell_angle_gamma   92.34575826
_symmetry_Int_Tables_number   1
_chemical_formula_structural   LiMn2P3
_chemical_formula_sum   'Li1 Mn2 P3'
_cell_volume   296.53953574
_cell_formula_units_Z   1
loop_
 _symmetry_equiv_pos_site_id
 _symmetry_equiv_pos_as_xyz
  1  'x, y, z'
loop_
 _atom_site_type_symbol
 _atom_site_label
 _atom_site_symmetry_multiplicity
 _atom_site_fract_x
 _atom_site_fract_y
 _atom_site_fract_z
 _atom_site_occupancy
  Mn  Mn0  1  0.00000000  0.00000000  0.00000000  1
  Mn  Mn1  1  0.33300000  0.66700000  0.25000000  1
  P  P2  1  0.66700000  0.33300000  0.50000000  1
  P  P3  1  0.00000000  0.00000000  0.75000000  1
  P  P4  1  0.58895475  0.46300195  0.59166405  1
  Li  Li5  1  0.35977044  0.74853927  0.37233554  1
