# generated using pymatgen
data_LiTiP3F
_symmetry_space_group_name_H-M   'P 1'
_cell_length_a   8.41367138
_cell_length_b   8.10241285
_cell_length_c   7.94469854
_cell_angle_alpha   90.17530082
_cell_angle_beta   90.83402806
_cell_angle_gamma   90.20041565
_symmetry_Int_Tables_number   1
_chemical_formula_structural   LiTiP3F
_chemical_formula_sum   'Li2 Ti2 P6 F2'
_cell_volume   541.53504245
_cell_formula_units_Z   2
loop_
 _symmetry_equiv_pos_site_id
 _symmetry_equiv_pos_as_xyz
  1  'x, y, z'
loop_
 _atom_site_type_symbol
 _atom_site_label
 _atom_site_symmetry_multiplicity
 _atom_site_fract_x
 _atom_site_fract_y
 _atom_site_fract_z
 _atom_site_occupancy
  P  P0  1  0.12500000  0.12500000  0.12500000  1
  P  P1  1  0.50000000  0.50000000  0.50000000  1
  P  P2  1  0.25000000  0.25000000  0.25000000  1
  P  P3  1  0.75000000  0.75000000  0.75000000  1
  P  P4  1  0.46038232  0.77439186  0.64375286  1
  P  P5  1  0.86336416  0.21134618  0.39012000  1
  Li  Li6  1  0.52553057  0.19530645  0.98118006  1
  Li  Li7  1  0.71062139  0.45361587  0.60850609  1
  F  F8  1  0.65423629  0.88088793  0.71313619  1
  F  F9  1  0.82031825  0.29492790  0.72071165  1
  Ti  Ti10  1  0.81643542  0.56880627  0.75207253  1
  Ti  Ti11  1  0.38088404  0.39908702  0.87855684  1
