# generated using pymatgen
data_Li2Mn2Sb4P2N
_symmetry_space_group_name_H-M   'P 1'
_cell_length_a   4.32260563
_cell_length_b   4.56065615
_cell_length_c   5.69891047
_cell_angle_alpha   100.81754304
_cell_angle_beta   96.30163136
_cell_angle_gamma   98.76798514
_symmetry_Int_Tables_number   1
_chemical_formula_structural   Li2Mn2Sb4P2N
_chemical_formula_sum   'Li2 Mn2 Sb4 P2 N1'
_cell_volume   107.94817616
_cell_formula_units_Z   1
loop_
 _symmetry_equiv_pos_site_id
 _symmetry_equiv_pos_as_xyz
  1  'x, y, z'
loop_
 _atom_site_type_symbol
 _atom_site_label
 _atom_site_symmetry_multiplicity
 _atom_site_fract_x
 _atom_site_fract_y
 _atom_site_fract_z
 _atom_site_occupancy
  N  N0  1  0.12500000  0.00000000  0.25000000  1
  Mn  Mn1  1  0.00000000  0.00000000  0.00000000  1
  Mn  Mn2  1  0.37500000  0.00000000  0.25000000  1
  Sb  Sb3  1  0.25000000  0.25000000  0.25000000  1
  Sb  Sb4  1  0.00000000  0.25000000  0.12500000  1
  Sb  Sb5  1  0.01202178  0.90623773  0.79107974  1
  Sb  Sb6  1  0.68099467  0.77733811  0.70919654  1
  P  P7  1  0.29212662  0.48350603  0.75588667  1
  P  P8  1  0.20367136  0.99616811  0.24472350  1
  Li  Li9  1  0.58485076  0.57624800  0.79771475  1
  Li  Li10  1  0.80571836  0.99684141  0.16236750  1
