# generated using pymatgen
data_Li2Ti2P3Se2O
_symmetry_space_group_name_H-M   'P 1'
_cell_length_a   7.45888304
_cell_length_b   7.13946099
_cell_length_c   6.97668462
_cell_angle_alpha   90.47538975
_cell_angle_beta   92.26176007
_cell_angle_gamma   90.54349743
_symmetry_Int_Tables_number   1
_chemical_formula_structural   Li2Ti2P3Se2O
_chemical_formula_sum   'Li2 Ti2 P3 Se2 O1'
_cell_volume   371.20511601
_cell_formula_units_Z   1
loop_
 _symmetry_equiv_pos_site_id
 _symmetry_equiv_pos_as_xyz
  1  'x, y, z'
loop_
 _atom_site_type_symbol
 _atom_site_label
 _atom_site_symmetry_multiplicity
 _atom_site_fract_x
 _atom_site_fract_y
 _atom_site_fract_z
 _atom_site_occupancy
  P  P0  1  0.00000000  0.00000000  0.00000000  1
  P  P1  1  0.50000000  0.50000000  0.50000000  1
  P  P2  1  0.25000000  0.25000000  0.25000000  1
  Li  Li3  1  0.75000000  0.25000000  0.00000000  1
  Li  Li4  1  0.25000000  0.75000000  0.50000000  1
  Se  Se5  1  0.35614393  0.78122410  0.56206977  1
  Se  Se6  1  0.79827698  0.94798523  0.29878501  1
  Ti  Ti7  1  0.05154380  0.07514442  0.29599822  1
  Ti  Ti8  1  0.35373867  0.91447570  0.44102130  1
  O  O9  1  0.13537828  0.87807232  0.31855616  1
