# generated using pymatgen
data_LiMn2Sb4P2N
_symmetry_space_group_name_H-M   'P 1'
_cell_length_a   5.30819307
_cell_length_b   5.69085731
_cell_length_c   6.55980261
_cell_angle_alpha   97.06622092
_cell_angle_beta   95.57302684
_cell_angle_gamma   96.02234102
_symmetry_Int_Tables_number   1
_chemical_formula_structural   LiMn2Sb4P2N
_chemical_formula_sum   'Li1 Mn2 Sb4 P2 N1'
_cell_volume   194.35020550
_cell_formula_units_Z   1
loop_
 _symmetry_equiv_pos_site_id
 _symmetry_equiv_pos_as_xyz
  1  'x, y, z'
loop_
 _atom_site_type_symbol
 _atom_site_label
 _atom_site_symmetry_multiplicity
 _atom_site_fract_x
 _atom_site_fract_y
 _atom_site_fract_z
 _atom_site_occupancy
  N  N0  1  0.00000000  0.00000000  0.00000000  1
  Mn  Mn1  1  0.50000000  0.50000000  0.50000000  1
  Mn  Mn2  1  0.25000000  0.25000000  0.25000000  1
  Sb  Sb3  1  0.75000000  0.25000000  0.00000000  1
  Sb  Sb4  1  0.25000000  0.75000000  0.50000000  1
  Sb  Sb5  1  0.81679546  0.65085669  0.18263315  1
  Sb  Sb6  1  0.91855625  0.71573704  0.83095585  1
  P  P7  1  0.66785501  0.05607071  0.49307047  1
  P  P8  1  0.83973935  0.09041525  0.24877408  1
  Li  Li9  1  0.25560642  0.21251346  0.35684092  1
