# generated using pymatgen
data_Li2Sb4P3
_symmetry_space_group_name_H-M   'P 1'
_cell_length_a   6.69969707
_cell_length_b   6.68415411
_cell_length_c   7.12190928
_cell_angle_alpha   96.33386275
_cell_angle_beta   91.86149082
_cell_angle_gamma   96.57252796
_symmetry_Int_Tables_number   1
_chemical_formula_structural   Li2Sb4P3
_chemical_formula_sum   'Li2 Sb4 P3'
_cell_volume   314.57304771
_cell_formula_units_Z   1
loop_
 _symmetry_equiv_pos_site_id
 _symmetry_equiv_pos_as_xyz
  1  'x, y, z'
loop_
 _atom_site_type_symbol
 _atom_site_label
 _atom_site_symmetry_multiplicity
 _atom_site_fract_x
 _atom_site_fract_y
 _atom_site_fract_z
 _atom_site_occupancy
  Sb  Sb0  1  0.12500000  0.12500000  0.12500000  1
  Sb  Sb1  1  0.50000000  0.50000000  0.50000000  1
  Sb  Sb2  1  0.25000000  0.25000000  0.25000000  1
  Sb  Sb3  1  0.75000000  0.75000000  0.75000000  1
  P  P4  1  0.47848762  0.78257734  0.20166590  1
  P  P5  1  0.50528347  0.97128144  0.65707377  1
  P  P6  1  0.44652613  0.34530042  0.55799210  1
  Li  Li7  1  0.06443242  0.08626212  0.66000342  1
  Li  Li8  1  0.86731427  0.30490102  0.94597054  1
