# generated using pymatgen
data_Li2Mn2Sb4P2N
_symmetry_space_group_name_H-M   'P 1'
_cell_length_a   5.20222735
_cell_length_b   5.40141931
_cell_length_c   6.37505993
_cell_angle_alpha   101.28982101
_cell_angle_beta   94.65625473
_cell_angle_gamma   100.03990909
_symmetry_Int_Tables_number   1
_chemical_formula_structural   Li2Mn2Sb4P2N
_chemical_formula_sum   'Li2 Mn2 Sb4 P2 N1'
_cell_volume   171.74128129
_cell_formula_units_Z   1
loop_
 _symmetry_equiv_pos_site_id
 _symmetry_equiv_pos_as_xyz
  1  'x, y, z'
loop_
 _atom_site_type_symbol
 _atom_site_label
 _atom_site_symmetry_multiplicity
 _atom_site_fract_x
 _atom_site_fract_y
 _atom_site_fract_z
 _atom_site_occupancy
  Mn  Mn0  1  0.00000000  0.00000000  0.00000000  1
  Mn  Mn1  1  0.50000000  0.50000000  0.50000000  1
  Sb  Sb2  1  0.25000000  0.25000000  0.25000000  1
  Sb  Sb3  1  0.75000000  0.25000000  0.00000000  1
  Sb  Sb4  1  0.25000000  0.75000000  0.50000000  1
  Sb  Sb5  1  0.89271197  0.31018731  0.38301866  1
  P  P6  1  0.93886120  0.86239871  0.71467484  1
  P  P7  1  0.72888114  0.30641112  0.16174290  1
  Li  Li8  1  0.23700737  0.76647242  0.51421369  1
  Li  Li9  1  0.20101744  0.66181535  0.69034476  1
  N  N10  1  0.57332236  0.70287787  0.96538417  1
