# generated using pymatgen
data_Li3Ti2P4F2
_symmetry_space_group_name_H-M   'P 1'
_cell_length_a   7.86693030
_cell_length_b   7.51720012
_cell_length_c   8.45925458
_cell_angle_alpha   92.02658450
_cell_angle_beta   91.05832401
_cell_angle_gamma   92.34930331
_symmetry_Int_Tables_number   1
_chemical_formula_structural   Li3Ti2P4F2
_chemical_formula_sum   'Li3 Ti2 P4 F2'
_cell_volume   499.42487496
_cell_formula_units_Z   1
loop_
 _symmetry_equiv_pos_site_id
 _symmetry_equiv_pos_as_xyz
  1  'x, y, z'
loop_
 _atom_site_type_symbol
 _atom_site_label
 _atom_site_symmetry_multiplicity
 _atom_site_fract_x
 _atom_site_fract_y
 _atom_site_fract_z
 _atom_site_occupancy
  P  P0  1  0.00000000  0.00000000  0.00000000  1
  P  P1  1  0.50000000  0.50000000  0.50000000  1
  P  P2  1  0.25000000  0.25000000  0.25000000  1
  P  P3  1  0.75000000  0.25000000  0.00000000  1
  Li  Li4  1  0.25000000  0.75000000  0.50000000  1
  Li  Li5  1  0.34788954  0.71660875  0.65722802  1
  Li  Li6  1  0.20250429  0.65409693  0.05227577  1
  F  F7  1  0.68426303  0.67395519  0.02412557  1
  F  F8  1  0.95582720  0.43696159  0.63009780  1
  Ti  Ti9  1  0.86524333  0.77336665  0.09297071  1
  Ti  Ti10  1  0.99962633  0.33414826  0.14071071  1
