# generated using pymatgen
data_Li3Cu2(P4O)2
_symmetry_space_group_name_H-M   'P 1'
_cell_length_a   6.83965434
_cell_length_b   7.30752784
_cell_length_c   7.73634890
_cell_angle_alpha   94.93599601
_cell_angle_beta   96.68554737
_cell_angle_gamma   96.35217660
_symmetry_Int_Tables_number   1
_chemical_formula_structural   Li3Cu2(P4O)2
_chemical_formula_sum   'Li3 Cu2 P8 O2'
_cell_volume   379.76155792
_cell_formula_units_Z   1
loop_
 _symmetry_equiv_pos_site_id
 _symmetry_equiv_pos_as_xyz
  1  'x, y, z'
loop_
 _atom_site_type_symbol
 _atom_site_label
 _atom_site_symmetry_multiplicity
 _atom_site_fract_x
 _atom_site_fract_y
 _atom_site_fract_z
 _atom_site_occupancy
  P  P0  1  0.00000000  0.00000000  0.00000000  1
  P  P1  1  0.50000000  0.50000000  0.50000000  1
  P  P2  1  0.50000000  0.50000000  0.00000000  1
  P  P3  1  0.50000000  0.00000000  0.50000000  1
  P  P4  1  0.00000000  0.50000000  0.50000000  1
  P  P5  1  0.15771775  0.00293304  0.01334629  1
  P  P6  1  0.70026558  0.08243510  0.28876473  1
  P  P7  1  0.77987636  0.51067102  0.34570019  1
  Li  Li8  1  0.30269258  0.45656977  0.20788698  1
  Li  Li9  1  0.95664820  0.89201562  0.14248184  1
  Li  Li10  1  0.81981081  0.36355979  0.86007621  1
  Cu  Cu11  1  0.51801654  0.56317313  0.09532916  1
  Cu  Cu12  1  0.55810232  0.33064160  0.11144379  1
  O  O13  1  0.20933942  0.38465145  0.10649137  1
  O  O14  1  0.68521199  0.43701874  0.35260721  1
