# generated using pymatgen
data_Li4LuNi2P4N5
_symmetry_space_group_name_H-M   'P 1'
_cell_length_a   7.43249497
_cell_length_b   7.05219556
_cell_length_c   8.86811598
_cell_angle_alpha   93.49759716
_cell_angle_beta   91.23654746
_cell_angle_gamma   94.05678930
_symmetry_Int_Tables_number   1
_chemical_formula_structural   Li4LuNi2P4N5
_chemical_formula_sum   'Li4 Lu1 Ni2 P4 N5'
_cell_volume   462.64105756
_cell_formula_units_Z   1
loop_
 _symmetry_equiv_pos_site_id
 _symmetry_equiv_pos_as_xyz
  1  'x, y, z'
loop_
 _atom_site_type_symbol
 _atom_site_label
 _atom_site_symmetry_multiplicity
 _atom_site_fract_x
 _atom_site_fract_y
 _atom_site_fract_z
 _atom_site_occupancy
  P  P0  1  0.00000000  0.00000000  0.00000000  1
  P  P1  1  0.50000000  0.50000000  0.50000000  1
  P  P2  1  0.25000000  0.25000000  0.25000000  1
  P  P3  1  0.75000000  0.25000000  0.00000000  1
  Lu  Lu4  1  0.25000000  0.75000000  0.50000000  1
  Li  Li5  1  0.65998335  0.66078260  0.99870398  1
  Li  Li6  1  0.00744381  0.44574641  0.07879421  1
  Li  Li7  1  0.57435583  0.92381514  0.66599565  1
  Li  Li8  1  0.34929128  0.33980682  0.21179005  1
  Ni  Ni9  1  0.44760062  0.75499184  0.25243191  1
  Ni  Ni10  1  0.47322590  0.36985228  0.43780946  1
  N  N11  1  0.40369331  0.32976001  0.68903731  1
  N  N12  1  0.13027453  0.88011376  0.65025638  1
  N  N13  1  0.25424081  0.58796867  0.78260775  1
  N  N14  1  0.87361049  0.81021504  0.22897933  1
  N  N15  1  0.01463296  0.74563256  0.51923158  1
