# generated using pymatgen
data_LiMn2Sb4P3
_symmetry_space_group_name_H-M   'P 1'
_cell_length_a   4.66426227
_cell_length_b   4.65603548
_cell_length_c   5.56743047
_cell_angle_alpha   96.51544738
_cell_angle_beta   89.97004376
_cell_angle_gamma   95.77227574
_symmetry_Int_Tables_number   1
_chemical_formula_structural   LiMn2Sb4P3
_chemical_formula_sum   'Li1 Mn2 Sb4 P3'
_cell_volume   119.51046067
_cell_formula_units_Z   1
loop_
 _symmetry_equiv_pos_site_id
 _symmetry_equiv_pos_as_xyz
  1  'x, y, z'
loop_
 _atom_site_type_symbol
 _atom_site_label
 _atom_site_symmetry_multiplicity
 _atom_site_fract_x
 _atom_site_fract_y
 _atom_site_fract_z
 _atom_site_occupancy
  Mn  Mn0  1  0.12500000  0.12500000  0.12500000  1
  Mn  Mn1  1  0.50000000  0.50000000  0.50000000  1
  Sb  Sb2  1  0.25000000  0.25000000  0.25000000  1
  Sb  Sb3  1  0.75000000  0.75000000  0.75000000  1
  Sb  Sb4  1  0.04813822  0.75125260  0.56771379  1
  Sb  Sb5  1  0.54478415  0.01704383  0.02683794  1
  P  P6  1  0.19540947  0.92164922  0.73837438  1
  P  P7  1  0.78556897  0.87722641  0.33263299  1
  P  P8  1  0.34054408  0.62597740  0.65110354  1
  Li  Li9  1  0.73205899  0.75845399  0.38805396  1
