# generated using pymatgen
data_LiMn2(SbP)3
_symmetry_space_group_name_H-M   'P 1'
_cell_length_a   6.18794921
_cell_length_b   6.64922042
_cell_length_c   6.92326673
_cell_angle_alpha   91.93711680
_cell_angle_beta   92.46664365
_cell_angle_gamma   92.34487561
_symmetry_Int_Tables_number   1
_chemical_formula_structural   LiMn2(SbP)3
_chemical_formula_sum   'Li1 Mn2 Sb3 P3'
_cell_volume   284.17532105
_cell_formula_units_Z   1
loop_
 _symmetry_equiv_pos_site_id
 _symmetry_equiv_pos_as_xyz
  1  'x, y, z'
loop_
 _atom_site_type_symbol
 _atom_site_label
 _atom_site_symmetry_multiplicity
 _atom_site_fract_x
 _atom_site_fract_y
 _atom_site_fract_z
 _atom_site_occupancy
  Mn  Mn0  1  0.12500000  0.00000000  0.25000000  1
  Mn  Mn1  1  0.00000000  0.00000000  0.00000000  1
  Sb  Sb2  1  0.37500000  0.00000000  0.25000000  1
  Sb  Sb3  1  0.25000000  0.25000000  0.25000000  1
  Sb  Sb4  1  0.00000000  0.25000000  0.12500000  1
  P  P5  1  0.64789237  0.32545308  0.63300292  1
  P  P6  1  0.60262551  0.59389716  0.18403546  1
  P  P7  1  0.21002179  0.12028180  0.92557132  1
  Li  Li8  1  0.56029099  0.74385228  0.89621879  1
