# generated using pymatgen
data_Li3Ni2Te6(AsO)6
_symmetry_space_group_name_H-M   'P 1'
_cell_length_a   8.41976070
_cell_length_b   8.51594166
_cell_length_c   8.73853716
_cell_angle_alpha   90.00000000
_cell_angle_beta   90.00000000
_cell_angle_gamma   90.00000000
_symmetry_Int_Tables_number   1
_chemical_formula_structural   Li3Ni2Te6(AsO)6
_chemical_formula_sum   'Li3 Ni2 Te6 As6 O6'
_cell_volume   626.57225978
_cell_formula_units_Z   1
loop_
 _symmetry_equiv_pos_site_id
 _symmetry_equiv_pos_as_xyz
  1  'x, y, z'
loop_
 _atom_site_type_symbol
 _atom_site_label
 _atom_site_symmetry_multiplicity
 _atom_site_fract_x
 _atom_site_fract_y
 _atom_site_fract_z
 _atom_site_occupancy
  Li  Li0  1  0.12500000  0.00000000  0.25000000  1
  Li  Li1  1  0.00000000  0.00000000  0.00000000  1
  Li  Li2  1  0.37500000  0.00000000  0.25000000  1
  Ni  Ni3  1  0.25000000  0.25000000  0.25000000  1
  Ni  Ni4  1  0.00000000  0.25000000  0.12500000  1
  Te  Te5  1  0.53636291  0.85379581  0.08670843  1
  Te  Te6  1  0.11903630  0.52695770  0.79181523  1
  Te  Te7  1  0.33204057  0.57835457  0.81921925  1
  Te  Te8  1  0.76408201  0.97931799  0.95637463  1
  Te  Te9  1  0.01567669  0.00877974  0.64847715  1
  Te  Te10  1  0.41880194  0.61370479  0.68217110  1
  As  As11  1  0.92778625  0.28479725  0.76487077  1
  As  As12  1  0.45983750  0.75261651  0.45921835  1
  As  As13  1  0.29973600  0.10646838  0.06407737  1
  As  As14  1  0.06454304  0.33234836  0.63563835  1
  As  As15  1  0.30227427  0.55396136  0.79719990  1
  As  As16  1  0.21315049  0.85095920  0.47827313  1
  O  O17  1  0.80095136  0.83355190  0.72366950  1
  O  O18  1  0.94411802  0.89673153  0.99495209  1
  O  O19  1  0.27075334  0.24433720  0.86884370  1
  O  O20  1  0.88859940  0.18755729  0.40272218  1
  O  O21  1  0.76516810  0.24099623  0.85714641  1
  O  O22  1  0.25328758  0.08895870  0.01248842  1
