# generated using pymatgen
data_Li2MnSb4P3
_symmetry_space_group_name_H-M   'P 1'
_cell_length_a   5.74585360
_cell_length_b   5.91517506
_cell_length_c   6.78068528
_cell_angle_alpha   98.42042623
_cell_angle_beta   91.57151382
_cell_angle_gamma   98.41321638
_symmetry_Int_Tables_number   1
_chemical_formula_structural   Li2MnSb4P3
_chemical_formula_sum   'Li2 Mn1 Sb4 P3'
_cell_volume   225.24127791
_cell_formula_units_Z   1
loop_
 _symmetry_equiv_pos_site_id
 _symmetry_equiv_pos_as_xyz
  1  'x, y, z'
loop_
 _atom_site_type_symbol
 _atom_site_label
 _atom_site_symmetry_multiplicity
 _atom_site_fract_x
 _atom_site_fract_y
 _atom_site_fract_z
 _atom_site_occupancy
  Mn  Mn0  1  0.00000000  0.00000000  0.00000000  1
  Sb  Sb1  1  0.50000000  0.50000000  0.50000000  1
  Sb  Sb2  1  0.25000000  0.25000000  0.25000000  1
  Sb  Sb3  1  0.75000000  0.25000000  0.00000000  1
  Sb  Sb4  1  0.25000000  0.75000000  0.50000000  1
  P  P5  1  0.79264776  0.81173286  0.80783011  1
  P  P6  1  0.77594482  0.02720611  0.52056651  1
  P  P7  1  0.51222297  0.33921822  0.61458790  1
  Li  Li8  1  0.15441249  0.05051562  0.43280333  1
  Li  Li9  1  0.19295194  0.38906794  0.09500528  1
