# generated using pymatgen
data_Li3Ti2Cu2(I2O)2
_symmetry_space_group_name_H-M   'P 1'
_cell_length_a   7.31106081
_cell_length_b   7.40662811
_cell_length_c   6.96500160
_cell_angle_alpha   94.88778712
_cell_angle_beta   96.62025095
_cell_angle_gamma   96.29013614
_symmetry_Int_Tables_number   1
_chemical_formula_structural   Li3Ti2Cu2(I2O)2
_chemical_formula_sum   'Li3 Ti2 Cu2 I4 O2'
_cell_volume   370.55404445
_cell_formula_units_Z   1
loop_
 _symmetry_equiv_pos_site_id
 _symmetry_equiv_pos_as_xyz
  1  'x, y, z'
loop_
 _atom_site_type_symbol
 _atom_site_label
 _atom_site_symmetry_multiplicity
 _atom_site_fract_x
 _atom_site_fract_y
 _atom_site_fract_z
 _atom_site_occupancy
  I  I0  1  0.00000000  0.00000000  0.00000000  1
  I  I1  1  0.50000000  0.50000000  0.50000000  1
  I  I2  1  0.25000000  0.25000000  0.25000000  1
  I  I3  1  0.75000000  0.25000000  0.00000000  1
  Li  Li4  1  0.25000000  0.75000000  0.50000000  1
  Li  Li5  1  0.02641965  0.42082315  0.75249954  1
  Li  Li6  1  0.62494739  0.41711745  0.59543984  1
  Cu  Cu7  1  0.86140280  0.77764527  0.78323746  1
  Cu  Cu8  1  0.68663414  0.87088408  0.24424193  1
  Ti  Ti9  1  0.97886417  0.13244579  0.86613023  1
  Ti  Ti10  1  0.60914935  0.59414859  0.03803606  1
  O  O11  1  0.06431632  0.98216655  0.03995627  1
  O  O12  1  0.29280939  0.90141666  0.81757866  1
