# generated using pymatgen
data_Li2Mn2(SbP)3
_symmetry_space_group_name_H-M   'P 1'
_cell_length_a   4.74714229
_cell_length_b   5.00581011
_cell_length_c   6.24269695
_cell_angle_alpha   102.38778928
_cell_angle_beta   91.98301243
_cell_angle_gamma   102.33137377
_symmetry_Int_Tables_number   1
_chemical_formula_structural   Li2Mn2(SbP)3
_chemical_formula_sum   'Li2 Mn2 Sb3 P3'
_cell_volume   141.04673703
_cell_formula_units_Z   1
loop_
 _symmetry_equiv_pos_site_id
 _symmetry_equiv_pos_as_xyz
  1  'x, y, z'
loop_
 _atom_site_type_symbol
 _atom_site_label
 _atom_site_symmetry_multiplicity
 _atom_site_fract_x
 _atom_site_fract_y
 _atom_site_fract_z
 _atom_site_occupancy
  Mn  Mn0  1  0.00000000  0.00000000  0.00000000  1
  Mn  Mn1  1  0.50000000  0.50000000  0.50000000  1
  Sb  Sb2  1  0.50000000  0.50000000  0.00000000  1
  Sb  Sb3  1  0.50000000  0.00000000  0.50000000  1
  Sb  Sb4  1  0.00000000  0.50000000  0.50000000  1
  P  P5  1  0.93431498  0.28743840  0.87732138  1
  P  P6  1  0.99616754  0.34314516  0.22336736  1
  P  P7  1  0.09932240  0.44654469  0.64986971  1
  Li  Li8  1  0.20461838  0.00418487  0.81099950  1
  Li  Li9  1  0.92851250  0.76047073  0.69815882  1
