# generated using pymatgen
data_Li2Mn2Sb4P3
_symmetry_space_group_name_H-M   'P 1'
_cell_length_a   7.72669910
_cell_length_b   8.36251290
_cell_length_c   8.16966961
_cell_angle_alpha   90.35588958
_cell_angle_beta   90.42158409
_cell_angle_gamma   90.40504629
_symmetry_Int_Tables_number   1
_chemical_formula_structural   Li2Mn2Sb4P3
_chemical_formula_sum   'Li2 Mn2 Sb4 P3'
_cell_volume   527.84226970
_cell_formula_units_Z   1
loop_
 _symmetry_equiv_pos_site_id
 _symmetry_equiv_pos_as_xyz
  1  'x, y, z'
loop_
 _atom_site_type_symbol
 _atom_site_label
 _atom_site_symmetry_multiplicity
 _atom_site_fract_x
 _atom_site_fract_y
 _atom_site_fract_z
 _atom_site_occupancy
  Mn  Mn0  1  0.12500000  0.12500000  0.12500000  1
  Mn  Mn1  1  0.50000000  0.50000000  0.50000000  1
  Sb  Sb2  1  0.25000000  0.25000000  0.25000000  1
  Sb  Sb3  1  0.75000000  0.75000000  0.75000000  1
  Sb  Sb4  1  0.42981525  0.61729643  0.65871613  1
  Sb  Sb5  1  0.12172066  0.78450232  0.17629509  1
  P  P6  1  0.87476914  0.74112711  0.67656172  1
  P  P7  1  0.32171247  0.53257137  0.26664296  1
  P  P8  1  0.60756344  0.95371039  0.96471134  1
  Li  Li9  1  0.07297888  0.05711311  0.17422795  1
  Li  Li10  1  0.51344982  0.01454819  0.86619876  1
