# generated using pymatgen
data_Li3Ni2Te6I4O3
_symmetry_space_group_name_H-M   'P 1'
_cell_length_a   8.48183199
_cell_length_b   8.71815785
_cell_length_c   8.20516741
_cell_angle_alpha   90.00000000
_cell_angle_beta   90.00000000
_cell_angle_gamma   90.00000000
_symmetry_Int_Tables_number   1
_chemical_formula_structural   Li3Ni2Te6I4O3
_chemical_formula_sum   'Li3 Ni2 Te6 I4 O3'
_cell_volume   606.73889958
_cell_formula_units_Z   1
loop_
 _symmetry_equiv_pos_site_id
 _symmetry_equiv_pos_as_xyz
  1  'x, y, z'
loop_
 _atom_site_type_symbol
 _atom_site_label
 _atom_site_symmetry_multiplicity
 _atom_site_fract_x
 _atom_site_fract_y
 _atom_site_fract_z
 _atom_site_occupancy
  I  I0  1  0.00000000  0.00000000  0.00000000  1
  I  I1  1  0.50000000  0.50000000  0.50000000  1
  I  I2  1  0.50000000  0.50000000  0.00000000  1
  I  I3  1  0.50000000  0.00000000  0.50000000  1
  Li  Li4  1  0.00000000  0.50000000  0.50000000  1
  Li  Li5  1  0.79915803  0.07732462  0.91707755  1
  Li  Li6  1  0.35147697  0.75376586  0.23656106  1
  Ni  Ni7  1  0.03924392  0.62353384  0.83042372  1
  Ni  Ni8  1  0.81519655  0.56123395  0.40047431  1
  Te  Te9  1  0.05635703  0.72185055  0.82762064  1
  Te  Te10  1  0.92696554  0.45461284  0.85909110  1
  Te  Te11  1  0.92203870  0.33535974  0.34091905  1
  Te  Te12  1  0.63707810  0.55429952  0.46223643  1
  Te  Te13  1  0.96909969  0.00226026  0.93889460  1
  Te  Te14  1  0.42082241  0.29163283  0.55243957  1
  O  O15  1  0.57728525  0.76065937  0.37215264  1
  O  O16  1  0.76584447  0.12602087  0.36883355  1
  O  O17  1  0.91838868  0.51052292  0.79275565  1
