# generated using pymatgen
data_Li5Ti2P3S2O3
_symmetry_space_group_name_H-M   'P 1'
_cell_length_a   4.42889754
_cell_length_b   3.92573280
_cell_length_c   6.77553970
_cell_angle_alpha   101.32096205
_cell_angle_beta   102.40813119
_cell_angle_gamma   100.18440558
_symmetry_Int_Tables_number   1
_chemical_formula_structural   Li5Ti2P3S2O3
_chemical_formula_sum   'Li5 Ti2 P3 S2 O3'
_cell_volume   109.82427448
_cell_formula_units_Z   1
loop_
 _symmetry_equiv_pos_site_id
 _symmetry_equiv_pos_as_xyz
  1  'x, y, z'
loop_
 _atom_site_type_symbol
 _atom_site_label
 _atom_site_symmetry_multiplicity
 _atom_site_fract_x
 _atom_site_fract_y
 _atom_site_fract_z
 _atom_site_occupancy
  S  S0  1  0.00000000  0.00000000  0.00000000  1
  S  S1  1  0.50000000  0.50000000  0.50000000  1
  Ti  Ti2  1  0.25000000  0.25000000  0.25000000  1
  Ti  Ti3  1  0.75000000  0.25000000  0.00000000  1
  O  O4  1  0.25000000  0.75000000  0.50000000  1
  O  O5  1  0.35148887  0.75824467  0.15638817  1
  O  O6  1  0.84285891  0.21391366  0.96056304  1
  P  P7  1  0.92083496  0.50532513  0.17343574  1
  P  P8  1  0.03328829  0.96640032  0.94150815  1
  P  P9  1  0.87411146  0.98742639  0.44373841  1
  Li  Li10  1  0.45705573  0.93396652  0.35621949  1
  Li  Li11  1  0.61311786  0.83278103  0.44991220  1
  Li  Li12  1  0.14078704  0.31570730  0.76818989  1
  Li  Li13  1  0.42487520  0.34391237  0.63505939  1
  Li  Li14  1  0.38947863  0.35946931  0.21061518  1
