# generated using pymatgen
data_Li2Sb4P3N5
_symmetry_space_group_name_H-M   'P 1'
_cell_length_a   5.59267817
_cell_length_b   6.01042474
_cell_length_c   7.23536870
_cell_angle_alpha   98.74202197
_cell_angle_beta   92.00443760
_cell_angle_gamma   98.78646872
_symmetry_Int_Tables_number   1
_chemical_formula_structural   Li2Sb4P3N5
_chemical_formula_sum   'Li2 Sb4 P3 N5'
_cell_volume   237.14385518
_cell_formula_units_Z   1
loop_
 _symmetry_equiv_pos_site_id
 _symmetry_equiv_pos_as_xyz
  1  'x, y, z'
loop_
 _atom_site_type_symbol
 _atom_site_label
 _atom_site_symmetry_multiplicity
 _atom_site_fract_x
 _atom_site_fract_y
 _atom_site_fract_z
 _atom_site_occupancy
  N  N0  1  0.00000000  0.00000000  0.00000000  1
  N  N1  1  0.50000000  0.50000000  0.50000000  1
  N  N2  1  0.50000000  0.50000000  0.00000000  1
  N  N3  1  0.50000000  0.00000000  0.50000000  1
  N  N4  1  0.00000000  0.50000000  0.50000000  1
  Sb  Sb5  1  0.53298120  0.85390055  0.98307557  1
  Sb  Sb6  1  0.09402217  0.10492199  0.96909581  1
  Sb  Sb7  1  0.40391202  0.24666163  0.74934150  1
  Sb  Sb8  1  0.81304454  0.64801453  0.36524479  1
  P  P9  1  0.22504316  0.20204739  0.97404030  1
  P  P10  1  0.19809010  0.35879736  0.92282022  1
  P  P11  1  0.48882380  0.16587931  0.72636958  1
  Li  Li12  1  0.61271086  0.63033201  0.17961795  1
  Li  Li13  1  0.65967194  0.66282516  0.87625442  1
