# generated using pymatgen
data_Li2Mn2Sb4Mo2P3
_symmetry_space_group_name_H-M   'P 1'
_cell_length_a   5.48454843
_cell_length_b   5.86172090
_cell_length_c   6.63904973
_cell_angle_alpha   98.81784327
_cell_angle_beta   91.93927254
_cell_angle_gamma   98.85117931
_symmetry_Int_Tables_number   1
_chemical_formula_structural   Li2Mn2Sb4Mo2P3
_chemical_formula_sum   'Li2 Mn2 Sb4 Mo2 P3'
_cell_volume   208.04291935
_cell_formula_units_Z   1
loop_
 _symmetry_equiv_pos_site_id
 _symmetry_equiv_pos_as_xyz
  1  'x, y, z'
loop_
 _atom_site_type_symbol
 _atom_site_label
 _atom_site_symmetry_multiplicity
 _atom_site_fract_x
 _atom_site_fract_y
 _atom_site_fract_z
 _atom_site_occupancy
  Mn  Mn0  1  0.12500000  0.00000000  0.25000000  1
  Mn  Mn1  1  0.00000000  0.00000000  0.00000000  1
  Sb  Sb2  1  0.37500000  0.00000000  0.25000000  1
  Sb  Sb3  1  0.25000000  0.25000000  0.25000000  1
  Sb  Sb4  1  0.00000000  0.25000000  0.12500000  1
  Sb  Sb5  1  0.34394812  0.81142553  0.28145935  1
  P  P6  1  0.82358180  0.45819126  0.03612238  1
  P  P7  1  0.65638790  0.14564215  0.94984663  1
  P  P8  1  0.16567841  0.42853298  0.83953712  1
  Mo  Mo9  1  0.86633393  0.97306803  0.80357930  1
  Mo  Mo10  1  0.11946863  0.84856327  0.85345498  1
  Li  Li11  1  0.17205121  0.58417248  0.74629030  1
  Li  Li12  1  0.33536543  0.35305723  0.12129877  1
