# generated using pymatgen
data_LiMn2Sb4Mo2P3
_symmetry_space_group_name_H-M   'P 1'
_cell_length_a   5.72617152
_cell_length_b   5.96418962
_cell_length_c   6.33987022
_cell_angle_alpha   93.04424861
_cell_angle_beta   90.66087368
_cell_angle_gamma   92.65205131
_symmetry_Int_Tables_number   1
_chemical_formula_structural   LiMn2Sb4Mo2P3
_chemical_formula_sum   'Li1 Mn2 Sb4 Mo2 P3'
_cell_volume   215.96070437
_cell_formula_units_Z   1
loop_
 _symmetry_equiv_pos_site_id
 _symmetry_equiv_pos_as_xyz
  1  'x, y, z'
loop_
 _atom_site_type_symbol
 _atom_site_label
 _atom_site_symmetry_multiplicity
 _atom_site_fract_x
 _atom_site_fract_y
 _atom_site_fract_z
 _atom_site_occupancy
  Mn  Mn0  1  0.00000000  0.00000000  0.00000000  1
  Mn  Mn1  1  0.50000000  0.50000000  0.50000000  1
  Sb  Sb2  1  0.50000000  0.50000000  0.00000000  1
  Sb  Sb3  1  0.50000000  0.00000000  0.50000000  1
  Sb  Sb4  1  0.00000000  0.50000000  0.50000000  1
  Sb  Sb5  1  0.85986814  0.28593950  0.31252999  1
  P  P6  1  0.12210624  0.04479331  0.17120105  1
  P  P7  1  0.59568883  0.67331751  0.74562946  1
  P  P8  1  0.99635416  0.32883542  0.61778662  1
  Mo  Mo9  1  0.29105598  0.84451612  0.66931655  1
  Mo  Mo10  1  0.22204453  0.56585067  0.00986082  1
  Li  Li11  1  0.71230423  0.60572369  0.29198659  1
