# generated using pymatgen
data_Li2Mn3Sb4P3
_symmetry_space_group_name_H-M   'P 1'
_cell_length_a   7.80293498
_cell_length_b   8.08373184
_cell_length_c   7.74773110
_cell_angle_alpha   90.00000000
_cell_angle_beta   90.00000000
_cell_angle_gamma   90.00000000
_symmetry_Int_Tables_number   1
_chemical_formula_structural   Li2Mn3Sb4P3
_chemical_formula_sum   'Li2 Mn3 Sb4 P3'
_cell_volume   488.70234770
_cell_formula_units_Z   1
loop_
 _symmetry_equiv_pos_site_id
 _symmetry_equiv_pos_as_xyz
  1  'x, y, z'
loop_
 _atom_site_type_symbol
 _atom_site_label
 _atom_site_symmetry_multiplicity
 _atom_site_fract_x
 _atom_site_fract_y
 _atom_site_fract_z
 _atom_site_occupancy
  Mn  Mn0  1  0.00000000  0.00000000  0.00000000  1
  Mn  Mn1  1  0.33300000  0.66700000  0.25000000  1
  Mn  Mn2  1  0.66700000  0.33300000  0.50000000  1
  Sb  Sb3  1  0.00000000  0.00000000  0.75000000  1
  Sb  Sb4  1  0.52447927  0.30048792  0.47400601  1
  Sb  Sb5  1  0.25809840  0.58040976  0.61467412  1
  Sb  Sb6  1  0.11173045  0.73139610  0.05921640  1
  P  P7  1  0.14726498  0.71321328  0.51340643  1
  P  P8  1  0.01900689  0.23009108  0.58065314  1
  P  P9  1  0.30458431  0.79745587  0.00267529  1
  Li  Li10  1  0.22606996  0.98775092  0.47173594  1
  Li  Li11  1  0.66157728  0.47237536  0.44540235  1
