# generated using pymatgen
data_Li2TiP3Se2O
_symmetry_space_group_name_H-M   'P 1'
_cell_length_a   8.12514197
_cell_length_b   7.83582199
_cell_length_c   6.97630193
_cell_angle_alpha   90.23429863
_cell_angle_beta   91.11472175
_cell_angle_gamma   90.26786590
_symmetry_Int_Tables_number   1
_chemical_formula_structural   Li2TiP3Se2O
_chemical_formula_sum   'Li2 Ti1 P3 Se2 O1'
_cell_volume   444.06858034
_cell_formula_units_Z   1
loop_
 _symmetry_equiv_pos_site_id
 _symmetry_equiv_pos_as_xyz
  1  'x, y, z'
loop_
 _atom_site_type_symbol
 _atom_site_label
 _atom_site_symmetry_multiplicity
 _atom_site_fract_x
 _atom_site_fract_y
 _atom_site_fract_z
 _atom_site_occupancy
  P  P0  1  0.12500000  0.00000000  0.25000000  1
  P  P1  1  0.00000000  0.00000000  0.00000000  1
  P  P2  1  0.37500000  0.00000000  0.25000000  1
  Li  Li3  1  0.25000000  0.25000000  0.25000000  1
  Li  Li4  1  0.00000000  0.25000000  0.12500000  1
  Se  Se5  1  0.22783017  0.84170969  0.16329028  1
  Se  Se6  1  0.61792582  0.57914503  0.84945708  1
  Ti  Ti7  1  0.21600966  0.55398770  0.42477607  1
  O  O8  1  0.86492060  0.23757544  0.80932998  1
