# generated using pymatgen
data_Li2Mn2Sb4P3
_symmetry_space_group_name_H-M   'P 1'
_cell_length_a   6.49549615
_cell_length_b   6.87165309
_cell_length_c   7.16554731
_cell_angle_alpha   94.79839233
_cell_angle_beta   92.69119643
_cell_angle_gamma   95.12365316
_symmetry_Int_Tables_number   1
_chemical_formula_structural   Li2Mn2Sb4P3
_chemical_formula_sum   'Li2 Mn2 Sb4 P3'
_cell_volume   316.96072561
_cell_formula_units_Z   1
loop_
 _symmetry_equiv_pos_site_id
 _symmetry_equiv_pos_as_xyz
  1  'x, y, z'
loop_
 _atom_site_type_symbol
 _atom_site_label
 _atom_site_symmetry_multiplicity
 _atom_site_fract_x
 _atom_site_fract_y
 _atom_site_fract_z
 _atom_site_occupancy
  Mn  Mn0  1  0.00000000  0.00000000  0.00000000  1
  Mn  Mn1  1  0.50000000  0.50000000  0.50000000  1
  Sb  Sb2  1  0.25000000  0.25000000  0.25000000  1
  Sb  Sb3  1  0.75000000  0.25000000  0.00000000  1
  Sb  Sb4  1  0.25000000  0.75000000  0.50000000  1
  Sb  Sb5  1  0.44771601  0.66189434  0.81607487  1
  P  P6  1  0.62307459  0.16685203  0.84380018  1
  P  P7  1  0.94983673  0.19318994  0.79141083  1
  P  P8  1  0.67667921  0.56331757  0.53712329  1
  Li  Li9  1  0.80633132  0.97124543  0.10840097  1
  Li  Li10  1  0.22025763  0.12264661  0.67966076  1
