# generated using pymatgen
data_Li4Ni2As6N5O4
_symmetry_space_group_name_H-M   'P 1'
_cell_length_a   7.65375935
_cell_length_b   7.25478080
_cell_length_c   8.19072042
_cell_angle_alpha   92.32671625
_cell_angle_beta   90.82259190
_cell_angle_gamma   92.69870919
_symmetry_Int_Tables_number   1
_chemical_formula_structural   Li4Ni2As6N5O4
_chemical_formula_sum   'Li4 Ni2 As6 N5 O4'
_cell_volume   453.86154062
_cell_formula_units_Z   1
loop_
 _symmetry_equiv_pos_site_id
 _symmetry_equiv_pos_as_xyz
  1  'x, y, z'
loop_
 _atom_site_type_symbol
 _atom_site_label
 _atom_site_symmetry_multiplicity
 _atom_site_fract_x
 _atom_site_fract_y
 _atom_site_fract_z
 _atom_site_occupancy
  Li  Li0  1  0.00000000  0.00000000  0.00000000  1
  Li  Li1  1  0.50000000  0.50000000  0.50000000  1
  Li  Li2  1  0.50000000  0.50000000  0.00000000  1
  Li  Li3  1  0.50000000  0.00000000  0.50000000  1
  Ni  Ni4  1  0.00000000  0.50000000  0.50000000  1
  Ni  Ni5  1  0.38947704  0.79595485  0.78206972  1
  As  As6  1  0.31509384  0.33960190  0.40245038  1
  As  As7  1  0.97612310  0.93524181  0.97675558  1
  As  As8  1  0.95147450  0.94692913  0.95358185  1
  As  As9  1  0.45945369  0.70972476  0.09343452  1
  As  As10  1  0.97474155  0.00560230  0.73857997  1
  As  As11  1  0.75287543  0.48794650  0.87293084  1
  O  O12  1  0.34175750  0.85142973  0.24163098  1
  O  O13  1  0.96980989  0.92496353  0.15868749  1
  O  O14  1  0.44977646  0.69234846  0.94673235  1
  O  O15  1  0.56198569  0.16231526  0.17100502  1
  N  N16  1  0.60701642  0.54159274  0.28214224  1
  N  N17  1  0.09122224  0.01833411  0.13972810  1
  N  N18  1  0.38412446  0.27634269  0.97596453  1
  N  N19  1  0.63441406  0.62546684  0.44373013  1
  N  N20  1  0.56906081  0.23427433  0.46288365  1
