# generated using pymatgen
data_Li4LuNi2P4N5
_symmetry_space_group_name_H-M   'P 1'
_cell_length_a   7.43249497
_cell_length_b   7.05219556
_cell_length_c   8.86811598
_cell_angle_alpha   93.49759716
_cell_angle_beta   91.23654746
_cell_angle_gamma   94.05678930
_symmetry_Int_Tables_number   1
_chemical_formula_structural   Li4LuNi2P4N5
_chemical_formula_sum   'Li4 Lu1 Ni2 P4 N5'
_cell_volume   462.64105756
_cell_formula_units_Z   1
loop_
 _symmetry_equiv_pos_site_id
 _symmetry_equiv_pos_as_xyz
  1  'x, y, z'
loop_
 _atom_site_type_symbol
 _atom_site_label
 _atom_site_symmetry_multiplicity
 _atom_site_fract_x
 _atom_site_fract_y
 _atom_site_fract_z
 _atom_site_occupancy
  P  P0  1  0.00000000  0.00000000  0.00000000  1
  P  P1  1  0.50000000  0.50000000  0.50000000  1
  P  P2  1  0.50000000  0.50000000  0.00000000  1
  P  P3  1  0.50000000  0.00000000  0.50000000  1
  Lu  Lu4  1  0.00000000  0.50000000  0.50000000  1
  Li  Li5  1  0.54586271  0.95013374  0.03260553  1
  Li  Li6  1  0.46777343  0.96000688  0.76896465  1
  Li  Li7  1  0.57508311  0.35233335  0.50521514  1
  Li  Li8  1  0.03743621  0.92287022  0.65919638  1
  Ni  Ni9  1  0.61844300  0.47961103  0.00843420  1
  Ni  Ni10  1  0.96365219  0.47723909  0.73908063  1
  N  N11  1  0.99973228  0.34783061  0.96899732  1
  N  N12  1  0.73345143  0.69724553  0.37715519  1
  N  N13  1  0.43977736  0.04930160  0.24807605  1
  N  N14  1  0.50527703  0.17199410  0.87060364  1
  N  N15  1  0.21261103  0.12528003  0.79460888  1
