# generated using pymatgen
data_Li2LuP5N5F2
_symmetry_space_group_name_H-M   'P 1'
_cell_length_a   8.01218886
_cell_length_b   7.67267984
_cell_length_c   8.32254697
_cell_angle_alpha   91.53473416
_cell_angle_beta   90.99873290
_cell_angle_gamma   91.77838534
_symmetry_Int_Tables_number   1
_chemical_formula_structural   Li2LuP5N5F2
_chemical_formula_sum   'Li2 Lu1 P5 N5 F2'
_cell_volume   511.11297533
_cell_formula_units_Z   1
loop_
 _symmetry_equiv_pos_site_id
 _symmetry_equiv_pos_as_xyz
  1  'x, y, z'
loop_
 _atom_site_type_symbol
 _atom_site_label
 _atom_site_symmetry_multiplicity
 _atom_site_fract_x
 _atom_site_fract_y
 _atom_site_fract_z
 _atom_site_occupancy
  P  P0  1  0.00000000  0.00000000  0.00000000  1
  P  P1  1  0.50000000  0.50000000  0.50000000  1
  P  P2  1  0.50000000  0.50000000  0.00000000  1
  P  P3  1  0.50000000  0.00000000  0.50000000  1
  P  P4  1  0.00000000  0.50000000  0.50000000  1
  Lu  Lu5  1  0.86070069  0.39410411  0.36559619  1
  Li  Li6  1  0.40488083  0.78406767  0.42550795  1
  Li  Li7  1  0.34193108  0.14035758  0.59174024  1
  F  F8  1  0.45813270  0.25822018  0.03226431  1
  F  F9  1  0.95668545  0.23401002  0.68433623  1
  N  N10  1  0.26813780  0.98468340  0.41200886  1
  N  N11  1  0.94301368  0.52061600  0.60632448  1
  N  N12  1  0.15087695  0.52909700  0.05684900  1
  N  N13  1  0.92835129  0.08129929  0.16651045  1
  N  N14  1  0.08653690  0.46376366  0.66017054  1
