# generated using pymatgen
data_Li2Mn2Sb4P3
_symmetry_space_group_name_H-M   'P 1'
_cell_length_a   6.40661565
_cell_length_b   6.93377732
_cell_length_c   7.14750540
_cell_angle_alpha   94.27606130
_cell_angle_beta   91.99212392
_cell_angle_gamma   94.43869158
_symmetry_Int_Tables_number   1
_chemical_formula_structural   Li2Mn2Sb4P3
_chemical_formula_sum   'Li2 Mn2 Sb4 P3'
_cell_volume   315.41091418
_cell_formula_units_Z   1
loop_
 _symmetry_equiv_pos_site_id
 _symmetry_equiv_pos_as_xyz
  1  'x, y, z'
loop_
 _atom_site_type_symbol
 _atom_site_label
 _atom_site_symmetry_multiplicity
 _atom_site_fract_x
 _atom_site_fract_y
 _atom_site_fract_z
 _atom_site_occupancy
  Mn  Mn0  1  0.00000000  0.00000000  0.00000000  1
  Mn  Mn1  1  0.33300000  0.66700000  0.25000000  1
  Sb  Sb2  1  0.66700000  0.33300000  0.50000000  1
  Sb  Sb3  1  0.00000000  0.00000000  0.75000000  1
  Sb  Sb4  1  0.13505146  0.04361345  0.93722529  1
  Sb  Sb5  1  0.13910806  0.45024110  0.07673311  1
  P  P6  1  0.03346586  0.85953549  0.28237363  1
  P  P7  1  0.89372343  0.96813622  0.47356177  1
  P  P8  1  0.21401424  0.14276160  0.52079334  1
  Li  Li9  1  0.22450032  0.49467685  0.89734813  1
  Li  Li10  1  0.50657687  0.35908738  0.05341667  1
