# generated using pymatgen
data_Li3Ti3(CuO)2
_symmetry_space_group_name_H-M   'P 1'
_cell_length_a   6.80433954
_cell_length_b   7.27122058
_cell_length_c   7.71487320
_cell_angle_alpha   95.07324232
_cell_angle_beta   96.87144028
_cell_angle_gamma   96.52880008
_symmetry_Int_Tables_number   1
_chemical_formula_structural   Li3Ti3(CuO)2
_chemical_formula_sum   'Li3 Ti3 Cu2 O2'
_cell_volume   374.48088361
_cell_formula_units_Z   1
loop_
 _symmetry_equiv_pos_site_id
 _symmetry_equiv_pos_as_xyz
  1  'x, y, z'
loop_
 _atom_site_type_symbol
 _atom_site_label
 _atom_site_symmetry_multiplicity
 _atom_site_fract_x
 _atom_site_fract_y
 _atom_site_fract_z
 _atom_site_occupancy
  Li  Li0  1  0.00000000  0.00000000  0.00000000  1
  Li  Li1  1  0.33300000  0.66700000  0.25000000  1
  Li  Li2  1  0.66700000  0.33300000  0.50000000  1
  Cu  Cu3  1  0.00000000  0.00000000  0.75000000  1
  Cu  Cu4  1  0.06389644  0.84559992  0.87475695  1
  Ti  Ti5  1  0.62450228  0.68472149  0.29210933  1
  Ti  Ti6  1  0.59880431  0.24050145  0.59367865  1
  Ti  Ti7  1  0.79189649  0.80240608  0.72035260  1
  O  O8  1  0.22858232  0.12211139  0.38642753  1
  O  O9  1  0.50507048  0.77434120  0.61827915  1
