# generated using pymatgen
data_Li2Mn2(SbP)3
_symmetry_space_group_name_H-M   'P 1'
_cell_length_a   5.44927936
_cell_length_b   5.88154472
_cell_length_c   7.08067838
_cell_angle_alpha   95.35873865
_cell_angle_beta   96.18142175
_cell_angle_gamma   96.02523087
_symmetry_Int_Tables_number   1
_chemical_formula_structural   Li2Mn2(SbP)3
_chemical_formula_sum   'Li2 Mn2 Sb3 P3'
_cell_volume   223.10975371
_cell_formula_units_Z   1
loop_
 _symmetry_equiv_pos_site_id
 _symmetry_equiv_pos_as_xyz
  1  'x, y, z'
loop_
 _atom_site_type_symbol
 _atom_site_label
 _atom_site_symmetry_multiplicity
 _atom_site_fract_x
 _atom_site_fract_y
 _atom_site_fract_z
 _atom_site_occupancy
  Mn  Mn0  1  0.12500000  0.12500000  0.12500000  1
  Mn  Mn1  1  0.50000000  0.50000000  0.50000000  1
  Sb  Sb2  1  0.25000000  0.25000000  0.25000000  1
  Sb  Sb3  1  0.75000000  0.75000000  0.75000000  1
  Sb  Sb4  1  0.48209261  0.49408408  0.41419142  1
  P  P5  1  0.40786874  0.93361181  0.39251365  1
  P  P6  1  0.36352956  0.64754145  0.57446256  1
  P  P7  1  0.85341920  0.35344419  0.84070782  1
  Li  Li8  1  0.14029619  0.91222983  0.03859634  1
  Li  Li9  1  0.13998341  0.92931950  0.02479628  1
