# generated using pymatgen
data_LiNiAs3
_symmetry_space_group_name_H-M   'P 1'
_cell_length_a   7.74182345
_cell_length_b   7.82827840
_cell_length_c   8.82166896
_cell_angle_alpha   90.32868518
_cell_angle_beta   91.56378428
_cell_angle_gamma   90.37577493
_symmetry_Int_Tables_number   1
_chemical_formula_structural   LiNiAs3
_chemical_formula_sum   'Li2 Ni2 As6'
_cell_volume   534.41859308
_cell_formula_units_Z   2
loop_
 _symmetry_equiv_pos_site_id
 _symmetry_equiv_pos_as_xyz
  1  'x, y, z'
loop_
 _atom_site_type_symbol
 _atom_site_label
 _atom_site_symmetry_multiplicity
 _atom_site_fract_x
 _atom_site_fract_y
 _atom_site_fract_z
 _atom_site_occupancy
  Ni  Ni0  1  0.00000000  0.00000000  0.00000000  1
  Ni  Ni1  1  0.50000000  0.50000000  0.50000000  1
  As  As2  1  0.25000000  0.25000000  0.25000000  1
  As  As3  1  0.75000000  0.25000000  0.00000000  1
  As  As4  1  0.25000000  0.75000000  0.50000000  1
  As  As5  1  0.82777334  0.46188879  0.21412909  1
  As  As6  1  0.35822581  0.37622821  0.75604490  1
  As  As7  1  0.42355799  0.18411836  0.82347655  1
  Li  Li8  1  0.34575460  0.43072304  0.38500935  1
  Li  Li9  1  0.62246247  0.43521812  0.41600296  1
