# generated using pymatgen
data_Li2MnSb4Mo2P3
_symmetry_space_group_name_H-M   'P 1'
_cell_length_a   4.59465037
_cell_length_b   4.81265495
_cell_length_c   6.11257149
_cell_angle_alpha   103.43155239
_cell_angle_beta   91.62832321
_cell_angle_gamma   103.29771949
_symmetry_Int_Tables_number   1
_chemical_formula_structural   Li2MnSb4Mo2P3
_chemical_formula_sum   'Li2 Mn1 Sb4 Mo2 P3'
_cell_volume   127.46301314
_cell_formula_units_Z   1
loop_
 _symmetry_equiv_pos_site_id
 _symmetry_equiv_pos_as_xyz
  1  'x, y, z'
loop_
 _atom_site_type_symbol
 _atom_site_label
 _atom_site_symmetry_multiplicity
 _atom_site_fract_x
 _atom_site_fract_y
 _atom_site_fract_z
 _atom_site_occupancy
  Mn  Mn0  1  0.00000000  0.00000000  0.00000000  1
  Sb  Sb1  1  0.50000000  0.50000000  0.50000000  1
  Sb  Sb2  1  0.25000000  0.25000000  0.25000000  1
  Sb  Sb3  1  0.75000000  0.25000000  0.00000000  1
  Sb  Sb4  1  0.25000000  0.75000000  0.50000000  1
  P  P5  1  0.43726497  0.07936367  0.62103605  1
  P  P6  1  0.02472015  0.25959107  0.37072175  1
  P  P7  1  0.52204094  0.95265232  0.78611367  1
  Mo  Mo8  1  0.73831851  0.13112677  0.84848913  1
  Mo  Mo9  1  0.14375125  0.05208498  0.09756416  1
  Li  Li10  1  0.13345807  0.05690062  0.50204751  1
  Li  Li11  1  0.26863823  0.38574161  0.89682864  1
