# generated using pymatgen
data_Li3(TiS)2
_symmetry_space_group_name_H-M   'P 1'
_cell_length_a   4.97310281
_cell_length_b   4.81406542
_cell_length_c   7.08272397
_cell_angle_alpha   99.64010066
_cell_angle_beta   100.75528312
_cell_angle_gamma   98.95620060
_symmetry_Int_Tables_number   1
_chemical_formula_structural   Li3(TiS)2
_chemical_formula_sum   'Li3 Ti2 S2'
_cell_volume   161.14752261
_cell_formula_units_Z   1
loop_
 _symmetry_equiv_pos_site_id
 _symmetry_equiv_pos_as_xyz
  1  'x, y, z'
loop_
 _atom_site_type_symbol
 _atom_site_label
 _atom_site_symmetry_multiplicity
 _atom_site_fract_x
 _atom_site_fract_y
 _atom_site_fract_z
 _atom_site_occupancy
  Li  Li0  1  0.12500000  0.12500000  0.12500000  1
  Li  Li1  1  0.50000000  0.50000000  0.50000000  1
  Li  Li2  1  0.25000000  0.25000000  0.25000000  1
  S  S3  1  0.75000000  0.75000000  0.75000000  1
  S  S4  1  0.37341728  0.01294677  0.14430484  1
  Ti  Ti5  1  0.69281796  0.65292054  0.58286028  1
  Ti  Ti6  1  0.29405932  0.98125626  0.03371066  1
