# generated using pymatgen
data_LiMn2Sb4P3
_symmetry_space_group_name_H-M   'P 1'
_cell_length_a   5.47782114
_cell_length_b   5.81609837
_cell_length_c   6.55110080
_cell_angle_alpha   92.40907615
_cell_angle_beta   93.42254669
_cell_angle_gamma   93.12169200
_symmetry_Int_Tables_number   1
_chemical_formula_structural   LiMn2Sb4P3
_chemical_formula_sum   'Li1 Mn2 Sb4 P3'
_cell_volume   207.81886418
_cell_formula_units_Z   1
loop_
 _symmetry_equiv_pos_site_id
 _symmetry_equiv_pos_as_xyz
  1  'x, y, z'
loop_
 _atom_site_type_symbol
 _atom_site_label
 _atom_site_symmetry_multiplicity
 _atom_site_fract_x
 _atom_site_fract_y
 _atom_site_fract_z
 _atom_site_occupancy
  Mn  Mn0  1  0.00000000  0.00000000  0.00000000  1
  Mn  Mn1  1  0.50000000  0.50000000  0.50000000  1
  Sb  Sb2  1  0.25000000  0.25000000  0.25000000  1
  Sb  Sb3  1  0.75000000  0.25000000  0.00000000  1
  Sb  Sb4  1  0.25000000  0.75000000  0.50000000  1
  Sb  Sb5  1  0.69933374  0.59737185  0.48871048  1
  P  P6  1  0.90600513  0.36622698  0.43306772  1
  P  P7  1  0.59216890  0.72678258  0.61930095  1
  P  P8  1  0.10153476  0.31244177  0.95163258  1
  Li  Li9  1  0.25412230  0.21648588  0.59671731  1
