# generated using pymatgen
data_Li2V3Cu2(As2P)3
_symmetry_space_group_name_H-M   'P 1'
_cell_length_a   7.75303650
_cell_length_b   7.52471589
_cell_length_c   8.17758080
_cell_angle_alpha   90.28655784
_cell_angle_beta   91.36335518
_cell_angle_gamma   90.32761213
_symmetry_Int_Tables_number   1
_chemical_formula_structural   Li2V3Cu2(As2P)3
_chemical_formula_sum   'Li2 V3 Cu2 As6 P3'
_cell_volume   476.92598339
_cell_formula_units_Z   1
loop_
 _symmetry_equiv_pos_site_id
 _symmetry_equiv_pos_as_xyz
  1  'x, y, z'
loop_
 _atom_site_type_symbol
 _atom_site_label
 _atom_site_symmetry_multiplicity
 _atom_site_fract_x
 _atom_site_fract_y
 _atom_site_fract_z
 _atom_site_occupancy
  P  P0  1  0.12500000  0.00000000  0.25000000  1
  P  P1  1  0.00000000  0.00000000  0.00000000  1
  P  P2  1  0.37500000  0.00000000  0.25000000  1
  V  V3  1  0.25000000  0.25000000  0.25000000  1
  V  V4  1  0.00000000  0.25000000  0.12500000  1
  V  V5  1  0.61140255  0.44069306  0.98065895  1
  As  As6  1  0.67746094  0.51083634  0.96882708  1
  As  As7  1  0.77286489  0.40099232  0.13636062  1
  As  As8  1  0.72100549  0.61581173  0.34334414  1
  As  As9  1  0.73858383  0.21033633  0.06175928  1
  As  As10  1  0.83328469  0.44103913  0.33447747  1
  As  As11  1  0.00511373  0.41838107  0.19202385  1
  Li  Li12  1  0.85269884  0.34960083  0.66586284  1
  Li  Li13  1  0.95534715  0.22946356  0.84577245  1
  Cu  Cu14  1  0.17253175  0.10231794  0.43456918  1
  Cu  Cu15  1  0.73578757  0.52298340  0.34905628  1
