# generated using pymatgen
data_Li2Ti3(CuO)2
_symmetry_space_group_name_H-M   'P 1'
_cell_length_a   5.49691797
_cell_length_b   5.66554939
_cell_length_c   6.99798105
_cell_angle_alpha   98.00039789
_cell_angle_beta   102.04120639
_cell_angle_gamma   100.24491884
_symmetry_Int_Tables_number   1
_chemical_formula_structural   Li2Ti3(CuO)2
_chemical_formula_sum   'Li2 Ti3 Cu2 O2'
_cell_volume   206.19655008
_cell_formula_units_Z   1
loop_
 _symmetry_equiv_pos_site_id
 _symmetry_equiv_pos_as_xyz
  1  'x, y, z'
loop_
 _atom_site_type_symbol
 _atom_site_label
 _atom_site_symmetry_multiplicity
 _atom_site_fract_x
 _atom_site_fract_y
 _atom_site_fract_z
 _atom_site_occupancy
  Li  Li0  1  0.00000000  0.00000000  0.00000000  1
  Li  Li1  1  0.33300000  0.66700000  0.25000000  1
  Cu  Cu2  1  0.66700000  0.33300000  0.50000000  1
  Cu  Cu3  1  0.00000000  0.00000000  0.75000000  1
  Ti  Ti4  1  0.29199811  0.24397868  0.01379305  1
  Ti  Ti5  1  0.67777490  0.02637170  0.98490729  1
  Ti  Ti6  1  0.44371062  0.46881324  0.82683223  1
  O  O7  1  0.76387972  0.08940863  0.29720520  1
  O  O8  1  0.83802276  0.95787807  0.43122362  1
