# generated using pymatgen
data_Li2Ti2Ni2(PN)5
_symmetry_space_group_name_H-M   'P 1'
_cell_length_a   7.97364632
_cell_length_b   7.66371192
_cell_length_c   8.65539975
_cell_angle_alpha   91.57067937
_cell_angle_beta   90.85337728
_cell_angle_gamma   91.82067362
_symmetry_Int_Tables_number   1
_chemical_formula_structural   Li2Ti2Ni2(PN)5
_chemical_formula_sum   'Li2 Ti2 Ni2 P5 N5'
_cell_volume   528.38039070
_cell_formula_units_Z   1
loop_
 _symmetry_equiv_pos_site_id
 _symmetry_equiv_pos_as_xyz
  1  'x, y, z'
loop_
 _atom_site_type_symbol
 _atom_site_label
 _atom_site_symmetry_multiplicity
 _atom_site_fract_x
 _atom_site_fract_y
 _atom_site_fract_z
 _atom_site_occupancy
  P  P0  1  0.00000000  0.00000000  0.00000000  1
  P  P1  1  0.50000000  0.50000000  0.50000000  1
  P  P2  1  0.25000000  0.25000000  0.25000000  1
  P  P3  1  0.75000000  0.25000000  0.00000000  1
  P  P4  1  0.25000000  0.75000000  0.50000000  1
  Li  Li5  1  0.56887071  0.75959743  0.98939255  1
  Li  Li6  1  0.96486269  0.12603504  0.34792496  1
  Ni  Ni7  1  0.85346479  0.96557279  0.75689052  1
  Ni  Ni8  1  0.22161836  0.93803179  0.50877904  1
  Ti  Ti9  1  0.92994723  0.77991237  0.27101467  1
  Ti  Ti10  1  0.53826943  0.32853135  0.24274683  1
  N  N11  1  0.06629247  0.61096678  0.44243711  1
  N  N12  1  0.52518204  0.97297845  0.24302016  1
  N  N13  1  0.04499360  0.47048150  0.27527645  1
  N  N14  1  0.78207172  0.18866589  0.31656694  1
  N  N15  1  0.13651968  0.96913265  0.03323674  1
