# generated using pymatgen
data_Li3TiP8I4O3
_symmetry_space_group_name_H-M   'P 1'
_cell_length_a   7.57087508
_cell_length_b   7.30033019
_cell_length_c   7.32796208
_cell_angle_alpha   92.73504956
_cell_angle_beta   92.99770052
_cell_angle_gamma   92.46046705
_symmetry_Int_Tables_number   1
_chemical_formula_structural   Li3TiP8I4O3
_chemical_formula_sum   'Li3 Ti1 P8 I4 O3'
_cell_volume   403.58156276
_cell_formula_units_Z   1
loop_
 _symmetry_equiv_pos_site_id
 _symmetry_equiv_pos_as_xyz
  1  'x, y, z'
loop_
 _atom_site_type_symbol
 _atom_site_label
 _atom_site_symmetry_multiplicity
 _atom_site_fract_x
 _atom_site_fract_y
 _atom_site_fract_z
 _atom_site_occupancy
  P  P0  1  0.12500000  0.00000000  0.25000000  1
  P  P1  1  0.00000000  0.00000000  0.00000000  1
  P  P2  1  0.37500000  0.00000000  0.25000000  1
  P  P3  1  0.25000000  0.25000000  0.25000000  1
  P  P4  1  0.00000000  0.25000000  0.12500000  1
  P  P5  1  0.27971821  0.46583705  0.18268469  1
  P  P6  1  0.17932841  0.74768181  0.03209364  1
  P  P7  1  0.64671165  0.53179937  0.38742468  1
  I  I8  1  0.57097155  0.87776602  0.42034680  1
  I  I9  1  0.62536425  0.04301164  0.31516233  1
  I  I10  1  0.39227822  0.28365656  0.45528683  1
  I  I11  1  0.29089851  0.90754726  0.03163463  1
  Li  Li12  1  0.28346974  0.35476694  0.80960147  1
  Li  Li13  1  0.06567652  0.97811581  0.12455731  1
  Li  Li14  1  0.03092342  0.61936967  0.18132743  1
  Ti  Ti15  1  0.53989049  0.96058475  0.73062164  1
  O  O16  1  0.85692907  0.78185437  0.59835367  1
  O  O17  1  0.92300446  0.21048960  0.59575577  1
  O  O18  1  0.22218482  0.03956111  0.12890412  1
