# generated using pymatgen
data_Li2I5N5Cl2
_symmetry_space_group_name_H-M   'P 1'
_cell_length_a   7.97388983
_cell_length_b   7.64579543
_cell_length_c   9.16797094
_cell_angle_alpha   95.27571967
_cell_angle_beta   96.57563066
_cell_angle_gamma   95.37544214
_symmetry_Int_Tables_number   1
_chemical_formula_structural   Li2I5N5Cl2
_chemical_formula_sum   'Li2 I5 N5 Cl2'
_cell_volume   549.83532520
_cell_formula_units_Z   1
loop_
 _symmetry_equiv_pos_site_id
 _symmetry_equiv_pos_as_xyz
  1  'x, y, z'
loop_
 _atom_site_type_symbol
 _atom_site_label
 _atom_site_symmetry_multiplicity
 _atom_site_fract_x
 _atom_site_fract_y
 _atom_site_fract_z
 _atom_site_occupancy
  I  I0  1  0.00000000  0.00000000  0.00000000  1
  I  I1  1  0.33300000  0.66700000  0.25000000  1
  I  I2  1  0.66700000  0.33300000  0.50000000  1
  I  I3  1  0.00000000  0.00000000  0.75000000  1
  I  I4  1  0.30998284  0.26078195  0.89677801  1
  Li  Li5  1  0.50008203  0.88148725  0.19145763  1
  Li  Li6  1  0.89508765  0.18229264  0.47689260  1
  Cl  Cl7  1  0.44149125  0.40225278  0.77981307  1
  Cl  Cl8  1  0.88815288  0.56963782  0.62548057  1
  N  N9  1  0.77030447  0.48397168  0.27522725  1
  N  N10  1  0.88014961  0.63681969  0.83913198  1
  N  N11  1  0.80174727  0.64497995  0.01003942  1
  N  N12  1  0.83529151  0.20612175  0.42284886  1
  N  N13  1  0.91797945  0.56586500  0.81735815  1
