# generated using pymatgen
data_Li3Ti2O2F3
_symmetry_space_group_name_H-M   'P 1'
_cell_length_a   4.75012274
_cell_length_b   4.65764026
_cell_length_c   6.45527849
_cell_angle_alpha   98.49306396
_cell_angle_beta   104.28698133
_cell_angle_gamma   99.13756172
_symmetry_Int_Tables_number   1
_chemical_formula_structural   Li3Ti2O2F3
_chemical_formula_sum   'Li3 Ti2 O2 F3'
_cell_volume   134.01354747
_cell_formula_units_Z   1
loop_
 _symmetry_equiv_pos_site_id
 _symmetry_equiv_pos_as_xyz
  1  'x, y, z'
loop_
 _atom_site_type_symbol
 _atom_site_label
 _atom_site_symmetry_multiplicity
 _atom_site_fract_x
 _atom_site_fract_y
 _atom_site_fract_z
 _atom_site_occupancy
  Li  Li0  1  0.00000000  0.00000000  0.00000000  1
  Li  Li1  1  0.33300000  0.66700000  0.25000000  1
  Li  Li2  1  0.66700000  0.33300000  0.50000000  1
  F  F3  1  0.00000000  0.00000000  0.75000000  1
  F  F4  1  0.90353065  0.22340430  0.62102763  1
  F  F5  1  0.99765643  0.44517231  0.85157824  1
  Ti  Ti6  1  0.08798988  0.32779556  0.49622836  1
  Ti  Ti7  1  0.95222343  0.21173042  0.68767294  1
  O  O8  1  0.15391214  0.72618699  0.99969210  1
  O  O9  1  0.02628420  0.20624822  0.78910649  1
