# generated using pymatgen
data_Li2Ti2Cu2P7O
_symmetry_space_group_name_H-M   'P 1'
_cell_length_a   6.23769692
_cell_length_b   6.51561243
_cell_length_c   7.12595213
_cell_angle_alpha   96.83372372
_cell_angle_beta   99.60382386
_cell_angle_gamma   98.77969497
_symmetry_Int_Tables_number   1
_chemical_formula_structural   Li2Ti2Cu2P7O
_chemical_formula_sum   'Li2 Ti2 Cu2 P7 O1'
_cell_volume   279.09272562
_cell_formula_units_Z   1
loop_
 _symmetry_equiv_pos_site_id
 _symmetry_equiv_pos_as_xyz
  1  'x, y, z'
loop_
 _atom_site_type_symbol
 _atom_site_label
 _atom_site_symmetry_multiplicity
 _atom_site_fract_x
 _atom_site_fract_y
 _atom_site_fract_z
 _atom_site_occupancy
  P  P0  1  0.00000000  0.00000000  0.00000000  1
  P  P1  1  0.50000000  0.50000000  0.50000000  1
  P  P2  1  0.50000000  0.50000000  0.00000000  1
  P  P3  1  0.50000000  0.00000000  0.50000000  1
  P  P4  1  0.00000000  0.50000000  0.50000000  1
  P  P5  1  0.53562717  0.02306512  0.06472648  1
  P  P6  1  0.15200757  0.66261179  0.36395021  1
  Li  Li7  1  0.05778269  0.42693803  0.60461160  1
  Li  Li8  1  0.72203226  0.98944026  0.45516716  1
  Cu  Cu9  1  0.67324392  0.38921996  0.57998762  1
  Cu  Cu10  1  0.00634635  0.60924289  0.98998844  1
  Ti  Ti11  1  0.95797443  0.71924653  0.53731393  1
  Ti  Ti12  1  0.73766485  0.42163338  0.20378975  1
  O  O13  1  0.20460495  0.19985379  0.41234464  1
