# generated using pymatgen
data_Li3Cu2Ni2I4O3
_symmetry_space_group_name_H-M   'P 1'
_cell_length_a   8.29858213
_cell_length_b   8.66651812
_cell_length_c   8.35465616
_cell_angle_alpha   90.00000000
_cell_angle_beta   90.00000000
_cell_angle_gamma   90.00000000
_symmetry_Int_Tables_number   1
_chemical_formula_structural   Li3Cu2Ni2I4O3
_chemical_formula_sum   'Li3 Cu2 Ni2 I4 O3'
_cell_volume   600.86530337
_cell_formula_units_Z   1
loop_
 _symmetry_equiv_pos_site_id
 _symmetry_equiv_pos_as_xyz
  1  'x, y, z'
loop_
 _atom_site_type_symbol
 _atom_site_label
 _atom_site_symmetry_multiplicity
 _atom_site_fract_x
 _atom_site_fract_y
 _atom_site_fract_z
 _atom_site_occupancy
  I  I0  1  0.00000000  0.00000000  0.00000000  1
  I  I1  1  0.50000000  0.50000000  0.50000000  1
  I  I2  1  0.50000000  0.50000000  0.00000000  1
  I  I3  1  0.50000000  0.00000000  0.50000000  1
  Li  Li4  1  0.00000000  0.50000000  0.50000000  1
  Li  Li5  1  0.71442172  0.01668068  0.33607809  1
  Li  Li6  1  0.49643389  0.97941683  0.38900735  1
  Cu  Cu7  1  0.51898130  0.59025876  0.16866213  1
  Cu  Cu8  1  0.75206331  0.28893005  0.69984559  1
  Ni  Ni9  1  0.17033251  0.15837284  0.81268703  1
  Ni  Ni10  1  0.94502708  0.39789162  0.27465068  1
  O  O11  1  0.80759245  0.08540012  0.14436129  1
  O  O12  1  0.67771068  0.12091911  0.71781842  1
  O  O13  1  0.97115828  0.55310909  0.00639599  1
