# generated using pymatgen
data_Li2Cu2As6O7
_symmetry_space_group_name_H-M   'P 1'
_cell_length_a   7.51498760
_cell_length_b   7.58892367
_cell_length_c   8.48767303
_cell_angle_alpha   90.46190141
_cell_angle_beta   92.51715779
_cell_angle_gamma   90.51722537
_symmetry_Int_Tables_number   1
_chemical_formula_structural   Li2Cu2As6O7
_chemical_formula_sum   'Li2 Cu2 As6 O7'
_cell_volume   483.55355990
_cell_formula_units_Z   1
loop_
 _symmetry_equiv_pos_site_id
 _symmetry_equiv_pos_as_xyz
  1  'x, y, z'
loop_
 _atom_site_type_symbol
 _atom_site_label
 _atom_site_symmetry_multiplicity
 _atom_site_fract_x
 _atom_site_fract_y
 _atom_site_fract_z
 _atom_site_occupancy
  O  O0  1  0.12500000  0.12500000  0.12500000  1
  O  O1  1  0.50000000  0.50000000  0.50000000  1
  O  O2  1  0.25000000  0.25000000  0.25000000  1
  O  O3  1  0.75000000  0.75000000  0.75000000  1
  O  O4  1  0.23693358  0.96164400  0.10288385  1
  O  O5  1  0.57932333  0.71460237  0.18820277  1
  O  O6  1  0.57187595  0.16689962  0.58330733  1
  As  As7  1  0.66382622  0.86979808  0.45263471  1
  As  As8  1  0.25271130  0.16518655  0.69389088  1
  As  As9  1  0.84869204  0.72786240  0.96918302  1
  As  As10  1  0.32987809  0.47524951  0.80089947  1
  As  As11  1  0.84329166  0.26369097  0.13615394  1
  As  As12  1  0.38841523  0.35234168  0.32985555  1
  Li  Li13  1  0.69766539  0.87526254  0.25365390  1
  Li  Li14  1  0.46629492  0.47509614  0.09567841  1
  Cu  Cu15  1  0.02691819  0.94600869  0.42672064  1
  Cu  Cu16  1  0.66073151  0.99640270  0.20788868  1
