# generated using pymatgen
data_LiMn3Sb4P3
_symmetry_space_group_name_H-M   'P 1'
_cell_length_a   5.46979294
_cell_length_b   5.77044018
_cell_length_c   6.27637067
_cell_angle_alpha   94.54904277
_cell_angle_beta   91.01392136
_cell_angle_gamma   94.84876770
_symmetry_Int_Tables_number   1
_chemical_formula_structural   LiMn3Sb4P3
_chemical_formula_sum   'Li1 Mn3 Sb4 P3'
_cell_volume   196.71164450
_cell_formula_units_Z   1
loop_
 _symmetry_equiv_pos_site_id
 _symmetry_equiv_pos_as_xyz
  1  'x, y, z'
loop_
 _atom_site_type_symbol
 _atom_site_label
 _atom_site_symmetry_multiplicity
 _atom_site_fract_x
 _atom_site_fract_y
 _atom_site_fract_z
 _atom_site_occupancy
  Mn  Mn0  1  0.00000000  0.00000000  0.00000000  1
  Mn  Mn1  1  0.50000000  0.50000000  0.50000000  1
  Mn  Mn2  1  0.25000000  0.25000000  0.25000000  1
  Sb  Sb3  1  0.75000000  0.25000000  0.00000000  1
  Sb  Sb4  1  0.25000000  0.75000000  0.50000000  1
  Sb  Sb5  1  0.21062608  0.52248619  0.58135527  1
  Sb  Sb6  1  0.42438867  0.51896266  0.99390275  1
  P  P7  1  0.82079799  0.56700536  0.89906273  1
  P  P8  1  0.77642899  0.87348447  0.21801263  1
  P  P9  1  0.76127501  0.69112982  0.55556172  1
  Li  Li10  1  0.70591623  0.02296417  0.65852244  1
