# generated using pymatgen
data_LiSb4Mo2P3
_symmetry_space_group_name_H-M   'P 1'
_cell_length_a   4.83702770
_cell_length_b   5.02887435
_cell_length_c   6.29462676
_cell_angle_alpha   97.37006922
_cell_angle_beta   93.48135100
_cell_angle_gamma   97.40220026
_symmetry_Int_Tables_number   1
_chemical_formula_structural   LiSb4Mo2P3
_chemical_formula_sum   'Li1 Sb4 Mo2 P3'
_cell_volume   150.11982131
_cell_formula_units_Z   1
loop_
 _symmetry_equiv_pos_site_id
 _symmetry_equiv_pos_as_xyz
  1  'x, y, z'
loop_
 _atom_site_type_symbol
 _atom_site_label
 _atom_site_symmetry_multiplicity
 _atom_site_fract_x
 _atom_site_fract_y
 _atom_site_fract_z
 _atom_site_occupancy
  Sb  Sb0  1  0.00000000  0.00000000  0.00000000  1
  Sb  Sb1  1  0.50000000  0.50000000  0.50000000  1
  Sb  Sb2  1  0.25000000  0.25000000  0.25000000  1
  Sb  Sb3  1  0.75000000  0.25000000  0.00000000  1
  P  P4  1  0.25000000  0.75000000  0.50000000  1
  P  P5  1  0.59387380  0.38676595  0.09651356  1
  P  P6  1  0.77073933  0.75702264  0.17460477  1
  Mo  Mo7  1  0.23217204  0.38955259  0.29752021  1
  Mo  Mo8  1  0.86213356  0.47184388  0.62885537  1
  Li  Li9  1  0.92372883  0.90794811  0.52009072  1
