# generated using pymatgen
data_LiMnSb4P3
_symmetry_space_group_name_H-M   'P 1'
_cell_length_a   4.92878925
_cell_length_b   5.21243276
_cell_length_c   6.31299656
_cell_angle_alpha   98.95589407
_cell_angle_beta   92.99232068
_cell_angle_gamma   98.98763694
_symmetry_Int_Tables_number   1
_chemical_formula_structural   LiMnSb4P3
_chemical_formula_sum   'Li1 Mn1 Sb4 P3'
_cell_volume   157.75529567
_cell_formula_units_Z   1
loop_
 _symmetry_equiv_pos_site_id
 _symmetry_equiv_pos_as_xyz
  1  'x, y, z'
loop_
 _atom_site_type_symbol
 _atom_site_label
 _atom_site_symmetry_multiplicity
 _atom_site_fract_x
 _atom_site_fract_y
 _atom_site_fract_z
 _atom_site_occupancy
  Mn  Mn0  1  0.12500000  0.12500000  0.12500000  1
  Sb  Sb1  1  0.50000000  0.50000000  0.50000000  1
  Sb  Sb2  1  0.25000000  0.25000000  0.25000000  1
  Sb  Sb3  1  0.75000000  0.75000000  0.75000000  1
  Sb  Sb4  1  0.31227722  0.60352287  0.82082926  1
  P  P5  1  0.72853030  0.09399141  0.80653022  1
  P  P6  1  0.40670124  0.97151787  0.15165334  1
  P  P7  1  0.02820751  0.85154213  0.94926428  1
  Li  Li8  1  0.59694485  0.27810111  0.10751507  1
