# generated using pymatgen
data_Li3TiS2O3
_symmetry_space_group_name_H-M   'P 1'
_cell_length_a   7.15769011
_cell_length_b   6.83928172
_cell_length_c   7.36625123
_cell_angle_alpha   93.60035138
_cell_angle_beta   93.94609858
_cell_angle_gamma   93.23889777
_symmetry_Int_Tables_number   1
_chemical_formula_structural   Li3TiS2O3
_chemical_formula_sum   'Li3 Ti1 S2 O3'
_cell_volume   358.36805020
_cell_formula_units_Z   1
loop_
 _symmetry_equiv_pos_site_id
 _symmetry_equiv_pos_as_xyz
  1  'x, y, z'
loop_
 _atom_site_type_symbol
 _atom_site_label
 _atom_site_symmetry_multiplicity
 _atom_site_fract_x
 _atom_site_fract_y
 _atom_site_fract_z
 _atom_site_occupancy
  Li  Li0  1  0.00000000  0.00000000  0.00000000  1
  Li  Li1  1  0.50000000  0.50000000  0.50000000  1
  Li  Li2  1  0.50000000  0.50000000  0.00000000  1
  S  S3  1  0.50000000  0.00000000  0.50000000  1
  S  S4  1  0.00000000  0.50000000  0.50000000  1
  Ti  Ti5  1  0.04194865  0.00291721  0.27847979  1
  O  O6  1  0.72225704  0.33003701  0.65838327  1
  O  O7  1  0.69111588  0.95295113  0.75775551  1
  O  O8  1  0.09069810  0.60272081  0.08799446  1
