# generated using pymatgen
data_Li4Ti(IO)4
_symmetry_space_group_name_H-M   'P 1'
_cell_length_a   6.28504556
_cell_length_b   5.98020794
_cell_length_c   7.00454003
_cell_angle_alpha   96.89828552
_cell_angle_beta   97.56073833
_cell_angle_gamma   96.20573916
_symmetry_Int_Tables_number   1
_chemical_formula_structural   Li4Ti(IO)4
_chemical_formula_sum   'Li4 Ti1 I4 O4'
_cell_volume   257.03198727
_cell_formula_units_Z   1
loop_
 _symmetry_equiv_pos_site_id
 _symmetry_equiv_pos_as_xyz
  1  'x, y, z'
loop_
 _atom_site_type_symbol
 _atom_site_label
 _atom_site_symmetry_multiplicity
 _atom_site_fract_x
 _atom_site_fract_y
 _atom_site_fract_z
 _atom_site_occupancy
  Li  Li0  1  0.12500000  0.00000000  0.25000000  1
  Li  Li1  1  0.00000000  0.00000000  0.00000000  1
  Li  Li2  1  0.37500000  0.00000000  0.25000000  1
  Li  Li3  1  0.25000000  0.25000000  0.25000000  1
  Ti  Ti4  1  0.00000000  0.25000000  0.12500000  1
  I  I5  1  0.60313629  0.45354193  0.20228149  1
  I  I6  1  0.74528732  0.59447827  0.68457745  1
  I  I7  1  0.84472967  0.82427154  0.83458371  1
  I  I8  1  0.37371377  0.51960863  0.36611709  1
  O  O9  1  0.79231105  0.26720589  0.40937883  1
  O  O10  1  0.09372074  0.05368123  0.98399786  1
  O  O11  1  0.76017856  0.26310722  0.92319108  1
  O  O12  1  0.65150763  0.94495357  0.36729171  1
