# generated using pymatgen
data_LiCu2P4OF2
_symmetry_space_group_name_H-M   'P 1'
_cell_length_a   7.27021514
_cell_length_b   7.31088868
_cell_length_c   7.83016144
_cell_angle_alpha   90.66756027
_cell_angle_beta   94.60659280
_cell_angle_gamma   90.71462445
_symmetry_Int_Tables_number   1
_chemical_formula_structural   LiCu2P4OF2
_chemical_formula_sum   'Li1 Cu2 P4 O1 F2'
_cell_volume   414.77653141
_cell_formula_units_Z   1
loop_
 _symmetry_equiv_pos_site_id
 _symmetry_equiv_pos_as_xyz
  1  'x, y, z'
loop_
 _atom_site_type_symbol
 _atom_site_label
 _atom_site_symmetry_multiplicity
 _atom_site_fract_x
 _atom_site_fract_y
 _atom_site_fract_z
 _atom_site_occupancy
  P  P0  1  0.00000000  0.00000000  0.00000000  1
  P  P1  1  0.50000000  0.50000000  0.50000000  1
  P  P2  1  0.50000000  0.50000000  0.00000000  1
  P  P3  1  0.50000000  0.00000000  0.50000000  1
  Li  Li4  1  0.00000000  0.50000000  0.50000000  1
  Cu  Cu5  1  0.47773400  0.17699387  0.39158797  1
  Cu  Cu6  1  0.18148495  0.44000334  0.92135246  1
  F  F7  1  0.89636831  0.80173151  0.35404816  1
  F  F8  1  0.86825166  0.21983244  0.39423083  1
  O  O9  1  0.84295435  0.24310173  0.93566964  1
