# generated using pymatgen
data_Li2Ti3(CuO)2
_symmetry_space_group_name_H-M   'P 1'
_cell_length_a   6.34742685
_cell_length_b   6.64163607
_cell_length_c   7.60776467
_cell_angle_alpha   95.75528597
_cell_angle_beta   98.69811457
_cell_angle_gamma   97.36841988
_symmetry_Int_Tables_number   1
_chemical_formula_structural   Li2Ti3(CuO)2
_chemical_formula_sum   'Li2 Ti3 Cu2 O2'
_cell_volume   312.06450114
_cell_formula_units_Z   1
loop_
 _symmetry_equiv_pos_site_id
 _symmetry_equiv_pos_as_xyz
  1  'x, y, z'
loop_
 _atom_site_type_symbol
 _atom_site_label
 _atom_site_symmetry_multiplicity
 _atom_site_fract_x
 _atom_site_fract_y
 _atom_site_fract_z
 _atom_site_occupancy
  O  O0  1  0.00000000  0.00000000  0.00000000  1
  O  O1  1  0.33300000  0.66700000  0.25000000  1
  Ti  Ti2  1  0.66700000  0.33300000  0.50000000  1
  Ti  Ti3  1  0.00000000  0.00000000  0.75000000  1
  Ti  Ti4  1  0.25220557  0.61792598  0.86601256  1
  Li  Li5  1  0.66139344  0.29950948  0.51709785  1
  Li  Li6  1  0.89013517  0.28762608  0.61506909  1
  Cu  Cu7  1  0.40728906  0.86366755  0.99505042  1
  Cu  Cu8  1  0.15389195  0.83328478  0.14966918  1
