# generated using pymatgen
data_Li3LuP4
_symmetry_space_group_name_H-M   'P 1'
_cell_length_a   7.92267771
_cell_length_b   7.57687021
_cell_length_c   8.40678886
_cell_angle_alpha   91.83782190
_cell_angle_beta   91.03545410
_cell_angle_gamma   92.13019608
_symmetry_Int_Tables_number   1
_chemical_formula_structural   Li3LuP4
_chemical_formula_sum   'Li3 Lu1 P4'
_cell_volume   503.95007053
_cell_formula_units_Z   1
loop_
 _symmetry_equiv_pos_site_id
 _symmetry_equiv_pos_as_xyz
  1  'x, y, z'
loop_
 _atom_site_type_symbol
 _atom_site_label
 _atom_site_symmetry_multiplicity
 _atom_site_fract_x
 _atom_site_fract_y
 _atom_site_fract_z
 _atom_site_occupancy
  P  P0  1  0.00000000  0.00000000  0.00000000  1
  P  P1  1  0.50000000  0.50000000  0.50000000  1
  P  P2  1  0.50000000  0.50000000  0.00000000  1
  P  P3  1  0.50000000  0.00000000  0.50000000  1
  Lu  Lu4  1  0.00000000  0.50000000  0.50000000  1
  Li  Li5  1  0.01710200  0.11652575  0.18519871  1
  Li  Li6  1  0.30380235  0.05042750  0.56775721  1
  Li  Li7  1  0.56816975  0.81313114  0.21856371  1
