# generated using pymatgen
data_Li3Cu2(As2O)3
_symmetry_space_group_name_H-M   'P 1'
_cell_length_a   6.78064864
_cell_length_b   6.79914715
_cell_length_c   7.97453183
_cell_angle_alpha   94.08538402
_cell_angle_beta   97.16621224
_cell_angle_gamma   95.19396120
_symmetry_Int_Tables_number   1
_chemical_formula_structural   Li3Cu2(As2O)3
_chemical_formula_sum   'Li3 Cu2 As6 O3'
_cell_volume   362.00766568
_cell_formula_units_Z   1
loop_
 _symmetry_equiv_pos_site_id
 _symmetry_equiv_pos_as_xyz
  1  'x, y, z'
loop_
 _atom_site_type_symbol
 _atom_site_label
 _atom_site_symmetry_multiplicity
 _atom_site_fract_x
 _atom_site_fract_y
 _atom_site_fract_z
 _atom_site_occupancy
  Li  Li0  1  0.00000000  0.00000000  0.00000000  1
  Li  Li1  1  0.33300000  0.66700000  0.25000000  1
  Li  Li2  1  0.66700000  0.33300000  0.50000000  1
  Cu  Cu3  1  0.00000000  0.00000000  0.75000000  1
  Cu  Cu4  1  0.25404594  0.62993973  0.09096491  1
  As  As5  1  0.76842217  0.90184193  0.05706259  1
  As  As6  1  0.18592372  0.28849166  0.54004182  1
  As  As7  1  0.11620222  0.44506307  0.94821773  1
  As  As8  1  0.50118921  0.28295790  0.63644809  1
  As  As9  1  0.14209377  0.11856659  0.25287723  1
  As  As10  1  0.25095193  0.67961306  0.65365098  1
  O  O11  1  0.90206370  0.88792188  0.55602978  1
  O  O12  1  0.82426625  0.40033434  0.38112448  1
  O  O13  1  0.71247790  0.28562000  0.44811873  1
