# generated using pymatgen
data_LiPN3O
_symmetry_space_group_name_H-M   'P 1'
_cell_length_a   7.95986917
_cell_length_b   7.49192039
_cell_length_c   7.72511601
_cell_angle_alpha   90.55632013
_cell_angle_beta   90.75350639
_cell_angle_gamma   90.71593325
_symmetry_Int_Tables_number   1
_chemical_formula_structural   LiPN3O
_chemical_formula_sum   'Li2 P2 N6 O2'
_cell_volume   460.58676319
_cell_formula_units_Z   2
loop_
 _symmetry_equiv_pos_site_id
 _symmetry_equiv_pos_as_xyz
  1  'x, y, z'
loop_
 _atom_site_type_symbol
 _atom_site_label
 _atom_site_symmetry_multiplicity
 _atom_site_fract_x
 _atom_site_fract_y
 _atom_site_fract_z
 _atom_site_occupancy
  P  P0  1  0.00000000  0.00000000  0.00000000  1
  P  P1  1  0.50000000  0.50000000  0.50000000  1
  Li  Li2  1  0.25000000  0.25000000  0.25000000  1
  Li  Li3  1  0.75000000  0.25000000  0.00000000  1
  O  O4  1  0.25000000  0.75000000  0.50000000  1
  O  O5  1  0.09709596  0.33098126  0.77494693  1
  N  N6  1  0.26817780  0.06217983  0.98433609  1
  N  N7  1  0.14758849  0.33641433  0.83849656  1
  N  N8  1  0.81602469  0.64268100  0.54145206  1
  N  N9  1  0.76422146  0.99138303  0.53185683  1
  N  N10  1  0.24644373  0.18022002  0.37033692  1
  N  N11  1  0.25830511  0.19951841  0.67101966  1
