# generated using pymatgen
data_Li2Mn2Sb4P3
_symmetry_space_group_name_H-M   'P 1'
_cell_length_a   5.97773779
_cell_length_b   6.46867042
_cell_length_c   7.03801676
_cell_angle_alpha   95.48911758
_cell_angle_beta   94.13507914
_cell_angle_gamma   95.23892764
_symmetry_Int_Tables_number   1
_chemical_formula_structural   Li2Mn2Sb4P3
_chemical_formula_sum   'Li2 Mn2 Sb4 P3'
_cell_volume   268.86788550
_cell_formula_units_Z   1
loop_
 _symmetry_equiv_pos_site_id
 _symmetry_equiv_pos_as_xyz
  1  'x, y, z'
loop_
 _atom_site_type_symbol
 _atom_site_label
 _atom_site_symmetry_multiplicity
 _atom_site_fract_x
 _atom_site_fract_y
 _atom_site_fract_z
 _atom_site_occupancy
  Mn  Mn0  1  0.00000000  0.00000000  0.00000000  1
  Mn  Mn1  1  0.50000000  0.50000000  0.50000000  1
  Sb  Sb2  1  0.50000000  0.50000000  0.00000000  1
  Sb  Sb3  1  0.50000000  0.00000000  0.50000000  1
  Sb  Sb4  1  0.00000000  0.50000000  0.50000000  1
  Sb  Sb5  1  0.18672472  0.22197199  0.90102336  1
  P  P6  1  0.84218148  0.68749453  0.24711782  1
  P  P7  1  0.92215416  0.96856097  0.38676189  1
  P  P8  1  0.76298839  0.57364867  0.21773775  1
  Li  Li9  1  0.48778694  0.79962708  0.49843012  1
  Li  Li10  1  0.64406545  0.49711291  0.92947379  1
