# generated using pymatgen
data_Li2Mn2Sb4P2N
_symmetry_space_group_name_H-M   'P 1'
_cell_length_a   5.13033772
_cell_length_b   5.37553484
_cell_length_c   6.42782431
_cell_angle_alpha   99.23390678
_cell_angle_beta   95.36187340
_cell_angle_gamma   98.55077889
_symmetry_Int_Tables_number   1
_chemical_formula_structural   Li2Mn2Sb4P2N
_chemical_formula_sum   'Li2 Mn2 Sb4 P2 N1'
_cell_volume   171.77239983
_cell_formula_units_Z   1
loop_
 _symmetry_equiv_pos_site_id
 _symmetry_equiv_pos_as_xyz
  1  'x, y, z'
loop_
 _atom_site_type_symbol
 _atom_site_label
 _atom_site_symmetry_multiplicity
 _atom_site_fract_x
 _atom_site_fract_y
 _atom_site_fract_z
 _atom_site_occupancy
  N  N0  1  0.00000000  0.00000000  0.00000000  1
  Mn  Mn1  1  0.50000000  0.50000000  0.50000000  1
  Mn  Mn2  1  0.25000000  0.25000000  0.25000000  1
  Sb  Sb3  1  0.75000000  0.25000000  0.00000000  1
  Sb  Sb4  1  0.25000000  0.75000000  0.50000000  1
  Sb  Sb5  1  0.60050218  0.00848437  0.78995681  1
  Sb  Sb6  1  0.56599787  0.16327025  0.00783723  1
  P  P7  1  0.82643786  0.88072911  0.99787372  1
  P  P8  1  0.43506661  0.74792734  0.59683813  1
  Li  Li9  1  0.01291458  0.97189983  0.33498437  1
  Li  Li10  1  0.21402823  0.50889720  0.71718507  1
