# generated using pymatgen
data_LiMn2Sb4(MoP)2
_symmetry_space_group_name_H-M   'P 1'
_cell_length_a   4.89531954
_cell_length_b   5.20622396
_cell_length_c   6.55562370
_cell_angle_alpha   98.81518364
_cell_angle_beta   95.53539702
_cell_angle_gamma   98.54668841
_symmetry_Int_Tables_number   1
_chemical_formula_structural   LiMn2Sb4(MoP)2
_chemical_formula_sum   'Li1 Mn2 Sb4 Mo2 P2'
_cell_volume   162.05052818
_cell_formula_units_Z   1
loop_
 _symmetry_equiv_pos_site_id
 _symmetry_equiv_pos_as_xyz
  1  'x, y, z'
loop_
 _atom_site_type_symbol
 _atom_site_label
 _atom_site_symmetry_multiplicity
 _atom_site_fract_x
 _atom_site_fract_y
 _atom_site_fract_z
 _atom_site_occupancy
  Mn  Mn0  1  0.00000000  0.00000000  0.00000000  1
  Mn  Mn1  1  0.50000000  0.50000000  0.50000000  1
  Sb  Sb2  1  0.50000000  0.50000000  0.00000000  1
  Sb  Sb3  1  0.50000000  0.00000000  0.50000000  1
  Sb  Sb4  1  0.00000000  0.50000000  0.50000000  1
  Sb  Sb5  1  0.82651417  0.16685160  0.19861625  1
  P  P6  1  0.72008326  0.58477300  0.77424210  1
  P  P7  1  0.96296812  0.76701738  0.66569211  1
  Mo  Mo8  1  0.02091593  0.07085901  0.25887586  1
  Mo  Mo9  1  0.74703509  0.53607843  0.86671458  1
  Li  Li10  1  0.52253778  0.40284104  0.93247649  1
