# generated using pymatgen
data_LiAs2N2O
_symmetry_space_group_name_H-M   'P 1'
_cell_length_a   7.85878752
_cell_length_b   7.38123734
_cell_length_c   8.23026564
_cell_angle_alpha   90.22544070
_cell_angle_beta   91.57940217
_cell_angle_gamma   90.24052934
_symmetry_Int_Tables_number   1
_chemical_formula_structural   LiAs2N2O
_chemical_formula_sum   'Li3 As6 N6 O3'
_cell_volume   477.22825937
_cell_formula_units_Z   3
loop_
 _symmetry_equiv_pos_site_id
 _symmetry_equiv_pos_as_xyz
  1  'x, y, z'
loop_
 _atom_site_type_symbol
 _atom_site_label
 _atom_site_symmetry_multiplicity
 _atom_site_fract_x
 _atom_site_fract_y
 _atom_site_fract_z
 _atom_site_occupancy
  Li  Li0  1  0.12500000  0.12500000  0.12500000  1
  Li  Li1  1  0.50000000  0.50000000  0.50000000  1
  Li  Li2  1  0.25000000  0.25000000  0.25000000  1
  As  As3  1  0.75000000  0.75000000  0.75000000  1
  As  As4  1  0.46390566  0.69432305  0.17959349  1
  As  As5  1  0.94030110  0.96586966  0.31928151  1
  As  As6  1  0.65777519  0.68727677  0.19170850  1
  As  As7  1  0.14793294  0.10331271  0.24370586  1
  As  As8  1  0.71682780  0.97984014  0.03292130  1
  O  O9  1  0.19639320  0.10221874  0.81653500  1
  O  O10  1  0.38868718  0.99642450  0.68575846  1
  O  O11  1  0.48943361  0.57094300  0.81972561  1
  N  N12  1  0.13087942  0.15312892  0.73309888  1
  N  N13  1  0.18868427  0.67361075  0.61530473  1
  N  N14  1  0.51429398  0.97408520  0.97603725  1
  N  N15  1  0.35323327  0.96726371  0.09864966  1
  N  N16  1  0.43267844  0.00279257  0.47851195  1
  N  N17  1  0.16630234  0.02455728  0.40003111  1
