# generated using pymatgen
data_Li2P2Br3N5O3
_symmetry_space_group_name_H-M   'P 1'
_cell_length_a   7.45988373
_cell_length_b   7.34386160
_cell_length_c   8.40197750
_cell_angle_alpha   92.89954043
_cell_angle_beta   91.65819120
_cell_angle_gamma   93.44346343
_symmetry_Int_Tables_number   1
_chemical_formula_structural   Li2P2Br3N5O3
_chemical_formula_sum   'Li2 P2 Br3 N5 O3'
_cell_volume   458.64154424
_cell_formula_units_Z   1
loop_
 _symmetry_equiv_pos_site_id
 _symmetry_equiv_pos_as_xyz
  1  'x, y, z'
loop_
 _atom_site_type_symbol
 _atom_site_label
 _atom_site_symmetry_multiplicity
 _atom_site_fract_x
 _atom_site_fract_y
 _atom_site_fract_z
 _atom_site_occupancy
  O  O0  1  0.00000000  0.00000000  0.00000000  1
  O  O1  1  0.50000000  0.50000000  0.50000000  1
  O  O2  1  0.25000000  0.25000000  0.25000000  1
  P  P3  1  0.75000000  0.25000000  0.00000000  1
  P  P4  1  0.25000000  0.75000000  0.50000000  1
  Li  Li5  1  0.68476747  0.57195105  0.53547234  1
  Li  Li6  1  0.33100103  0.57580386  0.33567521  1
  Br  Br7  1  0.13202712  0.57391400  0.99596309  1
  Br  Br8  1  0.32737885  0.18404432  0.99228363  1
  Br  Br9  1  0.84531688  0.28867546  0.10323760  1
  N  N10  1  0.03050345  0.27856571  0.04244171  1
  N  N11  1  0.12652194  0.02018557  0.48820347  1
  N  N12  1  0.45706754  0.03402449  0.47441223  1
  N  N13  1  0.26193268  0.39239370  0.21044211  1
  N  N14  1  0.37865469  0.27513495  0.07789456  1
