# generated using pymatgen
data_Li2MnSb4P3
_symmetry_space_group_name_H-M   'P 1'
_cell_length_a   5.06272384
_cell_length_b   5.15157194
_cell_length_c   7.23436737
_cell_angle_alpha   97.05558228
_cell_angle_beta   98.35798913
_cell_angle_gamma   98.03012377
_symmetry_Int_Tables_number   1
_chemical_formula_structural   Li2MnSb4P3
_chemical_formula_sum   'Li2 Mn1 Sb4 P3'
_cell_volume   182.86149861
_cell_formula_units_Z   1
loop_
 _symmetry_equiv_pos_site_id
 _symmetry_equiv_pos_as_xyz
  1  'x, y, z'
loop_
 _atom_site_type_symbol
 _atom_site_label
 _atom_site_symmetry_multiplicity
 _atom_site_fract_x
 _atom_site_fract_y
 _atom_site_fract_z
 _atom_site_occupancy
  Mn  Mn0  1  0.12500000  0.00000000  0.25000000  1
  Sb  Sb1  1  0.00000000  0.00000000  0.00000000  1
  Sb  Sb2  1  0.37500000  0.00000000  0.25000000  1
  Sb  Sb3  1  0.25000000  0.25000000  0.25000000  1
  Sb  Sb4  1  0.00000000  0.25000000  0.12500000  1
  P  P5  1  0.52410523  0.14844481  0.56869693  1
  P  P6  1  0.84355035  0.61006827  0.27140826  1
  P  P7  1  0.88271424  0.93229637  0.08777928  1
  Li  Li8  1  0.85053599  0.52253626  0.36232852  1
  Li  Li9  1  0.67571479  0.07366936  0.15347510  1
