# generated using pymatgen
data_Li3LuP4N5
_symmetry_space_group_name_H-M   'P 1'
_cell_length_a   8.19692523
_cell_length_b   7.95478100
_cell_length_c   7.98894443
_cell_angle_alpha   91.64650887
_cell_angle_beta   90.58211002
_cell_angle_gamma   91.90975096
_symmetry_Int_Tables_number   1
_chemical_formula_structural   Li3LuP4N5
_chemical_formula_sum   'Li3 Lu1 P4 N5'
_cell_volume   520.38056829
_cell_formula_units_Z   1
loop_
 _symmetry_equiv_pos_site_id
 _symmetry_equiv_pos_as_xyz
  1  'x, y, z'
loop_
 _atom_site_type_symbol
 _atom_site_label
 _atom_site_symmetry_multiplicity
 _atom_site_fract_x
 _atom_site_fract_y
 _atom_site_fract_z
 _atom_site_occupancy
  P  P0  1  0.12500000  0.00000000  0.25000000  1
  P  P1  1  0.00000000  0.00000000  0.00000000  1
  P  P2  1  0.37500000  0.00000000  0.25000000  1
  P  P3  1  0.25000000  0.25000000  0.25000000  1
  Lu  Lu4  1  0.00000000  0.25000000  0.12500000  1
  Li  Li5  1  0.55720103  0.54821042  0.46071190  1
  Li  Li6  1  0.03039884  0.92742411  0.07540491  1
  Li  Li7  1  0.17365284  0.20545020  0.14007213  1
  N  N8  1  0.97771092  0.77243523  0.28993232  1
  N  N9  1  0.32963333  0.90200784  0.93448919  1
  N  N10  1  0.15489317  0.60269243  0.39606462  1
  N  N11  1  0.44191765  0.29227994  0.67127425  1
  N  N12  1  0.12392996  0.93794161  0.37611631  1
