# generated using pymatgen
data_Li2MnSb4P3
_symmetry_space_group_name_H-M   'P 1'
_cell_length_a   4.79204230
_cell_length_b   5.11196518
_cell_length_c   6.65071832
_cell_angle_alpha   99.84435161
_cell_angle_beta   95.19362082
_cell_angle_gamma   100.30334116
_symmetry_Int_Tables_number   1
_chemical_formula_structural   Li2MnSb4P3
_chemical_formula_sum   'Li2 Mn1 Sb4 P3'
_cell_volume   156.69640842
_cell_formula_units_Z   1
loop_
 _symmetry_equiv_pos_site_id
 _symmetry_equiv_pos_as_xyz
  1  'x, y, z'
loop_
 _atom_site_type_symbol
 _atom_site_label
 _atom_site_symmetry_multiplicity
 _atom_site_fract_x
 _atom_site_fract_y
 _atom_site_fract_z
 _atom_site_occupancy
  Mn  Mn0  1  0.12500000  0.12500000  0.12500000  1
  Sb  Sb1  1  0.50000000  0.50000000  0.50000000  1
  Sb  Sb2  1  0.25000000  0.25000000  0.25000000  1
  Sb  Sb3  1  0.75000000  0.75000000  0.75000000  1
  Sb  Sb4  1  0.76033320  0.52793381  0.03056097  1
  P  P5  1  0.47242404  0.11482857  0.23734758  1
  P  P6  1  0.09286093  0.47287691  0.85427828  1
  P  P7  1  0.18297897  0.14890815  0.08450676  1
  Li  Li8  1  0.75037139  0.22393886  0.44798478  1
  Li  Li9  1  0.22893715  0.09929579  0.09083679  1
