# generated using pymatgen
data_Li4Ti2P6N5O3
_symmetry_space_group_name_H-M   'P 1'
_cell_length_a   6.67143075
_cell_length_b   6.18239535
_cell_length_c   7.27771510
_cell_angle_alpha   94.82700345
_cell_angle_beta   94.02735827
_cell_angle_gamma   94.78520094
_symmetry_Int_Tables_number   1
_chemical_formula_structural   Li4Ti2P6N5O3
_chemical_formula_sum   'Li4 Ti2 P6 N5 O3'
_cell_volume   297.16185093
_cell_formula_units_Z   1
loop_
 _symmetry_equiv_pos_site_id
 _symmetry_equiv_pos_as_xyz
  1  'x, y, z'
loop_
 _atom_site_type_symbol
 _atom_site_label
 _atom_site_symmetry_multiplicity
 _atom_site_fract_x
 _atom_site_fract_y
 _atom_site_fract_z
 _atom_site_occupancy
  P  P0  1  0.00000000  0.00000000  0.00000000  1
  P  P1  1  0.50000000  0.50000000  0.50000000  1
  P  P2  1  0.25000000  0.25000000  0.25000000  1
  P  P3  1  0.75000000  0.25000000  0.00000000  1
  P  P4  1  0.25000000  0.75000000  0.50000000  1
  P  P5  1  0.93204589  0.79194051  0.13743536  1
  Li  Li6  1  0.20703480  0.66574894  0.62927140  1
  Li  Li7  1  0.95811111  0.35263549  0.82631553  1
  Li  Li8  1  0.69012579  0.47818996  0.34890158  1
  Li  Li9  1  0.57609031  0.20200207  0.47091077  1
  Ti  Ti10  1  0.03135740  0.30493418  0.05709268  1
  Ti  Ti11  1  0.16713459  0.74196840  0.39191634  1
  O  O12  1  0.12604804  0.19728811  0.76390519  1
  O  O13  1  0.73222564  0.87046908  0.58347625  1
  O  O14  1  0.87554403  0.59184000  0.49796113  1
  N  N15  1  0.76553572  0.25767689  0.47945211  1
  N  N16  1  0.69030573  0.80844023  0.92647798  1
  N  N17  1  0.84394611  0.91891902  0.02491851  1
  N  N18  1  0.51162797  0.73464164  0.45708556  1
  N  N19  1  0.47693478  0.69106414  0.98618516  1
