# generated using pymatgen
data_Li2Ti2Si2S2O3
_symmetry_space_group_name_H-M   'P 1'
_cell_length_a   6.39367756
_cell_length_b   5.95959812
_cell_length_c   7.97728119
_cell_angle_alpha   97.21754039
_cell_angle_beta   97.91065173
_cell_angle_gamma   96.49294276
_symmetry_Int_Tables_number   1
_chemical_formula_structural   Li2Ti2Si2S2O3
_chemical_formula_sum   'Li2 Ti2 Si2 S2 O3'
_cell_volume   296.04561208
_cell_formula_units_Z   1
loop_
 _symmetry_equiv_pos_site_id
 _symmetry_equiv_pos_as_xyz
  1  'x, y, z'
loop_
 _atom_site_type_symbol
 _atom_site_label
 _atom_site_symmetry_multiplicity
 _atom_site_fract_x
 _atom_site_fract_y
 _atom_site_fract_z
 _atom_site_occupancy
  Li  Li0  1  0.00000000  0.00000000  0.00000000  1
  Li  Li1  1  0.50000000  0.50000000  0.50000000  1
  S  S2  1  0.50000000  0.50000000  0.00000000  1
  S  S3  1  0.50000000  0.00000000  0.50000000  1
  Ti  Ti4  1  0.00000000  0.50000000  0.50000000  1
  Ti  Ti5  1  0.46585420  0.31669764  0.92542288  1
  Si  Si6  1  0.92949600  0.61142541  0.69498834  1
  Si  Si7  1  0.30581064  0.04084846  0.95557417  1
  O  O8  1  0.05395087  0.41424589  0.05975957  1
  O  O9  1  0.75410335  0.37302137  0.67754779  1
  O  O10  1  0.95188833  0.62218950  0.70404029  1
