# generated using pymatgen
data_Li2MnSb4P3N
_symmetry_space_group_name_H-M   'P 1'
_cell_length_a   4.57302113
_cell_length_b   4.89262285
_cell_length_c   6.52581371
_cell_angle_alpha   98.26008691
_cell_angle_beta   97.89977821
_cell_angle_gamma   98.26014704
_symmetry_Int_Tables_number   1
_chemical_formula_structural   Li2MnSb4P3N
_chemical_formula_sum   'Li2 Mn1 Sb4 P3 N1'
_cell_volume   141.12022957
_cell_formula_units_Z   1
loop_
 _symmetry_equiv_pos_site_id
 _symmetry_equiv_pos_as_xyz
  1  'x, y, z'
loop_
 _atom_site_type_symbol
 _atom_site_label
 _atom_site_symmetry_multiplicity
 _atom_site_fract_x
 _atom_site_fract_y
 _atom_site_fract_z
 _atom_site_occupancy
  N  N0  1  0.00000000  0.00000000  0.00000000  1
  Mn  Mn1  1  0.50000000  0.50000000  0.50000000  1
  Sb  Sb2  1  0.25000000  0.25000000  0.25000000  1
  Sb  Sb3  1  0.75000000  0.25000000  0.00000000  1
  Sb  Sb4  1  0.25000000  0.75000000  0.50000000  1
  Sb  Sb5  1  0.53160405  0.69259586  0.35785088  1
  P  P6  1  0.13957438  0.88777675  0.38718186  1
  P  P7  1  0.35864039  0.37071919  0.04027859  1
  P  P8  1  0.22629516  0.25062808  0.97320633  1
  Li  Li9  1  0.20846669  0.63984838  0.69356117  1
  Li  Li10  1  0.81048433  0.03284542  0.01957511  1
