# generated using pymatgen
data_Li2Ti2P2(BrO)3
_symmetry_space_group_name_H-M   'P 1'
_cell_length_a   7.51034113
_cell_length_b   7.88118839
_cell_length_c   7.54322582
_cell_angle_alpha   91.79776011
_cell_angle_beta   92.43497165
_cell_angle_gamma   92.31355326
_symmetry_Int_Tables_number   1
_chemical_formula_structural   Li2Ti2P2(BrO)3
_chemical_formula_sum   'Li2 Ti2 P2 Br3 O3'
_cell_volume   445.47502067
_cell_formula_units_Z   1
loop_
 _symmetry_equiv_pos_site_id
 _symmetry_equiv_pos_as_xyz
  1  'x, y, z'
loop_
 _atom_site_type_symbol
 _atom_site_label
 _atom_site_symmetry_multiplicity
 _atom_site_fract_x
 _atom_site_fract_y
 _atom_site_fract_z
 _atom_site_occupancy
  P  P0  1  0.00000000  0.00000000  0.00000000  1
  P  P1  1  0.50000000  0.50000000  0.50000000  1
  Li  Li2  1  0.25000000  0.25000000  0.25000000  1
  Li  Li3  1  0.75000000  0.25000000  0.00000000  1
  Br  Br4  1  0.25000000  0.75000000  0.50000000  1
  Br  Br5  1  0.65595672  0.52234554  0.75120553  1
  Br  Br6  1  0.99663959  0.72593231  0.82719536  1
  Ti  Ti7  1  0.24953958  0.25454676  0.71769408  1
  Ti  Ti8  1  0.79192554  0.43185921  0.78177761  1
  O  O9  1  0.45059419  0.82765145  0.98365375  1
  O  O10  1  0.00402992  0.62233041  0.26181079  1
  O  O11  1  0.22992108  0.86323281  0.70677311  1
