# generated using pymatgen
data_LiNiTe3(IO)2
_symmetry_space_group_name_H-M   'P 1'
_cell_length_a   7.23523316
_cell_length_b   7.18469941
_cell_length_c   7.88468407
_cell_angle_alpha   90.56329665
_cell_angle_beta   92.67999440
_cell_angle_gamma   90.64399849
_symmetry_Int_Tables_number   1
_chemical_formula_structural   LiNiTe3(IO)2
_chemical_formula_sum   'Li2 Ni2 Te6 I4 O4'
_cell_volume   409.37317908
_cell_formula_units_Z   2
loop_
 _symmetry_equiv_pos_site_id
 _symmetry_equiv_pos_as_xyz
  1  'x, y, z'
loop_
 _atom_site_type_symbol
 _atom_site_label
 _atom_site_symmetry_multiplicity
 _atom_site_fract_x
 _atom_site_fract_y
 _atom_site_fract_z
 _atom_site_occupancy
  I  I0  1  0.12500000  0.00000000  0.25000000  1
  I  I1  1  0.00000000  0.00000000  0.00000000  1
  I  I2  1  0.37500000  0.00000000  0.25000000  1
  I  I3  1  0.25000000  0.25000000  0.25000000  1
  Li  Li4  1  0.00000000  0.25000000  0.12500000  1
  Li  Li5  1  0.97026520  0.12487840  0.10878187  1
  Ni  Ni6  1  0.50418735  0.05558816  0.38456427  1
  Ni  Ni7  1  0.81222736  0.30369620  0.75370508  1
  Te  Te8  1  0.28435517  0.57948318  0.02936013  1
  Te  Te9  1  0.48032434  0.17480188  0.06940156  1
  Te  Te10  1  0.50296445  0.85367388  0.16910494  1
  Te  Te11  1  0.89570267  0.31418858  0.59367079  1
  Te  Te12  1  0.59698685  0.97390221  0.68342052  1
  Te  Te13  1  0.58187409  0.61031053  0.59270986  1
  O  O14  1  0.44262847  0.84405705  0.80350050  1
  O  O15  1  0.04211787  0.18527769  0.24896076  1
  O  O16  1  0.48895478  0.09076506  0.82928111  1
  O  O17  1  0.61799753  0.28807244  0.25696791  1
