# generated using pymatgen
data_LiMn2Sb4P3
_symmetry_space_group_name_H-M   'P 1'
_cell_length_a   5.52240016
_cell_length_b   5.83734134
_cell_length_c   6.50948912
_cell_angle_alpha   94.49399268
_cell_angle_beta   92.29036319
_cell_angle_gamma   94.68731023
_symmetry_Int_Tables_number   1
_chemical_formula_structural   LiMn2Sb4P3
_chemical_formula_sum   'Li1 Mn2 Sb4 P3'
_cell_volume   208.26882801
_cell_formula_units_Z   1
loop_
 _symmetry_equiv_pos_site_id
 _symmetry_equiv_pos_as_xyz
  1  'x, y, z'
loop_
 _atom_site_type_symbol
 _atom_site_label
 _atom_site_symmetry_multiplicity
 _atom_site_fract_x
 _atom_site_fract_y
 _atom_site_fract_z
 _atom_site_occupancy
  Mn  Mn0  1  0.00000000  0.00000000  0.00000000  1
  Mn  Mn1  1  0.50000000  0.50000000  0.50000000  1
  Sb  Sb2  1  0.50000000  0.50000000  0.00000000  1
  Sb  Sb3  1  0.50000000  0.00000000  0.50000000  1
  Sb  Sb4  1  0.00000000  0.50000000  0.50000000  1
  Sb  Sb5  1  0.48335066  0.45478545  0.20383476  1
  P  P6  1  0.00026247  0.73730560  0.61150927  1
  P  P7  1  0.65382828  0.41058677  0.54108410  1
  P  P8  1  0.65026666  0.50055234  0.43901667  1
  Li  Li9  1  0.88462889  0.56559669  0.08145016  1
