# generated using pymatgen
data_Li2MnSb4P3
_symmetry_space_group_name_H-M   'P 1'
_cell_length_a   5.35885522
_cell_length_b   5.48552839
_cell_length_c   6.90624302
_cell_angle_alpha   98.36871994
_cell_angle_beta   94.34683489
_cell_angle_gamma   98.74939953
_symmetry_Int_Tables_number   1
_chemical_formula_structural   Li2MnSb4P3
_chemical_formula_sum   'Li2 Mn1 Sb4 P3'
_cell_volume   197.51978006
_cell_formula_units_Z   1
loop_
 _symmetry_equiv_pos_site_id
 _symmetry_equiv_pos_as_xyz
  1  'x, y, z'
loop_
 _atom_site_type_symbol
 _atom_site_label
 _atom_site_symmetry_multiplicity
 _atom_site_fract_x
 _atom_site_fract_y
 _atom_site_fract_z
 _atom_site_occupancy
  Mn  Mn0  1  0.00000000  0.00000000  0.00000000  1
  Sb  Sb1  1  0.50000000  0.50000000  0.50000000  1
  Sb  Sb2  1  0.25000000  0.25000000  0.25000000  1
  Sb  Sb3  1  0.75000000  0.25000000  0.00000000  1
  Sb  Sb4  1  0.25000000  0.75000000  0.50000000  1
  P  P5  1  0.99876451  0.33164269  0.91531283  1
  P  P6  1  0.05178962  0.78497481  0.38035536  1
  P  P7  1  0.80526615  0.26181715  0.56588907  1
  Li  Li8  1  0.26048532  0.48753254  0.18428276  1
  Li  Li9  1  0.34756563  0.81295385  0.73497885  1
