# generated using pymatgen
data_Li5LuZr(P2Cl)2
_symmetry_space_group_name_H-M   'P 1'
_cell_length_a   5.44469486
_cell_length_b   5.01291819
_cell_length_c   7.59665026
_cell_angle_alpha   104.02927708
_cell_angle_beta   106.45934055
_cell_angle_gamma   103.54244637
_symmetry_Int_Tables_number   1
_chemical_formula_structural   Li5LuZr(P2Cl)2
_chemical_formula_sum   'Li5 Lu1 Zr1 P4 Cl2'
_cell_volume   182.40799127
_cell_formula_units_Z   1
loop_
 _symmetry_equiv_pos_site_id
 _symmetry_equiv_pos_as_xyz
  1  'x, y, z'
loop_
 _atom_site_type_symbol
 _atom_site_label
 _atom_site_symmetry_multiplicity
 _atom_site_fract_x
 _atom_site_fract_y
 _atom_site_fract_z
 _atom_site_occupancy
  P  P0  1  0.12500000  0.00000000  0.25000000  1
  P  P1  1  0.00000000  0.00000000  0.00000000  1
  P  P2  1  0.37500000  0.00000000  0.25000000  1
  P  P3  1  0.25000000  0.25000000  0.25000000  1
  Lu  Lu4  1  0.00000000  0.25000000  0.12500000  1
  Li  Li5  1  0.56114988  0.89650978  0.59601338  1
  Li  Li6  1  0.54067938  0.59830757  0.64361435  1
  Li  Li7  1  0.59090751  0.64517410  0.55161225  1
  Li  Li8  1  0.71792507  0.03632152  0.71728156  1
  Li  Li9  1  0.48759655  0.05988095  0.64011824  1
  Cl  Cl10  1  0.36379075  0.69406589  0.09246454  1
  Cl  Cl11  1  0.07928738  0.90808699  0.79185409  1
  Zr  Zr12  1  0.37499681  0.02414471  0.20668203  1
