# generated using pymatgen
data_LiMn3Sb2Mo2P3
_symmetry_space_group_name_H-M   'P 1'
_cell_length_a   4.69647631
_cell_length_b   4.84090927
_cell_length_c   5.71547442
_cell_angle_alpha   96.61308557
_cell_angle_beta   90.89795480
_cell_angle_gamma   96.77357653
_symmetry_Int_Tables_number   1
_chemical_formula_structural   LiMn3Sb2Mo2P3
_chemical_formula_sum   'Li1 Mn3 Sb2 Mo2 P3'
_cell_volume   128.12062315
_cell_formula_units_Z   1
loop_
 _symmetry_equiv_pos_site_id
 _symmetry_equiv_pos_as_xyz
  1  'x, y, z'
loop_
 _atom_site_type_symbol
 _atom_site_label
 _atom_site_symmetry_multiplicity
 _atom_site_fract_x
 _atom_site_fract_y
 _atom_site_fract_z
 _atom_site_occupancy
  Mn  Mn0  1  0.12500000  0.00000000  0.25000000  1
  Mn  Mn1  1  0.00000000  0.00000000  0.00000000  1
  Mn  Mn2  1  0.37500000  0.00000000  0.25000000  1
  Sb  Sb3  1  0.25000000  0.25000000  0.25000000  1
  Sb  Sb4  1  0.00000000  0.25000000  0.12500000  1
  P  P5  1  0.48516491  0.30580850  0.03852249  1
  P  P6  1  0.61748405  0.22548824  0.38905140  1
  P  P7  1  0.68677675  0.45726861  0.57007255  1
  Mo  Mo8  1  0.38654672  0.10960694  0.42178826  1
  Mo  Mo9  1  0.63107142  0.51938010  0.04132355  1
  Li  Li10  1  0.41819699  0.93757426  0.00886075  1
