# generated using pymatgen
data_Li5LuVN5
_symmetry_space_group_name_H-M   'P 1'
_cell_length_a   4.85175610
_cell_length_b   4.12985535
_cell_length_c   7.16198070
_cell_angle_alpha   101.89947062
_cell_angle_beta   98.19572413
_cell_angle_gamma   102.40372143
_symmetry_Int_Tables_number   1
_chemical_formula_structural   Li5LuVN5
_chemical_formula_sum   'Li5 Lu1 V1 N5'
_cell_volume   134.49681062
_cell_formula_units_Z   1
loop_
 _symmetry_equiv_pos_site_id
 _symmetry_equiv_pos_as_xyz
  1  'x, y, z'
loop_
 _atom_site_type_symbol
 _atom_site_label
 _atom_site_symmetry_multiplicity
 _atom_site_fract_x
 _atom_site_fract_y
 _atom_site_fract_z
 _atom_site_occupancy
  Lu  Lu0  1  0.12500000  0.12500000  0.12500000  1
  V  V1  1  0.50000000  0.50000000  0.50000000  1
  Li  Li2  1  0.25000000  0.25000000  0.25000000  1
  Li  Li3  1  0.75000000  0.75000000  0.75000000  1
  Li  Li4  1  0.22021645  0.27932347  0.23397170  1
  Li  Li5  1  0.01966896  0.98351557  0.47040431  1
  Li  Li6  1  0.14802329  0.02990700  0.32092918  1
  N  N7  1  0.22215831  0.74015224  0.63425117  1
  N  N8  1  0.82329353  0.37553475  0.93219008  1
  N  N9  1  0.11911214  0.11344546  0.13917242  1
  N  N10  1  0.05894528  0.58092712  0.24490853  1
  N  N11  1  0.85798699  0.66003570  0.76613644  1
