# generated using pymatgen
data_LiMnSb4Mo2P3
_symmetry_space_group_name_H-M   'P 1'
_cell_length_a   4.54268004
_cell_length_b   4.52221783
_cell_length_c   5.97087875
_cell_angle_alpha   100.98225103
_cell_angle_beta   91.67996421
_cell_angle_gamma   100.70156442
_symmetry_Int_Tables_number   1
_chemical_formula_structural   LiMnSb4Mo2P3
_chemical_formula_sum   'Li1 Mn1 Sb4 Mo2 P3'
_cell_volume   118.05268681
_cell_formula_units_Z   1
loop_
 _symmetry_equiv_pos_site_id
 _symmetry_equiv_pos_as_xyz
  1  'x, y, z'
loop_
 _atom_site_type_symbol
 _atom_site_label
 _atom_site_symmetry_multiplicity
 _atom_site_fract_x
 _atom_site_fract_y
 _atom_site_fract_z
 _atom_site_occupancy
  Mn  Mn0  1  0.00000000  0.00000000  0.00000000  1
  Sb  Sb1  1  0.50000000  0.50000000  0.50000000  1
  Sb  Sb2  1  0.50000000  0.50000000  0.00000000  1
  Sb  Sb3  1  0.50000000  0.00000000  0.50000000  1
  Sb  Sb4  1  0.00000000  0.50000000  0.50000000  1
  P  P5  1  0.69822049  0.30947798  0.59984055  1
  P  P6  1  0.19592334  0.25118679  0.57164457  1
  P  P7  1  0.83955561  0.72401339  0.74518588  1
  Mo  Mo8  1  0.41145461  0.74302194  0.86075594  1
  Mo  Mo9  1  0.60184685  0.01817934  0.64231270  1
  Li  Li10  1  0.34538893  0.74780512  0.20357823  1
