# generated using pymatgen
data_Li2Sb4Mo2P3
_symmetry_space_group_name_H-M   'P 1'
_cell_length_a   6.42447508
_cell_length_b   6.51307893
_cell_length_c   7.45260614
_cell_angle_alpha   94.08921576
_cell_angle_beta   93.76477603
_cell_angle_gamma   94.50372828
_symmetry_Int_Tables_number   1
_chemical_formula_structural   Li2Sb4Mo2P3
_chemical_formula_sum   'Li2 Sb4 Mo2 P3'
_cell_volume   309.28866205
_cell_formula_units_Z   1
loop_
 _symmetry_equiv_pos_site_id
 _symmetry_equiv_pos_as_xyz
  1  'x, y, z'
loop_
 _atom_site_type_symbol
 _atom_site_label
 _atom_site_symmetry_multiplicity
 _atom_site_fract_x
 _atom_site_fract_y
 _atom_site_fract_z
 _atom_site_occupancy
  Sb  Sb0  1  0.00000000  0.00000000  0.00000000  1
  Sb  Sb1  1  0.33300000  0.66700000  0.25000000  1
  Sb  Sb2  1  0.66700000  0.33300000  0.50000000  1
  Sb  Sb3  1  0.00000000  0.00000000  0.75000000  1
  P  P4  1  0.47983704  0.06185708  0.76166757  1
  P  P5  1  0.16634420  0.17909605  0.86069568  1
  P  P6  1  0.82132602  0.16892224  0.34822047  1
  Mo  Mo7  1  0.14276681  0.30158382  0.00569270  1
  Mo  Mo8  1  0.66929637  0.75896922  0.54789169  1
  Li  Li9  1  0.83082896  0.02340476  0.00780305  1
  Li  Li10  1  0.40729475  0.79196163  0.52057732  1
