# generated using pymatgen
data_LiMnSb4P3
_symmetry_space_group_name_H-M   'P 1'
_cell_length_a   6.16694744
_cell_length_b   6.49522373
_cell_length_c   7.20523752
_cell_angle_alpha   93.14420301
_cell_angle_beta   93.87115560
_cell_angle_gamma   93.67637180
_symmetry_Int_Tables_number   1
_chemical_formula_structural   LiMnSb4P3
_chemical_formula_sum   'Li1 Mn1 Sb4 P3'
_cell_volume   286.85178188
_cell_formula_units_Z   1
loop_
 _symmetry_equiv_pos_site_id
 _symmetry_equiv_pos_as_xyz
  1  'x, y, z'
loop_
 _atom_site_type_symbol
 _atom_site_label
 _atom_site_symmetry_multiplicity
 _atom_site_fract_x
 _atom_site_fract_y
 _atom_site_fract_z
 _atom_site_occupancy
  Mn  Mn0  1  0.00000000  0.00000000  0.00000000  1
  Sb  Sb1  1  0.33300000  0.66700000  0.25000000  1
  Sb  Sb2  1  0.66700000  0.33300000  0.50000000  1
  Sb  Sb3  1  0.00000000  0.00000000  0.75000000  1
  Sb  Sb4  1  0.03231164  0.06218774  0.35446538  1
  P  P5  1  0.96171309  0.88058536  0.30173229  1
  P  P6  1  0.56948634  0.09047687  0.06565624  1
  P  P7  1  0.56824835  0.13537616  0.35802111  1
  Li  Li8  1  0.32665239  0.75274381  0.17579182  1
