# generated using pymatgen
data_Li4Ti3Cu2As6O5
_symmetry_space_group_name_H-M   'P 1'
_cell_length_a   7.30275009
_cell_length_b   7.32908422
_cell_length_c   8.72595654
_cell_angle_alpha   93.68896120
_cell_angle_beta   94.99650421
_cell_angle_gamma   94.74735655
_symmetry_Int_Tables_number   1
_chemical_formula_structural   Li4Ti3Cu2As6O5
_chemical_formula_sum   'Li4 Ti3 Cu2 As6 O5'
_cell_volume   462.45820059
_cell_formula_units_Z   1
loop_
 _symmetry_equiv_pos_site_id
 _symmetry_equiv_pos_as_xyz
  1  'x, y, z'
loop_
 _atom_site_type_symbol
 _atom_site_label
 _atom_site_symmetry_multiplicity
 _atom_site_fract_x
 _atom_site_fract_y
 _atom_site_fract_z
 _atom_site_occupancy
  Li  Li0  1  0.00000000  0.00000000  0.00000000  1
  Li  Li1  1  0.50000000  0.50000000  0.50000000  1
  Li  Li2  1  0.50000000  0.50000000  0.00000000  1
  Li  Li3  1  0.50000000  0.00000000  0.50000000  1
  Cu  Cu4  1  0.00000000  0.50000000  0.50000000  1
  Cu  Cu5  1  0.80050788  0.57640924  0.18368192  1
  Ti  Ti6  1  0.08350222  0.67630526  0.92053746  1
  Ti  Ti7  1  0.39936532  0.75072647  0.76310119  1
  Ti  Ti8  1  0.12384016  0.63756467  0.91072588  1
  As  As9  1  0.27491711  0.31426814  0.49766765  1
  As  As10  1  0.54584947  0.04772927  0.28929356  1
  As  As11  1  0.51836128  0.10026327  0.30995295  1
  As  As12  1  0.53736612  0.78752595  0.43177048  1
  As  As13  1  0.93129741  0.12736656  0.09009390  1
  As  As14  1  0.97759544  0.10797767  0.68814166  1
  O  O15  1  0.20762447  0.70989171  0.71839020  1
  O  O16  1  0.09944531  0.88089017  0.14432988  1
  O  O17  1  0.60559060  0.04935324  0.46884769  1
  O  O18  1  0.94558682  0.96075156  0.84825910  1
  O  O19  1  0.23718801  0.75537842  0.72493224  1
