# generated using pymatgen
data_Li2Mn2Sb4Mo2P3
_symmetry_space_group_name_H-M   'P 1'
_cell_length_a   5.32280719
_cell_length_b   5.71946140
_cell_length_c   6.87515717
_cell_angle_alpha   97.64347640
_cell_angle_beta   94.65284377
_cell_angle_gamma   98.08624263
_symmetry_Int_Tables_number   1
_chemical_formula_structural   Li2Mn2Sb4Mo2P3
_chemical_formula_sum   'Li2 Mn2 Sb4 Mo2 P3'
_cell_volume   204.31664914
_cell_formula_units_Z   1
loop_
 _symmetry_equiv_pos_site_id
 _symmetry_equiv_pos_as_xyz
  1  'x, y, z'
loop_
 _atom_site_type_symbol
 _atom_site_label
 _atom_site_symmetry_multiplicity
 _atom_site_fract_x
 _atom_site_fract_y
 _atom_site_fract_z
 _atom_site_occupancy
  Mn  Mn0  1  0.12500000  0.00000000  0.25000000  1
  Mn  Mn1  1  0.00000000  0.00000000  0.00000000  1
  Sb  Sb2  1  0.37500000  0.00000000  0.25000000  1
  Sb  Sb3  1  0.25000000  0.25000000  0.25000000  1
  Sb  Sb4  1  0.00000000  0.25000000  0.12500000  1
  Sb  Sb5  1  0.63137246  0.74962411  0.25636539  1
  P  P6  1  0.86221240  0.57622867  0.58148890  1
  P  P7  1  0.44184802  0.18201622  0.03238685  1
  P  P8  1  0.44018889  0.24213757  0.72967884  1
  Mo  Mo9  1  0.22013235  0.43308594  0.20879329  1
  Mo  Mo10  1  0.11266787  0.10443982  0.95258646  1
  Li  Li11  1  0.69207982  0.68851264  0.42297427  1
  Li  Li12  1  0.79990886  0.59327582  0.97450495  1
