# generated using pymatgen
data_Li2Ti3Nb2O2F3
_symmetry_space_group_name_H-M   'P 1'
_cell_length_a   5.86975366
_cell_length_b   5.86074963
_cell_length_c   7.28094883
_cell_angle_alpha   95.00197646
_cell_angle_beta   98.84687558
_cell_angle_gamma   96.34963564
_symmetry_Int_Tables_number   1
_chemical_formula_structural   Li2Ti3Nb2O2F3
_chemical_formula_sum   'Li2 Ti3 Nb2 O2 F3'
_cell_volume   244.58638006
_cell_formula_units_Z   1
loop_
 _symmetry_equiv_pos_site_id
 _symmetry_equiv_pos_as_xyz
  1  'x, y, z'
loop_
 _atom_site_type_symbol
 _atom_site_label
 _atom_site_symmetry_multiplicity
 _atom_site_fract_x
 _atom_site_fract_y
 _atom_site_fract_z
 _atom_site_occupancy
  Li  Li0  1  0.00000000  0.00000000  0.00000000  1
  Li  Li1  1  0.50000000  0.50000000  0.50000000  1
  Nb  Nb2  1  0.50000000  0.50000000  0.00000000  1
  Nb  Nb3  1  0.50000000  0.00000000  0.50000000  1
  F  F4  1  0.00000000  0.50000000  0.50000000  1
  F  F5  1  0.29917346  0.67375724  0.37964766  1
  F  F6  1  0.41201684  0.47826670  0.15473472  1
  Ti  Ti7  1  0.94555863  0.77322772  0.73374767  1
  Ti  Ti8  1  0.37800153  0.62739143  0.37842065  1
  Ti  Ti9  1  0.11560798  0.86096525  0.18105799  1
  O  O10  1  0.21937854  0.19507335  0.53601983  1
  O  O11  1  0.82173096  0.12017348  0.93883888  1
