# generated using pymatgen
data_LiMn3Sb4Mo2P3
_symmetry_space_group_name_H-M   'P 1'
_cell_length_a   5.15212456
_cell_length_b   5.31999460
_cell_length_c   5.98225240
_cell_angle_alpha   92.83140977
_cell_angle_beta   91.29271126
_cell_angle_gamma   93.00015209
_symmetry_Int_Tables_number   1
_chemical_formula_structural   LiMn3Sb4Mo2P3
_chemical_formula_sum   'Li1 Mn3 Sb4 Mo2 P3'
_cell_volume   163.49258379
_cell_formula_units_Z   1
loop_
 _symmetry_equiv_pos_site_id
 _symmetry_equiv_pos_as_xyz
  1  'x, y, z'
loop_
 _atom_site_type_symbol
 _atom_site_label
 _atom_site_symmetry_multiplicity
 _atom_site_fract_x
 _atom_site_fract_y
 _atom_site_fract_z
 _atom_site_occupancy
  Mn  Mn0  1  0.00000000  0.00000000  0.00000000  1
  Mn  Mn1  1  0.50000000  0.50000000  0.50000000  1
  Mn  Mn2  1  0.50000000  0.50000000  0.00000000  1
  Sb  Sb3  1  0.50000000  0.00000000  0.50000000  1
  Sb  Sb4  1  0.00000000  0.50000000  0.50000000  1
  Sb  Sb5  1  0.65191845  0.22776273  0.28792327  1
  Sb  Sb6  1  0.84456185  0.91509897  0.75144927  1
  P  P7  1  0.43810758  0.55141224  0.32234023  1
  P  P8  1  0.24580279  0.18141197  0.87263201  1
  P  P9  1  0.31966259  0.04562282  0.03356444  1
  Mo  Mo10  1  0.52802227  0.84716967  0.48510402  1
  Mo  Mo11  1  0.35606373  0.31789550  0.36378819  1
  Li  Li12  1  0.18127501  0.94069344  0.60886145  1
