# generated using pymatgen
data_Li2TiCu2P3
_symmetry_space_group_name_H-M   'P 1'
_cell_length_a   8.00446044
_cell_length_b   7.95650665
_cell_length_c   7.63269353
_cell_angle_alpha   90.30376065
_cell_angle_beta   91.44520092
_cell_angle_gamma   90.34727953
_symmetry_Int_Tables_number   1
_chemical_formula_structural   Li2TiCu2P3
_chemical_formula_sum   'Li2 Ti1 Cu2 P3'
_cell_volume   485.93670594
_cell_formula_units_Z   1
loop_
 _symmetry_equiv_pos_site_id
 _symmetry_equiv_pos_as_xyz
  1  'x, y, z'
loop_
 _atom_site_type_symbol
 _atom_site_label
 _atom_site_symmetry_multiplicity
 _atom_site_fract_x
 _atom_site_fract_y
 _atom_site_fract_z
 _atom_site_occupancy
  P  P0  1  0.00000000  0.00000000  0.00000000  1
  P  P1  1  0.50000000  0.50000000  0.50000000  1
  P  P2  1  0.25000000  0.25000000  0.25000000  1
  Li  Li3  1  0.75000000  0.25000000  0.00000000  1
  Li  Li4  1  0.25000000  0.75000000  0.50000000  1
  Cu  Cu5  1  0.61824723  0.46380249  0.69246661  1
  Cu  Cu6  1  0.01456403  0.77118392  0.87904768  1
  Ti  Ti7  1  0.35048350  0.37241792  0.44914433  1
