# generated using pymatgen
data_Li2Mn2Sb4P2N
_symmetry_space_group_name_H-M   'P 1'
_cell_length_a   5.65134681
_cell_length_b   6.06850046
_cell_length_c   6.67374971
_cell_angle_alpha   98.16983664
_cell_angle_beta   92.94457538
_cell_angle_gamma   97.45406352
_symmetry_Int_Tables_number   1
_chemical_formula_structural   Li2Mn2Sb4P2N
_chemical_formula_sum   'Li2 Mn2 Sb4 P2 N1'
_cell_volume   224.07129610
_cell_formula_units_Z   1
loop_
 _symmetry_equiv_pos_site_id
 _symmetry_equiv_pos_as_xyz
  1  'x, y, z'
loop_
 _atom_site_type_symbol
 _atom_site_label
 _atom_site_symmetry_multiplicity
 _atom_site_fract_x
 _atom_site_fract_y
 _atom_site_fract_z
 _atom_site_occupancy
  Mn  Mn0  1  0.12500000  0.00000000  0.25000000  1
  Mn  Mn1  1  0.00000000  0.00000000  0.00000000  1
  Sb  Sb2  1  0.37500000  0.00000000  0.25000000  1
  Sb  Sb3  1  0.25000000  0.25000000  0.25000000  1
  Sb  Sb4  1  0.00000000  0.25000000  0.12500000  1
  Sb  Sb5  1  0.93910810  0.53524372  0.71489955  1
  P  P6  1  0.40274636  0.45389937  0.38978604  1
  P  P7  1  0.87622067  0.64336220  0.48907883  1
  Li  Li8  1  0.06215981  0.83024063  0.65307357  1
  Li  Li9  1  0.81455981  0.39891661  0.09140439  1
  N  N10  1  0.33404621  0.11718646  0.87460690  1
