# generated using pymatgen
data_LiMnMoP
_symmetry_space_group_name_H-M   'P 1'
_cell_length_a   4.44876474
_cell_length_b   4.73644834
_cell_length_c   5.96241734
_cell_angle_alpha   103.73495370
_cell_angle_beta   98.11327917
_cell_angle_gamma   100.14026262
_symmetry_Int_Tables_number   1
_chemical_formula_structural   LiMnMoP
_chemical_formula_sum   'Li2 Mn2 Mo2 P2'
_cell_volume   117.91828650
_cell_formula_units_Z   2
loop_
 _symmetry_equiv_pos_site_id
 _symmetry_equiv_pos_as_xyz
  1  'x, y, z'
loop_
 _atom_site_type_symbol
 _atom_site_label
 _atom_site_symmetry_multiplicity
 _atom_site_fract_x
 _atom_site_fract_y
 _atom_site_fract_z
 _atom_site_occupancy
  Mn  Mn0  1  0.12500000  0.12500000  0.12500000  1
  Mn  Mn1  1  0.50000000  0.50000000  0.50000000  1
  P  P2  1  0.25000000  0.25000000  0.25000000  1
  P  P3  1  0.75000000  0.75000000  0.75000000  1
  Mo  Mo4  1  0.11529350  0.54285389  0.79044345  1
  Mo  Mo5  1  0.70904383  0.69247941  0.95803525  1
  Li  Li6  1  0.28158809  0.06007808  0.72038466  1
  Li  Li7  1  0.80782181  0.59858533  0.44887104  1
