# generated using pymatgen
data_Li2Mn3Sb4P3
_symmetry_space_group_name_H-M   'P 1'
_cell_length_a   5.80438708
_cell_length_b   6.00829811
_cell_length_c   6.61800580
_cell_angle_alpha   99.38558763
_cell_angle_beta   91.47374149
_cell_angle_gamma   99.43606285
_symmetry_Int_Tables_number   1
_chemical_formula_structural   Li2Mn3Sb4P3
_chemical_formula_sum   'Li2 Mn3 Sb4 P3'
_cell_volume   224.30230955
_cell_formula_units_Z   1
loop_
 _symmetry_equiv_pos_site_id
 _symmetry_equiv_pos_as_xyz
  1  'x, y, z'
loop_
 _atom_site_type_symbol
 _atom_site_label
 _atom_site_symmetry_multiplicity
 _atom_site_fract_x
 _atom_site_fract_y
 _atom_site_fract_z
 _atom_site_occupancy
  Mn  Mn0  1  0.12500000  0.00000000  0.25000000  1
  Mn  Mn1  1  0.00000000  0.00000000  0.00000000  1
  Mn  Mn2  1  0.37500000  0.00000000  0.25000000  1
  Sb  Sb3  1  0.25000000  0.25000000  0.25000000  1
  Sb  Sb4  1  0.00000000  0.25000000  0.12500000  1
  Sb  Sb5  1  0.84750790  0.31529686  0.85054750  1
  Sb  Sb6  1  0.40918208  0.07542744  0.05360550  1
  P  P7  1  0.04282987  0.73935419  0.21755310  1
  P  P8  1  0.44992703  0.01825463  0.15966115  1
  P  P9  1  0.99354216  0.75566339  0.26653559  1
  Li  Li10  1  0.09792176  0.17170457  0.60905729  1
  Li  Li11  1  0.80787982  0.36078661  0.75839447  1
