# generated using pymatgen
data_Li3Ti2Ni2P4N5
_symmetry_space_group_name_H-M   'P 1'
_cell_length_a   8.01940543
_cell_length_b   7.70933332
_cell_length_c   8.58149248
_cell_angle_alpha   91.42557110
_cell_angle_beta   90.85136511
_cell_angle_gamma   91.65217968
_symmetry_Int_Tables_number   1
_chemical_formula_structural   Li3Ti2Ni2P4N5
_chemical_formula_sum   'Li3 Ti2 Ni2 P4 N5'
_cell_volume   530.09539142
_cell_formula_units_Z   1
loop_
 _symmetry_equiv_pos_site_id
 _symmetry_equiv_pos_as_xyz
  1  'x, y, z'
loop_
 _atom_site_type_symbol
 _atom_site_label
 _atom_site_symmetry_multiplicity
 _atom_site_fract_x
 _atom_site_fract_y
 _atom_site_fract_z
 _atom_site_occupancy
  P  P0  1  0.00000000  0.00000000  0.00000000  1
  P  P1  1  0.50000000  0.50000000  0.50000000  1
  P  P2  1  0.25000000  0.25000000  0.25000000  1
  P  P3  1  0.75000000  0.25000000  0.00000000  1
  Li  Li4  1  0.25000000  0.75000000  0.50000000  1
  Li  Li5  1  0.28503769  0.97550993  0.80476820  1
  Li  Li6  1  0.85988463  0.68225325  0.33860831  1
  Ni  Ni7  1  0.28089490  0.37123969  0.94894786  1
  Ni  Ni8  1  0.71046311  0.79115722  0.06497648  1
  Ti  Ti9  1  0.69696870  0.69042925  0.25554055  1
  Ti  Ti10  1  0.54424261  0.72321238  0.25457248  1
  N  N11  1  0.90990965  0.42519110  0.10397221  1
  N  N12  1  0.77047140  0.70658917  0.34827159  1
  N  N13  1  0.42782256  0.09388591  0.80255909  1
  N  N14  1  0.40874520  0.50590819  0.49449566  1
  N  N15  1  0.73413427  0.42154994  0.91152015  1
