# generated using pymatgen
data_LiMnSb4Mo2P3
_symmetry_space_group_name_H-M   'P 1'
_cell_length_a   5.12149309
_cell_length_b   5.26472949
_cell_length_c   6.52869408
_cell_angle_alpha   98.47861638
_cell_angle_beta   93.13327151
_cell_angle_gamma   98.56897911
_symmetry_Int_Tables_number   1
_chemical_formula_structural   LiMnSb4Mo2P3
_chemical_formula_sum   'Li1 Mn1 Sb4 Mo2 P3'
_cell_volume   171.63827899
_cell_formula_units_Z   1
loop_
 _symmetry_equiv_pos_site_id
 _symmetry_equiv_pos_as_xyz
  1  'x, y, z'
loop_
 _atom_site_type_symbol
 _atom_site_label
 _atom_site_symmetry_multiplicity
 _atom_site_fract_x
 _atom_site_fract_y
 _atom_site_fract_z
 _atom_site_occupancy
  Mn  Mn0  1  0.00000000  0.00000000  0.00000000  1
  Sb  Sb1  1  0.50000000  0.50000000  0.50000000  1
  Sb  Sb2  1  0.50000000  0.50000000  0.00000000  1
  Sb  Sb3  1  0.50000000  0.00000000  0.50000000  1
  Sb  Sb4  1  0.00000000  0.50000000  0.50000000  1
  P  P5  1  0.56499056  0.26930821  0.70890696  1
  P  P6  1  0.37238899  0.62196417  0.65922997  1
  P  P7  1  0.64995841  0.46972206  0.41172719  1
  Mo  Mo8  1  0.82228610  0.63738917  0.79974782  1
  Mo  Mo9  1  0.43966485  0.67260329  0.33435218  1
  Li  Li10  1  0.15377861  0.82655880  0.45017868  1
