# generated using pymatgen
data_LiNi3Mo2P3
_symmetry_space_group_name_H-M   'P 1'
_cell_length_a   4.48853147
_cell_length_b   4.50843519
_cell_length_c   6.53108913
_cell_angle_alpha   98.94373857
_cell_angle_beta   96.00201462
_cell_angle_gamma   99.25531112
_symmetry_Int_Tables_number   1
_chemical_formula_structural   LiNi3Mo2P3
_chemical_formula_sum   'Li1 Ni3 Mo2 P3'
_cell_volume   127.71526433
_cell_formula_units_Z   1
loop_
 _symmetry_equiv_pos_site_id
 _symmetry_equiv_pos_as_xyz
  1  'x, y, z'
loop_
 _atom_site_type_symbol
 _atom_site_label
 _atom_site_symmetry_multiplicity
 _atom_site_fract_x
 _atom_site_fract_y
 _atom_site_fract_z
 _atom_site_occupancy
  P  P0  1  0.00000000  0.00000000  0.00000000  1
  P  P1  1  0.50000000  0.50000000  0.50000000  1
  P  P2  1  0.25000000  0.25000000  0.25000000  1
  Mo  Mo3  1  0.75000000  0.25000000  0.00000000  1
  Mo  Mo4  1  0.25000000  0.75000000  0.50000000  1
  Li  Li5  1  0.81219490  0.45332152  0.13783730  1
  Ni  Ni6  1  0.90643472  0.90606003  0.16380953  1
  Ni  Ni7  1  0.86729083  0.38414634  0.55052062  1
  Ni  Ni8  1  0.08953947  0.48949342  0.92373257  1
