# generated using pymatgen
data_Li2MnSb4P3
_symmetry_space_group_name_H-M   'P 1'
_cell_length_a   4.42404982
_cell_length_b   4.66528508
_cell_length_c   6.31404720
_cell_angle_alpha   102.46737097
_cell_angle_beta   94.05300360
_cell_angle_gamma   102.69709340
_symmetry_Int_Tables_number   1
_chemical_formula_structural   Li2MnSb4P3
_chemical_formula_sum   'Li2 Mn1 Sb4 P3'
_cell_volume   123.17548315
_cell_formula_units_Z   1
loop_
 _symmetry_equiv_pos_site_id
 _symmetry_equiv_pos_as_xyz
  1  'x, y, z'
loop_
 _atom_site_type_symbol
 _atom_site_label
 _atom_site_symmetry_multiplicity
 _atom_site_fract_x
 _atom_site_fract_y
 _atom_site_fract_z
 _atom_site_occupancy
  Mn  Mn0  1  0.12500000  0.12500000  0.12500000  1
  Sb  Sb1  1  0.50000000  0.50000000  0.50000000  1
  Sb  Sb2  1  0.25000000  0.25000000  0.25000000  1
  Sb  Sb3  1  0.75000000  0.75000000  0.75000000  1
  Sb  Sb4  1  0.44320925  0.04028620  0.20655928  1
  P  P5  1  0.34853653  0.91766677  0.45682966  1
  P  P6  1  0.85076841  0.64902363  0.41641785  1
  P  P7  1  0.40863508  0.77084025  0.03147957  1
  Li  Li8  1  0.60462501  0.76996470  0.32846925  1
  Li  Li9  1  0.82495849  0.79204011  0.05278895  1
