# generated using pymatgen
data_LiTi2P6F2
_symmetry_space_group_name_H-M   'P 1'
_cell_length_a   7.03343549
_cell_length_b   6.78810066
_cell_length_c   7.55479559
_cell_angle_alpha   90.93729174
_cell_angle_beta   94.45934946
_cell_angle_gamma   91.07157474
_symmetry_Int_Tables_number   1
_chemical_formula_structural   LiTi2P6F2
_chemical_formula_sum   'Li1 Ti2 P6 F2'
_cell_volume   359.48144545
_cell_formula_units_Z   1
loop_
 _symmetry_equiv_pos_site_id
 _symmetry_equiv_pos_as_xyz
  1  'x, y, z'
loop_
 _atom_site_type_symbol
 _atom_site_label
 _atom_site_symmetry_multiplicity
 _atom_site_fract_x
 _atom_site_fract_y
 _atom_site_fract_z
 _atom_site_occupancy
  P  P0  1  0.12500000  0.00000000  0.25000000  1
  P  P1  1  0.00000000  0.00000000  0.00000000  1
  P  P2  1  0.37500000  0.00000000  0.25000000  1
  P  P3  1  0.25000000  0.25000000  0.25000000  1
  P  P4  1  0.00000000  0.25000000  0.12500000  1
  P  P5  1  0.97574784  0.39800417  0.49050892  1
  Li  Li6  1  0.81063567  0.18379202  0.20997211  1
  F  F7  1  0.30716104  0.26599730  0.87579691  1
  F  F8  1  0.25164153  0.68521808  0.57130515  1
  Ti  Ti9  1  0.46504275  0.74906338  0.10692170  1
  Ti  Ti10  1  0.00609117  0.11805508  0.65422573  1
