# generated using pymatgen
data_Li2MnSb4P3
_symmetry_space_group_name_H-M   'P 1'
_cell_length_a   6.36499634
_cell_length_b   6.89144147
_cell_length_c   7.16755844
_cell_angle_alpha   94.22049710
_cell_angle_beta   92.34968963
_cell_angle_gamma   94.43441502
_symmetry_Int_Tables_number   1
_chemical_formula_structural   Li2MnSb4P3
_chemical_formula_sum   'Li2 Mn1 Sb4 P3'
_cell_volume   312.26178218
_cell_formula_units_Z   1
loop_
 _symmetry_equiv_pos_site_id
 _symmetry_equiv_pos_as_xyz
  1  'x, y, z'
loop_
 _atom_site_type_symbol
 _atom_site_label
 _atom_site_symmetry_multiplicity
 _atom_site_fract_x
 _atom_site_fract_y
 _atom_site_fract_z
 _atom_site_occupancy
  Mn  Mn0  1  0.12500000  0.12500000  0.12500000  1
  Sb  Sb1  1  0.50000000  0.50000000  0.50000000  1
  Sb  Sb2  1  0.25000000  0.25000000  0.25000000  1
  Sb  Sb3  1  0.75000000  0.75000000  0.75000000  1
  Sb  Sb4  1  0.21538763  0.40057719  0.44182075  1
  P  P5  1  0.32756348  0.38986437  0.09337113  1
  P  P6  1  0.18329787  0.25646957  0.80523565  1
  P  P7  1  0.60198006  0.73441180  0.38294455  1
  Li  Li8  1  0.51866429  0.86349641  0.96144239  1
  Li  Li9  1  0.02994324  0.40264301  0.62266402  1
