# generated using pymatgen
data_Li2Sb4Mo2P3
_symmetry_space_group_name_H-M   'P 1'
_cell_length_a   4.45055675
_cell_length_b   4.68782143
_cell_length_c   6.26982732
_cell_angle_alpha   102.69331190
_cell_angle_beta   93.56204058
_cell_angle_gamma   102.84859516
_symmetry_Int_Tables_number   1
_chemical_formula_structural   Li2Sb4Mo2P3
_chemical_formula_sum   'Li2 Sb4 Mo2 P3'
_cell_volume   123.56770508
_cell_formula_units_Z   1
loop_
 _symmetry_equiv_pos_site_id
 _symmetry_equiv_pos_as_xyz
  1  'x, y, z'
loop_
 _atom_site_type_symbol
 _atom_site_label
 _atom_site_symmetry_multiplicity
 _atom_site_fract_x
 _atom_site_fract_y
 _atom_site_fract_z
 _atom_site_occupancy
  Sb  Sb0  1  0.00000000  0.00000000  0.00000000  1
  Sb  Sb1  1  0.50000000  0.50000000  0.50000000  1
  Sb  Sb2  1  0.50000000  0.50000000  0.00000000  1
  Sb  Sb3  1  0.50000000  0.00000000  0.50000000  1
  P  P4  1  0.00000000  0.50000000  0.50000000  1
  P  P5  1  0.43488175  0.36486707  0.30380738  1
  P  P6  1  0.60088290  0.08044906  0.84900358  1
  Mo  Mo7  1  0.04267076  0.38543755  0.17631478  1
  Mo  Mo8  1  0.40174448  0.80576902  0.42873868  1
  Li  Li9  1  0.87012962  0.68456512  0.51585980  1
  Li  Li10  1  0.60297263  0.97340460  0.69897440  1
