# generated using pymatgen
data_Li3TiSe2(I2O)2
_symmetry_space_group_name_H-M   'P 1'
_cell_length_a   8.07569930
_cell_length_b   7.75907773
_cell_length_c   6.94309186
_cell_angle_alpha   90.22208091
_cell_angle_beta   91.05659350
_cell_angle_gamma   90.25389778
_symmetry_Int_Tables_number   1
_chemical_formula_structural   Li3TiSe2(I2O)2
_chemical_formula_sum   'Li3 Ti1 Se2 I4 O2'
_cell_volume   434.97233568
_cell_formula_units_Z   1
loop_
 _symmetry_equiv_pos_site_id
 _symmetry_equiv_pos_as_xyz
  1  'x, y, z'
loop_
 _atom_site_type_symbol
 _atom_site_label
 _atom_site_symmetry_multiplicity
 _atom_site_fract_x
 _atom_site_fract_y
 _atom_site_fract_z
 _atom_site_occupancy
  I  I0  1  0.00000000  0.00000000  0.00000000  1
  I  I1  1  0.50000000  0.50000000  0.50000000  1
  I  I2  1  0.50000000  0.50000000  0.00000000  1
  I  I3  1  0.50000000  0.00000000  0.50000000  1
  Li  Li4  1  0.00000000  0.50000000  0.50000000  1
  Li  Li5  1  0.89057813  0.48144553  0.03437334  1
  Li  Li6  1  0.55853071  0.40229192  0.58711213  1
  Se  Se7  1  0.66023122  0.28009159  0.65036457  1
  Se  Se8  1  0.63627267  0.27136246  0.27640126  1
  Ti  Ti9  1  0.22301234  0.75610568  0.97757049  1
  O  O10  1  0.53752827  0.33999018  0.02251311  1
  O  O11  1  0.12572935  0.18208930  0.79794164  1
