# generated using pymatgen
data_Li2MnSb4P3
_symmetry_space_group_name_H-M   'P 1'
_cell_length_a   6.02072482
_cell_length_b   6.49713694
_cell_length_c   6.83661736
_cell_angle_alpha   94.83639498
_cell_angle_beta   93.13063139
_cell_angle_gamma   94.51033857
_symmetry_Int_Tables_number   1
_chemical_formula_structural   Li2MnSb4P3
_chemical_formula_sum   'Li2 Mn1 Sb4 P3'
_cell_volume   265.14840908
_cell_formula_units_Z   1
loop_
 _symmetry_equiv_pos_site_id
 _symmetry_equiv_pos_as_xyz
  1  'x, y, z'
loop_
 _atom_site_type_symbol
 _atom_site_label
 _atom_site_symmetry_multiplicity
 _atom_site_fract_x
 _atom_site_fract_y
 _atom_site_fract_z
 _atom_site_occupancy
  Mn  Mn0  1  0.00000000  0.00000000  0.00000000  1
  Sb  Sb1  1  0.33300000  0.66700000  0.25000000  1
  Sb  Sb2  1  0.66700000  0.33300000  0.50000000  1
  Sb  Sb3  1  0.00000000  0.00000000  0.75000000  1
  Sb  Sb4  1  0.40780529  0.68865757  0.29165989  1
  P  P5  1  0.37508331  0.06269603  0.61183796  1
  P  P6  1  0.05305265  0.53141870  0.24189041  1
  P  P7  1  0.90310746  0.99228258  0.17565215  1
  Li  Li8  1  0.82061368  0.13228212  0.72147259  1
  Li  Li9  1  0.75334257  0.12185720  0.35373677  1
