# generated using pymatgen
data_Li4LuNi2P4N5
_symmetry_space_group_name_H-M   'P 1'
_cell_length_a   7.43249497
_cell_length_b   7.05219556
_cell_length_c   8.86811598
_cell_angle_alpha   93.49759716
_cell_angle_beta   91.23654746
_cell_angle_gamma   94.05678930
_symmetry_Int_Tables_number   1
_chemical_formula_structural   Li4LuNi2P4N5
_chemical_formula_sum   'Li4 Lu1 Ni2 P4 N5'
_cell_volume   462.64105756
_cell_formula_units_Z   1
loop_
 _symmetry_equiv_pos_site_id
 _symmetry_equiv_pos_as_xyz
  1  'x, y, z'
loop_
 _atom_site_type_symbol
 _atom_site_label
 _atom_site_symmetry_multiplicity
 _atom_site_fract_x
 _atom_site_fract_y
 _atom_site_fract_z
 _atom_site_occupancy
  P  P0  1  0.12500000  0.00000000  0.25000000  1
  P  P1  1  0.00000000  0.00000000  0.00000000  1
  P  P2  1  0.37500000  0.00000000  0.25000000  1
  P  P3  1  0.25000000  0.25000000  0.25000000  1
  Lu  Lu4  1  0.00000000  0.25000000  0.12500000  1
  Li  Li5  1  0.58436912  0.16878046  0.35329131  1
  Li  Li6  1  0.91986738  0.68038522  0.63731661  1
  Li  Li7  1  0.97140344  0.36735435  0.59735187  1
  Li  Li8  1  0.03981599  0.45387260  0.66563295  1
  Ni  Ni9  1  0.70624963  0.09976378  0.21475408  1
  Ni  Ni10  1  0.06705412  0.68716222  0.82436131  1
  N  N11  1  0.10835696  0.15232191  0.77434148  1
  N  N12  1  0.48482603  0.54380554  0.53281528  1
  N  N13  1  0.81106564  0.69220836  0.33335621  1
  N  N14  1  0.52485872  0.22884453  0.85684203  1
  N  N15  1  0.97818566  0.84862158  0.81510076  1
