# generated using pymatgen
data_Li2Cu2Ni2As6O5
_symmetry_space_group_name_H-M   'P 1'
_cell_length_a   7.89278082
_cell_length_b   8.10466330
_cell_length_c   8.33777997
_cell_angle_alpha   90.28213429
_cell_angle_beta   91.34230926
_cell_angle_gamma   90.32255483
_symmetry_Int_Tables_number   1
_chemical_formula_structural   Li2Cu2Ni2As6O5
_chemical_formula_sum   'Li2 Cu2 Ni2 As6 O5'
_cell_volume   533.19223963
_cell_formula_units_Z   1
loop_
 _symmetry_equiv_pos_site_id
 _symmetry_equiv_pos_as_xyz
  1  'x, y, z'
loop_
 _atom_site_type_symbol
 _atom_site_label
 _atom_site_symmetry_multiplicity
 _atom_site_fract_x
 _atom_site_fract_y
 _atom_site_fract_z
 _atom_site_occupancy
  Ni  Ni0  1  0.00000000  0.00000000  0.00000000  1
  Ni  Ni1  1  0.50000000  0.50000000  0.50000000  1
  O  O2  1  0.25000000  0.25000000  0.25000000  1
  O  O3  1  0.75000000  0.25000000  0.00000000  1
  O  O4  1  0.25000000  0.75000000  0.50000000  1
  O  O5  1  0.82535418  0.71155415  0.25211570  1
  O  O6  1  0.91802634  0.64398731  0.43866632  1
  As  As7  1  0.47380880  0.27418703  0.57209624  1
  As  As8  1  0.50538214  0.13233643  0.15986431  1
  As  As9  1  0.53262678  0.01054823  0.76737617  1
  As  As10  1  0.99850323  0.14013415  0.06801210  1
  As  As11  1  0.33629672  0.74852377  0.90619462  1
  As  As12  1  0.78037884  0.75243511  0.27730713  1
  Li  Li13  1  0.35437728  0.52169805  0.72657139  1
  Li  Li14  1  0.41962295  0.85582653  0.19224438  1
  Cu  Cu15  1  0.11793067  0.08713866  0.25474676  1
  Cu  Cu16  1  0.91780189  0.33399284  0.89599206  1
