# generated using pymatgen
data_LiMnSb4P3
_symmetry_space_group_name_H-M   'P 1'
_cell_length_a   5.74187887
_cell_length_b   6.03010853
_cell_length_c   7.01115670
_cell_angle_alpha   94.34997488
_cell_angle_beta   94.73638895
_cell_angle_gamma   94.76648298
_symmetry_Int_Tables_number   1
_chemical_formula_structural   LiMnSb4P3
_chemical_formula_sum   'Li1 Mn1 Sb4 P3'
_cell_volume   240.25219388
_cell_formula_units_Z   1
loop_
 _symmetry_equiv_pos_site_id
 _symmetry_equiv_pos_as_xyz
  1  'x, y, z'
loop_
 _atom_site_type_symbol
 _atom_site_label
 _atom_site_symmetry_multiplicity
 _atom_site_fract_x
 _atom_site_fract_y
 _atom_site_fract_z
 _atom_site_occupancy
  Mn  Mn0  1  0.00000000  0.00000000  0.00000000  1
  Sb  Sb1  1  0.33300000  0.66700000  0.25000000  1
  Sb  Sb2  1  0.66700000  0.33300000  0.50000000  1
  Sb  Sb3  1  0.00000000  0.00000000  0.75000000  1
  Sb  Sb4  1  0.66605117  0.66374177  0.56565753  1
  P  P5  1  0.35707832  0.73828083  0.03975106  1
  P  P6  1  0.27846555  0.69071873  0.62534988  1
  P  P7  1  0.39764297  0.87043815  0.84202687  1
  Li  Li8  1  0.26974627  0.13014527  0.55686890  1
