# generated using pymatgen
data_Li3LuCu2(NiP2)2
_symmetry_space_group_name_H-M   'P 1'
_cell_length_a   7.55248230
_cell_length_b   7.34080610
_cell_length_c   7.95035496
_cell_angle_alpha   91.56504871
_cell_angle_beta   91.50577808
_cell_angle_gamma   91.81167445
_symmetry_Int_Tables_number   1
_chemical_formula_structural   Li3LuCu2(NiP2)2
_chemical_formula_sum   'Li3 Lu1 Cu2 Ni2 P4'
_cell_volume   440.23088673
_cell_formula_units_Z   1
loop_
 _symmetry_equiv_pos_site_id
 _symmetry_equiv_pos_as_xyz
  1  'x, y, z'
loop_
 _atom_site_type_symbol
 _atom_site_label
 _atom_site_symmetry_multiplicity
 _atom_site_fract_x
 _atom_site_fract_y
 _atom_site_fract_z
 _atom_site_occupancy
  P  P0  1  0.00000000  0.00000000  0.00000000  1
  P  P1  1  0.50000000  0.50000000  0.50000000  1
  P  P2  1  0.50000000  0.50000000  0.00000000  1
  P  P3  1  0.50000000  0.00000000  0.50000000  1
  Lu  Lu4  1  0.00000000  0.50000000  0.50000000  1
  Li  Li5  1  0.20605741  0.42307831  0.90992708  1
  Li  Li6  1  0.86306408  0.59749353  0.63541471  1
  Li  Li7  1  0.46463703  0.15718482  0.74770395  1
  Cu  Cu8  1  0.19640634  0.91194187  0.36920669  1
  Cu  Cu9  1  0.19425591  0.83062780  0.09467806  1
  Ni  Ni10  1  0.14451482  0.86354293  0.06907553  1
  Ni  Ni11  1  0.99949807  0.02529239  0.89467258  1
