# generated using pymatgen
data_Li3TiNi2O5
_symmetry_space_group_name_H-M   'P 1'
_cell_length_a   8.54346816
_cell_length_b   8.41015296
_cell_length_c   8.65287921
_cell_angle_alpha   90.00000000
_cell_angle_beta   90.00000000
_cell_angle_gamma   90.00000000
_symmetry_Int_Tables_number   1
_chemical_formula_structural   Li3TiNi2O5
_chemical_formula_sum   'Li3 Ti1 Ni2 O5'
_cell_volume   621.72558706
_cell_formula_units_Z   1
loop_
 _symmetry_equiv_pos_site_id
 _symmetry_equiv_pos_as_xyz
  1  'x, y, z'
loop_
 _atom_site_type_symbol
 _atom_site_label
 _atom_site_symmetry_multiplicity
 _atom_site_fract_x
 _atom_site_fract_y
 _atom_site_fract_z
 _atom_site_occupancy
  Li  Li0  1  0.12500000  0.00000000  0.25000000  1
  Li  Li1  1  0.00000000  0.00000000  0.00000000  1
  Li  Li2  1  0.37500000  0.00000000  0.25000000  1
  Ni  Ni3  1  0.25000000  0.25000000  0.25000000  1
  Ni  Ni4  1  0.00000000  0.25000000  0.12500000  1
  Ti  Ti5  1  0.65476461  0.42776386  0.24716251  1
  O  O6  1  0.30869609  0.30574819  0.99747272  1
  O  O7  1  0.63560061  0.95136903  0.84089676  1
  O  O8  1  0.14925992  0.04215923  0.53159178  1
  O  O9  1  0.53194159  0.00046858  0.94514223  1
  O  O10  1  0.09636214  0.75069513  0.86325496  1
