# generated using pymatgen
data_LiSb2MoP
_symmetry_space_group_name_H-M   'P 1'
_cell_length_a   4.71865147
_cell_length_b   5.04233657
_cell_length_c   6.52739660
_cell_angle_alpha   100.48087154
_cell_angle_beta   96.42622173
_cell_angle_gamma   99.90823946
_symmetry_Int_Tables_number   1
_chemical_formula_structural   LiSb2MoP
_chemical_formula_sum   'Li2 Sb4 Mo2 P2'
_cell_volume   148.78397373
_cell_formula_units_Z   2
loop_
 _symmetry_equiv_pos_site_id
 _symmetry_equiv_pos_as_xyz
  1  'x, y, z'
loop_
 _atom_site_type_symbol
 _atom_site_label
 _atom_site_symmetry_multiplicity
 _atom_site_fract_x
 _atom_site_fract_y
 _atom_site_fract_z
 _atom_site_occupancy
  Sb  Sb0  1  0.00000000  0.00000000  0.00000000  1
  Sb  Sb1  1  0.33300000  0.66700000  0.25000000  1
  Sb  Sb2  1  0.66700000  0.33300000  0.50000000  1
  Sb  Sb3  1  0.00000000  0.00000000  0.75000000  1
  P  P4  1  0.42570993  0.90867100  0.23200600  1
  P  P5  1  0.56221619  0.40200131  0.14859561  1
  Mo  Mo6  1  0.87294267  0.80855263  0.11028154  1
  Mo  Mo7  1  0.87822738  0.02562156  0.10323772  1
  Li  Li8  1  0.66687151  0.68510880  0.54248323  1
  Li  Li9  1  0.75899957  0.42823965  0.63786667  1
