# generated using pymatgen
data_Li3As6P3O5F3
_symmetry_space_group_name_H-M   'P 1'
_cell_length_a   7.82141332
_cell_length_b   7.38911398
_cell_length_c   8.28260229
_cell_angle_alpha   90.25329172
_cell_angle_beta   91.77452205
_cell_angle_gamma   90.27024442
_symmetry_Int_Tables_number   1
_chemical_formula_structural   Li3As6P3O5F3
_chemical_formula_sum   'Li3 As6 P3 O5 F3'
_cell_volume   478.43916184
_cell_formula_units_Z   1
loop_
 _symmetry_equiv_pos_site_id
 _symmetry_equiv_pos_as_xyz
  1  'x, y, z'
loop_
 _atom_site_type_symbol
 _atom_site_label
 _atom_site_symmetry_multiplicity
 _atom_site_fract_x
 _atom_site_fract_y
 _atom_site_fract_z
 _atom_site_occupancy
  P  P0  1  0.00000000  0.00000000  0.00000000  1
  P  P1  1  0.50000000  0.50000000  0.50000000  1
  P  P2  1  0.25000000  0.25000000  0.25000000  1
  Li  Li3  1  0.75000000  0.25000000  0.00000000  1
  Li  Li4  1  0.25000000  0.75000000  0.50000000  1
  Li  Li5  1  0.28891702  0.46101324  0.66750923  1
  F  F6  1  0.64977551  0.24093626  0.97472821  1
  F  F7  1  0.90956308  0.75102929  0.08477089  1
  F  F8  1  0.92903552  0.85079094  0.61147347  1
  As  As9  1  0.74922416  0.20243192  0.64529967  1
  As  As10  1  0.84926144  0.57793408  0.05234746  1
  As  As11  1  0.38103791  0.75705010  0.00483355  1
  As  As12  1  0.15064670  0.44427524  0.14732600  1
  As  As13  1  0.76981052  0.11828798  0.59630066  1
  As  As14  1  0.95778021  0.67549679  0.08868839  1
  O  O15  1  0.33712137  0.87066967  0.33806840  1
  O  O16  1  0.99623585  0.80970226  0.71781142  1
  O  O17  1  0.18515064  0.63749060  0.94871045  1
  O  O18  1  0.60612951  0.50694943  0.77733036  1
  O  O19  1  0.57131390  0.57543199  0.59009379  1
