# generated using pymatgen
data_LiMn2V3P5O2
_symmetry_space_group_name_H-M   'P 1'
_cell_length_a   8.41619265
_cell_length_b   7.96232574
_cell_length_c   7.57233004
_cell_angle_alpha   90.00000000
_cell_angle_beta   90.00000000
_cell_angle_gamma   90.00000000
_symmetry_Int_Tables_number   1
_chemical_formula_structural   LiMn2V3P5O2
_chemical_formula_sum   'Li1 Mn2 V3 P5 O2'
_cell_volume   507.44051929
_cell_formula_units_Z   1
loop_
 _symmetry_equiv_pos_site_id
 _symmetry_equiv_pos_as_xyz
  1  'x, y, z'
loop_
 _atom_site_type_symbol
 _atom_site_label
 _atom_site_symmetry_multiplicity
 _atom_site_fract_x
 _atom_site_fract_y
 _atom_site_fract_z
 _atom_site_occupancy
  P  P0  1  0.12500000  0.00000000  0.25000000  1
  P  P1  1  0.00000000  0.00000000  0.00000000  1
  P  P2  1  0.37500000  0.00000000  0.25000000  1
  P  P3  1  0.25000000  0.25000000  0.25000000  1
  P  P4  1  0.00000000  0.25000000  0.12500000  1
  Li  Li5  1  0.25445891  0.53642281  0.96523992  1
  Mn  Mn6  1  0.07999648  0.12507223  0.28939405  1
  Mn  Mn7  1  0.20026947  0.80128331  0.66833215  1
  V  V8  1  0.26359957  0.55330545  0.90429835  1
  V  V9  1  0.42673303  0.89449052  0.15890874  1
  V  V10  1  0.98273653  0.50575246  0.87915745  1
  O  O11  1  0.16028527  0.14640786  0.77283010  1
  O  O12  1  0.52924844  0.04229365  0.51567913  1
