# generated using pymatgen
data_LiSb4P3N
_symmetry_space_group_name_H-M   'P 1'
_cell_length_a   5.29409739
_cell_length_b   5.40291527
_cell_length_c   6.05604315
_cell_angle_alpha   97.66826154
_cell_angle_beta   92.40727698
_cell_angle_gamma   96.87916393
_symmetry_Int_Tables_number   1
_chemical_formula_structural   LiSb4P3N
_chemical_formula_sum   'Li1 Sb4 P3 N1'
_cell_volume   170.14316622
_cell_formula_units_Z   1
loop_
 _symmetry_equiv_pos_site_id
 _symmetry_equiv_pos_as_xyz
  1  'x, y, z'
loop_
 _atom_site_type_symbol
 _atom_site_label
 _atom_site_symmetry_multiplicity
 _atom_site_fract_x
 _atom_site_fract_y
 _atom_site_fract_z
 _atom_site_occupancy
  Sb  Sb0  1  0.12500000  0.12500000  0.12500000  1
  Sb  Sb1  1  0.50000000  0.50000000  0.50000000  1
  Sb  Sb2  1  0.25000000  0.25000000  0.25000000  1
  Sb  Sb3  1  0.75000000  0.75000000  0.75000000  1
  P  P4  1  0.51578671  0.42464973  0.52299794  1
  P  P5  1  0.14442338  0.69850467  0.11275531  1
  P  P6  1  0.44414050  0.32800262  0.63724981  1
  Li  Li7  1  0.83488683  0.32017754  0.05086107  1
  N  N8  1  0.89278708  0.85536359  0.85805662  1
