# generated using pymatgen
data_Li3As6I4O5F3
_symmetry_space_group_name_H-M   'P 1'
_cell_length_a   7.93260781
_cell_length_b   7.98998175
_cell_length_c   8.14011077
_cell_angle_alpha   90.27882085
_cell_angle_beta   91.95337510
_cell_angle_gamma   90.29748220
_symmetry_Int_Tables_number   1
_chemical_formula_structural   Li3As6I4O5F3
_chemical_formula_sum   'Li3 As6 I4 O5 F3'
_cell_volume   515.61822351
_cell_formula_units_Z   1
loop_
 _symmetry_equiv_pos_site_id
 _symmetry_equiv_pos_as_xyz
  1  'x, y, z'
loop_
 _atom_site_type_symbol
 _atom_site_label
 _atom_site_symmetry_multiplicity
 _atom_site_fract_x
 _atom_site_fract_y
 _atom_site_fract_z
 _atom_site_occupancy
  I  I0  1  0.12500000  0.00000000  0.25000000  1
  I  I1  1  0.00000000  0.00000000  0.00000000  1
  I  I2  1  0.37500000  0.00000000  0.25000000  1
  I  I3  1  0.25000000  0.25000000  0.25000000  1
  Li  Li4  1  0.00000000  0.25000000  0.12500000  1
  Li  Li5  1  0.91345349  0.06114995  0.37099549  1
  Li  Li6  1  0.83498333  0.06549357  0.45682338  1
  F  F7  1  0.68589790  0.17690349  0.23864368  1
  F  F8  1  0.13672519  0.47072943  0.34159888  1
  F  F9  1  0.34557176  0.26891114  0.79848006  1
  As  As10  1  0.18381400  0.41884965  0.99334083  1
  As  As11  1  0.87221126  0.89383450  0.25999030  1
  As  As12  1  0.30980281  0.70742862  0.80091209  1
  As  As13  1  0.17839645  0.08482586  0.84081236  1
  As  As14  1  0.73603077  0.79018257  0.92993150  1
  As  As15  1  0.83735010  0.83334413  0.41166643  1
  O  O16  1  0.35869430  0.60467928  0.49358698  1
  O  O17  1  0.57612537  0.43877065  0.30568920  1
  O  O18  1  0.70869211  0.97660762  0.45544115  1
  O  O19  1  0.55954140  0.81294859  0.53536684  1
  O  O20  1  0.58090687  0.08438717  0.42948293  1
