# generated using pymatgen
data_Li2Mn2Sb4P2N
_symmetry_space_group_name_H-M   'P 1'
_cell_length_a   5.54932012
_cell_length_b   6.01308994
_cell_length_c   7.03823012
_cell_angle_alpha   96.08995507
_cell_angle_beta   96.74160846
_cell_angle_gamma   95.78604928
_symmetry_Int_Tables_number   1
_chemical_formula_structural   Li2Mn2Sb4P2N
_chemical_formula_sum   'Li2 Mn2 Sb4 P2 N1'
_cell_volume   230.38479886
_cell_formula_units_Z   1
loop_
 _symmetry_equiv_pos_site_id
 _symmetry_equiv_pos_as_xyz
  1  'x, y, z'
loop_
 _atom_site_type_symbol
 _atom_site_label
 _atom_site_symmetry_multiplicity
 _atom_site_fract_x
 _atom_site_fract_y
 _atom_site_fract_z
 _atom_site_occupancy
  N  N0  1  0.00000000  0.00000000  0.00000000  1
  Mn  Mn1  1  0.50000000  0.50000000  0.50000000  1
  Mn  Mn2  1  0.50000000  0.50000000  0.00000000  1
  Sb  Sb3  1  0.50000000  0.00000000  0.50000000  1
  Sb  Sb4  1  0.00000000  0.50000000  0.50000000  1
  Sb  Sb5  1  0.90977630  0.19358099  0.24851552  1
  Sb  Sb6  1  0.69795658  0.18588442  0.10629383  1
  P  P7  1  0.28101793  0.04300649  0.66668834  1
  P  P8  1  0.14127257  0.15862187  0.45588441  1
  Li  Li9  1  0.02283187  0.10102144  0.56061996  1
  Li  Li10  1  0.36337481  0.82303336  0.40416058  1
