# generated using pymatgen
data_Li2LuNi2(As3P2)2
_symmetry_space_group_name_H-M   'P 1'
_cell_length_a   7.45104875
_cell_length_b   7.33657909
_cell_length_c   8.66657747
_cell_angle_alpha   92.10347212
_cell_angle_beta   91.72831035
_cell_angle_gamma   92.43605907
_symmetry_Int_Tables_number   1
_chemical_formula_structural   Li2LuNi2(As3P2)2
_chemical_formula_sum   'Li2 Lu1 Ni2 As6 P4'
_cell_volume   472.77439235
_cell_formula_units_Z   1
loop_
 _symmetry_equiv_pos_site_id
 _symmetry_equiv_pos_as_xyz
  1  'x, y, z'
loop_
 _atom_site_type_symbol
 _atom_site_label
 _atom_site_symmetry_multiplicity
 _atom_site_fract_x
 _atom_site_fract_y
 _atom_site_fract_z
 _atom_site_occupancy
  P  P0  1  0.00000000  0.00000000  0.00000000  1
  P  P1  1  0.50000000  0.50000000  0.50000000  1
  P  P2  1  0.50000000  0.50000000  0.00000000  1
  P  P3  1  0.50000000  0.00000000  0.50000000  1
  Lu  Lu4  1  0.00000000  0.50000000  0.50000000  1
  Li  Li5  1  0.70735228  0.67087084  0.07242821  1
  Li  Li6  1  0.76518548  0.42547513  0.17555515  1
  Ni  Ni7  1  0.77074582  0.08647224  0.65124428  1
  Ni  Ni8  1  0.57229672  0.13878603  0.63096136  1
  As  As9  1  0.78334884  0.05526159  0.05189519  1
  As  As10  1  0.11608652  0.30024165  0.11607777  1
  As  As11  1  0.94470838  0.02180455  0.86088944  1
  As  As12  1  0.30351468  0.13881222  0.09724015  1
  As  As13  1  0.15915236  0.23436244  0.81072473  1
  As  As14  1  0.00482990  0.41950801  0.77723570  1
