# generated using pymatgen
data_Li4Ti2P6N5O3
_symmetry_space_group_name_H-M   'P 1'
_cell_length_a   6.67143075
_cell_length_b   6.18239535
_cell_length_c   7.27771510
_cell_angle_alpha   94.82700345
_cell_angle_beta   94.02735827
_cell_angle_gamma   94.78520094
_symmetry_Int_Tables_number   1
_chemical_formula_structural   Li4Ti2P6N5O3
_chemical_formula_sum   'Li4 Ti2 P6 N5 O3'
_cell_volume   297.16185093
_cell_formula_units_Z   1
loop_
 _symmetry_equiv_pos_site_id
 _symmetry_equiv_pos_as_xyz
  1  'x, y, z'
loop_
 _atom_site_type_symbol
 _atom_site_label
 _atom_site_symmetry_multiplicity
 _atom_site_fract_x
 _atom_site_fract_y
 _atom_site_fract_z
 _atom_site_occupancy
  P  P0  1  0.00000000  0.00000000  0.00000000  1
  P  P1  1  0.50000000  0.50000000  0.50000000  1
  P  P2  1  0.25000000  0.25000000  0.25000000  1
  P  P3  1  0.75000000  0.25000000  0.00000000  1
  P  P4  1  0.25000000  0.75000000  0.50000000  1
  P  P5  1  0.60989435  0.28166257  0.32661715  1
  Li  Li6  1  0.72600753  0.42056176  0.41766767  1
  Li  Li7  1  0.94330739  0.91450686  0.17725746  1
  Li  Li8  1  0.09706064  0.44724223  0.39642382  1
  Li  Li9  1  0.00806666  0.82541250  0.63573679  1
  Ti  Ti10  1  0.35605036  0.79223543  0.47743034  1
  Ti  Ti11  1  0.89235224  0.46043073  0.89190838  1
  O  O12  1  0.50067446  0.12535013  0.18755312  1
  O  O13  1  0.32488690  0.81088445  0.43836569  1
  O  O14  1  0.90738723  0.72854455  0.70682706  1
  N  N15  1  0.03980740  0.45736067  0.80208035  1
  N  N16  1  0.50711675  0.11312065  0.82606720  1
  N  N17  1  0.33099434  0.77362291  0.18734045  1
  N  N18  1  0.30555387  0.06185623  0.02642130  1
  N  N19  1  0.08887610  0.58143561  0.38162977  1
