# generated using pymatgen
data_Li4LuNi2(PO)3
_symmetry_space_group_name_H-M   'P 1'
_cell_length_a   6.42897703
_cell_length_b   6.00022297
_cell_length_c   7.95390519
_cell_angle_alpha   95.95921948
_cell_angle_beta   95.07229611
_cell_angle_gamma   95.87245763
_symmetry_Int_Tables_number   1
_chemical_formula_structural   Li4LuNi2(PO)3
_chemical_formula_sum   'Li4 Lu1 Ni2 P3 O3'
_cell_volume   302.04006077
_cell_formula_units_Z   1
loop_
 _symmetry_equiv_pos_site_id
 _symmetry_equiv_pos_as_xyz
  1  'x, y, z'
loop_
 _atom_site_type_symbol
 _atom_site_label
 _atom_site_symmetry_multiplicity
 _atom_site_fract_x
 _atom_site_fract_y
 _atom_site_fract_z
 _atom_site_occupancy
  P  P0  1  0.00000000  0.00000000  0.00000000  1
  P  P1  1  0.50000000  0.50000000  0.50000000  1
  P  P2  1  0.25000000  0.25000000  0.25000000  1
  Lu  Lu3  1  0.75000000  0.25000000  0.00000000  1
  Li  Li4  1  0.25000000  0.75000000  0.50000000  1
  Li  Li5  1  0.05822654  0.84416770  0.15044995  1
  Li  Li6  1  0.82415841  0.61955864  0.41669857  1
  Li  Li7  1  0.84134573  0.78380939  0.69506093  1
  Ni  Ni8  1  0.50784859  0.52895869  0.94776668  1
  Ni  Ni9  1  0.40769396  0.38782633  0.96206577  1
  O  O10  1  0.14817149  0.70967405  0.41164390  1
  O  O11  1  0.07801229  0.03469677  0.65569565  1
  O  O12  1  0.35415756  0.75144680  0.33837785  1
