# generated using pymatgen
data_Li2As3
_symmetry_space_group_name_H-M   'P 1'
_cell_length_a   6.58212984
_cell_length_b   6.50569270
_cell_length_c   8.14771434
_cell_angle_alpha   96.89936069
_cell_angle_beta   99.62639967
_cell_angle_gamma   96.53790763
_symmetry_Int_Tables_number   1
_chemical_formula_structural   Li2As3
_chemical_formula_sum   'Li4 As6'
_cell_volume   338.27922789
_cell_formula_units_Z   2
loop_
 _symmetry_equiv_pos_site_id
 _symmetry_equiv_pos_as_xyz
  1  'x, y, z'
loop_
 _atom_site_type_symbol
 _atom_site_label
 _atom_site_symmetry_multiplicity
 _atom_site_fract_x
 _atom_site_fract_y
 _atom_site_fract_z
 _atom_site_occupancy
  As  As0  1  0.12500000  0.00000000  0.25000000  1
  As  As1  1  0.00000000  0.00000000  0.00000000  1
  As  As2  1  0.37500000  0.00000000  0.25000000  1
  As  As3  1  0.25000000  0.25000000  0.25000000  1
  As  As4  1  0.00000000  0.25000000  0.12500000  1
  As  As5  1  0.76334956  0.55502075  0.53337778  1
  Li  Li6  1  0.17552865  0.83476425  0.79631520  1
  Li  Li7  1  0.44335175  0.35028622  0.25286498  1
  Li  Li8  1  0.52221903  0.20678319  0.33382152  1
  Li  Li9  1  0.88656287  0.81339013  0.10055500  1
