# generated using pymatgen
data_Li3TiI5Cl2
_symmetry_space_group_name_H-M   'P 1'
_cell_length_a   7.96530717
_cell_length_b   7.66462034
_cell_length_c   8.66666032
_cell_angle_alpha   97.66017543
_cell_angle_beta   101.92277900
_cell_angle_gamma   97.23173912
_symmetry_Int_Tables_number   1
_chemical_formula_structural   Li3TiI5Cl2
_chemical_formula_sum   'Li3 Ti1 I5 Cl2'
_cell_volume   506.61200424
_cell_formula_units_Z   1
loop_
 _symmetry_equiv_pos_site_id
 _symmetry_equiv_pos_as_xyz
  1  'x, y, z'
loop_
 _atom_site_type_symbol
 _atom_site_label
 _atom_site_symmetry_multiplicity
 _atom_site_fract_x
 _atom_site_fract_y
 _atom_site_fract_z
 _atom_site_occupancy
  I  I0  1  0.12500000  0.12500000  0.12500000  1
  I  I1  1  0.50000000  0.50000000  0.50000000  1
  I  I2  1  0.25000000  0.25000000  0.25000000  1
  I  I3  1  0.75000000  0.75000000  0.75000000  1
  I  I4  1  0.76190025  0.66872933  0.11404642  1
  Li  Li5  1  0.65405231  0.94745170  0.75392057  1
  Li  Li6  1  0.34929323  0.38461612  0.03070765  1
  Li  Li7  1  0.41802196  0.43463308  0.38500257  1
  Cl  Cl8  1  0.50707806  0.26159197  0.09115144  1
  Cl  Cl9  1  0.89955948  0.82751755  0.54633556  1
  Ti  Ti10  1  0.07614451  0.97422679  0.43377321  1
