# generated using pymatgen
data_LiMn2Mo2P3
_symmetry_space_group_name_H-M   'P 1'
_cell_length_a   4.40692147
_cell_length_b   4.36324688
_cell_length_c   5.35984369
_cell_angle_alpha   99.14027302
_cell_angle_beta   89.09560795
_cell_angle_gamma   98.25845528
_symmetry_Int_Tables_number   1
_chemical_formula_structural   LiMn2Mo2P3
_chemical_formula_sum   'Li1 Mn2 Mo2 P3'
_cell_volume   100.69527703
_cell_formula_units_Z   1
loop_
 _symmetry_equiv_pos_site_id
 _symmetry_equiv_pos_as_xyz
  1  'x, y, z'
loop_
 _atom_site_type_symbol
 _atom_site_label
 _atom_site_symmetry_multiplicity
 _atom_site_fract_x
 _atom_site_fract_y
 _atom_site_fract_z
 _atom_site_occupancy
  Mn  Mn0  1  0.00000000  0.00000000  0.00000000  1
  Mn  Mn1  1  0.33300000  0.66700000  0.25000000  1
  P  P2  1  0.66700000  0.33300000  0.50000000  1
  P  P3  1  0.00000000  0.00000000  0.75000000  1
  P  P4  1  0.87073403  0.74464180  0.30590384  1
  Mo  Mo5  1  0.59163105  0.10462526  0.57610016  1
  Mo  Mo6  1  0.75745575  0.31196989  0.22928401  1
  Li  Li7  1  0.89238427  0.63762596  0.54600592  1
