# generated using pymatgen
data_LiMn2Sb4P3
_symmetry_space_group_name_H-M   'P 1'
_cell_length_a   5.36062463
_cell_length_b   5.57725557
_cell_length_c   6.28926200
_cell_angle_alpha   94.96071740
_cell_angle_beta   91.57058432
_cell_angle_gamma   94.70134596
_symmetry_Int_Tables_number   1
_chemical_formula_structural   LiMn2Sb4P3
_chemical_formula_sum   'Li1 Mn2 Sb4 P3'
_cell_volume   186.58635297
_cell_formula_units_Z   1
loop_
 _symmetry_equiv_pos_site_id
 _symmetry_equiv_pos_as_xyz
  1  'x, y, z'
loop_
 _atom_site_type_symbol
 _atom_site_label
 _atom_site_symmetry_multiplicity
 _atom_site_fract_x
 _atom_site_fract_y
 _atom_site_fract_z
 _atom_site_occupancy
  Mn  Mn0  1  0.00000000  0.00000000  0.00000000  1
  Mn  Mn1  1  0.33300000  0.66700000  0.25000000  1
  Sb  Sb2  1  0.66700000  0.33300000  0.50000000  1
  Sb  Sb3  1  0.00000000  0.00000000  0.75000000  1
  Sb  Sb4  1  0.37549000  0.68298923  0.42049825  1
  Sb  Sb5  1  0.16693783  0.80544657  0.50271424  1
  P  P6  1  0.45881679  0.18061364  0.70609872  1
  P  P7  1  0.99526413  0.68285712  0.21373337  1
  P  P8  1  0.74976864  0.02562231  0.21830869  1
  Li  Li9  1  0.61512681  0.27044736  0.51613149  1
