# generated using pymatgen
data_Li2Zr3Ti2P3I5
_symmetry_space_group_name_H-M   'P 1'
_cell_length_a   8.01258159
_cell_length_b   7.65019584
_cell_length_c   7.91795218
_cell_angle_alpha   93.18812318
_cell_angle_beta   96.06226510
_cell_angle_gamma   93.05541228
_symmetry_Int_Tables_number   1
_chemical_formula_structural   Li2Zr3Ti2P3I5
_chemical_formula_sum   'Li2 Zr3 Ti2 P3 I5'
_cell_volume   481.03534169
_cell_formula_units_Z   1
loop_
 _symmetry_equiv_pos_site_id
 _symmetry_equiv_pos_as_xyz
  1  'x, y, z'
loop_
 _atom_site_type_symbol
 _atom_site_label
 _atom_site_symmetry_multiplicity
 _atom_site_fract_x
 _atom_site_fract_y
 _atom_site_fract_z
 _atom_site_occupancy
  I  I0  1  0.00000000  0.00000000  0.00000000  1
  I  I1  1  0.50000000  0.50000000  0.50000000  1
  I  I2  1  0.50000000  0.50000000  0.00000000  1
  I  I3  1  0.50000000  0.00000000  0.50000000  1
  I  I4  1  0.00000000  0.50000000  0.50000000  1
  P  P5  1  0.04597854  0.86010522  0.30220497  1
  P  P6  1  0.86501815  0.05961461  0.96416254  1
  P  P7  1  0.20448300  0.74255448  0.31366235  1
  Li  Li8  1  0.59932994  0.60200386  0.37646878  1
  Li  Li9  1  0.67390996  0.18277244  0.52298588  1
  Ti  Ti10  1  0.46789859  0.88050764  0.30481648  1
  Ti  Ti11  1  0.19401567  0.72463753  0.63920463  1
  Zr  Zr12  1  0.98808214  0.07202391  0.22573125  1
  Zr  Zr13  1  0.89673785  0.02210378  0.56428281  1
  Zr  Zr14  1  0.74291683  0.85324463  0.89968330  1
