# generated using pymatgen
data_Li3Ti(PO)4
_symmetry_space_group_name_H-M   'P 1'
_cell_length_a   6.73068928
_cell_length_b   6.12146641
_cell_length_c   7.32743245
_cell_angle_alpha   96.98105931
_cell_angle_beta   92.46809761
_cell_angle_gamma   98.09718369
_symmetry_Int_Tables_number   1
_chemical_formula_structural   Li3Ti(PO)4
_chemical_formula_sum   'Li3 Ti1 P4 O4'
_cell_volume   296.12003058
_cell_formula_units_Z   1
loop_
 _symmetry_equiv_pos_site_id
 _symmetry_equiv_pos_as_xyz
  1  'x, y, z'
loop_
 _atom_site_type_symbol
 _atom_site_label
 _atom_site_symmetry_multiplicity
 _atom_site_fract_x
 _atom_site_fract_y
 _atom_site_fract_z
 _atom_site_occupancy
  P  P0  1  0.12500000  0.12500000  0.12500000  1
  P  P1  1  0.50000000  0.50000000  0.50000000  1
  P  P2  1  0.25000000  0.25000000  0.25000000  1
  P  P3  1  0.75000000  0.75000000  0.75000000  1
  Li  Li4  1  0.33067490  0.97220774  0.04527708  1
  Li  Li5  1  0.81005052  0.25665333  0.00811296  1
  Li  Li6  1  0.43214437  0.10097673  0.45818413  1
  Ti  Ti7  1  0.97112959  0.36140664  0.99247352  1
  O  O8  1  0.70215077  0.31397630  0.00183721  1
  O  O9  1  0.87012073  0.84480400  0.11635677  1
  O  O10  1  0.05849561  0.15993471  0.31857906  1
  O  O11  1  0.15985789  0.77206045  0.43830879  1
