# generated using pymatgen
data_Li2Mn2Sb4Mo2P3
_symmetry_space_group_name_H-M   'P 1'
_cell_length_a   4.20328356
_cell_length_b   4.39755277
_cell_length_c   6.11377824
_cell_angle_alpha   104.03063129
_cell_angle_beta   93.38301187
_cell_angle_gamma   104.12507913
_symmetry_Int_Tables_number   1
_chemical_formula_structural   Li2Mn2Sb4Mo2P3
_chemical_formula_sum   'Li2 Mn2 Sb4 Mo2 P3'
_cell_volume   105.47971472
_cell_formula_units_Z   1
loop_
 _symmetry_equiv_pos_site_id
 _symmetry_equiv_pos_as_xyz
  1  'x, y, z'
loop_
 _atom_site_type_symbol
 _atom_site_label
 _atom_site_symmetry_multiplicity
 _atom_site_fract_x
 _atom_site_fract_y
 _atom_site_fract_z
 _atom_site_occupancy
  Mn  Mn0  1  0.12500000  0.00000000  0.25000000  1
  Mn  Mn1  1  0.00000000  0.00000000  0.00000000  1
  Sb  Sb2  1  0.37500000  0.00000000  0.25000000  1
  Sb  Sb3  1  0.25000000  0.25000000  0.25000000  1
  Sb  Sb4  1  0.00000000  0.25000000  0.12500000  1
  Sb  Sb5  1  0.06349495  0.89866923  0.87047845  1
  P  P6  1  0.94590531  0.78181917  0.68866328  1
  P  P7  1  0.30457409  0.12951556  0.90867336  1
  P  P8  1  0.37846025  0.48772696  0.67776439  1
  Mo  Mo9  1  0.70044748  0.09969909  0.28381843  1
  Mo  Mo10  1  0.62241779  0.86667579  0.08459761  1
  Li  Li11  1  0.10768286  0.37326434  0.22623453  1
  Li  Li12  1  0.99426313  0.11832069  0.76714001  1
