# generated using pymatgen
data_LiMnSb2P
_symmetry_space_group_name_H-M   'P 1'
_cell_length_a   6.35545950
_cell_length_b   6.47084554
_cell_length_c   7.04543708
_cell_angle_alpha   96.20822425
_cell_angle_beta   92.85673821
_cell_angle_gamma   95.14998802
_symmetry_Int_Tables_number   1
_chemical_formula_structural   LiMnSb2P
_chemical_formula_sum   'Li2 Mn2 Sb4 P2'
_cell_volume   286.36368626
_cell_formula_units_Z   2
loop_
 _symmetry_equiv_pos_site_id
 _symmetry_equiv_pos_as_xyz
  1  'x, y, z'
loop_
 _atom_site_type_symbol
 _atom_site_label
 _atom_site_symmetry_multiplicity
 _atom_site_fract_x
 _atom_site_fract_y
 _atom_site_fract_z
 _atom_site_occupancy
  Mn  Mn0  1  0.00000000  0.00000000  0.00000000  1
  Mn  Mn1  1  0.50000000  0.50000000  0.50000000  1
  Sb  Sb2  1  0.25000000  0.25000000  0.25000000  1
  Sb  Sb3  1  0.75000000  0.25000000  0.00000000  1
  Sb  Sb4  1  0.25000000  0.75000000  0.50000000  1
  Sb  Sb5  1  0.37102524  0.59344482  0.34010641  1
  P  P6  1  0.48880333  0.68239759  0.97452594  1
  P  P7  1  0.35675437  0.67402747  0.56457963  1
  Li  Li8  1  0.64142506  0.11113118  0.15750366  1
  Li  Li9  1  0.11862689  0.39932538  0.12314603  1
