# generated using pymatgen
data_LiMn2Sb4Mo2P3
_symmetry_space_group_name_H-M   'P 1'
_cell_length_a   5.68492685
_cell_length_b   5.88994519
_cell_length_c   6.12563441
_cell_angle_alpha   92.60105892
_cell_angle_beta   89.61958380
_cell_angle_gamma   92.21218117
_symmetry_Int_Tables_number   1
_chemical_formula_structural   LiMn2Sb4Mo2P3
_chemical_formula_sum   'Li1 Mn2 Sb4 Mo2 P3'
_cell_volume   204.74369908
_cell_formula_units_Z   1
loop_
 _symmetry_equiv_pos_site_id
 _symmetry_equiv_pos_as_xyz
  1  'x, y, z'
loop_
 _atom_site_type_symbol
 _atom_site_label
 _atom_site_symmetry_multiplicity
 _atom_site_fract_x
 _atom_site_fract_y
 _atom_site_fract_z
 _atom_site_occupancy
  Mn  Mn0  1  0.12500000  0.00000000  0.25000000  1
  Mn  Mn1  1  0.00000000  0.00000000  0.00000000  1
  Sb  Sb2  1  0.37500000  0.00000000  0.25000000  1
  Sb  Sb3  1  0.25000000  0.25000000  0.25000000  1
  Sb  Sb4  1  0.00000000  0.25000000  0.12500000  1
  Sb  Sb5  1  0.52609522  0.20066445  0.80472950  1
  P  P6  1  0.86941389  0.97858335  0.98829900  1
  P  P7  1  0.25094198  0.63063987  0.57810188  1
  P  P8  1  0.21829372  0.85709669  0.75541066  1
  Mo  Mo9  1  0.45735496  0.73491421  0.90323879  1
  Mo  Mo10  1  0.17784830  0.58808913  0.09654298  1
  Li  Li11  1  0.56807972  0.87295730  0.03925694  1
