# generated using pymatgen
data_Li2MnSb4P3
_symmetry_space_group_name_H-M   'P 1'
_cell_length_a   6.15130222
_cell_length_b   6.67837783
_cell_length_c   7.30113556
_cell_angle_alpha   93.74970004
_cell_angle_beta   94.44186617
_cell_angle_gamma   94.26762162
_symmetry_Int_Tables_number   1
_chemical_formula_structural   Li2MnSb4P3
_chemical_formula_sum   'Li2 Mn1 Sb4 P3'
_cell_volume   297.44109710
_cell_formula_units_Z   1
loop_
 _symmetry_equiv_pos_site_id
 _symmetry_equiv_pos_as_xyz
  1  'x, y, z'
loop_
 _atom_site_type_symbol
 _atom_site_label
 _atom_site_symmetry_multiplicity
 _atom_site_fract_x
 _atom_site_fract_y
 _atom_site_fract_z
 _atom_site_occupancy
  Mn  Mn0  1  0.00000000  0.00000000  0.00000000  1
  Sb  Sb1  1  0.50000000  0.50000000  0.50000000  1
  Sb  Sb2  1  0.25000000  0.25000000  0.25000000  1
  Sb  Sb3  1  0.75000000  0.25000000  0.00000000  1
  Sb  Sb4  1  0.25000000  0.75000000  0.50000000  1
  P  P5  1  0.63552985  0.49795335  0.19186020  1
  P  P6  1  0.10926361  0.48994461  0.92209410  1
  P  P7  1  0.80686617  0.88431745  0.32029091  1
  Li  Li8  1  0.20809813  0.82847514  0.31824968  1
  Li  Li9  1  0.60675093  0.74962653  0.28530411  1
