# generated using pymatgen
data_LiMn2(Sb2P)2
_symmetry_space_group_name_H-M   'P 1'
_cell_length_a   5.39929371
_cell_length_b   5.79929308
_cell_length_c   6.54633274
_cell_angle_alpha   98.31406774
_cell_angle_beta   93.37402717
_cell_angle_gamma   97.90491684
_symmetry_Int_Tables_number   1
_chemical_formula_structural   LiMn2(Sb2P)2
_chemical_formula_sum   'Li1 Mn2 Sb4 P2'
_cell_volume   200.24835541
_cell_formula_units_Z   1
loop_
 _symmetry_equiv_pos_site_id
 _symmetry_equiv_pos_as_xyz
  1  'x, y, z'
loop_
 _atom_site_type_symbol
 _atom_site_label
 _atom_site_symmetry_multiplicity
 _atom_site_fract_x
 _atom_site_fract_y
 _atom_site_fract_z
 _atom_site_occupancy
  Mn  Mn0  1  0.12500000  0.12500000  0.12500000  1
  Mn  Mn1  1  0.50000000  0.50000000  0.50000000  1
  Sb  Sb2  1  0.25000000  0.25000000  0.25000000  1
  Sb  Sb3  1  0.75000000  0.75000000  0.75000000  1
  Sb  Sb4  1  0.96625029  0.68153840  0.40241712  1
  Sb  Sb5  1  0.93880900  0.67485003  0.64475053  1
  P  P6  1  0.13657585  0.30459970  0.64551324  1
  P  P7  1  0.30307427  0.80285525  0.39947345  1
  Li  Li8  1  0.67043019  0.42065634  0.31804122  1
