# generated using pymatgen
data_Li4TiS2(IO)4
_symmetry_space_group_name_H-M   'P 1'
_cell_length_a   5.70165376
_cell_length_b   5.35504414
_cell_length_c   6.95898255
_cell_angle_alpha   98.45101429
_cell_angle_beta   99.26257800
_cell_angle_gamma   97.60258331
_symmetry_Int_Tables_number   1
_chemical_formula_structural   Li4TiS2(IO)4
_chemical_formula_sum   'Li4 Ti1 S2 I4 O4'
_cell_volume   204.76447384
_cell_formula_units_Z   1
loop_
 _symmetry_equiv_pos_site_id
 _symmetry_equiv_pos_as_xyz
  1  'x, y, z'
loop_
 _atom_site_type_symbol
 _atom_site_label
 _atom_site_symmetry_multiplicity
 _atom_site_fract_x
 _atom_site_fract_y
 _atom_site_fract_z
 _atom_site_occupancy
  Li  Li0  1  0.00000000  0.00000000  0.00000000  1
  Li  Li1  1  0.50000000  0.50000000  0.50000000  1
  Li  Li2  1  0.25000000  0.25000000  0.25000000  1
  Li  Li3  1  0.75000000  0.25000000  0.00000000  1
  Ti  Ti4  1  0.25000000  0.75000000  0.50000000  1
  I  I5  1  0.68718426  0.10401783  0.20827108  1
  I  I6  1  0.33046574  0.97281714  0.21209768  1
  I  I7  1  0.37309754  0.92546937  0.97666735  1
  I  I8  1  0.69438091  0.31124853  0.99915036  1
  S  S9  1  0.36140775  0.46707436  0.04156332  1
  S  S10  1  0.27015753  0.47022731  0.59049629  1
  O  O11  1  0.80519437  0.18038608  0.64909144  1
  O  O12  1  0.02490924  0.36074596  0.66069697  1
  O  O13  1  0.39252714  0.69366760  0.78389613  1
  O  O14  1  0.76202112  0.83087606  0.93091489  1
