# generated using pymatgen
data_Li2MnSb4P3
_symmetry_space_group_name_H-M   'P 1'
_cell_length_a   5.29774868
_cell_length_b   5.59133474
_cell_length_c   6.77370836
_cell_angle_alpha   98.60109611
_cell_angle_beta   93.79237297
_cell_angle_gamma   98.89832068
_symmetry_Int_Tables_number   1
_chemical_formula_structural   Li2MnSb4P3
_chemical_formula_sum   'Li2 Mn1 Sb4 P3'
_cell_volume   195.18274882
_cell_formula_units_Z   1
loop_
 _symmetry_equiv_pos_site_id
 _symmetry_equiv_pos_as_xyz
  1  'x, y, z'
loop_
 _atom_site_type_symbol
 _atom_site_label
 _atom_site_symmetry_multiplicity
 _atom_site_fract_x
 _atom_site_fract_y
 _atom_site_fract_z
 _atom_site_occupancy
  Mn  Mn0  1  0.00000000  0.00000000  0.00000000  1
  Sb  Sb1  1  0.50000000  0.50000000  0.50000000  1
  Sb  Sb2  1  0.25000000  0.25000000  0.25000000  1
  Sb  Sb3  1  0.75000000  0.25000000  0.00000000  1
  Sb  Sb4  1  0.25000000  0.75000000  0.50000000  1
  P  P5  1  0.59826109  0.74145983  0.35451551  1
  P  P6  1  0.02370504  0.84123081  0.06536611  1
  P  P7  1  0.98877178  0.05626931  0.11618380  1
  Li  Li8  1  0.14257450  0.99601316  0.81910420  1
  Li  Li9  1  0.95557057  0.96676693  0.77935134  1
