# generated using pymatgen
data_LiTi2Nb2(OF)3
_symmetry_space_group_name_H-M   'P 1'
_cell_length_a   6.05875475
_cell_length_b   5.86054655
_cell_length_c   7.38795683
_cell_angle_alpha   92.92425065
_cell_angle_beta   96.16198986
_cell_angle_gamma   92.82743804
_symmetry_Int_Tables_number   1
_chemical_formula_structural   LiTi2Nb2(OF)3
_chemical_formula_sum   'Li1 Ti2 Nb2 O3 F3'
_cell_volume   260.07641296
_cell_formula_units_Z   1
loop_
 _symmetry_equiv_pos_site_id
 _symmetry_equiv_pos_as_xyz
  1  'x, y, z'
loop_
 _atom_site_type_symbol
 _atom_site_label
 _atom_site_symmetry_multiplicity
 _atom_site_fract_x
 _atom_site_fract_y
 _atom_site_fract_z
 _atom_site_occupancy
  Li  Li0  1  0.12500000  0.00000000  0.25000000  1
  Nb  Nb1  1  0.00000000  0.00000000  0.00000000  1
  Nb  Nb2  1  0.37500000  0.00000000  0.25000000  1
  F  F3  1  0.25000000  0.25000000  0.25000000  1
  F  F4  1  0.00000000  0.25000000  0.12500000  1
  F  F5  1  0.07081143  0.28519481  0.14689695  1
  Ti  Ti6  1  0.06637985  0.45325382  0.70815483  1
  Ti  Ti7  1  0.44457511  0.94538055  0.89707466  1
  O  O8  1  0.36121950  0.88310812  0.24024547  1
  O  O9  1  0.45681826  0.46389126  0.19082368  1
  O  O10  1  0.48770723  0.13933144  0.67861384  1
