# generated using pymatgen
data_Li2MnSb4P3
_symmetry_space_group_name_H-M   'P 1'
_cell_length_a   5.82249137
_cell_length_b   6.02885132
_cell_length_c   7.01410632
_cell_angle_alpha   96.89282621
_cell_angle_beta   93.17260037
_cell_angle_gamma   97.14960120
_symmetry_Int_Tables_number   1
_chemical_formula_structural   Li2MnSb4P3
_chemical_formula_sum   'Li2 Mn1 Sb4 P3'
_cell_volume   241.91747111
_cell_formula_units_Z   1
loop_
 _symmetry_equiv_pos_site_id
 _symmetry_equiv_pos_as_xyz
  1  'x, y, z'
loop_
 _atom_site_type_symbol
 _atom_site_label
 _atom_site_symmetry_multiplicity
 _atom_site_fract_x
 _atom_site_fract_y
 _atom_site_fract_z
 _atom_site_occupancy
  Mn  Mn0  1  0.12500000  0.00000000  0.25000000  1
  Sb  Sb1  1  0.00000000  0.00000000  0.00000000  1
  Sb  Sb2  1  0.37500000  0.00000000  0.25000000  1
  Sb  Sb3  1  0.25000000  0.25000000  0.25000000  1
  Sb  Sb4  1  0.00000000  0.25000000  0.12500000  1
  P  P5  1  0.77173886  0.89299854  0.89591355  1
  P  P6  1  0.12696936  0.65641834  0.13249400  1
  P  P7  1  0.38339279  0.51643647  0.36408771  1
  Li  Li8  1  0.55724872  0.32006877  0.48890526  1
  Li  Li9  1  0.50277734  0.74992581  0.91058713  1
