# generated using pymatgen
data_Li2Mn3(SbP)4
_symmetry_space_group_name_H-M   'P 1'
_cell_length_a   7.57736925
_cell_length_b   8.26034177
_cell_length_c   7.54707920
_cell_angle_alpha   90.00000000
_cell_angle_beta   90.00000000
_cell_angle_gamma   90.00000000
_symmetry_Int_Tables_number   1
_chemical_formula_structural   Li2Mn3(SbP)4
_chemical_formula_sum   'Li2 Mn3 Sb4 P4'
_cell_volume   472.38421297
_cell_formula_units_Z   1
loop_
 _symmetry_equiv_pos_site_id
 _symmetry_equiv_pos_as_xyz
  1  'x, y, z'
loop_
 _atom_site_type_symbol
 _atom_site_label
 _atom_site_symmetry_multiplicity
 _atom_site_fract_x
 _atom_site_fract_y
 _atom_site_fract_z
 _atom_site_occupancy
  Mn  Mn0  1  0.00000000  0.00000000  0.00000000  1
  Mn  Mn1  1  0.50000000  0.50000000  0.50000000  1
  Mn  Mn2  1  0.50000000  0.50000000  0.00000000  1
  Sb  Sb3  1  0.50000000  0.00000000  0.50000000  1
  Sb  Sb4  1  0.00000000  0.50000000  0.50000000  1
  Sb  Sb5  1  0.60917179  0.07528442  0.44139256  1
  Sb  Sb6  1  0.66007651  0.77730913  0.99211462  1
  P  P7  1  0.96144937  0.84706866  0.96734536  1
  P  P8  1  0.58970817  0.92222302  0.94331307  1
  P  P9  1  0.91041607  0.40062443  0.56302535  1
  P  P10  1  0.92341799  0.09173121  0.78043859  1
  Li  Li11  1  0.53763767  0.77164444  0.59619674  1
  Li  Li12  1  0.47851843  0.87985457  0.98442359  1
