# generated using pymatgen
data_Li2TiI4N5
_symmetry_space_group_name_H-M   'P 1'
_cell_length_a   7.77034815
_cell_length_b   7.59073171
_cell_length_c   7.50361047
_cell_angle_alpha   91.14839177
_cell_angle_beta   92.30000570
_cell_angle_gamma   91.32485149
_symmetry_Int_Tables_number   1
_chemical_formula_structural   Li2TiI4N5
_chemical_formula_sum   'Li2 Ti1 I4 N5'
_cell_volume   442.01047520
_cell_formula_units_Z   1
loop_
 _symmetry_equiv_pos_site_id
 _symmetry_equiv_pos_as_xyz
  1  'x, y, z'
loop_
 _atom_site_type_symbol
 _atom_site_label
 _atom_site_symmetry_multiplicity
 _atom_site_fract_x
 _atom_site_fract_y
 _atom_site_fract_z
 _atom_site_occupancy
  I  I0  1  0.12500000  0.12500000  0.12500000  1
  I  I1  1  0.50000000  0.50000000  0.50000000  1
  I  I2  1  0.25000000  0.25000000  0.25000000  1
  I  I3  1  0.75000000  0.75000000  0.75000000  1
  Li  Li4  1  0.76683502  0.80030691  0.69298972  1
  Li  Li5  1  0.27778319  0.07058530  0.19951553  1
  Ti  Ti6  1  0.97993033  0.19909806  0.70208460  1
  N  N7  1  0.30001938  0.24765752  0.31947246  1
  N  N8  1  0.63679679  0.67620612  0.90313277  1
  N  N9  1  0.62886169  0.51568600  0.68443460  1
  N  N10  1  0.14803359  0.62166889  0.00837132  1
  N  N11  1  0.36273783  0.07259300  0.27061023  1
