# generated using pymatgen
data_Li3LuCu2(NiAs3)2
_symmetry_space_group_name_H-M   'P 1'
_cell_length_a   7.44634934
_cell_length_b   7.26454875
_cell_length_c   8.71762434
_cell_angle_alpha   92.45658434
_cell_angle_beta   91.60375374
_cell_angle_gamma   92.84656719
_symmetry_Int_Tables_number   1
_chemical_formula_structural   Li3LuCu2(NiAs3)2
_chemical_formula_sum   'Li3 Lu1 Cu2 Ni2 As6'
_cell_volume   470.34529646
_cell_formula_units_Z   1
loop_
 _symmetry_equiv_pos_site_id
 _symmetry_equiv_pos_as_xyz
  1  'x, y, z'
loop_
 _atom_site_type_symbol
 _atom_site_label
 _atom_site_symmetry_multiplicity
 _atom_site_fract_x
 _atom_site_fract_y
 _atom_site_fract_z
 _atom_site_occupancy
  Ni  Ni0  1  0.12500000  0.00000000  0.25000000  1
  Ni  Ni1  1  0.00000000  0.00000000  0.00000000  1
  Lu  Lu2  1  0.37500000  0.00000000  0.25000000  1
  As  As3  1  0.25000000  0.25000000  0.25000000  1
  As  As4  1  0.00000000  0.25000000  0.12500000  1
  As  As5  1  0.27910411  0.51366849  0.80113130  1
  As  As6  1  0.84251603  0.53637067  0.05199505  1
  As  As7  1  0.87249209  0.25074391  0.54965629  1
  As  As8  1  0.62246970  0.80216402  0.51449028  1
  Li  Li9  1  0.44055551  0.95266399  0.88397095  1
  Li  Li10  1  0.27790767  0.24528475  0.59123433  1
  Li  Li11  1  0.72671788  0.48031676  0.96762607  1
  Cu  Cu12  1  0.81199245  0.07127721  0.00742970  1
  Cu  Cu13  1  0.56969879  0.41180585  0.26936067  1
