# generated using pymatgen
data_Li3Ti3Cu2(Te3O)2
_symmetry_space_group_name_H-M   'P 1'
_cell_length_a   6.06934175
_cell_length_b   6.42910562
_cell_length_c   7.10294394
_cell_angle_alpha   98.37996027
_cell_angle_beta   101.35021608
_cell_angle_gamma   100.78424443
_symmetry_Int_Tables_number   1
_chemical_formula_structural   Li3Ti3Cu2(Te3O)2
_chemical_formula_sum   'Li3 Ti3 Cu2 Te6 O2'
_cell_volume   262.10080143
_cell_formula_units_Z   1
loop_
 _symmetry_equiv_pos_site_id
 _symmetry_equiv_pos_as_xyz
  1  'x, y, z'
loop_
 _atom_site_type_symbol
 _atom_site_label
 _atom_site_symmetry_multiplicity
 _atom_site_fract_x
 _atom_site_fract_y
 _atom_site_fract_z
 _atom_site_occupancy
  Li  Li0  1  0.12500000  0.00000000  0.25000000  1
  Li  Li1  1  0.00000000  0.00000000  0.00000000  1
  Li  Li2  1  0.37500000  0.00000000  0.25000000  1
  Cu  Cu3  1  0.25000000  0.25000000  0.25000000  1
  Cu  Cu4  1  0.00000000  0.25000000  0.12500000  1
  Te  Te5  1  0.96502410  0.67468870  0.11281165  1
  Te  Te6  1  0.31403538  0.79192059  0.46081198  1
  Te  Te7  1  0.24565315  0.24207967  0.28322772  1
  Te  Te8  1  0.85643562  0.92445874  0.92281059  1
  Te  Te9  1  0.95469508  0.42051908  0.25623914  1
  Te  Te10  1  0.29932284  0.84813878  0.83743642  1
  Ti  Ti11  1  0.00558700  0.70359768  0.39355912  1
  Ti  Ti12  1  0.27937944  0.64021357  0.06182649  1
  Ti  Ti13  1  0.92491489  0.25208150  0.48258997  1
  O  O14  1  0.90904072  0.09553838  0.84808846  1
  O  O15  1  0.03847755  0.29193579  0.63939536  1
