# generated using pymatgen
data_Li2Mn3Sb4P3
_symmetry_space_group_name_H-M   'P 1'
_cell_length_a   6.77390358
_cell_length_b   7.33013577
_cell_length_c   7.13212970
_cell_angle_alpha   93.78729300
_cell_angle_beta   90.18920090
_cell_angle_gamma   93.71196372
_symmetry_Int_Tables_number   1
_chemical_formula_structural   Li2Mn3Sb4P3
_chemical_formula_sum   'Li2 Mn3 Sb4 P3'
_cell_volume   352.61124137
_cell_formula_units_Z   1
loop_
 _symmetry_equiv_pos_site_id
 _symmetry_equiv_pos_as_xyz
  1  'x, y, z'
loop_
 _atom_site_type_symbol
 _atom_site_label
 _atom_site_symmetry_multiplicity
 _atom_site_fract_x
 _atom_site_fract_y
 _atom_site_fract_z
 _atom_site_occupancy
  Mn  Mn0  1  0.00000000  0.00000000  0.00000000  1
  Mn  Mn1  1  0.50000000  0.50000000  0.50000000  1
  Mn  Mn2  1  0.25000000  0.25000000  0.25000000  1
  Sb  Sb3  1  0.75000000  0.25000000  0.00000000  1
  Sb  Sb4  1  0.25000000  0.75000000  0.50000000  1
  Sb  Sb5  1  0.29116944  0.69894089  0.66160255  1
  Sb  Sb6  1  0.50410933  0.27390000  0.57524677  1
  P  P7  1  0.67489524  0.70230060  0.82766858  1
  P  P8  1  0.17351407  0.29975691  0.00072072  1
  P  P9  1  0.33547507  0.10964978  0.56336588  1
  Li  Li10  1  0.36111814  0.92482024  0.21517623  1
  Li  Li11  1  0.35096295  0.22012123  0.48133156  1
