# generated using pymatgen
data_Li2Mn2Sb4P3
_symmetry_space_group_name_H-M   'P 1'
_cell_length_a   6.74544450
_cell_length_b   7.05557746
_cell_length_c   7.26104539
_cell_angle_alpha   93.96739586
_cell_angle_beta   91.01870002
_cell_angle_gamma   94.00275039
_symmetry_Int_Tables_number   1
_chemical_formula_structural   Li2Mn2Sb4P3
_chemical_formula_sum   'Li2 Mn2 Sb4 P3'
_cell_volume   343.81713742
_cell_formula_units_Z   1
loop_
 _symmetry_equiv_pos_site_id
 _symmetry_equiv_pos_as_xyz
  1  'x, y, z'
loop_
 _atom_site_type_symbol
 _atom_site_label
 _atom_site_symmetry_multiplicity
 _atom_site_fract_x
 _atom_site_fract_y
 _atom_site_fract_z
 _atom_site_occupancy
  Mn  Mn0  1  0.12500000  0.00000000  0.25000000  1
  Mn  Mn1  1  0.00000000  0.00000000  0.00000000  1
  Sb  Sb2  1  0.37500000  0.00000000  0.25000000  1
  Sb  Sb3  1  0.25000000  0.25000000  0.25000000  1
  Sb  Sb4  1  0.00000000  0.25000000  0.12500000  1
  Sb  Sb5  1  0.22547273  0.03042338  0.53230329  1
  P  P6  1  0.76095381  0.29775357  0.74086669  1
  P  P7  1  0.37727220  0.99868327  0.95600464  1
  P  P8  1  0.47994492  0.18404103  0.42026930  1
  Li  Li9  1  0.02376387  0.23498213  0.56660739  1
  Li  Li10  1  0.51516709  0.66610141  0.94692084  1
