# generated using pymatgen
data_Li2Nb2VN5F3
_symmetry_space_group_name_H-M   'P 1'
_cell_length_a   6.00864562
_cell_length_b   5.41587405
_cell_length_c   7.49742689
_cell_angle_alpha   96.37984212
_cell_angle_beta   93.97693815
_cell_angle_gamma   97.39335164
_symmetry_Int_Tables_number   1
_chemical_formula_structural   Li2Nb2VN5F3
_chemical_formula_sum   'Li2 Nb2 V1 N5 F3'
_cell_volume   239.58716123
_cell_formula_units_Z   1
loop_
 _symmetry_equiv_pos_site_id
 _symmetry_equiv_pos_as_xyz
  1  'x, y, z'
loop_
 _atom_site_type_symbol
 _atom_site_label
 _atom_site_symmetry_multiplicity
 _atom_site_fract_x
 _atom_site_fract_y
 _atom_site_fract_z
 _atom_site_occupancy
  Li  Li0  1  0.12500000  0.00000000  0.25000000  1
  Li  Li1  1  0.00000000  0.00000000  0.00000000  1
  Nb  Nb2  1  0.37500000  0.00000000  0.25000000  1
  Nb  Nb3  1  0.25000000  0.25000000  0.25000000  1
  F  F4  1  0.00000000  0.25000000  0.12500000  1
  F  F5  1  0.18069000  0.91013821  0.35550085  1
  F  F6  1  0.04133767  0.06194029  0.79916346  1
  V  V7  1  0.51104886  0.26737826  0.03724106  1
  N  N8  1  0.48711415  0.59735213  0.06916993  1
  N  N9  1  0.82278405  0.43304023  0.82346382  1
  N  N10  1  0.54483622  0.97031357  0.53421079  1
  N  N11  1  0.49943305  0.45433412  0.20192952  1
  N  N12  1  0.40833310  0.87161271  0.67377370  1
