# generated using pymatgen
data_Li2Sb4P3
_symmetry_space_group_name_H-M   'P 1'
_cell_length_a   4.71792314
_cell_length_b   5.01577569
_cell_length_c   6.53871133
_cell_angle_alpha   100.64046321
_cell_angle_beta   94.59394452
_cell_angle_gamma   100.99456632
_symmetry_Int_Tables_number   1
_chemical_formula_structural   Li2Sb4P3
_chemical_formula_sum   'Li2 Sb4 P3'
_cell_volume   148.21046030
_cell_formula_units_Z   1
loop_
 _symmetry_equiv_pos_site_id
 _symmetry_equiv_pos_as_xyz
  1  'x, y, z'
loop_
 _atom_site_type_symbol
 _atom_site_label
 _atom_site_symmetry_multiplicity
 _atom_site_fract_x
 _atom_site_fract_y
 _atom_site_fract_z
 _atom_site_occupancy
  Sb  Sb0  1  0.00000000  0.00000000  0.00000000  1
  Sb  Sb1  1  0.33300000  0.66700000  0.25000000  1
  Sb  Sb2  1  0.66700000  0.33300000  0.50000000  1
  Sb  Sb3  1  0.00000000  0.00000000  0.75000000  1
  P  P4  1  0.37066828  0.99896263  0.54544028  1
  P  P5  1  0.31399870  0.06780549  0.19520250  1
  P  P6  1  0.21221914  0.98391432  0.58158777  1
  Li  Li7  1  0.32948477  0.80882933  0.49734725  1
  Li  Li8  1  0.19976392  0.54971934  0.11684430  1
