# generated using pymatgen
data_Li2Ti2V(PN)5
_symmetry_space_group_name_H-M   'P 1'
_cell_length_a   7.01716573
_cell_length_b   6.43239738
_cell_length_c   7.64923690
_cell_angle_alpha   95.41717049
_cell_angle_beta   92.28170996
_cell_angle_gamma   96.28187954
_symmetry_Int_Tables_number   1
_chemical_formula_structural   Li2Ti2V(PN)5
_chemical_formula_sum   'Li2 Ti2 V1 P5 N5'
_cell_volume   341.22031230
_cell_formula_units_Z   1
loop_
 _symmetry_equiv_pos_site_id
 _symmetry_equiv_pos_as_xyz
  1  'x, y, z'
loop_
 _atom_site_type_symbol
 _atom_site_label
 _atom_site_symmetry_multiplicity
 _atom_site_fract_x
 _atom_site_fract_y
 _atom_site_fract_z
 _atom_site_occupancy
  P  P0  1  0.12500000  0.00000000  0.25000000  1
  P  P1  1  0.00000000  0.00000000  0.00000000  1
  P  P2  1  0.37500000  0.00000000  0.25000000  1
  P  P3  1  0.25000000  0.25000000  0.25000000  1
  P  P4  1  0.00000000  0.25000000  0.12500000  1
  Li  Li5  1  0.22126614  0.04588267  0.50908429  1
  Li  Li6  1  0.46630306  0.10003362  0.96970445  1
  Ti  Ti7  1  0.32976348  0.75052393  0.56998562  1
  Ti  Ti8  1  0.85752758  0.88123711  0.69293320  1
  V  V9  1  0.38063960  0.47511106  0.20340572  1
  N  N10  1  0.36254816  0.94445010  0.77429712  1
  N  N11  1  0.85243976  0.07651403  0.52523170  1
  N  N12  1  0.38965189  0.49928519  0.70472907  1
  N  N13  1  0.51760195  0.27770676  0.04100392  1
  N  N14  1  0.54664646  0.87939164  0.35225114  1
