# generated using pymatgen
data_LiMn3Ni3Sb4P3
_symmetry_space_group_name_H-M   'P 1'
_cell_length_a   4.64010768
_cell_length_b   4.64278535
_cell_length_c   6.38226008
_cell_angle_alpha   95.03232588
_cell_angle_beta   95.46889422
_cell_angle_gamma   95.75757541
_symmetry_Int_Tables_number   1
_chemical_formula_structural   LiMn3Ni3Sb4P3
_chemical_formula_sum   'Li1 Mn3 Ni3 Sb4 P3'
_cell_volume   135.51842497
_cell_formula_units_Z   1
loop_
 _symmetry_equiv_pos_site_id
 _symmetry_equiv_pos_as_xyz
  1  'x, y, z'
loop_
 _atom_site_type_symbol
 _atom_site_label
 _atom_site_symmetry_multiplicity
 _atom_site_fract_x
 _atom_site_fract_y
 _atom_site_fract_z
 _atom_site_occupancy
  Mn  Mn0  1  0.12500000  0.00000000  0.25000000  1
  Mn  Mn1  1  0.00000000  0.00000000  0.00000000  1
  Mn  Mn2  1  0.37500000  0.00000000  0.25000000  1
  Sb  Sb3  1  0.25000000  0.25000000  0.25000000  1
  Sb  Sb4  1  0.00000000  0.25000000  0.12500000  1
  Sb  Sb5  1  0.54050590  0.57010931  0.33998451  1
  Sb  Sb6  1  0.01296152  0.68646225  0.50251442  1
  P  P7  1  0.88449235  0.60604765  0.53509452  1
  P  P8  1  0.81268631  0.91025988  0.90496563  1
  P  P9  1  0.36859408  0.44437877  0.94257182  1
  Li  Li10  1  0.93531231  0.36705256  0.71831908  1
  Ni  Ni11  1  0.60371446  0.41354935  0.44431168  1
  Ni  Ni12  1  0.57198613  0.99203241  0.13033508  1
  Ni  Ni13  1  0.42760166  0.78681883  0.03226635  1
