# generated using pymatgen
data_Li2Mn2Sb4P3
_symmetry_space_group_name_H-M   'P 1'
_cell_length_a   6.97706065
_cell_length_b   7.59440774
_cell_length_c   7.44354825
_cell_angle_alpha   91.57845118
_cell_angle_beta   91.86982126
_cell_angle_gamma   91.79647233
_symmetry_Int_Tables_number   1
_chemical_formula_structural   Li2Mn2Sb4P3
_chemical_formula_sum   'Li2 Mn2 Sb4 P3'
_cell_volume   393.84372980
_cell_formula_units_Z   1
loop_
 _symmetry_equiv_pos_site_id
 _symmetry_equiv_pos_as_xyz
  1  'x, y, z'
loop_
 _atom_site_type_symbol
 _atom_site_label
 _atom_site_symmetry_multiplicity
 _atom_site_fract_x
 _atom_site_fract_y
 _atom_site_fract_z
 _atom_site_occupancy
  Mn  Mn0  1  0.00000000  0.00000000  0.00000000  1
  Mn  Mn1  1  0.50000000  0.50000000  0.50000000  1
  Sb  Sb2  1  0.50000000  0.50000000  0.00000000  1
  Sb  Sb3  1  0.50000000  0.00000000  0.50000000  1
  Sb  Sb4  1  0.00000000  0.50000000  0.50000000  1
  Sb  Sb5  1  0.93295735  0.57497090  0.17618781  1
  P  P6  1  0.13999840  0.14450438  0.90329348  1
  P  P7  1  0.51450129  0.56912991  0.19780599  1
  P  P8  1  0.66845091  0.79854155  0.79964399  1
  Li  Li9  1  0.29923426  0.74201648  0.91925135  1
  Li  Li10  1  0.44262858  0.33466352  0.51788862  1
