# generated using pymatgen
data_Li5ZrTi2P3
_symmetry_space_group_name_H-M   'P 1'
_cell_length_a   5.36245884
_cell_length_b   4.92993659
_cell_length_c   7.18558096
_cell_angle_alpha   100.53295752
_cell_angle_beta   102.40739572
_cell_angle_gamma   99.67179214
_symmetry_Int_Tables_number   1
_chemical_formula_structural   Li5ZrTi2P3
_chemical_formula_sum   'Li5 Zr1 Ti2 P3'
_cell_volume   178.09861716
_cell_formula_units_Z   1
loop_
 _symmetry_equiv_pos_site_id
 _symmetry_equiv_pos_as_xyz
  1  'x, y, z'
loop_
 _atom_site_type_symbol
 _atom_site_label
 _atom_site_symmetry_multiplicity
 _atom_site_fract_x
 _atom_site_fract_y
 _atom_site_fract_z
 _atom_site_occupancy
  Ti  Ti0  1  0.12500000  0.12500000  0.12500000  1
  Ti  Ti1  1  0.50000000  0.50000000  0.50000000  1
  P  P2  1  0.25000000  0.25000000  0.25000000  1
  P  P3  1  0.75000000  0.75000000  0.75000000  1
  P  P4  1  0.92920656  0.62815036  0.02311054  1
  Li  Li5  1  0.21629852  0.39700215  0.08507139  1
  Li  Li6  1  0.05949047  0.30282651  0.61266750  1
  Li  Li7  1  0.86685512  0.61758723  0.82338771  1
  Li  Li8  1  0.83335843  0.71352374  0.24357993  1
  Li  Li9  1  0.77243220  0.95034391  0.54095681  1
  Zr  Zr10  1  0.51861281  0.94302253  0.91210622  1
