# generated using pymatgen
data_Li2Mn2Sb4P3
_symmetry_space_group_name_H-M   'P 1'
_cell_length_a   7.47841719
_cell_length_b   7.63250912
_cell_length_c   7.72633526
_cell_angle_alpha   90.98005279
_cell_angle_beta   91.16096308
_cell_angle_gamma   91.11542108
_symmetry_Int_Tables_number   1
_chemical_formula_structural   Li2Mn2Sb4P3
_chemical_formula_sum   'Li2 Mn2 Sb4 P3'
_cell_volume   440.77053272
_cell_formula_units_Z   1
loop_
 _symmetry_equiv_pos_site_id
 _symmetry_equiv_pos_as_xyz
  1  'x, y, z'
loop_
 _atom_site_type_symbol
 _atom_site_label
 _atom_site_symmetry_multiplicity
 _atom_site_fract_x
 _atom_site_fract_y
 _atom_site_fract_z
 _atom_site_occupancy
  Mn  Mn0  1  0.00000000  0.00000000  0.00000000  1
  Mn  Mn1  1  0.33300000  0.66700000  0.25000000  1
  Sb  Sb2  1  0.66700000  0.33300000  0.50000000  1
  Sb  Sb3  1  0.00000000  0.00000000  0.75000000  1
  Sb  Sb4  1  0.18717262  0.38089809  0.53210485  1
  Sb  Sb5  1  0.99806537  0.68793688  0.38563071  1
  P  P6  1  0.90251885  0.61921243  0.20842216  1
  P  P7  1  0.33759365  0.69959059  0.10991541  1
  P  P8  1  0.29155960  0.02737684  0.05436243  1
  Li  Li9  1  0.11665525  0.07368461  0.84957510  1
  Li  Li10  1  0.72083617  0.03355254  0.62712737  1
