# generated using pymatgen
data_LiMn2Sb4P3
_symmetry_space_group_name_H-M   'P 1'
_cell_length_a   5.92182096
_cell_length_b   6.14863968
_cell_length_c   6.75311282
_cell_angle_alpha   94.41681009
_cell_angle_beta   91.78474377
_cell_angle_gamma   94.70598524
_symmetry_Int_Tables_number   1
_chemical_formula_structural   LiMn2Sb4P3
_chemical_formula_sum   'Li1 Mn2 Sb4 P3'
_cell_volume   244.15813767
_cell_formula_units_Z   1
loop_
 _symmetry_equiv_pos_site_id
 _symmetry_equiv_pos_as_xyz
  1  'x, y, z'
loop_
 _atom_site_type_symbol
 _atom_site_label
 _atom_site_symmetry_multiplicity
 _atom_site_fract_x
 _atom_site_fract_y
 _atom_site_fract_z
 _atom_site_occupancy
  Mn  Mn0  1  0.00000000  0.00000000  0.00000000  1
  Mn  Mn1  1  0.33300000  0.66700000  0.25000000  1
  Sb  Sb2  1  0.66700000  0.33300000  0.50000000  1
  Sb  Sb3  1  0.00000000  0.00000000  0.75000000  1
  Sb  Sb4  1  0.77242380  0.06551368  0.00157237  1
  Sb  Sb5  1  0.28636250  0.58969227  0.87246302  1
  P  P6  1  0.80286369  0.76583800  0.85184197  1
  P  P7  1  0.41499859  0.00385296  0.71597095  1
  P  P8  1  0.61275021  0.10240641  0.96910462  1
  Li  Li9  1  0.33707463  0.54529164  0.52466916  1
