# generated using pymatgen
data_LiP3I4O3
_symmetry_space_group_name_H-M   'P 1'
_cell_length_a   7.74012709
_cell_length_b   7.90780223
_cell_length_c   8.11740020
_cell_angle_alpha   90.43832095
_cell_angle_beta   93.21349381
_cell_angle_gamma   90.46281255
_symmetry_Int_Tables_number   1
_chemical_formula_structural   LiP3I4O3
_chemical_formula_sum   'Li1 P3 I4 O3'
_cell_volume   496.03114989
_cell_formula_units_Z   1
loop_
 _symmetry_equiv_pos_site_id
 _symmetry_equiv_pos_as_xyz
  1  'x, y, z'
loop_
 _atom_site_type_symbol
 _atom_site_label
 _atom_site_symmetry_multiplicity
 _atom_site_fract_x
 _atom_site_fract_y
 _atom_site_fract_z
 _atom_site_occupancy
  I  I0  1  0.12500000  0.00000000  0.25000000  1
  I  I1  1  0.00000000  0.00000000  0.00000000  1
  I  I2  1  0.37500000  0.00000000  0.25000000  1
  I  I3  1  0.25000000  0.25000000  0.25000000  1
  P  P4  1  0.00000000  0.25000000  0.12500000  1
  P  P5  1  0.64966781  0.25945225  0.39749933  1
  P  P6  1  0.87711265  0.44137790  0.91459908  1
  Li  Li7  1  0.05042212  0.84501681  0.81706197  1
  O  O8  1  0.82547040  0.09438893  0.58375441  1
  O  O9  1  0.11746470  0.84821785  0.47953366  1
  O  O10  1  0.29515642  0.18186317  0.07871914  1
