# generated using pymatgen
data_LiMnSb4Mo2P3
_symmetry_space_group_name_H-M   'P 1'
_cell_length_a   4.69759848
_cell_length_b   4.92193036
_cell_length_c   6.17551491
_cell_angle_alpha   100.08181716
_cell_angle_beta   92.57287102
_cell_angle_gamma   100.29082140
_symmetry_Int_Tables_number   1
_chemical_formula_structural   LiMnSb4Mo2P3
_chemical_formula_sum   'Li1 Mn1 Sb4 Mo2 P3'
_cell_volume   137.89126145
_cell_formula_units_Z   1
loop_
 _symmetry_equiv_pos_site_id
 _symmetry_equiv_pos_as_xyz
  1  'x, y, z'
loop_
 _atom_site_type_symbol
 _atom_site_label
 _atom_site_symmetry_multiplicity
 _atom_site_fract_x
 _atom_site_fract_y
 _atom_site_fract_z
 _atom_site_occupancy
  Mn  Mn0  1  0.12500000  0.00000000  0.25000000  1
  Sb  Sb1  1  0.00000000  0.00000000  0.00000000  1
  Sb  Sb2  1  0.37500000  0.00000000  0.25000000  1
  Sb  Sb3  1  0.25000000  0.25000000  0.25000000  1
  Sb  Sb4  1  0.00000000  0.25000000  0.12500000  1
  P  P5  1  0.91806588  0.01934909  0.11870095  1
  P  P6  1  0.84769225  0.34289458  0.89553024  1
  P  P7  1  0.31871815  0.50604323  0.43959936  1
  Mo  Mo8  1  0.88823844  0.66308795  0.36751614  1
  Mo  Mo9  1  0.65914601  0.17228702  0.11711377  1
  Li  Li10  1  0.51755877  0.22175209  0.46599357  1
