# generated using pymatgen
data_Li3Ti2V3P3O
_symmetry_space_group_name_H-M   'P 1'
_cell_length_a   7.82491655
_cell_length_b   7.24509296
_cell_length_c   7.16737089
_cell_angle_alpha   90.21873161
_cell_angle_beta   91.04065856
_cell_angle_gamma   90.25006863
_symmetry_Int_Tables_number   1
_chemical_formula_structural   Li3Ti2V3P3O
_chemical_formula_sum   'Li3 Ti2 V3 P3 O1'
_cell_volume   406.26039006
_cell_formula_units_Z   1
loop_
 _symmetry_equiv_pos_site_id
 _symmetry_equiv_pos_as_xyz
  1  'x, y, z'
loop_
 _atom_site_type_symbol
 _atom_site_label
 _atom_site_symmetry_multiplicity
 _atom_site_fract_x
 _atom_site_fract_y
 _atom_site_fract_z
 _atom_site_occupancy
  P  P0  1  0.12500000  0.00000000  0.25000000  1
  P  P1  1  0.00000000  0.00000000  0.00000000  1
  P  P2  1  0.37500000  0.00000000  0.25000000  1
  Li  Li3  1  0.25000000  0.25000000  0.25000000  1
  Li  Li4  1  0.00000000  0.25000000  0.12500000  1
  Li  Li5  1  0.41584835  0.37970137  0.59132526  1
  Ti  Ti6  1  0.48511693  0.65349215  0.46008074  1
  Ti  Ti7  1  0.54636126  0.70429537  0.36350226  1
  V  V8  1  0.42195388  0.01518407  0.96312809  1
  V  V9  1  0.87968228  0.21894775  0.73836700  1
  V  V10  1  0.59057505  0.56824708  0.07732631  1
  O  O11  1  0.39028381  0.03278913  0.99396524  1
