# generated using pymatgen
data_LiMn2Sb4P3
_symmetry_space_group_name_H-M   'P 1'
_cell_length_a   5.91556738
_cell_length_b   6.49302533
_cell_length_c   6.66536024
_cell_angle_alpha   94.16795447
_cell_angle_beta   91.39348647
_cell_angle_gamma   94.41477817
_symmetry_Int_Tables_number   1
_chemical_formula_structural   LiMn2Sb4P3
_chemical_formula_sum   'Li1 Mn2 Sb4 P3'
_cell_volume   254.46610160
_cell_formula_units_Z   1
loop_
 _symmetry_equiv_pos_site_id
 _symmetry_equiv_pos_as_xyz
  1  'x, y, z'
loop_
 _atom_site_type_symbol
 _atom_site_label
 _atom_site_symmetry_multiplicity
 _atom_site_fract_x
 _atom_site_fract_y
 _atom_site_fract_z
 _atom_site_occupancy
  Mn  Mn0  1  0.00000000  0.00000000  0.00000000  1
  Mn  Mn1  1  0.50000000  0.50000000  0.50000000  1
  Sb  Sb2  1  0.50000000  0.50000000  0.00000000  1
  Sb  Sb3  1  0.50000000  0.00000000  0.50000000  1
  Sb  Sb4  1  0.00000000  0.50000000  0.50000000  1
  Sb  Sb5  1  0.89713036  0.75768798  0.14811526  1
  P  P6  1  0.98906666  0.73285875  0.53144965  1
  P  P7  1  0.18137474  0.36826369  0.80466745  1
  P  P8  1  0.25860570  0.70316938  0.37900721  1
  Li  Li9  1  0.72519470  0.96540392  0.05988226  1
