# generated using pymatgen
data_Li3Ti2P3Se2O
_symmetry_space_group_name_H-M   'P 1'
_cell_length_a   6.63651782
_cell_length_b   6.18429776
_cell_length_c   6.79027095
_cell_angle_alpha   93.84693201
_cell_angle_beta   94.97697440
_cell_angle_gamma   93.51133743
_symmetry_Int_Tables_number   1
_chemical_formula_structural   Li3Ti2P3Se2O
_chemical_formula_sum   'Li3 Ti2 P3 Se2 O1'
_cell_volume   276.38009363
_cell_formula_units_Z   1
loop_
 _symmetry_equiv_pos_site_id
 _symmetry_equiv_pos_as_xyz
  1  'x, y, z'
loop_
 _atom_site_type_symbol
 _atom_site_label
 _atom_site_symmetry_multiplicity
 _atom_site_fract_x
 _atom_site_fract_y
 _atom_site_fract_z
 _atom_site_occupancy
  P  P0  1  0.12500000  0.00000000  0.25000000  1
  P  P1  1  0.00000000  0.00000000  0.00000000  1
  P  P2  1  0.37500000  0.00000000  0.25000000  1
  Li  Li3  1  0.25000000  0.25000000  0.25000000  1
  Li  Li4  1  0.00000000  0.25000000  0.12500000  1
  Li  Li5  1  0.34815761  0.81081168  0.02624975  1
  Se  Se6  1  0.73162944  0.28618262  0.67223129  1
  Se  Se7  1  0.26078448  0.73613268  0.69657826  1
  Ti  Ti8  1  0.70031208  0.99874641  0.65999283  1
  Ti  Ti9  1  0.60457124  0.31362287  0.43522567  1
  O  O10  1  0.79408804  0.81923624  0.77647403  1
