# generated using pymatgen
data_Li4Ti2As6O7
_symmetry_space_group_name_H-M   'P 1'
_cell_length_a   5.66379248
_cell_length_b   5.34195155
_cell_length_c   7.78610219
_cell_angle_alpha   96.88771459
_cell_angle_beta   98.93291979
_cell_angle_gamma   96.23540787
_symmetry_Int_Tables_number   1
_chemical_formula_structural   Li4Ti2As6O7
_chemical_formula_sum   'Li4 Ti2 As6 O7'
_cell_volume   229.08466549
_cell_formula_units_Z   1
loop_
 _symmetry_equiv_pos_site_id
 _symmetry_equiv_pos_as_xyz
  1  'x, y, z'
loop_
 _atom_site_type_symbol
 _atom_site_label
 _atom_site_symmetry_multiplicity
 _atom_site_fract_x
 _atom_site_fract_y
 _atom_site_fract_z
 _atom_site_occupancy
  O  O0  1  0.00000000  0.00000000  0.00000000  1
  O  O1  1  0.33300000  0.66700000  0.25000000  1
  O  O2  1  0.66700000  0.33300000  0.50000000  1
  O  O3  1  0.00000000  0.00000000  0.75000000  1
  O  O4  1  0.80430022  0.72186814  0.08366306  1
  O  O5  1  0.31772030  0.16055388  0.67811115  1
  O  O6  1  0.79429301  0.36809908  0.27438097  1
  Ti  Ti7  1  0.71461711  0.80615497  0.47823831  1
  Ti  Ti8  1  0.42394631  0.89412885  0.25017607  1
  As  As9  1  0.08942143  0.93694889  0.69560031  1
  As  As10  1  0.67643426  0.59718889  0.27273958  1
  As  As11  1  0.64188602  0.20959665  0.24972212  1
  As  As12  1  0.72952926  0.90901243  0.01884843  1
  As  As13  1  0.31266567  0.94222025  0.42603463  1
  As  As14  1  0.91641370  0.61887737  0.53655167  1
  Li  Li15  1  0.53758509  0.67724824  0.24051390  1
  Li  Li16  1  0.22608268  0.98349930  0.67789452  1
  Li  Li17  1  0.65546507  0.02257475  0.90472541  1
  Li  Li18  1  0.86857845  0.96327570  0.22690413  1
