# generated using pymatgen
data_Li2Mn2Sb4P3
_symmetry_space_group_name_H-M   'P 1'
_cell_length_a   6.05437610
_cell_length_b   6.52814148
_cell_length_c   6.98098335
_cell_angle_alpha   95.84314824
_cell_angle_beta   92.20390522
_cell_angle_gamma   95.99320012
_symmetry_Int_Tables_number   1
_chemical_formula_structural   Li2Mn2Sb4P3
_chemical_formula_sum   'Li2 Mn2 Sb4 P3'
_cell_volume   272.64518203
_cell_formula_units_Z   1
loop_
 _symmetry_equiv_pos_site_id
 _symmetry_equiv_pos_as_xyz
  1  'x, y, z'
loop_
 _atom_site_type_symbol
 _atom_site_label
 _atom_site_symmetry_multiplicity
 _atom_site_fract_x
 _atom_site_fract_y
 _atom_site_fract_z
 _atom_site_occupancy
  Mn  Mn0  1  0.00000000  0.00000000  0.00000000  1
  Mn  Mn1  1  0.50000000  0.50000000  0.50000000  1
  Sb  Sb2  1  0.50000000  0.50000000  0.00000000  1
  Sb  Sb3  1  0.50000000  0.00000000  0.50000000  1
  Sb  Sb4  1  0.00000000  0.50000000  0.50000000  1
  Sb  Sb5  1  0.13937410  0.83375634  0.88308281  1
  P  P6  1  0.71778770  0.91327483  0.51329269  1
  P  P7  1  0.01054797  0.10966155  0.43258906  1
  P  P8  1  0.98610513  0.23816427  0.13363464  1
  Li  Li9  1  0.61570196  0.92059355  0.96607224  1
  Li  Li10  1  0.52026142  0.25351920  0.91591353  1
