# generated using pymatgen
data_Li5SeN5
_symmetry_space_group_name_H-M   'P 1'
_cell_length_a   5.14581190
_cell_length_b   4.42652561
_cell_length_c   7.12245758
_cell_angle_alpha   104.08423884
_cell_angle_beta   101.55723229
_cell_angle_gamma   104.77450835
_symmetry_Int_Tables_number   1
_chemical_formula_structural   Li5SeN5
_chemical_formula_sum   'Li5 Se1 N5'
_cell_volume   146.07927058
_cell_formula_units_Z   1
loop_
 _symmetry_equiv_pos_site_id
 _symmetry_equiv_pos_as_xyz
  1  'x, y, z'
loop_
 _atom_site_type_symbol
 _atom_site_label
 _atom_site_symmetry_multiplicity
 _atom_site_fract_x
 _atom_site_fract_y
 _atom_site_fract_z
 _atom_site_occupancy
  Li  Li0  1  0.12500000  0.00000000  0.25000000  1
  Li  Li1  1  0.00000000  0.00000000  0.00000000  1
  Li  Li2  1  0.37500000  0.00000000  0.25000000  1
  Li  Li3  1  0.25000000  0.25000000  0.25000000  1
  Li  Li4  1  0.00000000  0.25000000  0.12500000  1
  Se  Se5  1  0.36732781  0.85333330  0.56903277  1
  N  N6  1  0.19032601  0.70859132  0.97498710  1
  N  N7  1  0.40306923  0.19021135  0.53245840  1
  N  N8  1  0.53695210  0.50118591  0.96300503  1
  N  N9  1  0.60165455  0.44627172  0.20680255  1
  N  N10  1  0.04060675  0.38100871  0.65038299  1
