# generated using pymatgen
data_Sb4Se3(SCl)2
_symmetry_space_group_name_H-M   'P 1'
_cell_length_a   11.03511033
_cell_length_b   11.03511033
_cell_length_c   22.43552535
_cell_angle_alpha   90.00000000
_cell_angle_beta   90.00000000
_cell_angle_gamma   120.00000000
_symmetry_Int_Tables_number   1
_chemical_formula_structural   Sb4Se3(SCl)2
_chemical_formula_sum   'Sb48 Se36 S24 Cl24'
_cell_volume   2366.02993014
_cell_formula_units_Z   12
loop_
 _symmetry_equiv_pos_site_id
 _symmetry_equiv_pos_as_xyz
  1  'x, y, z'
loop_
 _atom_site_type_symbol
 _atom_site_label
 _atom_site_symmetry_multiplicity
 _atom_site_fract_x
 _atom_site_fract_y
 _atom_site_fract_z
 _atom_site_occupancy
  Cl  Cl0  1  0.16492023  0.44825476  0.33610223  1
  Cl  Cl1  1  0.55174524  0.71666547  0.33610223  1
  Cl  Cl2  1  0.28333453  0.83507977  0.33610223  1
  Cl  Cl3  1  0.83507977  0.55174524  0.83610223  1
  Cl  Cl4  1  0.44825476  0.28333453  0.83610223  1
  Cl  Cl5  1  0.71666547  0.16492023  0.83610223  1
  Cl  Cl6  1  0.44825476  0.16492023  0.66389777  1
  Cl  Cl7  1  0.71666547  0.55174524  0.66389777  1
  Cl  Cl8  1  0.83507977  0.28333453  0.66389777  1
  Cl  Cl9  1  0.55174524  0.83507977  0.16389777  1
  Cl  Cl10  1  0.28333453  0.44825476  0.16389777  1
  Cl  Cl11  1  0.16492023  0.71666547  0.16389777  1
  Cl  Cl12  1  0.83507977  0.55174524  0.66389777  1
  Cl  Cl13  1  0.44825476  0.28333453  0.66389777  1
  Cl  Cl14  1  0.71666547  0.16492023  0.66389777  1
  Cl  Cl15  1  0.16492023  0.44825476  0.16389777  1
  Cl  Cl16  1  0.55174524  0.71666547  0.16389777  1
  Cl  Cl17  1  0.28333453  0.83507977  0.16389777  1
  Cl  Cl18  1  0.55174524  0.83507977  0.33610223  1
  Cl  Cl19  1  0.28333453  0.44825476  0.33610223  1
  Cl  Cl20  1  0.16492023  0.71666547  0.33610223  1
  Cl  Cl21  1  0.44825476  0.16492023  0.83610223  1
  Cl  Cl22  1  0.71666547  0.55174524  0.83610223  1
  Cl  Cl23  1  0.83507977  0.28333453  0.83610223  1
  S  S24  1  0.98938008  0.81309711  0.93739355  1
  S  S25  1  0.18690289  0.17628297  0.93739355  1
  S  S26  1  0.82371703  0.01061992  0.93739355  1
  S  S27  1  0.01061992  0.18690289  0.43739355  1
  S  S28  1  0.81309711  0.82371703  0.43739355  1
  S  S29  1  0.17628297  0.98938008  0.43739355  1
  S  S30  1  0.81309711  0.98938008  0.06260645  1
  S  S31  1  0.17628297  0.18690289  0.06260645  1
  S  S32  1  0.01061992  0.82371703  0.06260645  1
  S  S33  1  0.18690289  0.01061992  0.56260645  1
  S  S34  1  0.82371703  0.81309711  0.56260645  1
  S  S35  1  0.98938008  0.17628297  0.56260645  1
  S  S36  1  0.01061992  0.18690289  0.06260645  1
  S  S37  1  0.81309711  0.82371703  0.06260645  1
  S  S38  1  0.17628297  0.98938008  0.06260645  1
  S  S39  1  0.98938008  0.81309711  0.56260645  1
  S  S40  1  0.18690289  0.17628297  0.56260645  1
  S  S41  1  0.82371703  0.01061992  0.56260645  1
  S  S42  1  0.18690289  0.01061992  0.93739355  1
  S  S43  1  0.82371703  0.81309711  0.93739355  1
  S  S44  1  0.98938008  0.17628297  0.93739355  1
  S  S45  1  0.81309711  0.98938008  0.43739355  1
  S  S46  1  0.17628297  0.18690289  0.43739355  1
  S  S47  1  0.01061992  0.82371703  0.43739355  1
  Sb  Sb48  1  0.33333333  0.66666667  0.15752995  1
  Sb  Sb49  1  0.66666667  0.33333333  0.65752995  1
  Sb  Sb50  1  0.66666667  0.33333333  0.84247005  1
  Sb  Sb51  1  0.33333333  0.66666667  0.34247005  1
  Sb  Sb52  1  0.77154773  0.95649884  0.15771019  1
  Sb  Sb53  1  -0.95649884  -0.18495110  0.15771019  1
  Sb  Sb54  1  0.18495110  -0.77154773  0.15771019  1
  Sb  Sb55  1  -0.77154773  -0.95649884  0.65771019  1
  Sb  Sb56  1  0.95649884  0.18495110  0.65771019  1
  Sb  Sb57  1  -0.18495110  0.77154773  0.65771019  1
  Sb  Sb58  1  0.95649884  0.77154773  -0.15771019  1
  Sb  Sb59  1  -0.18495110  -0.95649884  -0.15771019  1
  Sb  Sb60  1  -0.77154773  0.18495110  -0.15771019  1
  Sb  Sb61  1  -0.95649884  -0.77154773  0.34228981  1
  Sb  Sb62  1  0.18495110  0.95649884  0.34228981  1
  Sb  Sb63  1  0.77154773  -0.18495110  0.34228981  1
  Sb  Sb64  1  -0.77154773  -0.95649884  -0.15771019  1
  Sb  Sb65  1  0.95649884  0.18495110  -0.15771019  1
  Sb  Sb66  1  -0.18495110  0.77154773  -0.15771019  1
  Sb  Sb67  1  0.77154773  0.95649884  0.34228981  1
  Sb  Sb68  1  -0.95649884  -0.18495110  0.34228981  1
  Sb  Sb69  1  0.18495110  -0.77154773  0.34228981  1
  Sb  Sb70  1  -0.95649884  -0.77154773  0.15771019  1
  Sb  Sb71  1  0.18495110  0.95649884  0.15771019  1
  Sb  Sb72  1  0.77154773  -0.18495110  0.15771019  1
  Sb  Sb73  1  0.95649884  0.77154773  0.65771019  1
  Sb  Sb74  1  -0.18495110  -0.95649884  0.65771019  1
  Sb  Sb75  1  -0.77154773  0.18495110  0.65771019  1
  Sb  Sb76  1  0.78329830  0.00000000  -0.00000000  1
  Sb  Sb77  1  0.00000000  0.78329830  0.00000000  1
  Sb  Sb78  1  0.21670170  0.21670170  0.00000000  1
  Sb  Sb79  1  0.21670170  0.00000000  0.50000000  1
  Sb  Sb80  1  0.00000000  0.21670170  0.50000000  1
  Sb  Sb81  1  0.78329830  0.78329830  0.50000000  1
  Sb  Sb82  1  0.21670170  0.00000000  -0.00000000  1
  Sb  Sb83  1  0.00000000  0.21670170  0.00000000  1
  Sb  Sb84  1  0.78329830  0.78329830  -0.00000000  1
  Sb  Sb85  1  0.78329830  0.00000000  0.50000000  1
  Sb  Sb86  1  0.00000000  0.78329830  0.50000000  1
  Sb  Sb87  1  0.21670170  0.21670170  0.50000000  1
  Sb  Sb88  1  0.00000000  0.00000000  0.25000000  1
  Sb  Sb89  1  0.00000000  0.00000000  0.75000000  1
  Sb  Sb90  1  0.00000000  0.00000000  0.58124047  1
  Sb  Sb91  1  0.00000000  0.00000000  0.08124047  1
  Sb  Sb92  1  0.00000000  0.00000000  0.41875953  1
  Sb  Sb93  1  0.00000000  0.00000000  0.91875953  1
  Sb  Sb94  1  0.00000000  0.00000000  0.00000000  1
  Sb  Sb95  1  0.00000000  0.00000000  0.50000000  1
  Se  Se96  1  0.64090495  0.16526020  0.25000000  1
  Se  Se97  1  0.83473980  0.47564475  0.25000000  1
  Se  Se98  1  0.52435525  0.35909505  0.25000000  1
  Se  Se99  1  0.35909505  0.83473980  0.75000000  1
  Se  Se100  1  0.16526020  0.52435525  0.75000000  1
  Se  Se101  1  0.47564475  0.64090495  0.75000000  1
  Se  Se102  1  0.16526020  0.64090495  0.75000000  1
  Se  Se103  1  0.47564475  0.83473980  0.75000000  1
  Se  Se104  1  0.35909505  0.52435525  0.75000000  1
  Se  Se105  1  0.83473980  0.35909505  0.25000000  1
  Se  Se106  1  0.52435525  0.16526020  0.25000000  1
  Se  Se107  1  0.64090495  0.47564475  0.25000000  1
  Se  Se108  1  0.61238593  0.00000000  0.00000000  1
  Se  Se109  1  0.00000000  0.61238593  0.00000000  1
  Se  Se110  1  0.38761407  0.38761407  0.00000000  1
  Se  Se111  1  0.38761407  0.00000000  0.50000000  1
  Se  Se112  1  0.00000000  0.38761407  0.50000000  1
  Se  Se113  1  0.61238593  0.61238593  0.50000000  1
  Se  Se114  1  0.38761407  0.00000000  -0.00000000  1
  Se  Se115  1  0.00000000  0.38761407  0.00000000  1
  Se  Se116  1  0.61238593  0.61238593  0.00000000  1
  Se  Se117  1  0.61238593  0.00000000  0.50000000  1
  Se  Se118  1  0.00000000  0.61238593  0.50000000  1
  Se  Se119  1  0.38761407  0.38761407  0.50000000  1
  Se  Se120  1  0.17612511  0.35225022  0.82312595  1
  Se  Se121  1  0.64774978  0.82387489  0.82312595  1
  Se  Se122  1  0.17612511  0.82387489  0.82312595  1
  Se  Se123  1  0.82387489  0.64774978  0.32312595  1
  Se  Se124  1  0.35225022  0.17612511  0.32312595  1
  Se  Se125  1  0.82387489  0.17612511  0.32312595  1
  Se  Se126  1  0.35225022  0.17612511  0.17687405  1
  Se  Se127  1  0.82387489  0.64774978  0.17687405  1
  Se  Se128  1  0.82387489  0.17612511  0.17687405  1
  Se  Se129  1  0.64774978  0.82387489  0.67687405  1
  Se  Se130  1  0.17612511  0.35225022  0.67687405  1
  Se  Se131  1  0.17612511  0.82387489  0.67687405  1
