# generated using pymatgen
data_LiCl
_symmetry_space_group_name_H-M   'P 1'
_cell_length_a   16.84225620
_cell_length_b   16.84225620
_cell_length_c   3.48658625
_cell_angle_alpha   90.00000000
_cell_angle_beta   90.00000000
_cell_angle_gamma   90.00000000
_symmetry_Int_Tables_number   1
_chemical_formula_structural   LiCl
_chemical_formula_sum   'Li32 Cl32'
_cell_volume   989.01061390
_cell_formula_units_Z   32
loop_
 _symmetry_equiv_pos_site_id
 _symmetry_equiv_pos_as_xyz
  1  'x, y, z'
loop_
 _atom_site_type_symbol
 _atom_site_label
 _atom_site_symmetry_multiplicity
 _atom_site_fract_x
 _atom_site_fract_y
 _atom_site_fract_z
 _atom_site_occupancy
  Cl  Cl0  1  0.31551979  0.10432080  0.39952970  1
  Cl  Cl1  1  0.18448021  -0.10432080  0.89952970  1
  Cl  Cl2  1  0.14567920  1.06551979  0.64952970  1
  Cl  Cl3  1  0.35432080  -0.06551979  1.14952970  1
  Cl  Cl4  1  0.18448021  0.10432080  0.10047030  1
  Cl  Cl5  1  0.31551979  -0.10432080  -0.39952970  1
  Cl  Cl6  1  0.35432080  1.06551979  -0.14952970  1
  Cl  Cl7  1  0.14567920  -0.06551979  0.35047030  1
  Cl  Cl8  1  -0.31551979  -0.10432080  -0.39952970  1
  Cl  Cl9  1  0.81551979  0.10432080  0.10047030  1
  Cl  Cl10  1  0.85432080  -0.06551979  0.35047030  1
  Cl  Cl11  1  0.64567920  1.06551979  -0.14952970  1
  Cl  Cl12  1  0.81551979  -0.10432080  0.89952970  1
  Cl  Cl13  1  -0.31551979  0.10432080  0.39952970  1
  Cl  Cl14  1  0.64567920  -0.06551979  1.14952970  1
  Cl  Cl15  1  0.85432080  1.06551979  0.64952970  1
  Cl  Cl16  1  0.81551979  0.60432080  0.89952970  1
  Cl  Cl17  1  0.68448021  0.39567920  1.39952970  1
  Cl  Cl18  1  0.64567920  1.56551979  1.14952970  1
  Cl  Cl19  1  0.85432080  0.43448021  1.64952970  1
  Cl  Cl20  1  0.68448021  0.60432080  0.60047030  1
  Cl  Cl21  1  0.81551979  0.39567920  0.10047030  1
  Cl  Cl22  1  0.85432080  1.56551979  0.35047030  1
  Cl  Cl23  1  0.64567920  0.43448021  0.85047030  1
  Cl  Cl24  1  0.18448021  0.39567920  0.10047030  1
  Cl  Cl25  1  1.31551979  0.60432080  0.60047030  1
  Cl  Cl26  1  1.35432080  0.43448021  0.85047030  1
  Cl  Cl27  1  1.14567920  1.56551979  0.35047030  1
  Cl  Cl28  1  1.31551979  0.39567920  1.39952970  1
  Cl  Cl29  1  0.18448021  0.60432080  0.89952970  1
  Cl  Cl30  1  1.14567920  0.43448021  1.64952970  1
  Cl  Cl31  1  1.35432080  1.56551979  1.14952970  1
  Li  Li32  1  0.00000000  0.00000000  0.00000000  1
  Li  Li33  1  0.50000000  0.00000000  0.50000000  1
  Li  Li34  1  0.25000000  0.75000000  0.25000000  1
  Li  Li35  1  0.25000000  0.25000000  0.75000000  1
  Li  Li36  1  0.50000000  0.50000000  0.50000000  1
  Li  Li37  1  0.00000000  0.50000000  0.00000000  1
  Li  Li38  1  0.75000000  0.25000000  0.75000000  1
  Li  Li39  1  0.75000000  0.75000000  0.25000000  1
  Li  Li40  1  0.00000000  0.14329528  0.60025853  1
  Li  Li41  1  0.50000000  0.85670472  0.10025853  1
  Li  Li42  1  0.10670472  0.75000000  0.85025853  1
  Li  Li43  1  0.39329528  0.25000000  0.35025853  1
  Li  Li44  1  0.50000000  0.14329528  0.89974147  1
  Li  Li45  1  0.00000000  0.85670472  0.39974147  1
  Li  Li46  1  0.39329528  0.75000000  0.64974147  1
  Li  Li47  1  0.10670472  0.25000000  0.14974147  1
  Li  Li48  1  0.50000000  0.64329528  0.10025853  1
  Li  Li49  1  0.00000000  0.35670472  0.60025853  1
  Li  Li50  1  0.60670472  0.25000000  0.35025853  1
  Li  Li51  1  0.89329528  0.75000000  0.85025853  1
  Li  Li52  1  0.00000000  0.64329528  0.39974147  1
  Li  Li53  1  0.50000000  0.35670472  0.89974147  1
  Li  Li54  1  0.89329528  0.25000000  0.14974147  1
  Li  Li55  1  0.60670472  0.75000000  0.64974147  1
  Li  Li56  1  0.00000000  0.00000000  0.50000000  1
  Li  Li57  1  0.50000000  0.00000000  0.00000000  1
  Li  Li58  1  0.25000000  0.75000000  0.75000000  1
  Li  Li59  1  0.25000000  0.25000000  0.25000000  1
  Li  Li60  1  0.50000000  0.50000000  0.00000000  1
  Li  Li61  1  0.00000000  0.50000000  0.50000000  1
  Li  Li62  1  0.75000000  0.25000000  0.25000000  1
  Li  Li63  1  0.75000000  0.75000000  0.75000000  1
