# generated using pymatgen
data_Li2O
_symmetry_space_group_name_H-M   'P 1'
_cell_length_a   6.16771211
_cell_length_b   6.16542137
_cell_length_c   5.63780715
_cell_angle_alpha   90.00000000
_cell_angle_beta   90.00000000
_cell_angle_gamma   90.00000000
_symmetry_Int_Tables_number   1
_chemical_formula_structural   Li2O
_chemical_formula_sum   'Li16 O8'
_cell_volume   214.38632203
_cell_formula_units_Z   8
loop_
 _symmetry_equiv_pos_site_id
 _symmetry_equiv_pos_as_xyz
  1  'x, y, z'
loop_
 _atom_site_type_symbol
 _atom_site_label
 _atom_site_symmetry_multiplicity
 _atom_site_fract_x
 _atom_site_fract_y
 _atom_site_fract_z
 _atom_site_occupancy
  Li  Li0  1  0.62376905  0.77218797  0.00000000  1
  Li  Li1  1  0.37623095  0.22781203  0.00000000  1
  Li  Li2  1  0.87623095  0.27218797  0.00000000  1
  Li  Li3  1  0.12376905  0.72781203  0.00000000  1
  Li  Li4  1  0.40253765  0.43019720  0.63148426  1
  Li  Li5  1  -0.40253765  -0.43019720  0.63148426  1
  Li  Li6  1  0.09746235  0.93019720  -0.63148426  1
  Li  Li7  1  0.90253765  0.06980280  -0.63148426  1
  Li  Li8  1  -0.40253765  -0.43019720  -0.63148426  1
  Li  Li9  1  0.40253765  0.43019720  -0.63148426  1
  Li  Li10  1  0.90253765  0.06980280  0.63148426  1
  Li  Li11  1  0.09746235  0.93019720  0.63148426  1
  Li  Li12  1  0.00000000  0.50000000  0.63349992  1
  Li  Li13  1  0.50000000  0.00000000  0.36650008  1
  Li  Li14  1  0.00000000  0.50000000  0.36650008  1
  Li  Li15  1  0.50000000  0.00000000  0.63349992  1
  O  O16  1  0.10965558  0.81002186  0.50000000  1
  O  O17  1  0.89034442  0.18997814  0.50000000  1
  O  O18  1  0.39034442  0.31002186  0.50000000  1
  O  O19  1  0.60965558  0.68997814  0.50000000  1
  O  O20  1  0.82020288  0.67044293  0.50000000  1
  O  O21  1  0.17979712  0.32955707  0.50000000  1
  O  O22  1  0.67979712  0.17044293  0.50000000  1
  O  O23  1  0.32020288  0.82955707  0.50000000  1
