# generated using pymatgen
data_Li5Ti3Sb8(OF)2
_symmetry_space_group_name_H-M   'P 1'
_cell_length_a   3.98978034
_cell_length_b   4.77600984
_cell_length_c   3.76198754
_cell_angle_alpha   90.89006123
_cell_angle_beta   94.48359514
_cell_angle_gamma   86.75651891
_symmetry_Int_Tables_number   1
_chemical_formula_structural   Li5Ti3Sb8(OF)2
_chemical_formula_sum   'Li5 Ti3 Sb8 O2 F2'
_cell_volume   71.34723701
_cell_formula_units_Z   1
loop_
 _symmetry_equiv_pos_site_id
 _symmetry_equiv_pos_as_xyz
  1  'x, y, z'
loop_
 _atom_site_type_symbol
 _atom_site_label
 _atom_site_symmetry_multiplicity
 _atom_site_fract_x
 _atom_site_fract_y
 _atom_site_fract_z
 _atom_site_occupancy
  Li  Li0  1  0.00000000  0.00000000  0.00000000  1
  Li  Li1  1  0.50000000  0.50000000  0.50000000  1
  Li  Li2  1  0.50000000  0.50000000  0.00000000  1
  Li  Li3  1  0.50000000  0.00000000  0.50000000  1
  Li  Li4  1  0.00000000  0.50000000  0.50000000  1
  Ti  Ti5  1  0.65875730  0.73597114  0.25343831  1
  Ti  Ti6  1  0.07284997  0.01018059  0.52610514  1
  Ti  Ti7  1  0.24627410  0.09669480  0.55961328  1
  Sb  Sb8  1  0.72564215  0.40062085  0.43643807  1
  Sb  Sb9  1  0.78956591  0.10565258  0.73895188  1
  Sb  Sb10  1  0.90709535  0.14604522  0.04688225  1
  Sb  Sb11  1  0.98851813  0.36435732  0.33988220  1
  Sb  Sb12  1  0.58519837  0.21159067  0.02257823  1
  Sb  Sb13  1  0.86319316  0.31628515  0.93615974  1
  Sb  Sb14  1  0.22886177  0.69650880  0.39452973  1
  Sb  Sb15  1  0.19269734  0.72668337  0.26953024  1
  F  F16  1  0.79916117  0.74893443  0.64628407  1
  F  F17  1  0.13217213  0.00217712  0.92286649  1
  O  O18  1  0.24268992  0.45615869  0.78461858  1
  O  O19  1  0.48884198  0.52562492  0.78325492  1
