# generated using pymatgen
data_Na4MgSn(I2Cl3)2
_symmetry_space_group_name_H-M   'P 1'
_cell_length_a   10.82341165
_cell_length_b   10.82341165
_cell_length_c   24.60013889
_cell_angle_alpha   90.00000000
_cell_angle_beta   90.00000000
_cell_angle_gamma   90.00000000
_symmetry_Int_Tables_number   1
_chemical_formula_structural   Na4MgSn(I2Cl3)2
_chemical_formula_sum   'Na32 Mg8 Sn8 I32 Cl48'
_cell_volume   2881.81376685
_cell_formula_units_Z   8
loop_
 _symmetry_equiv_pos_site_id
 _symmetry_equiv_pos_as_xyz
  1  'x, y, z'
loop_
 _atom_site_type_symbol
 _atom_site_label
 _atom_site_symmetry_multiplicity
 _atom_site_fract_x
 _atom_site_fract_y
 _atom_site_fract_z
 _atom_site_occupancy
  Cl  Cl0  1  0.00000000  0.95830846  0.40227193  1
  Cl  Cl1  1  0.50000000  0.04169154  0.90227193  1
  Cl  Cl2  1  0.29169154  0.75000000  0.65227193  1
  Cl  Cl3  1  0.20830846  0.25000000  0.15227193  1
  Cl  Cl4  1  0.50000000  0.95830846  0.09772807  1
  Cl  Cl5  1  0.00000000  0.04169154  0.59772807  1
  Cl  Cl6  1  0.20830846  0.75000000  0.84772807  1
  Cl  Cl7  1  0.29169154  0.25000000  0.34772807  1
  Cl  Cl8  1  0.50000000  0.45830846  0.90227193  1
  Cl  Cl9  1  0.00000000  0.54169154  0.40227193  1
  Cl  Cl10  1  0.79169154  0.25000000  0.15227193  1
  Cl  Cl11  1  0.70830846  0.75000000  0.65227193  1
  Cl  Cl12  1  0.00000000  0.45830846  0.59772807  1
  Cl  Cl13  1  0.50000000  0.54169154  0.09772807  1
  Cl  Cl14  1  0.70830846  0.25000000  0.34772807  1
  Cl  Cl15  1  0.79169154  0.75000000  0.84772807  1
  Cl  Cl16  1  0.00000000  0.98222032  0.63721067  1
  Cl  Cl17  1  0.50000000  0.01777968  0.13721067  1
  Cl  Cl18  1  0.26777968  0.75000000  0.88721067  1
  Cl  Cl19  1  0.23222032  0.25000000  0.38721067  1
  Cl  Cl20  1  0.50000000  0.98222032  0.86278933  1
  Cl  Cl21  1  0.00000000  0.01777968  0.36278933  1
  Cl  Cl22  1  0.23222032  0.75000000  0.61278933  1
  Cl  Cl23  1  0.26777968  0.25000000  0.11278933  1
  Cl  Cl24  1  0.50000000  0.48222032  0.13721067  1
  Cl  Cl25  1  0.00000000  0.51777968  0.63721067  1
  Cl  Cl26  1  0.76777968  0.25000000  0.38721067  1
  Cl  Cl27  1  0.73222032  0.75000000  0.88721067  1
  Cl  Cl28  1  0.00000000  0.48222032  0.36278933  1
  Cl  Cl29  1  0.50000000  0.51777968  0.86278933  1
  Cl  Cl30  1  0.73222032  0.25000000  0.11278933  1
  Cl  Cl31  1  0.76777968  0.75000000  0.61278933  1
  Cl  Cl32  1  0.00000000  0.13286690  0.62296588  1
  Cl  Cl33  1  0.50000000  0.86713310  0.12296588  1
  Cl  Cl34  1  0.11713310  0.75000000  0.87296588  1
  Cl  Cl35  1  0.38286690  0.25000000  0.37296588  1
  Cl  Cl36  1  0.50000000  0.13286690  0.87703412  1
  Cl  Cl37  1  0.00000000  0.86713310  0.37703412  1
  Cl  Cl38  1  0.38286690  0.75000000  0.62703412  1
  Cl  Cl39  1  0.11713310  0.25000000  0.12703412  1
  Cl  Cl40  1  0.50000000  0.63286690  0.12296588  1
  Cl  Cl41  1  0.00000000  0.36713310  0.62296588  1
  Cl  Cl42  1  0.61713310  0.25000000  0.37296588  1
  Cl  Cl43  1  0.88286690  0.75000000  0.87296588  1
  Cl  Cl44  1  0.00000000  0.63286690  0.37703412  1
  Cl  Cl45  1  0.50000000  0.36713310  0.87703412  1
  Cl  Cl46  1  0.88286690  0.25000000  0.12703412  1
  Cl  Cl47  1  0.61713310  0.75000000  0.62703412  1
  I  I48  1  0.00000000  0.90489536  0.31940101  1
  I  I49  1  0.50000000  0.09510464  0.81940101  1
  I  I50  1  0.34510464  0.75000000  0.56940101  1
  I  I51  1  0.15489536  0.25000000  0.06940101  1
  I  I52  1  0.50000000  0.90489536  0.18059899  1
  I  I53  1  0.00000000  0.09510464  0.68059899  1
  I  I54  1  0.15489536  0.75000000  0.93059899  1
  I  I55  1  0.34510464  0.25000000  0.43059899  1
  I  I56  1  0.50000000  0.40489536  0.81940101  1
  I  I57  1  0.00000000  0.59510464  0.31940101  1
  I  I58  1  0.84510464  0.25000000  0.06940101  1
  I  I59  1  0.65489536  0.75000000  0.56940101  1
  I  I60  1  0.00000000  0.40489536  0.68059899  1
  I  I61  1  0.50000000  0.59510464  0.18059899  1
  I  I62  1  0.65489536  0.25000000  0.43059899  1
  I  I63  1  0.84510464  0.75000000  0.93059899  1
  I  I64  1  0.00000000  0.25000000  0.17130625  1
  I  I65  1  0.00000000  0.75000000  0.42130625  1
  I  I66  1  0.50000000  0.25000000  0.32869375  1
  I  I67  1  0.50000000  0.75000000  0.07869375  1
  I  I68  1  0.50000000  0.75000000  0.67130625  1
  I  I69  1  0.50000000  0.25000000  0.92130625  1
  I  I70  1  0.00000000  0.75000000  0.82869375  1
  I  I71  1  0.00000000  0.25000000  0.57869375  1
  I  I72  1  0.00000000  0.25000000  0.47705502  1
  I  I73  1  0.00000000  0.75000000  0.72705502  1
  I  I74  1  0.50000000  0.25000000  0.02294498  1
  I  I75  1  0.50000000  0.75000000  0.77294498  1
  I  I76  1  0.50000000  0.75000000  0.97705502  1
  I  I77  1  0.50000000  0.25000000  0.22705502  1
  I  I78  1  0.00000000  0.75000000  0.52294498  1
  I  I79  1  0.00000000  0.25000000  0.27294498  1
  Mg  Mg80  1  0.00000000  0.75000000  0.12500000  1
  Mg  Mg81  1  0.50000000  0.75000000  0.37500000  1
  Mg  Mg82  1  0.50000000  0.25000000  0.62500000  1
  Mg  Mg83  1  0.00000000  0.25000000  0.87500000  1
  Mg  Mg84  1  0.00000000  0.25000000  0.37500000  1
  Mg  Mg85  1  0.00000000  0.75000000  0.62500000  1
  Mg  Mg86  1  0.50000000  0.75000000  0.87500000  1
  Mg  Mg87  1  0.50000000  0.25000000  0.12500000  1
  Na  Na88  1  0.00000000  0.00000000  0.50000000  1
  Na  Na89  1  0.50000000  0.00000000  0.00000000  1
  Na  Na90  1  0.25000000  0.75000000  0.75000000  1
  Na  Na91  1  0.25000000  0.25000000  0.25000000  1
  Na  Na92  1  0.50000000  0.50000000  0.00000000  1
  Na  Na93  1  0.00000000  0.50000000  0.50000000  1
  Na  Na94  1  0.75000000  0.25000000  0.25000000  1
  Na  Na95  1  0.75000000  0.75000000  0.75000000  1
  Na  Na96  1  0.66406888  0.00000000  0.00000000  1
  Na  Na97  1  -0.16406888  0.00000000  0.50000000  1
  Na  Na98  1  0.25000000  1.41406888  0.25000000  1
  Na  Na99  1  0.25000000  -0.41406888  0.75000000  1
  Na  Na100  1  -0.66406888  0.00000000  -0.00000000  1
  Na  Na101  1  1.16406888  -0.00000000  0.50000000  1
  Na  Na102  1  0.75000000  -0.41406888  0.75000000  1
  Na  Na103  1  0.75000000  1.41406888  0.25000000  1
  Na  Na104  1  1.16406888  0.50000000  0.50000000  1
  Na  Na105  1  0.33593112  0.50000000  1.00000000  1
  Na  Na106  1  0.75000000  1.91406888  0.75000000  1
  Na  Na107  1  0.75000000  0.08593112  1.25000000  1
  Na  Na108  1  -0.16406888  0.50000000  0.50000000  1
  Na  Na109  1  1.66406888  0.50000000  1.00000000  1
  Na  Na110  1  1.25000000  0.08593112  1.25000000  1
  Na  Na111  1  1.25000000  1.91406888  0.75000000  1
  Na  Na112  1  0.00000000  0.00000000  0.00000000  1
  Na  Na113  1  0.50000000  0.00000000  0.50000000  1
  Na  Na114  1  0.25000000  0.75000000  0.25000000  1
  Na  Na115  1  0.25000000  0.25000000  0.75000000  1
  Na  Na116  1  0.50000000  0.50000000  0.50000000  1
  Na  Na117  1  0.00000000  0.50000000  0.00000000  1
  Na  Na118  1  0.75000000  0.25000000  0.75000000  1
  Na  Na119  1  0.75000000  0.75000000  0.25000000  1
  Sn  Sn120  1  0.00000000  0.25000000  0.79986876  1
  Sn  Sn121  1  0.00000000  0.75000000  0.04986876  1
  Sn  Sn122  1  0.50000000  0.25000000  0.70013124  1
  Sn  Sn123  1  0.50000000  0.75000000  0.45013124  1
  Sn  Sn124  1  0.50000000  0.75000000  0.29986876  1
  Sn  Sn125  1  0.50000000  0.25000000  0.54986876  1
  Sn  Sn126  1  0.00000000  0.75000000  0.20013124  1
  Sn  Sn127  1  0.00000000  0.25000000  0.95013124  1
