# generated using pymatgen
data_LiBSb6Te2O9
_symmetry_space_group_name_H-M   'P 1'
_cell_length_a   8.35275866
_cell_length_b   8.35275866
_cell_length_c   14.31703664
_cell_angle_alpha   90.00000000
_cell_angle_beta   90.00000000
_cell_angle_gamma   120.00000000
_symmetry_Int_Tables_number   1
_chemical_formula_structural   LiBSb6Te2O9
_chemical_formula_sum   'Li3 B3 Sb18 Te6 O27'
_cell_volume   865.05482915
_cell_formula_units_Z   3
loop_
 _symmetry_equiv_pos_site_id
 _symmetry_equiv_pos_as_xyz
  1  'x, y, z'
loop_
 _atom_site_type_symbol
 _atom_site_label
 _atom_site_symmetry_multiplicity
 _atom_site_fract_x
 _atom_site_fract_y
 _atom_site_fract_z
 _atom_site_occupancy
  B  B0  1  0.00000000  0.00000000  0.00000000  1
  B  B1  1  0.66666667  0.33333333  0.33333333  1
  B  B2  1  0.33333333  0.66666667  0.66666667  1
  Li  Li3  1  0.00000000  0.00000000  0.50000000  1
  Li  Li4  1  0.66666667  0.33333333  0.83333333  1
  Li  Li5  1  0.33333333  0.66666667  0.16666667  1
  O  O6  1  0.61930380  -0.61930380  0.19115976  1
  O  O7  1  0.61930380  1.23860760  0.19115976  1
  O  O8  1  -1.23860760  -0.61930380  0.19115976  1
  O  O9  1  -0.61930380  0.61930380  -0.19115976  1
  O  O10  1  1.23860760  0.61930380  -0.19115976  1
  O  O11  1  -0.61930380  -1.23860760  -0.19115976  1
  O  O12  1  1.28597047  -0.28597047  0.52449310  1
  O  O13  1  1.28597047  1.57194093  0.52449310  1
  O  O14  1  -0.57194093  -0.28597047  0.52449310  1
  O  O15  1  0.04736287  0.95263713  0.14217357  1
  O  O16  1  1.90527427  0.95263713  0.14217357  1
  O  O17  1  0.04736287  -0.90527427  0.14217357  1
  O  O18  1  0.95263713  0.04736287  0.85782643  1
  O  O19  1  0.95263713  1.90527427  0.85782643  1
  O  O20  1  -0.90527427  0.04736287  0.85782643  1
  O  O21  1  -0.28597047  1.28597047  0.47550690  1
  O  O22  1  1.57194093  1.28597047  0.47550690  1
  O  O23  1  -0.28597047  -0.57194093  0.47550690  1
  O  O24  1  0.50000000  0.00000000  0.50000000  1
  O  O25  1  0.00000000  0.50000000  0.50000000  1
  O  O26  1  0.50000000  0.50000000  0.50000000  1
  O  O27  1  0.16666667  0.33333333  0.83333333  1
  O  O28  1  0.66666667  0.83333333  0.83333333  1
  O  O29  1  0.16666667  0.83333333  0.83333333  1
  O  O30  1  0.83333333  0.66666667  0.16666667  1
  O  O31  1  0.33333333  0.16666667  0.16666667  1
  O  O32  1  0.83333333  0.16666667  0.16666667  1
  Sb  Sb33  1  0.17296073  0.00000000  0.00000000  1
  Sb  Sb34  1  0.00000000  0.17296073  0.00000000  1
  Sb  Sb35  1  0.82703927  0.82703927  0.00000000  1
  Sb  Sb36  1  0.82703927  0.00000000  0.00000000  1
  Sb  Sb37  1  0.00000000  0.82703927  -0.00000000  1
  Sb  Sb38  1  0.17296073  0.17296073  0.00000000  1
  Sb  Sb39  1  0.83962740  0.33333333  0.33333333  1
  Sb  Sb40  1  0.66666667  0.50629407  0.33333333  1
  Sb  Sb41  1  0.49370593  0.16037260  0.33333333  1
  Sb  Sb42  1  0.49370593  0.33333333  0.33333333  1
  Sb  Sb43  1  0.66666667  0.16037260  0.33333333  1
  Sb  Sb44  1  0.83962740  0.50629407  0.33333333  1
  Sb  Sb45  1  0.50629407  0.66666667  0.66666667  1
  Sb  Sb46  1  0.33333333  0.83962740  0.66666667  1
  Sb  Sb47  1  0.16037260  0.49370593  0.66666667  1
  Sb  Sb48  1  0.16037260  0.66666667  0.66666667  1
  Sb  Sb49  1  0.33333333  0.49370593  0.66666667  1
  Sb  Sb50  1  0.50629407  0.83962740  0.66666667  1
  Te  Te51  1  0.00000000  0.00000000  0.32422409  1
  Te  Te52  1  0.00000000  0.00000000  0.67577591  1
  Te  Te53  1  0.66666667  0.33333333  0.65755742  1
  Te  Te54  1  0.66666667  0.33333333  0.00910925  1
  Te  Te55  1  0.33333333  0.66666667  0.99089075  1
  Te  Te56  1  0.33333333  0.66666667  0.34244258  1
