# generated using pymatgen
data_Li2TiAl8(SbBr18)2
_symmetry_space_group_name_H-M   'P 1'
_cell_length_a   12.01653028
_cell_length_b   12.01653028
_cell_length_c   7.45004517
_cell_angle_alpha   90.00000000
_cell_angle_beta   90.00000000
_cell_angle_gamma   120.00000000
_symmetry_Int_Tables_number   1
_chemical_formula_structural   Li2TiAl8(SbBr18)2
_chemical_formula_sum   'Li2 Ti1 Al8 Sb2 Br36'
_cell_volume   931.63910097
_cell_formula_units_Z   1
loop_
 _symmetry_equiv_pos_site_id
 _symmetry_equiv_pos_as_xyz
  1  'x, y, z'
loop_
 _atom_site_type_symbol
 _atom_site_label
 _atom_site_symmetry_multiplicity
 _atom_site_fract_x
 _atom_site_fract_y
 _atom_site_fract_z
 _atom_site_occupancy
  Al  Al0  1  0.62230028  0.12652977  0.50000000  1
  Al  Al1  1  0.87347023  0.49577051  0.50000000  1
  Al  Al2  1  0.50422949  0.37769972  0.50000000  1
  Al  Al3  1  0.12652977  0.62230028  0.50000000  1
  Al  Al4  1  0.49577051  0.87347023  0.50000000  1
  Al  Al5  1  0.37769972  0.50422949  0.50000000  1
  Al  Al6  1  0.33333333  0.66666667  0.00000000  1
  Al  Al7  1  0.66666667  0.33333333  -0.00000000  1
  Br  Br8  1  0.44253040  0.00000000  0.63264696  1
  Br  Br9  1  0.00000000  0.44253040  0.63264696  1
  Br  Br10  1  0.55746960  0.55746960  0.63264696  1
  Br  Br11  1  0.44253040  0.00000000  0.36735304  1
  Br  Br12  1  0.00000000  0.44253040  0.36735304  1
  Br  Br13  1  0.55746960  0.55746960  0.36735304  1
  Br  Br14  1  0.50890629  0.63142358  0.87889318  1
  Br  Br15  1  -0.63142358  -0.12251729  0.87889318  1
  Br  Br16  1  0.12251729  -0.50890629  0.87889318  1
  Br  Br17  1  0.50890629  0.63142358  -0.87889318  1
  Br  Br18  1  -0.63142358  -0.12251729  -0.87889318  1
  Br  Br19  1  0.12251729  -0.50890629  -0.87889318  1
  Br  Br20  1  0.63142358  0.50890629  -0.87889318  1
  Br  Br21  1  -0.12251729  -0.63142358  -0.87889318  1
  Br  Br22  1  -0.50890629  0.12251729  -0.87889318  1
  Br  Br23  1  0.63142358  0.50890629  0.87889318  1
  Br  Br24  1  -0.12251729  -0.63142358  0.87889318  1
  Br  Br25  1  -0.50890629  0.12251729  0.87889318  1
  Br  Br26  1  0.25114669  0.00000000  0.50000000  1
  Br  Br27  1  0.00000000  0.25114669  0.50000000  1
  Br  Br28  1  0.74885331  0.74885331  0.50000000  1
  Br  Br29  1  0.76434989  0.24820132  0.50000000  1
  Br  Br30  1  0.75179868  0.51614857  0.50000000  1
  Br  Br31  1  0.48385143  0.23565011  0.50000000  1
  Br  Br32  1  0.24820132  0.76434989  0.50000000  1
  Br  Br33  1  0.51614857  0.75179868  0.50000000  1
  Br  Br34  1  0.23565011  0.48385143  0.50000000  1
  Br  Br35  1  0.84877569  0.00000000  0.36575402  1
  Br  Br36  1  0.00000000  0.84877569  0.36575402  1
  Br  Br37  1  0.15122431  0.15122431  0.36575402  1
  Br  Br38  1  0.84877569  0.00000000  0.63424598  1
  Br  Br39  1  0.00000000  0.84877569  0.63424598  1
  Br  Br40  1  0.15122431  0.15122431  0.63424598  1
  Br  Br41  1  0.66157000  0.00000000  0.00000000  1
  Br  Br42  1  0.00000000  0.66157000  0.00000000  1
  Br  Br43  1  0.33843000  0.33843000  -0.00000000  1
  Li  Li44  1  0.33333333  0.66666667  0.50000000  1
  Li  Li45  1  0.66666667  0.33333333  0.50000000  1
  Sb  Sb46  1  0.00000000  0.00000000  0.80522124  1
  Sb  Sb47  1  0.00000000  0.00000000  0.19477876  1
  Ti  Ti48  1  0.00000000  0.00000000  0.50000000  1
