# generated using pymatgen
data_Li2Sc2Te3IO3
_symmetry_space_group_name_H-M   'P 1'
_cell_length_a   4.12424794
_cell_length_b   3.68152957
_cell_length_c   3.72176942
_cell_angle_alpha   91.99591950
_cell_angle_beta   86.29160176
_cell_angle_gamma   94.34266617
_symmetry_Int_Tables_number   1
_chemical_formula_structural   Li2Sc2Te3IO3
_chemical_formula_sum   'Li2 Sc2 Te3 I1 O3'
_cell_volume   56.20397283
_cell_formula_units_Z   1
loop_
 _symmetry_equiv_pos_site_id
 _symmetry_equiv_pos_as_xyz
  1  'x, y, z'
loop_
 _atom_site_type_symbol
 _atom_site_label
 _atom_site_symmetry_multiplicity
 _atom_site_fract_x
 _atom_site_fract_y
 _atom_site_fract_z
 _atom_site_occupancy
  Li  Li0  1  0.00000000  0.00000000  0.00000000  1
  Li  Li1  1  0.50000000  0.50000000  0.50000000  1
  Sc  Sc2  1  0.50000000  0.50000000  0.00000000  1
  Sc  Sc3  1  0.50000000  0.00000000  0.50000000  1
  Te  Te4  1  0.00000000  0.50000000  0.50000000  1
  Te  Te5  1  0.27803860  0.43446549  0.42599314  1
  Te  Te6  1  0.01831131  0.67509984  0.20206131  1
  O  O7  1  0.84641509  0.85759592  0.04463230  1
  O  O8  1  0.15867673  0.35413861  0.65784319  1
  O  O9  1  0.48621923  0.79265722  0.88115799  1
  I  I10  1  0.16831006  0.99751082  0.27365264  1
