# generated using pymatgen
data_Li8AlSn2S8Cl3
_symmetry_space_group_name_H-M   'P 1'
_cell_length_a   10.44570295
_cell_length_b   10.44570295
_cell_length_c   14.63558542
_cell_angle_alpha   90.00000000
_cell_angle_beta   90.00000000
_cell_angle_gamma   90.00000000
_symmetry_Int_Tables_number   1
_chemical_formula_structural   Li8AlSn2S8Cl3
_chemical_formula_sum   'Li32 Al4 Sn8 S32 Cl12'
_cell_volume   1596.92839011
_cell_formula_units_Z   4
loop_
 _symmetry_equiv_pos_site_id
 _symmetry_equiv_pos_as_xyz
  1  'x, y, z'
loop_
 _atom_site_type_symbol
 _atom_site_label
 _atom_site_symmetry_multiplicity
 _atom_site_fract_x
 _atom_site_fract_y
 _atom_site_fract_z
 _atom_site_occupancy
  Al  Al0  1  0.00000000  0.00000000  0.00000000  1
  Al  Al1  1  0.00000000  0.00000000  0.54258021  1
  Al  Al2  1  0.00000000  0.00000000  0.45741979  1
  Al  Al3  1  0.50000000  0.50000000  0.50000000  1
  Cl  Cl4  1  0.57017089  0.57017089  0.00000000  1
  Cl  Cl5  1  0.42982911  0.42982911  0.00000000  1
  Cl  Cl6  1  0.42982911  0.57017089  0.00000000  1
  Cl  Cl7  1  0.57017089  0.42982911  0.00000000  1
  Cl  Cl8  1  0.62034183  0.62034183  0.50000000  1
  Cl  Cl9  1  0.37965817  0.37965817  0.50000000  1
  Cl  Cl10  1  0.37965817  0.62034183  0.50000000  1
  Cl  Cl11  1  0.62034183  0.37965817  0.50000000  1
  Cl  Cl12  1  0.18996053  0.18996053  0.50000000  1
  Cl  Cl13  1  0.81003947  0.81003947  0.50000000  1
  Cl  Cl14  1  0.81003947  0.18996053  0.50000000  1
  Cl  Cl15  1  0.18996053  0.81003947  0.50000000  1
  Li  Li16  1  0.89660933  0.50000000  0.10879174  1
  Li  Li17  1  0.10339067  0.50000000  0.10879174  1
  Li  Li18  1  0.50000000  0.89660933  0.10879174  1
  Li  Li19  1  0.50000000  0.10339067  0.10879174  1
  Li  Li20  1  0.10339067  0.50000000  0.89120826  1
  Li  Li21  1  0.89660933  0.50000000  0.89120826  1
  Li  Li22  1  0.50000000  0.89660933  0.89120826  1
  Li  Li23  1  0.50000000  0.10339067  0.89120826  1
  Li  Li24  1  0.91684333  0.91684333  0.50000000  1
  Li  Li25  1  0.08315667  0.08315667  0.50000000  1
  Li  Li26  1  0.08315667  0.91684333  0.50000000  1
  Li  Li27  1  0.91684333  0.08315667  0.50000000  1
  Li  Li28  1  0.32691150  0.32691150  0.14584401  1
  Li  Li29  1  0.67308850  0.67308850  0.14584401  1
  Li  Li30  1  0.67308850  0.32691150  0.14584401  1
  Li  Li31  1  0.32691150  0.67308850  0.14584401  1
  Li  Li32  1  0.67308850  0.32691150  0.85415599  1
  Li  Li33  1  0.32691150  0.67308850  0.85415599  1
  Li  Li34  1  0.32691150  0.32691150  0.85415599  1
  Li  Li35  1  0.67308850  0.67308850  0.85415599  1
  Li  Li36  1  0.65945573  0.07206167  -0.00000000  1
  Li  Li37  1  0.34054427  0.92793833  0.00000000  1
  Li  Li38  1  0.92793833  0.65945573  0.00000000  1
  Li  Li39  1  0.07206167  0.34054427  0.00000000  1
  Li  Li40  1  0.34054427  0.07206167  0.00000000  1
  Li  Li41  1  0.65945573  0.92793833  0.00000000  1
  Li  Li42  1  0.07206167  0.65945573  0.00000000  1
  Li  Li43  1  0.92793833  0.34054427  0.00000000  1
  Li  Li44  1  0.82720147  0.82720147  0.00000000  1
  Li  Li45  1  0.17279853  0.17279853  0.00000000  1
  Li  Li46  1  0.17279853  0.82720147  0.00000000  1
  Li  Li47  1  0.82720147  0.17279853  0.00000000  1
  S  S48  1  0.29914621  0.93986915  0.75523484  1
  S  S49  1  -0.29914621  -0.93986915  0.75523484  1
  S  S50  1  -0.93986915  0.29914621  0.75523484  1
  S  S51  1  0.93986915  -0.29914621  0.75523484  1
  S  S52  1  -0.29914621  0.93986915  -0.75523484  1
  S  S53  1  0.29914621  -0.93986915  -0.75523484  1
  S  S54  1  0.93986915  0.29914621  -0.75523484  1
  S  S55  1  -0.93986915  -0.29914621  -0.75523484  1
  S  S56  1  -0.29914621  -0.93986915  -0.75523484  1
  S  S57  1  0.29914621  0.93986915  -0.75523484  1
  S  S58  1  0.93986915  -0.29914621  -0.75523484  1
  S  S59  1  -0.93986915  0.29914621  -0.75523484  1
  S  S60  1  0.29914621  -0.93986915  0.75523484  1
  S  S61  1  -0.29914621  0.93986915  0.75523484  1
  S  S62  1  -0.93986915  -0.29914621  0.75523484  1
  S  S63  1  0.93986915  0.29914621  0.75523484  1
  S  S64  1  0.42207063  0.16968314  0.76214668  1
  S  S65  1  0.57792937  0.83031686  0.76214668  1
  S  S66  1  0.83031686  0.42207063  0.76214668  1
  S  S67  1  0.16968314  0.57792937  0.76214668  1
  S  S68  1  0.57792937  0.16968314  0.23785332  1
  S  S69  1  0.42207063  0.83031686  0.23785332  1
  S  S70  1  0.16968314  0.42207063  0.23785332  1
  S  S71  1  0.83031686  0.57792937  0.23785332  1
  S  S72  1  0.57792937  0.83031686  0.23785332  1
  S  S73  1  0.42207063  0.16968314  0.23785332  1
  S  S74  1  0.16968314  0.57792937  0.23785332  1
  S  S75  1  0.83031686  0.42207063  0.23785332  1
  S  S76  1  0.42207063  0.83031686  0.76214668  1
  S  S77  1  0.57792937  0.16968314  0.76214668  1
  S  S78  1  0.83031686  0.57792937  0.76214668  1
  S  S79  1  0.16968314  0.42207063  0.76214668  1
  Sn  Sn80  1  0.80331682  0.00000000  0.00000000  1
  Sn  Sn81  1  0.19668318  0.00000000  0.00000000  1
  Sn  Sn82  1  0.00000000  0.80331682  0.00000000  1
  Sn  Sn83  1  0.00000000  0.19668318  0.00000000  1
  Sn  Sn84  1  0.00000000  0.00000000  0.64625775  1
  Sn  Sn85  1  0.00000000  0.00000000  0.35374225  1
  Sn  Sn86  1  0.00000000  0.50000000  0.00000000  1
  Sn  Sn87  1  0.50000000  0.00000000  0.00000000  1
