# generated using pymatgen
data_LiBr
_symmetry_space_group_name_H-M   'P 1'
_cell_length_a   3.78202051
_cell_length_b   3.78202051
_cell_length_c   36.38486528
_cell_angle_alpha   90.00000000
_cell_angle_beta   90.00000000
_cell_angle_gamma   120.00000000
_symmetry_Int_Tables_number   1
_chemical_formula_structural   LiBr
_chemical_formula_sum   'Li12 Br12'
_cell_volume   450.71204265
_cell_formula_units_Z   12
loop_
 _symmetry_equiv_pos_site_id
 _symmetry_equiv_pos_as_xyz
  1  'x, y, z'
loop_
 _atom_site_type_symbol
 _atom_site_label
 _atom_site_symmetry_multiplicity
 _atom_site_fract_x
 _atom_site_fract_y
 _atom_site_fract_z
 _atom_site_occupancy
  Br  Br0  1  0.33333333  0.66666667  0.25000000  1
  Br  Br1  1  0.66666667  0.33333333  0.75000000  1
  Br  Br2  1  0.00000000  0.00000000  0.00000000  1
  Br  Br3  1  0.00000000  0.00000000  0.50000000  1
  Br  Br4  1  0.00000000  0.00000000  0.25000000  1
  Br  Br5  1  0.00000000  0.00000000  0.75000000  1
  Br  Br6  1  0.50000000  0.00000000  0.00000000  1
  Br  Br7  1  0.00000000  0.50000000  0.00000000  1
  Br  Br8  1  0.50000000  0.50000000  0.00000000  1
  Br  Br9  1  0.50000000  0.00000000  0.50000000  1
  Br  Br10  1  0.00000000  0.50000000  0.50000000  1
  Br  Br11  1  0.50000000  0.50000000  0.50000000  1
  Li  Li12  1  0.81151184  1.62302368  0.05602640  1
  Li  Li13  1  -1.62302368  -0.81151184  0.05602640  1
  Li  Li14  1  0.81151184  -0.81151184  0.05602640  1
  Li  Li15  1  -0.81151184  -1.62302368  0.55602640  1
  Li  Li16  1  1.62302368  0.81151184  0.55602640  1
  Li  Li17  1  -0.81151184  0.81151184  0.55602640  1
  Li  Li18  1  1.62302368  0.81151184  -0.05602640  1
  Li  Li19  1  -0.81151184  -1.62302368  -0.05602640  1
  Li  Li20  1  -0.81151184  0.81151184  -0.05602640  1
  Li  Li21  1  -1.62302368  -0.81151184  0.44397360  1
  Li  Li22  1  0.81151184  1.62302368  0.44397360  1
  Li  Li23  1  0.81151184  -0.81151184  0.44397360  1
