# generated using pymatgen
data_Na3Li9(Te2S)2
_symmetry_space_group_name_H-M   'P 1'
_cell_length_a   15.27227280
_cell_length_b   15.27227280
_cell_length_c   15.27227280
_cell_angle_alpha   90.00000000
_cell_angle_beta   90.00000000
_cell_angle_gamma   90.00000000
_symmetry_Int_Tables_number   1
_chemical_formula_structural   Na3Li9(Te2S)2
_chemical_formula_sum   'Na24 Li72 Te32 S16'
_cell_volume   3562.14028689
_cell_formula_units_Z   8
loop_
 _symmetry_equiv_pos_site_id
 _symmetry_equiv_pos_as_xyz
  1  'x, y, z'
loop_
 _atom_site_type_symbol
 _atom_site_label
 _atom_site_symmetry_multiplicity
 _atom_site_fract_x
 _atom_site_fract_y
 _atom_site_fract_z
 _atom_site_occupancy
  Li  Li0  1  0.69645275  0.36438071  0.40834569  1
  Li  Li1  1  -0.19645275  -0.36438071  0.90834569  1
  Li  Li2  1  -0.69645275  0.86438071  0.09165431  1
  Li  Li3  1  1.19645275  0.13561929  -0.40834569  1
  Li  Li4  1  0.40834569  0.69645275  0.36438071  1
  Li  Li5  1  0.90834569  -0.19645275  -0.36438071  1
  Li  Li6  1  0.09165431  -0.69645275  0.86438071  1
  Li  Li7  1  -0.40834569  1.19645275  0.13561929  1
  Li  Li8  1  0.36438071  0.40834569  0.69645275  1
  Li  Li9  1  -0.36438071  0.90834569  -0.19645275  1
  Li  Li10  1  0.86438071  0.09165431  -0.69645275  1
  Li  Li11  1  0.13561929  -0.40834569  1.19645275  1
  Li  Li12  1  1.11438071  0.94645275  -0.15834569  1
  Li  Li13  1  0.38561929  0.05354725  0.34165431  1
  Li  Li14  1  0.61438071  -0.44645275  1.15834569  1
  Li  Li15  1  -0.11438071  1.44645275  0.65834569  1
  Li  Li16  1  1.44645275  0.65834569  -0.11438071  1
  Li  Li17  1  -0.44645275  1.15834569  0.61438071  1
  Li  Li18  1  0.05354725  0.34165431  0.38561929  1
  Li  Li19  1  0.94645275  -0.15834569  1.11438071  1
  Li  Li20  1  1.15834569  0.61438071  -0.44645275  1
  Li  Li21  1  0.65834569  -0.11438071  1.44645275  1
  Li  Li22  1  -0.15834569  1.11438071  0.94645275  1
  Li  Li23  1  0.34165431  0.38561929  0.05354725  1
  Li  Li24  1  1.19645275  0.86438071  0.90834569  1
  Li  Li25  1  0.30354725  0.13561929  1.40834569  1
  Li  Li26  1  -0.19645275  1.36438071  0.59165431  1
  Li  Li27  1  1.69645275  0.63561929  0.09165431  1
  Li  Li28  1  0.90834569  1.19645275  0.86438071  1
  Li  Li29  1  1.40834569  0.30354725  0.13561929  1
  Li  Li30  1  0.59165431  -0.19645275  1.36438071  1
  Li  Li31  1  0.09165431  1.69645275  0.63561929  1
  Li  Li32  1  0.86438071  0.90834569  1.19645275  1
  Li  Li33  1  0.13561929  1.40834569  0.30354725  1
  Li  Li34  1  1.36438071  0.59165431  -0.19645275  1
  Li  Li35  1  0.63561929  0.09165431  1.69645275  1
  Li  Li36  1  1.61438071  1.44645275  0.34165431  1
  Li  Li37  1  0.88561929  0.55354725  0.84165431  1
  Li  Li38  1  1.11438071  0.05354725  1.65834569  1
  Li  Li39  1  0.38561929  1.94645275  1.15834569  1
  Li  Li40  1  1.94645275  1.15834569  0.38561929  1
  Li  Li41  1  0.05354725  1.65834569  1.11438071  1
  Li  Li42  1  0.55354725  0.84165431  0.88561929  1
  Li  Li43  1  1.44645275  0.34165431  1.61438071  1
  Li  Li44  1  1.65834569  1.11438071  0.05354725  1
  Li  Li45  1  1.15834569  0.38561929  1.94645275  1
  Li  Li46  1  0.34165431  1.61438071  1.44645275  1
  Li  Li47  1  0.84165431  0.88561929  0.55354725  1
  Li  Li48  1  0.31542167  0.00000000  0.25000000  1
  Li  Li49  1  0.18457833  -0.00000000  0.75000000  1
  Li  Li50  1  0.25000000  0.31542167  0.00000000  1
  Li  Li51  1  0.75000000  0.18457833  -0.00000000  1
  Li  Li52  1  0.00000000  0.25000000  0.31542167  1
  Li  Li53  1  0.00000000  0.75000000  0.18457833  1
  Li  Li54  1  0.75000000  0.56542167  0.00000000  1
  Li  Li55  1  0.75000000  0.43457833  0.50000000  1
  Li  Li56  1  0.06542167  0.50000000  0.25000000  1
  Li  Li57  1  0.93457833  0.00000000  0.25000000  1
  Li  Li58  1  0.00000000  0.25000000  0.93457833  1
  Li  Li59  1  0.50000000  0.25000000  0.06542167  1
  Li  Li60  1  0.81542167  0.50000000  0.75000000  1
  Li  Li61  1  0.68457833  0.50000000  0.25000000  1
  Li  Li62  1  0.75000000  0.81542167  0.50000000  1
  Li  Li63  1  0.25000000  0.68457833  0.50000000  1
  Li  Li64  1  0.50000000  0.75000000  0.81542167  1
  Li  Li65  1  0.50000000  0.25000000  0.68457833  1
  Li  Li66  1  0.25000000  0.06542167  0.50000000  1
  Li  Li67  1  0.25000000  0.93457833  0.00000000  1
  Li  Li68  1  0.56542167  0.00000000  0.75000000  1
  Li  Li69  1  0.43457833  0.50000000  0.75000000  1
  Li  Li70  1  0.50000000  0.75000000  0.43457833  1
  Li  Li71  1  0.00000000  0.75000000  0.56542167  1
  Na  Na72  1  0.12500000  0.00000000  0.25000000  1
  Na  Na73  1  0.37500000  0.00000000  0.75000000  1
  Na  Na74  1  0.25000000  0.12500000  -0.00000000  1
  Na  Na75  1  0.75000000  0.37500000  -0.00000000  1
  Na  Na76  1  0.00000000  0.25000000  0.12500000  1
  Na  Na77  1  0.00000000  0.75000000  0.37500000  1
  Na  Na78  1  0.62500000  0.50000000  0.75000000  1
  Na  Na79  1  0.87500000  0.50000000  0.25000000  1
  Na  Na80  1  0.75000000  0.62500000  0.50000000  1
  Na  Na81  1  0.25000000  0.87500000  0.50000000  1
  Na  Na82  1  0.50000000  0.75000000  0.62500000  1
  Na  Na83  1  0.50000000  0.25000000  0.87500000  1
  Na  Na84  1  0.62500000  0.00000000  0.25000000  1
  Na  Na85  1  0.87500000  0.00000000  0.75000000  1
  Na  Na86  1  0.25000000  0.62500000  0.00000000  1
  Na  Na87  1  0.75000000  0.87500000  0.00000000  1
  Na  Na88  1  0.00000000  0.25000000  0.62500000  1
  Na  Na89  1  0.00000000  0.75000000  0.87500000  1
  Na  Na90  1  0.12500000  0.50000000  0.75000000  1
  Na  Na91  1  0.37500000  0.50000000  0.25000000  1
  Na  Na92  1  0.75000000  0.12500000  0.50000000  1
  Na  Na93  1  0.25000000  0.37500000  0.50000000  1
  Na  Na94  1  0.50000000  0.75000000  0.12500000  1
  Na  Na95  1  0.50000000  0.25000000  0.37500000  1
  S  S96  1  0.07616007  0.07616007  0.07616007  1
  S  S97  1  0.42383993  0.92383993  0.57616007  1
  S  S98  1  0.92383993  0.57616007  0.42383993  1
  S  S99  1  0.57616007  0.42383993  0.92383993  1
  S  S100  1  0.82616007  0.32616007  0.17383993  1
  S  S101  1  0.67383993  0.67383993  0.67383993  1
  S  S102  1  0.32616007  0.17383993  0.82616007  1
  S  S103  1  0.17383993  0.82616007  0.32616007  1
  S  S104  1  0.57616007  0.57616007  0.57616007  1
  S  S105  1  0.92383993  0.42383993  0.07616007  1
  S  S106  1  0.42383993  0.07616007  0.92383993  1
  S  S107  1  0.07616007  0.92383993  0.42383993  1
  S  S108  1  0.32616007  0.82616007  0.67383993  1
  S  S109  1  0.17383993  0.17383993  0.17383993  1
  S  S110  1  0.82616007  0.67383993  0.32616007  1
  S  S111  1  0.67383993  0.32616007  0.82616007  1
  Te  Te112  1  0.12500000  0.71399029  0.53600971  1
  Te  Te113  1  0.37500000  0.28600971  0.03600971  1
  Te  Te114  1  0.87500000  0.21399029  0.96399029  1
  Te  Te115  1  0.62500000  0.78600971  0.46399029  1
  Te  Te116  1  0.53600971  0.12500000  0.71399029  1
  Te  Te117  1  0.03600971  0.37500000  0.28600971  1
  Te  Te118  1  0.96399029  0.87500000  0.21399029  1
  Te  Te119  1  0.46399029  0.62500000  0.78600971  1
  Te  Te120  1  0.71399029  0.53600971  0.12500000  1
  Te  Te121  1  0.28600971  0.03600971  0.37500000  1
  Te  Te122  1  0.21399029  0.96399029  0.87500000  1
  Te  Te123  1  0.78600971  0.46399029  0.62500000  1
  Te  Te124  1  0.62500000  0.21399029  0.03600971  1
  Te  Te125  1  0.87500000  0.78600971  0.53600971  1
  Te  Te126  1  0.37500000  0.71399029  0.46399029  1
  Te  Te127  1  0.12500000  0.28600971  0.96399029  1
  Te  Te128  1  0.03600971  0.62500000  0.21399029  1
  Te  Te129  1  0.53600971  0.87500000  0.78600971  1
  Te  Te130  1  0.46399029  0.37500000  0.71399029  1
  Te  Te131  1  0.96399029  0.12500000  0.28600971  1
  Te  Te132  1  0.21399029  0.03600971  0.62500000  1
  Te  Te133  1  0.78600971  0.53600971  0.87500000  1
  Te  Te134  1  0.71399029  0.46399029  0.37500000  1
  Te  Te135  1  0.28600971  0.96399029  0.12500000  1
  Te  Te136  1  0.87500000  0.87500000  0.87500000  1
  Te  Te137  1  0.62500000  0.12500000  0.37500000  1
  Te  Te138  1  0.12500000  0.37500000  0.62500000  1
  Te  Te139  1  0.37500000  0.62500000  0.12500000  1
  Te  Te140  1  0.37500000  0.37500000  0.37500000  1
  Te  Te141  1  0.12500000  0.62500000  0.87500000  1
  Te  Te142  1  0.62500000  0.87500000  0.12500000  1
  Te  Te143  1  0.87500000  0.12500000  0.62500000  1
