# generated using pymatgen
data_LiCa2Sb3S3I8
_symmetry_space_group_name_H-M   'P 1'
_cell_length_a   6.31137314
_cell_length_b   11.74698197
_cell_length_c   10.59329808
_cell_angle_alpha   90.00000000
_cell_angle_beta   90.00000000
_cell_angle_gamma   90.00000000
_symmetry_Int_Tables_number   1
_chemical_formula_structural   LiCa2Sb3S3I8
_chemical_formula_sum   'Li2 Ca4 Sb6 S6 I16'
_cell_volume   785.38273917
_cell_formula_units_Z   2
loop_
 _symmetry_equiv_pos_site_id
 _symmetry_equiv_pos_as_xyz
  1  'x, y, z'
loop_
 _atom_site_type_symbol
 _atom_site_label
 _atom_site_symmetry_multiplicity
 _atom_site_fract_x
 _atom_site_fract_y
 _atom_site_fract_z
 _atom_site_occupancy
  Ca  Ca0  1  0.00000000  0.50000000  0.21264636  1
  Ca  Ca1  1  0.50000000  0.00000000  0.28735364  1
  Ca  Ca2  1  0.00000000  0.50000000  0.78735364  1
  Ca  Ca3  1  0.50000000  0.00000000  0.71264636  1
  I  I4  1  0.65433445  0.32030102  0.18354782  1
  I  I5  1  -0.65433445  -0.32030102  0.18354782  1
  I  I6  1  -0.15433445  0.82030102  0.31645218  1
  I  I7  1  1.15433445  0.17969898  0.31645218  1
  I  I8  1  -0.65433445  -0.32030102  -0.18354782  1
  I  I9  1  0.65433445  0.32030102  -0.18354782  1
  I  I10  1  1.15433445  0.17969898  0.68354782  1
  I  I11  1  -0.15433445  0.82030102  0.68354782  1
  I  I12  1  0.57726350  0.74359476  0.29476699  1
  I  I13  1  0.42273650  0.25640524  0.29476699  1
  I  I14  1  0.92273650  0.24359476  0.20523301  1
  I  I15  1  0.07726350  0.75640524  0.20523301  1
  I  I16  1  0.42273650  0.25640524  0.70523301  1
  I  I17  1  0.57726350  0.74359476  0.70523301  1
  I  I18  1  0.07726350  0.75640524  0.79476699  1
  I  I19  1  0.92273650  0.24359476  0.79476699  1
  Li  Li20  1  0.00000000  0.00000000  0.50000000  1
  Li  Li21  1  0.50000000  0.50000000  0.00000000  1
  S  S22  1  0.00000000  0.50000000  0.50000000  1
  S  S23  1  0.50000000  0.00000000  0.00000000  1
  S  S24  1  0.00000000  0.00000000  0.92121297  1
  S  S25  1  0.50000000  0.50000000  0.57878703  1
  S  S26  1  0.00000000  0.00000000  0.07878703  1
  S  S27  1  0.50000000  0.50000000  0.42121297  1
  Sb  Sb28  1  0.00000000  0.50000000  0.00000000  1
  Sb  Sb29  1  0.50000000  0.00000000  0.50000000  1
  Sb  Sb30  1  0.29958037  0.74403510  0.00000000  1
  Sb  Sb31  1  0.70041963  0.25596490  -0.00000000  1
  Sb  Sb32  1  0.20041963  0.24403510  0.50000000  1
  Sb  Sb33  1  0.79958037  0.75596490  0.50000000  1
