# generated using pymatgen
data_Li2O
_symmetry_space_group_name_H-M   'P 1'
_cell_length_a   6.02802547
_cell_length_b   5.50431045
_cell_length_c   11.53121464
_cell_angle_alpha   90.00000000
_cell_angle_beta   90.00000000
_cell_angle_gamma   90.00000000
_symmetry_Int_Tables_number   1
_chemical_formula_structural   Li2O
_chemical_formula_sum   'Li16 O8'
_cell_volume   382.60712741
_cell_formula_units_Z   8
loop_
 _symmetry_equiv_pos_site_id
 _symmetry_equiv_pos_as_xyz
  1  'x, y, z'
loop_
 _atom_site_type_symbol
 _atom_site_label
 _atom_site_symmetry_multiplicity
 _atom_site_fract_x
 _atom_site_fract_y
 _atom_site_fract_z
 _atom_site_occupancy
  Li  Li0  1  0.96543237  0.23179310  0.77847704  1
  Li  Li1  1  0.03456763  0.76820690  0.77847704  1
  Li  Li2  1  0.53456763  0.73179310  0.22152296  1
  Li  Li3  1  0.46543237  0.26820690  0.22152296  1
  Li  Li4  1  0.03456763  0.76820690  0.22152296  1
  Li  Li5  1  0.96543237  0.23179310  0.22152296  1
  Li  Li6  1  0.46543237  0.26820690  0.77847704  1
  Li  Li7  1  0.53456763  0.73179310  0.77847704  1
  Li  Li8  1  0.00000000  0.00000000  0.00000000  1
  Li  Li9  1  0.50000000  0.50000000  0.00000000  1
  Li  Li10  1  0.00000000  0.50000000  0.09486801  1
  Li  Li11  1  0.50000000  0.00000000  0.90513199  1
  Li  Li12  1  0.00000000  0.50000000  0.90513199  1
  Li  Li13  1  0.50000000  0.00000000  0.09486801  1
  Li  Li14  1  0.00000000  0.00000000  0.50000000  1
  Li  Li15  1  0.50000000  0.50000000  0.50000000  1
  O  O16  1  0.73735564  0.60473338  0.38128090  1
  O  O17  1  -0.73735564  -0.60473338  0.38128090  1
  O  O18  1  -0.23735564  1.10473338  -0.38128090  1
  O  O19  1  1.23735564  -0.10473338  -0.38128090  1
  O  O20  1  -0.73735564  -0.60473338  -0.38128090  1
  O  O21  1  0.73735564  0.60473338  -0.38128090  1
  O  O22  1  1.23735564  -0.10473338  0.38128090  1
  O  O23  1  -0.23735564  1.10473338  0.38128090  1
