# generated using pymatgen
data_LiBr
_symmetry_space_group_name_H-M   'P 1'
_cell_length_a   7.36406416
_cell_length_b   11.99571455
_cell_length_c   8.92655758
_cell_angle_alpha   90.00000000
_cell_angle_beta   90.00000000
_cell_angle_gamma   90.00000000
_symmetry_Int_Tables_number   1
_chemical_formula_structural   LiBr
_chemical_formula_sum   'Li16 Br16'
_cell_volume   788.54720513
_cell_formula_units_Z   16
loop_
 _symmetry_equiv_pos_site_id
 _symmetry_equiv_pos_as_xyz
  1  'x, y, z'
loop_
 _atom_site_type_symbol
 _atom_site_label
 _atom_site_symmetry_multiplicity
 _atom_site_fract_x
 _atom_site_fract_y
 _atom_site_fract_z
 _atom_site_occupancy
  Br  Br0  1  0.00843610  0.78900680  0.00000000  1
  Br  Br1  1  0.99156390  0.21099320  0.00000000  1
  Br  Br2  1  0.49156390  0.28900680  0.00000000  1
  Br  Br3  1  0.50843610  0.71099320  0.00000000  1
  Br  Br4  1  0.26216141  0.30743053  0.50000000  1
  Br  Br5  1  0.73783859  0.69256947  0.50000000  1
  Br  Br6  1  0.23783859  0.80743053  0.50000000  1
  Br  Br7  1  0.76216141  0.19256947  0.50000000  1
  Br  Br8  1  0.00000000  0.00000000  0.50000000  1
  Br  Br9  1  0.50000000  0.50000000  0.50000000  1
  Br  Br10  1  0.60735739  0.59344619  0.50000000  1
  Br  Br11  1  0.39264261  0.40655381  0.50000000  1
  Br  Br12  1  0.89264261  0.09344619  0.50000000  1
  Br  Br13  1  0.10735739  0.90655381  0.50000000  1
  Br  Br14  1  0.00000000  0.00000000  0.00000000  1
  Br  Br15  1  0.50000000  0.50000000  0.00000000  1
  Li  Li16  1  0.83201484  0.30831677  0.50000000  1
  Li  Li17  1  0.16798516  0.69168323  0.50000000  1
  Li  Li18  1  0.66798516  0.80831677  0.50000000  1
  Li  Li19  1  0.33201484  0.19168323  0.50000000  1
  Li  Li20  1  0.08928561  0.70245821  0.68371364  1
  Li  Li21  1  -0.08928561  -0.70245821  0.68371364  1
  Li  Li22  1  0.41071439  1.20245821  -0.68371364  1
  Li  Li23  1  0.58928561  -0.20245821  -0.68371364  1
  Li  Li24  1  -0.08928561  -0.70245821  -0.68371364  1
  Li  Li25  1  0.08928561  0.70245821  -0.68371364  1
  Li  Li26  1  0.58928561  -0.20245821  0.68371364  1
  Li  Li27  1  0.41071439  1.20245821  0.68371364  1
  Li  Li28  1  0.00000000  0.50000000  0.00000000  1
  Li  Li29  1  0.50000000  0.00000000  0.00000000  1
  Li  Li30  1  0.00000000  0.50000000  0.50000000  1
  Li  Li31  1  0.50000000  0.00000000  0.50000000  1
