# generated using pymatgen
data_K2LiNb3Al2O2
_symmetry_space_group_name_H-M   'P 1'
_cell_length_a   12.38594631
_cell_length_b   12.91212235
_cell_length_c   13.51438639
_cell_angle_alpha   90.00000000
_cell_angle_beta   90.00000000
_cell_angle_gamma   90.00000000
_symmetry_Int_Tables_number   1
_chemical_formula_structural   K2LiNb3Al2O2
_chemical_formula_sum   'K2 Li1 Nb3 Al2 O2'
_cell_volume   2161.34033150
_cell_formula_units_Z   1
loop_
 _symmetry_equiv_pos_site_id
 _symmetry_equiv_pos_as_xyz
  1  'x, y, z'
loop_
 _atom_site_type_symbol
 _atom_site_label
 _atom_site_symmetry_multiplicity
 _atom_site_fract_x
 _atom_site_fract_y
 _atom_site_fract_z
 _atom_site_occupancy
  Li  Li0  1  0.12500000  0.00000000  0.25000000  1
  Nb  Nb1  1  0.00000000  0.00000000  0.00000000  1
  Nb  Nb2  1  0.37500000  0.00000000  0.25000000  1
  Nb  Nb3  1  0.25000000  0.25000000  0.25000000  1
  Al  Al4  1  0.00000000  0.25000000  0.12500000  1
  Al  Al5  1  0.59291994  0.30690008  0.35808684  1
  K  K6  1  0.98478925  0.97657459  0.50023709  1
  K  K7  1  0.48454449  0.17804372  0.11149701  1
  O  O8  1  0.27523401  0.49017404  0.26812712  1
  O  O9  1  0.08869233  0.32444961  0.03152456  1
