# generated using pymatgen
data_Li2Se
_symmetry_space_group_name_H-M   'P 1'
_cell_length_a   3.94813643
_cell_length_b   3.94813643
_cell_length_c   32.65833919
_cell_angle_alpha   90.00000000
_cell_angle_beta   90.00000000
_cell_angle_gamma   90.00000000
_symmetry_Int_Tables_number   1
_chemical_formula_structural   Li2Se
_chemical_formula_sum   'Li16 Se8'
_cell_volume   509.07104766
_cell_formula_units_Z   8
loop_
 _symmetry_equiv_pos_site_id
 _symmetry_equiv_pos_as_xyz
  1  'x, y, z'
loop_
 _atom_site_type_symbol
 _atom_site_label
 _atom_site_symmetry_multiplicity
 _atom_site_fract_x
 _atom_site_fract_y
 _atom_site_fract_z
 _atom_site_occupancy
  Li  Li0  1  0.00000000  0.25000000  0.07642696  1
  Li  Li1  1  0.00000000  0.75000000  0.32642696  1
  Li  Li2  1  0.50000000  0.25000000  -0.07642696  1
  Li  Li3  1  0.50000000  0.75000000  0.67357304  1
  Li  Li4  1  0.00000000  0.75000000  -0.07642696  1
  Li  Li5  1  0.00000000  0.25000000  0.67357304  1
  Li  Li6  1  0.50000000  0.75000000  0.07642696  1
  Li  Li7  1  0.50000000  0.25000000  0.32642696  1
  Li  Li8  1  0.50000000  0.75000000  0.57642696  1
  Li  Li9  1  0.50000000  1.25000000  0.82642696  1
  Li  Li10  1  1.00000000  0.75000000  0.42357304  1
  Li  Li11  1  1.00000000  1.25000000  1.17357304  1
  Li  Li12  1  0.50000000  1.25000000  0.42357304  1
  Li  Li13  1  0.50000000  0.75000000  1.17357304  1
  Li  Li14  1  1.00000000  1.25000000  0.57642696  1
  Li  Li15  1  1.00000000  0.75000000  0.82642696  1
  Se  Se16  1  0.00000000  0.25000000  0.12500000  1
  Se  Se17  1  0.00000000  0.75000000  0.37500000  1
  Se  Se18  1  0.00000000  0.75000000  0.87500000  1
  Se  Se19  1  0.00000000  0.25000000  0.62500000  1
  Se  Se20  1  0.50000000  0.75000000  0.62500000  1
  Se  Se21  1  0.50000000  0.25000000  0.87500000  1
  Se  Se22  1  0.50000000  0.25000000  0.37500000  1
  Se  Se23  1  0.50000000  0.75000000  0.12500000  1
