# generated using pymatgen
data_HfO2
_symmetry_space_group_name_H-M   'P 1'
_cell_length_a   5.57830793
_cell_length_b   5.57830793
_cell_length_c   23.43749167
_cell_angle_alpha   90.00000000
_cell_angle_beta   90.00000000
_cell_angle_gamma   120.00000000
_symmetry_Int_Tables_number   1
_chemical_formula_structural   HfO2
_chemical_formula_sum   'Hf12 O24'
_cell_volume   631.60670441
_cell_formula_units_Z   12
loop_
 _symmetry_equiv_pos_site_id
 _symmetry_equiv_pos_as_xyz
  1  'x, y, z'
loop_
 _atom_site_type_symbol
 _atom_site_label
 _atom_site_symmetry_multiplicity
 _atom_site_fract_x
 _atom_site_fract_y
 _atom_site_fract_z
 _atom_site_occupancy
  Hf  Hf0  1  0.66666667  0.33333333  0.25000000  1
  Hf  Hf1  1  0.33333333  0.66666667  0.75000000  1
  Hf  Hf2  1  0.64505473  0.94205644  0.25000000  1
  Hf  Hf3  1  0.05794356  0.70299828  0.25000000  1
  Hf  Hf4  1  0.29700172  0.35494527  0.25000000  1
  Hf  Hf5  1  0.35494527  0.05794356  0.75000000  1
  Hf  Hf6  1  0.94205644  0.29700172  0.75000000  1
  Hf  Hf7  1  0.70299828  0.64505473  0.75000000  1
  Hf  Hf8  1  0.00000000  0.00000000  0.00000000  1
  Hf  Hf9  1  0.00000000  0.00000000  0.50000000  1
  Hf  Hf10  1  0.00000000  0.00000000  0.25000000  1
  Hf  Hf11  1  0.00000000  0.00000000  0.75000000  1
  O  O12  1  0.18937931  0.04753494  0.81749647  1
  O  O13  1  -0.04753494  0.14184437  0.81749647  1
  O  O14  1  -0.14184437  -0.18937931  0.81749647  1
  O  O15  1  -0.18937931  -0.04753494  1.31749647  1
  O  O16  1  0.04753494  -0.14184437  1.31749647  1
  O  O17  1  0.14184437  0.18937931  1.31749647  1
  O  O18  1  -0.18937931  -0.04753494  -0.81749647  1
  O  O19  1  0.04753494  -0.14184437  -0.81749647  1
  O  O20  1  0.14184437  0.18937931  -0.81749647  1
  O  O21  1  0.18937931  0.04753494  -0.31749647  1
  O  O22  1  -0.04753494  0.14184437  -0.31749647  1
  O  O23  1  -0.14184437  -0.18937931  -0.31749647  1
  O  O24  1  0.58349435  0.38911084  0.36685743  1
  O  O25  1  0.61088916  0.19438350  0.36685743  1
  O  O26  1  0.80561650  0.41650565  0.36685743  1
  O  O27  1  0.41650565  0.61088916  0.86685743  1
  O  O28  1  0.38911084  0.80561650  0.86685743  1
  O  O29  1  0.19438350  0.58349435  0.86685743  1
  O  O30  1  0.41650565  0.61088916  0.63314257  1
  O  O31  1  0.38911084  0.80561650  0.63314257  1
  O  O32  1  0.19438350  0.58349435  0.63314257  1
  O  O33  1  0.58349435  0.38911084  0.13314257  1
  O  O34  1  0.61088916  0.19438350  0.13314257  1
  O  O35  1  0.80561650  0.41650565  0.13314257  1
