# generated using pymatgen
data_LiBr
_symmetry_space_group_name_H-M   'P 1'
_cell_length_a   12.72196522
_cell_length_b   12.72196522
_cell_length_c   5.38875784
_cell_angle_alpha   90.00000000
_cell_angle_beta   90.00000000
_cell_angle_gamma   120.00000000
_symmetry_Int_Tables_number   1
_chemical_formula_structural   LiBr
_chemical_formula_sum   'Li18 Br18'
_cell_volume   755.31429935
_cell_formula_units_Z   18
loop_
 _symmetry_equiv_pos_site_id
 _symmetry_equiv_pos_as_xyz
  1  'x, y, z'
loop_
 _atom_site_type_symbol
 _atom_site_label
 _atom_site_symmetry_multiplicity
 _atom_site_fract_x
 _atom_site_fract_y
 _atom_site_fract_z
 _atom_site_occupancy
  Br  Br0  1  0.50000000  0.00000000  0.00000000  1
  Br  Br1  1  0.00000000  0.50000000  0.00000000  1
  Br  Br2  1  0.50000000  0.50000000  0.00000000  1
  Br  Br3  1  0.16666667  0.33333333  0.33333333  1
  Br  Br4  1  0.66666667  0.83333333  0.33333333  1
  Br  Br5  1  0.16666667  0.83333333  0.33333333  1
  Br  Br6  1  0.83333333  0.66666667  0.66666667  1
  Br  Br7  1  0.33333333  0.16666667  0.66666667  1
  Br  Br8  1  0.83333333  0.16666667  0.66666667  1
  Br  Br9  1  0.00000000  0.00000000  0.30673474  1
  Br  Br10  1  0.00000000  0.00000000  0.69326526  1
  Br  Br11  1  0.66666667  0.33333333  0.64006807  1
  Br  Br12  1  0.66666667  0.33333333  0.02659860  1
  Br  Br13  1  0.33333333  0.66666667  0.97340140  1
  Br  Br14  1  0.33333333  0.66666667  0.35993193  1
  Br  Br15  1  0.00000000  0.00000000  0.00000000  1
  Br  Br16  1  0.66666667  0.33333333  0.33333333  1
  Br  Br17  1  0.33333333  0.66666667  0.66666667  1
  Li  Li18  1  0.18462615  0.00000000  0.50000000  1
  Li  Li19  1  0.00000000  0.18462615  0.50000000  1
  Li  Li20  1  -0.18462615  -0.18462615  0.50000000  1
  Li  Li21  1  -0.18462615  0.00000000  0.50000000  1
  Li  Li22  1  0.00000000  -0.18462615  0.50000000  1
  Li  Li23  1  0.18462615  0.18462615  0.50000000  1
  Li  Li24  1  0.85129282  0.33333333  0.83333333  1
  Li  Li25  1  0.66666667  0.51795948  0.83333333  1
  Li  Li26  1  0.48204052  0.14870718  0.83333333  1
  Li  Li27  1  0.48204052  0.33333333  0.83333333  1
  Li  Li28  1  0.66666667  0.14870718  0.83333333  1
  Li  Li29  1  0.85129282  0.51795948  0.83333333  1
  Li  Li30  1  0.51795948  0.66666667  1.16666667  1
  Li  Li31  1  0.33333333  0.85129282  1.16666667  1
  Li  Li32  1  0.14870718  0.48204052  1.16666667  1
  Li  Li33  1  0.14870718  0.66666667  1.16666667  1
  Li  Li34  1  0.33333333  0.48204052  1.16666667  1
  Li  Li35  1  0.51795948  0.85129282  1.16666667  1
