# generated using pymatgen
data_Na4Li4Sb3BrO8
_symmetry_space_group_name_H-M   'P 1'
_cell_length_a   6.00930311
_cell_length_b   14.42411228
_cell_length_c   8.17374394
_cell_angle_alpha   90.00000000
_cell_angle_beta   90.00000000
_cell_angle_gamma   90.00000000
_symmetry_Int_Tables_number   1
_chemical_formula_structural   Na4Li4Sb3BrO8
_chemical_formula_sum   'Na8 Li8 Sb6 Br2 O16'
_cell_volume   708.49082996
_cell_formula_units_Z   2
loop_
 _symmetry_equiv_pos_site_id
 _symmetry_equiv_pos_as_xyz
  1  'x, y, z'
loop_
 _atom_site_type_symbol
 _atom_site_label
 _atom_site_symmetry_multiplicity
 _atom_site_fract_x
 _atom_site_fract_y
 _atom_site_fract_z
 _atom_site_occupancy
  Br  Br0  1  0.00000000  0.50000000  -0.00000000  1
  Br  Br1  1  0.50000000  0.00000000  0.50000000  1
  Li  Li2  1  0.30913652  0.69853662  -0.00000000  1
  Li  Li3  1  0.69086348  0.30146338  0.00000000  1
  Li  Li4  1  0.19086348  0.19853662  0.50000000  1
  Li  Li5  1  0.80913652  0.80146338  0.50000000  1
  Li  Li6  1  0.00000000  0.00000000  0.00000000  1
  Li  Li7  1  0.50000000  0.50000000  0.50000000  1
  Li  Li8  1  0.00000000  0.50000000  0.50000000  1
  Li  Li9  1  0.50000000  0.00000000  0.00000000  1
  Na  Na10  1  0.00000000  0.00000000  0.70763225  1
  Na  Na11  1  0.50000000  0.50000000  0.79236775  1
  Na  Na12  1  0.00000000  0.00000000  0.29236775  1
  Na  Na13  1  0.50000000  0.50000000  0.20763225  1
  Na  Na14  1  0.59964473  0.66402466  -0.00000000  1
  Na  Na15  1  0.40035527  0.33597534  0.00000000  1
  Na  Na16  1  0.90035527  0.16402466  0.50000000  1
  Na  Na17  1  0.09964473  0.83597534  0.50000000  1
  O  O18  1  0.74645903  0.36371297  0.76975940  1
  O  O19  1  -0.74645903  -0.36371297  0.76975940  1
  O  O20  1  -0.24645903  0.86371297  -0.26975940  1
  O  O21  1  1.24645903  0.13628703  -0.26975940  1
  O  O22  1  -0.74645903  -0.36371297  -0.76975940  1
  O  O23  1  0.74645903  0.36371297  -0.76975940  1
  O  O24  1  1.24645903  0.13628703  1.26975940  1
  O  O25  1  -0.24645903  0.86371297  1.26975940  1
  O  O26  1  0.80589134  0.51996175  0.27189676  1
  O  O27  1  0.19410866  0.48003825  0.27189676  1
  O  O28  1  0.69410866  0.01996175  0.22810324  1
  O  O29  1  0.30589134  0.98003825  0.22810324  1
  O  O30  1  0.19410866  0.48003825  0.72810324  1
  O  O31  1  0.80589134  0.51996175  0.72810324  1
  O  O32  1  0.30589134  0.98003825  0.77189676  1
  O  O33  1  0.69410866  0.01996175  0.77189676  1
  Sb  Sb34  1  0.14780537  0.63452278  -0.00000000  1
  Sb  Sb35  1  0.85219463  0.36547722  0.00000000  1
  Sb  Sb36  1  0.35219463  0.13452278  0.50000000  1
  Sb  Sb37  1  0.64780537  0.86547722  0.50000000  1
  Sb  Sb38  1  0.00000000  0.00000000  0.50000000  1
  Sb  Sb39  1  0.50000000  0.50000000  0.00000000  1
