# generated using pymatgen
data_Li2Al2SiS6
_symmetry_space_group_name_H-M   'P 1'
_cell_length_a   24.84527201
_cell_length_b   24.84527201
_cell_length_c   3.73681134
_cell_angle_alpha   90.00000000
_cell_angle_beta   90.00000000
_cell_angle_gamma   120.00000000
_symmetry_Int_Tables_number   1
_chemical_formula_structural   Li2Al2SiS6
_chemical_formula_sum   'Li18 Al18 Si9 S54'
_cell_volume   1997.64961186
_cell_formula_units_Z   9
loop_
 _symmetry_equiv_pos_site_id
 _symmetry_equiv_pos_as_xyz
  1  'x, y, z'
loop_
 _atom_site_type_symbol
 _atom_site_label
 _atom_site_symmetry_multiplicity
 _atom_site_fract_x
 _atom_site_fract_y
 _atom_site_fract_z
 _atom_site_occupancy
  Al  Al0  1  0.72053594  0.27946406  0.14256257  1
  Al  Al1  1  0.72053594  0.44107188  0.14256257  1
  Al  Al2  1  0.55892812  0.27946406  0.14256257  1
  Al  Al3  1  0.27946406  0.72053594  0.85743743  1
  Al  Al4  1  0.44107188  0.72053594  0.85743743  1
  Al  Al5  1  0.27946406  0.55892812  0.85743743  1
  Al  Al6  1  0.38720261  0.61279739  0.47589590  1
  Al  Al7  1  0.38720261  0.77440521  0.47589590  1
  Al  Al8  1  0.22559479  0.61279739  0.47589590  1
  Al  Al9  1  0.94613073  0.05386927  0.19077077  1
  Al  Al10  1  0.10773855  0.05386927  0.19077077  1
  Al  Al11  1  0.94613073  0.89226145  0.19077077  1
  Al  Al12  1  0.05386927  0.94613073  0.80922923  1
  Al  Al13  1  0.05386927  0.10773855  0.80922923  1
  Al  Al14  1  0.89226145  0.94613073  0.80922923  1
  Al  Al15  1  0.61279739  0.38720261  0.52410410  1
  Al  Al16  1  0.77440521  0.38720261  0.52410410  1
  Al  Al17  1  0.61279739  0.22559479  0.52410410  1
  Li  Li18  1  0.65532127  0.00000000  -0.00000000  1
  Li  Li19  1  0.00000000  0.65532127  -0.00000000  1
  Li  Li20  1  0.34467873  0.34467873  -0.00000000  1
  Li  Li21  1  0.34467873  0.00000000  -0.00000000  1
  Li  Li22  1  0.00000000  0.34467873  -0.00000000  1
  Li  Li23  1  0.65532127  0.65532127  -0.00000000  1
  Li  Li24  1  0.32198794  0.33333333  0.33333333  1
  Li  Li25  1  0.66666667  0.98865461  0.33333333  1
  Li  Li26  1  0.01134539  0.67801206  0.33333333  1
  Li  Li27  1  0.01134539  0.33333333  0.33333333  1
  Li  Li28  1  0.66666667  0.67801206  0.33333333  1
  Li  Li29  1  0.32198794  0.98865461  0.33333333  1
  Li  Li30  1  0.98865461  0.66666667  0.66666667  1
  Li  Li31  1  0.33333333  0.32198794  0.66666667  1
  Li  Li32  1  0.67801206  0.01134539  0.66666667  1
  Li  Li33  1  0.67801206  0.66666667  0.66666667  1
  Li  Li34  1  0.33333333  0.01134539  0.66666667  1
  Li  Li35  1  0.98865461  0.32198794  0.66666667  1
  S  S36  1  0.79776665  0.20223335  0.64134334  1
  S  S37  1  0.79776665  0.59553330  0.64134334  1
  S  S38  1  0.40446670  0.20223335  0.64134334  1
  S  S39  1  0.20223335  0.79776665  0.35865666  1
  S  S40  1  0.59553330  0.79776665  0.35865666  1
  S  S41  1  0.20223335  0.40446670  0.35865666  1
  S  S42  1  0.46443332  0.53556668  0.97467667  1
  S  S43  1  0.46443332  0.92886663  0.97467667  1
  S  S44  1  0.07113337  0.53556668  0.97467667  1
  S  S45  1  0.86890002  0.13109998  0.69198999  1
  S  S46  1  0.26219996  0.13109998  0.69198999  1
  S  S47  1  0.86890002  0.73780004  0.69198999  1
  S  S48  1  0.13109998  0.86890002  0.30801001  1
  S  S49  1  0.13109998  0.26219996  0.30801001  1
  S  S50  1  0.73780004  0.86890002  0.30801001  1
  S  S51  1  0.53556668  0.46443332  0.02532333  1
  S  S52  1  0.92886663  0.46443332  0.02532333  1
  S  S53  1  0.53556668  0.07113337  0.02532333  1
  S  S54  1  0.11761201  0.69430068  0.55720854  1
  S  S55  1  -0.69430068  -0.57668867  0.55720854  1
  S  S56  1  0.57668867  -0.11761201  0.55720854  1
  S  S57  1  0.69430068  0.11761201  -0.55720854  1
  S  S58  1  -0.57668867  -0.69430068  -0.55720854  1
  S  S59  1  -0.11761201  0.57668867  -0.55720854  1
  S  S60  1  -0.11761201  -0.69430068  -0.55720854  1
  S  S61  1  0.69430068  0.57668867  -0.55720854  1
  S  S62  1  -0.57668867  0.11761201  -0.55720854  1
  S  S63  1  -0.69430068  -0.11761201  0.55720854  1
  S  S64  1  0.57668867  0.69430068  0.55720854  1
  S  S65  1  0.11761201  -0.57668867  0.55720854  1
  S  S66  1  0.78427868  1.02763401  0.89054188  1
  S  S67  1  -0.02763401  -0.24335533  0.89054188  1
  S  S68  1  1.24335533  0.21572132  0.89054188  1
  S  S69  1  1.36096735  0.45094534  -0.22387521  1
  S  S70  1  0.08997800  -0.36096735  -0.22387521  1
  S  S71  1  0.54905466  0.91002200  -0.22387521  1
  S  S72  1  0.54905466  -0.36096735  -0.22387521  1
  S  S73  1  1.36096735  0.91002200  -0.22387521  1
  S  S74  1  0.08997800  0.45094534  -0.22387521  1
  S  S75  1  -0.02763401  0.21572132  0.89054188  1
  S  S76  1  1.24335533  1.02763401  0.89054188  1
  S  S77  1  0.78427868  -0.24335533  0.89054188  1
  S  S78  1  0.45094534  1.36096735  1.22387521  1
  S  S79  1  -0.36096735  0.08997800  1.22387521  1
  S  S80  1  0.91002200  0.54905466  1.22387521  1
  S  S81  1  1.02763401  0.78427868  0.10945812  1
  S  S82  1  -0.24335533  -0.02763401  0.10945812  1
  S  S83  1  0.21572132  1.24335533  0.10945812  1
  S  S84  1  0.21572132  -0.02763401  0.10945812  1
  S  S85  1  1.02763401  1.24335533  0.10945812  1
  S  S86  1  -0.24335533  0.78427868  0.10945812  1
  S  S87  1  -0.36096735  0.54905466  1.22387521  1
  S  S88  1  0.91002200  1.36096735  1.22387521  1
  S  S89  1  0.45094534  0.08997800  1.22387521  1
  Si  Si90  1  0.50000000  0.00000000  -0.00000000  1
  Si  Si91  1  0.00000000  0.50000000  -0.00000000  1
  Si  Si92  1  0.50000000  0.50000000  -0.00000000  1
  Si  Si93  1  0.16666667  0.33333333  0.33333333  1
  Si  Si94  1  0.66666667  0.83333333  0.33333333  1
  Si  Si95  1  0.16666667  0.83333333  0.33333333  1
  Si  Si96  1  0.83333333  0.66666667  0.66666667  1
  Si  Si97  1  0.33333333  0.16666667  0.66666667  1
  Si  Si98  1  0.83333333  0.16666667  0.66666667  1
