# generated using pymatgen
data_LiCl
_symmetry_space_group_name_H-M   'P 1'
_cell_length_a   8.19727458
_cell_length_b   8.19727458
_cell_length_c   13.58949049
_cell_angle_alpha   90.00000000
_cell_angle_beta   90.00000000
_cell_angle_gamma   120.00000000
_symmetry_Int_Tables_number   1
_chemical_formula_structural   LiCl
_chemical_formula_sum   'Li24 Cl24'
_cell_volume   790.81112683
_cell_formula_units_Z   24
loop_
 _symmetry_equiv_pos_site_id
 _symmetry_equiv_pos_as_xyz
  1  'x, y, z'
loop_
 _atom_site_type_symbol
 _atom_site_label
 _atom_site_symmetry_multiplicity
 _atom_site_fract_x
 _atom_site_fract_y
 _atom_site_fract_z
 _atom_site_occupancy
  Cl  Cl0  1  0.00000000  0.00000000  0.25000000  1
  Cl  Cl1  1  0.00000000  0.00000000  0.75000000  1
  Cl  Cl2  1  0.60180513  0.87826167  0.25000000  1
  Cl  Cl3  1  0.12173833  0.72354346  0.25000000  1
  Cl  Cl4  1  0.27645654  0.39819487  0.25000000  1
  Cl  Cl5  1  0.39819487  0.12173833  0.75000000  1
  Cl  Cl6  1  0.87826167  0.27645654  0.75000000  1
  Cl  Cl7  1  0.72354346  0.60180513  0.75000000  1
  Cl  Cl8  1  0.87826167  0.60180513  0.75000000  1
  Cl  Cl9  1  0.72354346  0.12173833  0.75000000  1
  Cl  Cl10  1  0.39819487  0.27645654  0.75000000  1
  Cl  Cl11  1  0.12173833  0.39819487  0.25000000  1
  Cl  Cl12  1  0.27645654  0.87826167  0.25000000  1
  Cl  Cl13  1  0.60180513  0.72354346  0.25000000  1
  Cl  Cl14  1  0.00000000  0.00000000  0.00000000  1
  Cl  Cl15  1  0.00000000  0.00000000  0.50000000  1
  Cl  Cl16  1  0.50000000  0.00000000  -0.00000000  1
  Cl  Cl17  1  0.00000000  0.50000000  0.00000000  1
  Cl  Cl18  1  0.50000000  0.50000000  -0.00000000  1
  Cl  Cl19  1  0.50000000  0.00000000  0.50000000  1
  Cl  Cl20  1  0.00000000  0.50000000  0.50000000  1
  Cl  Cl21  1  0.50000000  0.50000000  0.50000000  1
  Cl  Cl22  1  0.33333333  0.66666667  0.25000000  1
  Cl  Cl23  1  0.66666667  0.33333333  0.75000000  1
  Li  Li24  1  0.50386215  1.00772430  0.14785245  1
  Li  Li25  1  -1.00772430  -0.50386215  0.14785245  1
  Li  Li26  1  0.50386215  -0.50386215  0.14785245  1
  Li  Li27  1  -0.50386215  -1.00772430  0.64785245  1
  Li  Li28  1  1.00772430  0.50386215  0.64785245  1
  Li  Li29  1  -0.50386215  0.50386215  0.64785245  1
  Li  Li30  1  1.00772430  0.50386215  -0.14785245  1
  Li  Li31  1  -0.50386215  -1.00772430  -0.14785245  1
  Li  Li32  1  -0.50386215  0.50386215  -0.14785245  1
  Li  Li33  1  -1.00772430  -0.50386215  0.35214755  1
  Li  Li34  1  0.50386215  1.00772430  0.35214755  1
  Li  Li35  1  0.50386215  -0.50386215  0.35214755  1
  Li  Li36  1  0.69072875  0.00000000  -0.00000000  1
  Li  Li37  1  0.00000000  0.69072875  -0.00000000  1
  Li  Li38  1  0.30927125  0.30927125  -0.00000000  1
  Li  Li39  1  0.30927125  0.00000000  0.50000000  1
  Li  Li40  1  0.00000000  0.30927125  0.50000000  1
  Li  Li41  1  0.69072875  0.69072875  0.50000000  1
  Li  Li42  1  0.30927125  0.00000000  -0.00000000  1
  Li  Li43  1  0.00000000  0.30927125  -0.00000000  1
  Li  Li44  1  0.69072875  0.69072875  -0.00000000  1
  Li  Li45  1  0.69072875  0.00000000  0.50000000  1
  Li  Li46  1  0.00000000  0.69072875  0.50000000  1
  Li  Li47  1  0.30927125  0.30927125  0.50000000  1
