# generated using pymatgen
data_Li2O
_symmetry_space_group_name_H-M   'P 1'
_cell_length_a   8.38853424
_cell_length_b   8.38853424
_cell_length_c   18.59226740
_cell_angle_alpha   90.00000000
_cell_angle_beta   90.00000000
_cell_angle_gamma   120.00000000
_symmetry_Int_Tables_number   1
_chemical_formula_structural   Li2O
_chemical_formula_sum   'Li72 O36'
_cell_volume   1133.01367557
_cell_formula_units_Z   36
loop_
 _symmetry_equiv_pos_site_id
 _symmetry_equiv_pos_as_xyz
  1  'x, y, z'
loop_
 _atom_site_type_symbol
 _atom_site_label
 _atom_site_symmetry_multiplicity
 _atom_site_fract_x
 _atom_site_fract_y
 _atom_site_fract_z
 _atom_site_occupancy
  Li  Li0  1  0.00000000  0.00000000  0.50000000  1
  Li  Li1  1  0.66666667  0.33333333  0.83333333  1
  Li  Li2  1  0.33333333  0.66666667  0.16666667  1
  Li  Li3  1  0.08704467  0.91295533  0.29023853  1
  Li  Li4  1  0.08704467  0.17408933  0.29023853  1
  Li  Li5  1  0.82591067  0.91295533  0.29023853  1
  Li  Li6  1  0.91295533  0.08704467  0.70976147  1
  Li  Li7  1  0.17408933  0.08704467  0.70976147  1
  Li  Li8  1  0.91295533  0.82591067  0.70976147  1
  Li  Li9  1  0.75371133  0.24628867  0.62357186  1
  Li  Li10  1  0.75371133  0.50742266  0.62357186  1
  Li  Li11  1  0.49257734  0.24628867  0.62357186  1
  Li  Li12  1  0.57962200  0.42037800  0.04309481  1
  Li  Li13  1  0.84075600  0.42037800  0.04309481  1
  Li  Li14  1  0.57962200  0.15924400  0.04309481  1
  Li  Li15  1  0.42037800  0.57962200  0.95690519  1
  Li  Li16  1  0.42037800  0.84075600  0.95690519  1
  Li  Li17  1  0.15924400  0.57962200  0.95690519  1
  Li  Li18  1  0.24628867  0.75371133  0.37642814  1
  Li  Li19  1  0.50742266  0.75371133  0.37642814  1
  Li  Li20  1  0.24628867  0.49257734  0.37642814  1
  Li  Li21  1  0.43194237  0.36182687  0.12742755  1
  Li  Li22  1  -0.36182687  0.07011550  0.12742755  1
  Li  Li23  1  -0.07011550  -0.43194237  0.12742755  1
  Li  Li24  1  0.36182687  0.43194237  -0.12742755  1
  Li  Li25  1  0.07011550  -0.36182687  -0.12742755  1
  Li  Li26  1  -0.43194237  -0.07011550  -0.12742755  1
  Li  Li27  1  -0.43194237  -0.36182687  -0.12742755  1
  Li  Li28  1  0.36182687  -0.07011550  -0.12742755  1
  Li  Li29  1  0.07011550  0.43194237  -0.12742755  1
  Li  Li30  1  -0.36182687  -0.43194237  0.12742755  1
  Li  Li31  1  -0.07011550  0.36182687  0.12742755  1
  Li  Li32  1  0.43194237  0.07011550  0.12742755  1
  Li  Li33  1  1.09860904  0.69516020  0.46076088  1
  Li  Li34  1  0.30483980  0.40344884  0.46076088  1
  Li  Li35  1  0.59655116  -0.09860904  0.46076088  1
  Li  Li36  1  1.02849353  0.76527570  0.20590578  1
  Li  Li37  1  0.73678217  -0.02849353  0.20590578  1
  Li  Li38  1  0.23472430  0.26321783  0.20590578  1
  Li  Li39  1  0.23472430  -0.02849353  0.20590578  1
  Li  Li40  1  1.02849353  0.26321783  0.20590578  1
  Li  Li41  1  0.73678217  0.76527570  0.20590578  1
  Li  Li42  1  0.30483980  -0.09860904  0.46076088  1
  Li  Li43  1  0.59655116  0.69516020  0.46076088  1
  Li  Li44  1  1.09860904  0.40344884  0.46076088  1
  Li  Li45  1  0.76527570  1.02849353  0.79409422  1
  Li  Li46  1  -0.02849353  0.73678217  0.79409422  1
  Li  Li47  1  0.26321783  0.23472430  0.79409422  1
  Li  Li48  1  0.69516020  1.09860904  0.53923912  1
  Li  Li49  1  0.40344884  0.30483980  0.53923912  1
  Li  Li50  1  -0.09860904  0.59655116  0.53923912  1
  Li  Li51  1  -0.09860904  0.30483980  0.53923912  1
  Li  Li52  1  0.69516020  0.59655116  0.53923912  1
  Li  Li53  1  0.40344884  1.09860904  0.53923912  1
  Li  Li54  1  -0.02849353  0.23472430  0.79409422  1
  Li  Li55  1  0.26321783  1.02849353  0.79409422  1
  Li  Li56  1  0.76527570  0.73678217  0.79409422  1
  Li  Li57  1  0.50000000  0.00000000  0.50000000  1
  Li  Li58  1  0.00000000  0.50000000  0.50000000  1
  Li  Li59  1  0.50000000  0.50000000  0.50000000  1
  Li  Li60  1  0.16666667  0.33333333  0.83333333  1
  Li  Li61  1  0.66666667  0.83333333  0.83333333  1
  Li  Li62  1  0.16666667  0.83333333  0.83333333  1
  Li  Li63  1  0.83333333  0.66666667  0.16666667  1
  Li  Li64  1  0.33333333  0.16666667  0.16666667  1
  Li  Li65  1  0.83333333  0.16666667  0.16666667  1
  Li  Li66  1  0.00000000  0.00000000  0.67894455  1
  Li  Li67  1  0.00000000  0.00000000  0.32105545  1
  Li  Li68  1  0.66666667  0.33333333  0.01227789  1
  Li  Li69  1  0.66666667  0.33333333  0.65438878  1
  Li  Li70  1  0.33333333  0.66666667  0.34561122  1
  Li  Li71  1  0.33333333  0.66666667  0.98772211  1
  O  O72  1  0.22965917  0.77034083  0.94080376  1
  O  O73  1  0.22965917  0.45931833  0.94080376  1
  O  O74  1  0.54068167  0.77034083  0.94080376  1
  O  O75  1  0.77034083  0.22965917  0.05919624  1
  O  O76  1  0.45931833  0.22965917  0.05919624  1
  O  O77  1  0.77034083  0.54068167  0.05919624  1
  O  O78  1  0.89632583  0.10367417  0.27413709  1
  O  O79  1  0.89632583  0.79265167  0.27413709  1
  O  O80  1  0.20734833  0.10367417  0.27413709  1
  O  O81  1  0.43700750  0.56299250  0.39252958  1
  O  O82  1  0.12598500  0.56299250  0.39252958  1
  O  O83  1  0.43700750  0.87401500  0.39252958  1
  O  O84  1  0.56299250  0.43700750  0.60747042  1
  O  O85  1  0.56299250  0.12598500  0.60747042  1
  O  O86  1  0.87401500  0.43700750  0.60747042  1
  O  O87  1  0.10367417  0.89632583  0.72586291  1
  O  O88  1  0.79265167  0.89632583  0.72586291  1
  O  O89  1  0.10367417  0.20734833  0.72586291  1
  O  O90  1  0.96478284  0.03521716  0.74844875  1
  O  O91  1  0.96478284  0.92956569  0.74844875  1
  O  O92  1  0.07043431  0.03521716  0.74844875  1
  O  O93  1  0.03521716  0.96478284  0.25155125  1
  O  O94  1  0.92956569  0.96478284  0.25155125  1
  O  O95  1  0.03521716  0.07043431  0.25155125  1
  O  O96  1  0.63144951  0.36855049  0.08178209  1
  O  O97  1  0.63144951  0.26289902  0.08178209  1
  O  O98  1  0.73710098  0.36855049  0.08178209  1
  O  O99  1  0.70188382  0.29811618  0.58488458  1
  O  O100  1  0.59623235  0.29811618  0.58488458  1
  O  O101  1  0.70188382  0.40376765  0.58488458  1
  O  O102  1  0.29811618  0.70188382  0.41511542  1
  O  O103  1  0.29811618  0.59623235  0.41511542  1
  O  O104  1  0.40376765  0.70188382  0.41511542  1
  O  O105  1  0.36855049  0.63144951  0.91821791  1
  O  O106  1  0.26289902  0.63144951  0.91821791  1
  O  O107  1  0.36855049  0.73710098  0.91821791  1
