# generated using pymatgen
data_Li2O
_symmetry_space_group_name_H-M   'P 1'
_cell_length_a   7.61567709
_cell_length_b   7.61567709
_cell_length_c   5.81975235
_cell_angle_alpha   90.00000000
_cell_angle_beta   90.00000000
_cell_angle_gamma   90.00000000
_symmetry_Int_Tables_number   1
_chemical_formula_structural   Li2O
_chemical_formula_sum   'Li16 O8'
_cell_volume   337.53712520
_cell_formula_units_Z   8
loop_
 _symmetry_equiv_pos_site_id
 _symmetry_equiv_pos_as_xyz
  1  'x, y, z'
loop_
 _atom_site_type_symbol
 _atom_site_label
 _atom_site_symmetry_multiplicity
 _atom_site_fract_x
 _atom_site_fract_y
 _atom_site_fract_z
 _atom_site_occupancy
  Li  Li0  1  0.29673743  0.54673743  0.12500000  1
  Li  Li1  1  0.20326257  0.45326257  0.62500000  1
  Li  Li2  1  -0.29673743  1.04673743  0.37500000  1
  Li  Li3  1  0.79673743  -0.04673743  0.87500000  1
  Li  Li4  1  -0.29673743  0.45326257  0.87500000  1
  Li  Li5  1  0.79673743  0.54673743  0.37500000  1
  Li  Li6  1  0.29673743  -0.04673743  0.62500000  1
  Li  Li7  1  0.20326257  1.04673743  0.12500000  1
  Li  Li8  1  0.79673743  1.04673743  0.62500000  1
  Li  Li9  1  0.70326257  0.95326257  1.12500000  1
  Li  Li10  1  0.20326257  1.54673743  0.87500000  1
  Li  Li11  1  1.29673743  0.45326257  1.37500000  1
  Li  Li12  1  0.20326257  0.95326257  1.37500000  1
  Li  Li13  1  1.29673743  1.04673743  0.87500000  1
  Li  Li14  1  0.79673743  0.45326257  1.12500000  1
  Li  Li15  1  0.70326257  1.54673743  0.62500000  1
  O  O16  1  0.00000000  0.25000000  0.37500000  1
  O  O17  1  0.00000000  0.75000000  0.62500000  1
  O  O18  1  0.50000000  0.25000000  0.62500000  1
  O  O19  1  0.50000000  0.75000000  0.37500000  1
  O  O20  1  0.50000000  0.75000000  0.87500000  1
  O  O21  1  0.50000000  0.25000000  0.12500000  1
  O  O22  1  0.00000000  0.75000000  0.12500000  1
  O  O23  1  0.00000000  0.25000000  0.87500000  1
