# generated using pymatgen
data_Li3La2N4O3
_symmetry_space_group_name_H-M   'P 1'
_cell_length_a   7.60798990
_cell_length_b   7.62520903
_cell_length_c   8.53319425
_cell_angle_alpha   90.00000000
_cell_angle_beta   90.00000000
_cell_angle_gamma   90.00000000
_symmetry_Int_Tables_number   1
_chemical_formula_structural   Li3La2N4O3
_chemical_formula_sum   'Li3 La2 N4 O3'
_cell_volume   495.03204502
_cell_formula_units_Z   1
loop_
 _symmetry_equiv_pos_site_id
 _symmetry_equiv_pos_as_xyz
  1  'x, y, z'
loop_
 _atom_site_type_symbol
 _atom_site_label
 _atom_site_symmetry_multiplicity
 _atom_site_fract_x
 _atom_site_fract_y
 _atom_site_fract_z
 _atom_site_occupancy
  Li  Li0  1  0.12500000  0.12500000  0.12500000  1
  Li  Li1  1  0.50000000  0.50000000  0.50000000  1
  Li  Li2  1  0.25000000  0.25000000  0.25000000  1
  La  La3  1  0.75000000  0.75000000  0.75000000  1
  La  La4  1  0.05314662  0.15927912  0.65674612  1
  N  N5  1  0.02711685  0.00725761  0.79783239  1
  N  N6  1  0.23089129  0.32231069  0.22049066  1
  N  N7  1  0.53108882  0.01506241  0.50980317  1
  N  N8  1  0.39049922  0.71446823  0.14703363  1
  O  O9  1  0.65680835  0.22267053  0.49185395  1
  O  O10  1  0.47835202  0.27704131  0.43801835  1
  O  O11  1  0.99798955  0.86206522  0.94036896  1
