# generated using pymatgen
data_Li2S
_symmetry_space_group_name_H-M   'P 1'
_cell_length_a   8.14251765
_cell_length_b   8.14251765
_cell_length_c   5.47638986
_cell_angle_alpha   90.00000000
_cell_angle_beta   90.00000000
_cell_angle_gamma   120.00000000
_symmetry_Int_Tables_number   1
_chemical_formula_structural   Li2S
_chemical_formula_sum   'Li12 S6'
_cell_volume   314.44334454
_cell_formula_units_Z   6
loop_
 _symmetry_equiv_pos_site_id
 _symmetry_equiv_pos_as_xyz
  1  'x, y, z'
loop_
 _atom_site_type_symbol
 _atom_site_label
 _atom_site_symmetry_multiplicity
 _atom_site_fract_x
 _atom_site_fract_y
 _atom_site_fract_z
 _atom_site_occupancy
  Li  Li0  1  0.52518547  0.13832351  0.25000000  1
  Li  Li1  1  0.86167649  0.38686196  0.25000000  1
  Li  Li2  1  0.61313804  0.47481453  0.25000000  1
  Li  Li3  1  0.47481453  0.86167649  0.75000000  1
  Li  Li4  1  0.13832351  0.61313804  0.75000000  1
  Li  Li5  1  0.38686196  0.52518547  0.75000000  1
  Li  Li6  1  0.50000000  0.00000000  0.00000000  1
  Li  Li7  1  0.00000000  0.50000000  -0.00000000  1
  Li  Li8  1  0.50000000  0.50000000  0.00000000  1
  Li  Li9  1  0.50000000  0.00000000  0.50000000  1
  Li  Li10  1  0.00000000  0.50000000  0.50000000  1
  Li  Li11  1  0.50000000  0.50000000  0.50000000  1
  S  S12  1  0.42508685  0.50854287  0.25000000  1
  S  S13  1  -0.50854287  -0.08345602  0.25000000  1
  S  S14  1  0.08345602  -0.42508685  0.25000000  1
  S  S15  1  -0.42508685  -0.50854287  0.75000000  1
  S  S16  1  0.50854287  0.08345602  0.75000000  1
  S  S17  1  -0.08345602  0.42508685  0.75000000  1
