# generated using pymatgen
data_Li2TiTe2Se
_symmetry_space_group_name_H-M   'P 1'
_cell_length_a   9.81140128
_cell_length_b   9.81140128
_cell_length_c   11.64739428
_cell_angle_alpha   90.00000000
_cell_angle_beta   90.00000000
_cell_angle_gamma   120.00000000
_symmetry_Int_Tables_number   1
_chemical_formula_structural   Li2TiTe2Se
_chemical_formula_sum   'Li12 Ti6 Te12 Se6'
_cell_volume   971.00504237
_cell_formula_units_Z   6
loop_
 _symmetry_equiv_pos_site_id
 _symmetry_equiv_pos_as_xyz
  1  'x, y, z'
loop_
 _atom_site_type_symbol
 _atom_site_label
 _atom_site_symmetry_multiplicity
 _atom_site_fract_x
 _atom_site_fract_y
 _atom_site_fract_z
 _atom_site_occupancy
  Li  Li0  1  0.33333333  0.66666667  0.59504276  1
  Li  Li1  1  0.66666667  0.33333333  0.09504276  1
  Li  Li2  1  0.66666667  0.33333333  0.40495724  1
  Li  Li3  1  0.33333333  0.66666667  0.90495724  1
  Li  Li4  1  0.50000000  0.00000000  0.00000000  1
  Li  Li5  1  0.00000000  0.50000000  0.00000000  1
  Li  Li6  1  0.50000000  0.50000000  0.00000000  1
  Li  Li7  1  0.50000000  0.00000000  0.50000000  1
  Li  Li8  1  0.00000000  0.50000000  0.50000000  1
  Li  Li9  1  0.50000000  0.50000000  0.50000000  1
  Li  Li10  1  0.00000000  0.00000000  0.25000000  1
  Li  Li11  1  0.00000000  0.00000000  0.75000000  1
  Se  Se12  1  0.61518736  0.84566584  0.25000000  1
  Se  Se13  1  0.15433416  0.76952152  0.25000000  1
  Se  Se14  1  0.23047848  0.38481264  0.25000000  1
  Se  Se15  1  0.38481264  0.15433416  0.75000000  1
  Se  Se16  1  0.84566584  0.23047848  0.75000000  1
  Se  Se17  1  0.76952152  0.61518736  0.75000000  1
  Te  Te18  1  0.79150758  0.47137689  0.98336654  1
  Te  Te19  1  -0.47137689  0.32013069  0.98336654  1
  Te  Te20  1  -0.32013069  -0.79150758  0.98336654  1
  Te  Te21  1  -0.79150758  -0.47137689  1.48336654  1
  Te  Te22  1  0.47137689  -0.32013069  1.48336654  1
  Te  Te23  1  0.32013069  0.79150758  1.48336654  1
  Te  Te24  1  -0.79150758  -0.47137689  -0.98336654  1
  Te  Te25  1  0.47137689  -0.32013069  -0.98336654  1
  Te  Te26  1  0.32013069  0.79150758  -0.98336654  1
  Te  Te27  1  0.79150758  0.47137689  -0.48336654  1
  Te  Te28  1  -0.47137689  0.32013069  -0.48336654  1
  Te  Te29  1  -0.32013069  -0.79150758  -0.48336654  1
  Ti  Ti30  1  0.33333333  0.66666667  0.25000000  1
  Ti  Ti31  1  0.66666667  0.33333333  0.75000000  1
  Ti  Ti32  1  0.66666667  0.33333333  0.25000000  1
  Ti  Ti33  1  0.33333333  0.66666667  0.75000000  1
  Ti  Ti34  1  0.00000000  0.00000000  0.00000000  1
  Ti  Ti35  1  0.00000000  0.00000000  0.50000000  1
