# generated using pymatgen
data_LiBr
_symmetry_space_group_name_H-M   'P 1'
_cell_length_a   5.57061387
_cell_length_b   8.01309501
_cell_length_c   7.11486565
_cell_angle_alpha   90.00000000
_cell_angle_beta   90.00000000
_cell_angle_gamma   90.00000000
_symmetry_Int_Tables_number   1
_chemical_formula_structural   LiBr
_chemical_formula_sum   'Li8 Br8'
_cell_volume   317.59236442
_cell_formula_units_Z   8
loop_
 _symmetry_equiv_pos_site_id
 _symmetry_equiv_pos_as_xyz
  1  'x, y, z'
loop_
 _atom_site_type_symbol
 _atom_site_label
 _atom_site_symmetry_multiplicity
 _atom_site_fract_x
 _atom_site_fract_y
 _atom_site_fract_z
 _atom_site_occupancy
  Br  Br0  1  0.14165315  0.20367286  0.00000000  1
  Br  Br1  1  -0.14165315  -0.20367286  0.00000000  1
  Br  Br2  1  0.35834685  0.70367286  0.50000000  1
  Br  Br3  1  0.64165315  0.29632714  0.50000000  1
  Br  Br4  1  0.00000000  0.00000000  0.00000000  1
  Br  Br5  1  0.50000000  0.50000000  0.50000000  1
  Br  Br6  1  0.00000000  0.50000000  0.50000000  1
  Br  Br7  1  0.50000000  0.00000000  0.00000000  1
  Li  Li8  1  0.26645040  0.65769800  0.00000000  1
  Li  Li9  1  0.73354960  0.34230200  -0.00000000  1
  Li  Li10  1  0.23354960  0.15769800  0.50000000  1
  Li  Li11  1  0.76645040  0.84230200  0.50000000  1
  Li  Li12  1  0.00000000  0.00000000  0.68405281  1
  Li  Li13  1  0.50000000  0.50000000  0.81594719  1
  Li  Li14  1  0.00000000  0.00000000  0.31594719  1
  Li  Li15  1  0.50000000  0.50000000  0.18405281  1
