# generated using pymatgen
data_Na2SrLi2Mg8S3F16
_symmetry_space_group_name_H-M   'P 1'
_cell_length_a   12.84258134
_cell_length_b   12.84258134
_cell_length_c   9.86549860
_cell_angle_alpha   90.00000000
_cell_angle_beta   90.00000000
_cell_angle_gamma   90.00000000
_symmetry_Int_Tables_number   1
_chemical_formula_structural   Na2SrLi2Mg8S3F16
_chemical_formula_sum   'Na8 Sr4 Li8 Mg32 S12 F64'
_cell_volume   1627.13538236
_cell_formula_units_Z   4
loop_
 _symmetry_equiv_pos_site_id
 _symmetry_equiv_pos_as_xyz
  1  'x, y, z'
loop_
 _atom_site_type_symbol
 _atom_site_label
 _atom_site_symmetry_multiplicity
 _atom_site_fract_x
 _atom_site_fract_y
 _atom_site_fract_z
 _atom_site_occupancy
  F  F0  1  0.27518766  0.37722692  0.09311771  1
  F  F1  1  0.22481234  0.62277308  0.59311771  1
  F  F2  1  0.87277308  0.02518766  0.34311771  1
  F  F3  1  0.62722692  0.97481234  0.84311771  1
  F  F4  1  0.22481234  0.37722692  0.40688229  1
  F  F5  1  0.27518766  0.62277308  0.90688229  1
  F  F6  1  0.62722692  0.02518766  0.15688229  1
  F  F7  1  0.87277308  0.97481234  0.65688229  1
  F  F8  1  0.72481234  0.62277308  0.90688229  1
  F  F9  1  0.77518766  0.37722692  0.40688229  1
  F  F10  1  0.12722692  0.97481234  0.65688229  1
  F  F11  1  0.37277308  0.02518766  0.15688229  1
  F  F12  1  0.77518766  0.62277308  0.59311771  1
  F  F13  1  0.72481234  0.37722692  0.09311771  1
  F  F14  1  0.37277308  0.97481234  0.84311771  1
  F  F15  1  0.12722692  0.02518766  0.34311771  1
  F  F16  1  0.77518766  0.87722692  0.59311771  1
  F  F17  1  0.72481234  0.12277308  0.09311771  1
  F  F18  1  0.37277308  0.52518766  0.84311771  1
  F  F19  1  0.12722692  0.47481234  0.34311771  1
  F  F20  1  0.72481234  0.87722692  0.90688229  1
  F  F21  1  0.77518766  0.12277308  0.40688229  1
  F  F22  1  0.12722692  0.52518766  0.65688229  1
  F  F23  1  0.37277308  0.47481234  0.15688229  1
  F  F24  1  0.22481234  0.12277308  0.40688229  1
  F  F25  1  0.27518766  0.87722692  0.90688229  1
  F  F26  1  0.62722692  0.47481234  0.15688229  1
  F  F27  1  0.87277308  0.52518766  0.65688229  1
  F  F28  1  0.27518766  0.12277308  0.09311771  1
  F  F29  1  0.22481234  0.87722692  0.59311771  1
  F  F30  1  0.87277308  0.47481234  0.34311771  1
  F  F31  1  0.62722692  0.52518766  0.84311771  1
  F  F32  1  0.00000000  0.51394168  0.33004236  1
  F  F33  1  0.50000000  0.48605832  0.83004236  1
  F  F34  1  0.73605832  0.75000000  0.58004236  1
  F  F35  1  0.76394168  0.25000000  0.08004236  1
  F  F36  1  0.50000000  0.51394168  0.16995764  1
  F  F37  1  0.00000000  0.48605832  0.66995764  1
  F  F38  1  0.76394168  0.75000000  0.91995764  1
  F  F39  1  0.73605832  0.25000000  0.41995764  1
  F  F40  1  0.50000000  0.01394168  0.83004236  1
  F  F41  1  0.00000000  0.98605832  0.33004236  1
  F  F42  1  0.23605832  0.25000000  0.08004236  1
  F  F43  1  0.26394168  0.75000000  0.58004236  1
  F  F44  1  0.00000000  0.01394168  0.66995764  1
  F  F45  1  0.50000000  0.98605832  0.16995764  1
  F  F46  1  0.26394168  0.25000000  0.41995764  1
  F  F47  1  0.23605832  0.75000000  0.91995764  1
  F  F48  1  0.00000000  0.63692334  0.45548239  1
  F  F49  1  0.50000000  0.36307666  0.95548239  1
  F  F50  1  0.61307666  0.75000000  0.70548239  1
  F  F51  1  0.88692334  0.25000000  0.20548239  1
  F  F52  1  0.50000000  0.63692334  0.04451761  1
  F  F53  1  0.00000000  0.36307666  0.54451761  1
  F  F54  1  0.88692334  0.75000000  0.79451761  1
  F  F55  1  0.61307666  0.25000000  0.29451761  1
  F  F56  1  0.50000000  0.13692334  0.95548239  1
  F  F57  1  0.00000000  0.86307666  0.45548239  1
  F  F58  1  0.11307666  0.25000000  0.20548239  1
  F  F59  1  0.38692334  0.75000000  0.70548239  1
  F  F60  1  0.00000000  0.13692334  0.54451761  1
  F  F61  1  0.50000000  0.86307666  0.04451761  1
  F  F62  1  0.38692334  0.25000000  0.29451761  1
  F  F63  1  0.11307666  0.75000000  0.79451761  1
  Li  Li64  1  0.00000000  0.00000000  0.50000000  1
  Li  Li65  1  0.50000000  0.00000000  0.00000000  1
  Li  Li66  1  0.25000000  0.75000000  0.75000000  1
  Li  Li67  1  0.25000000  0.25000000  0.25000000  1
  Li  Li68  1  0.50000000  0.50000000  0.00000000  1
  Li  Li69  1  0.00000000  0.50000000  0.50000000  1
  Li  Li70  1  0.75000000  0.25000000  0.25000000  1
  Li  Li71  1  0.75000000  0.75000000  0.75000000  1
  Mg  Mg72  1  0.40931368  0.42702078  0.76769078  1
  Mg  Mg73  1  0.09068632  -0.42702078  1.26769078  1
  Mg  Mg74  1  -0.17702078  1.15931368  1.01769078  1
  Mg  Mg75  1  0.67702078  -0.15931368  1.51769078  1
  Mg  Mg76  1  0.09068632  0.42702078  -0.26769078  1
  Mg  Mg77  1  0.40931368  -0.42702078  -0.76769078  1
  Mg  Mg78  1  0.67702078  1.15931368  -0.51769078  1
  Mg  Mg79  1  -0.17702078  -0.15931368  -0.01769078  1
  Mg  Mg80  1  -0.40931368  -0.42702078  -0.76769078  1
  Mg  Mg81  1  0.90931368  0.42702078  -0.26769078  1
  Mg  Mg82  1  1.17702078  -0.15931368  -0.01769078  1
  Mg  Mg83  1  0.32297922  1.15931368  -0.51769078  1
  Mg  Mg84  1  0.90931368  -0.42702078  1.26769078  1
  Mg  Mg85  1  -0.40931368  0.42702078  0.76769078  1
  Mg  Mg86  1  0.32297922  -0.15931368  1.51769078  1
  Mg  Mg87  1  1.17702078  1.15931368  1.01769078  1
  Mg  Mg88  1  0.90931368  0.92702078  1.26769078  1
  Mg  Mg89  1  0.59068632  0.07297922  1.76769078  1
  Mg  Mg90  1  0.32297922  1.65931368  1.51769078  1
  Mg  Mg91  1  1.17702078  0.34068632  2.01769078  1
  Mg  Mg92  1  0.59068632  0.92702078  0.23230922  1
  Mg  Mg93  1  0.90931368  0.07297922  -0.26769078  1
  Mg  Mg94  1  1.17702078  1.65931368  -0.01769078  1
  Mg  Mg95  1  0.32297922  0.34068632  0.48230922  1
  Mg  Mg96  1  0.09068632  0.07297922  -0.26769078  1
  Mg  Mg97  1  1.40931368  0.92702078  0.23230922  1
  Mg  Mg98  1  1.67702078  0.34068632  0.48230922  1
  Mg  Mg99  1  0.82297922  1.65931368  -0.01769078  1
  Mg  Mg100  1  1.40931368  0.07297922  1.76769078  1
  Mg  Mg101  1  0.09068632  0.92702078  1.26769078  1
  Mg  Mg102  1  0.82297922  0.34068632  2.01769078  1
  Mg  Mg103  1  1.67702078  1.65931368  1.51769078  1
  Na  Na104  1  0.00000000  0.00000000  0.00000000  1
  Na  Na105  1  0.50000000  0.00000000  0.50000000  1
  Na  Na106  1  0.25000000  0.75000000  0.25000000  1
  Na  Na107  1  0.25000000  0.25000000  0.75000000  1
  Na  Na108  1  0.50000000  0.50000000  0.50000000  1
  Na  Na109  1  0.00000000  0.50000000  0.00000000  1
  Na  Na110  1  0.75000000  0.25000000  0.75000000  1
  Na  Na111  1  0.75000000  0.75000000  0.25000000  1
  S  S112  1  0.00000000  0.25000000  0.00251667  1
  S  S113  1  0.00000000  0.75000000  0.25251667  1
  S  S114  1  0.50000000  0.25000000  0.49748333  1
  S  S115  1  0.50000000  0.75000000  0.24748333  1
  S  S116  1  0.50000000  0.75000000  0.50251667  1
  S  S117  1  0.50000000  0.25000000  0.75251667  1
  S  S118  1  0.00000000  0.75000000  0.99748333  1
  S  S119  1  0.00000000  0.25000000  0.74748333  1
  S  S120  1  0.00000000  0.75000000  0.12500000  1
  S  S121  1  0.50000000  0.75000000  0.37500000  1
  S  S122  1  0.50000000  0.25000000  0.62500000  1
  S  S123  1  0.00000000  0.25000000  0.87500000  1
  Sr  Sr124  1  0.00000000  0.25000000  0.37500000  1
  Sr  Sr125  1  0.00000000  0.75000000  0.62500000  1
  Sr  Sr126  1  0.50000000  0.75000000  0.87500000  1
  Sr  Sr127  1  0.50000000  0.25000000  0.12500000  1
