# generated using pymatgen
data_K4SiSe3F2
_symmetry_space_group_name_H-M   'P 1'
_cell_length_a   16.02199588
_cell_length_b   16.02199588
_cell_length_c   16.02199588
_cell_angle_alpha   90.00000000
_cell_angle_beta   90.00000000
_cell_angle_gamma   90.00000000
_symmetry_Int_Tables_number   1
_chemical_formula_structural   K4SiSe3F2
_chemical_formula_sum   'K64 Si16 Se48 F32'
_cell_volume   4112.91607354
_cell_formula_units_Z   16
loop_
 _symmetry_equiv_pos_site_id
 _symmetry_equiv_pos_as_xyz
  1  'x, y, z'
loop_
 _atom_site_type_symbol
 _atom_site_label
 _atom_site_symmetry_multiplicity
 _atom_site_fract_x
 _atom_site_fract_y
 _atom_site_fract_z
 _atom_site_occupancy
  F  F0  1  0.90875312  0.25000000  0.25000000  1
  F  F1  1  0.09124688  0.75000000  0.25000000  1
  F  F2  1  0.25000000  0.90875312  0.25000000  1
  F  F3  1  0.25000000  0.09124688  0.75000000  1
  F  F4  1  0.25000000  0.25000000  0.90875312  1
  F  F5  1  0.75000000  0.25000000  0.09124688  1
  F  F6  1  0.90875312  0.75000000  0.75000000  1
  F  F7  1  0.09124688  0.25000000  0.75000000  1
  F  F8  1  0.25000000  0.40875312  0.75000000  1
  F  F9  1  0.25000000  0.59124688  0.25000000  1
  F  F10  1  0.25000000  0.75000000  0.40875312  1
  F  F11  1  0.75000000  0.75000000  0.59124688  1
  F  F12  1  0.40875312  0.25000000  0.75000000  1
  F  F13  1  0.59124688  0.75000000  0.75000000  1
  F  F14  1  0.75000000  0.90875312  0.75000000  1
  F  F15  1  0.75000000  0.09124688  0.25000000  1
  F  F16  1  0.75000000  0.25000000  0.40875312  1
  F  F17  1  0.25000000  0.25000000  0.59124688  1
  F  F18  1  0.40875312  0.75000000  0.25000000  1
  F  F19  1  0.59124688  0.25000000  0.25000000  1
  F  F20  1  0.75000000  0.40875312  0.25000000  1
  F  F21  1  0.75000000  0.59124688  0.75000000  1
  F  F22  1  0.75000000  0.75000000  0.90875312  1
  F  F23  1  0.25000000  0.75000000  0.09124688  1
  F  F24  1  0.75000000  0.75000000  0.75000000  1
  F  F25  1  0.75000000  0.25000000  0.25000000  1
  F  F26  1  0.25000000  0.75000000  0.25000000  1
  F  F27  1  0.25000000  0.25000000  0.75000000  1
  F  F28  1  0.50000000  0.50000000  0.50000000  1
  F  F29  1  0.50000000  0.00000000  0.00000000  1
  F  F30  1  0.00000000  0.50000000  0.00000000  1
  F  F31  1  0.00000000  0.00000000  0.50000000  1
  K  K32  1  0.41784381  0.41784381  0.28186897  1
  K  K33  1  -0.41784381  -0.41784381  0.28186897  1
  K  K34  1  -0.41784381  0.41784381  -0.28186897  1
  K  K35  1  0.41784381  -0.41784381  -0.28186897  1
  K  K36  1  0.28186897  0.41784381  0.41784381  1
  K  K37  1  0.28186897  -0.41784381  -0.41784381  1
  K  K38  1  -0.28186897  -0.41784381  0.41784381  1
  K  K39  1  -0.28186897  0.41784381  -0.41784381  1
  K  K40  1  0.41784381  0.28186897  0.41784381  1
  K  K41  1  -0.41784381  0.28186897  -0.41784381  1
  K  K42  1  0.41784381  -0.28186897  -0.41784381  1
  K  K43  1  -0.41784381  -0.28186897  0.41784381  1
  K  K44  1  0.41784381  0.91784381  0.78186897  1
  K  K45  1  -0.41784381  0.08215619  0.78186897  1
  K  K46  1  -0.41784381  0.91784381  0.21813103  1
  K  K47  1  0.41784381  0.08215619  0.21813103  1
  K  K48  1  0.28186897  0.91784381  0.91784381  1
  K  K49  1  0.28186897  0.08215619  0.08215619  1
  K  K50  1  -0.28186897  0.08215619  0.91784381  1
  K  K51  1  -0.28186897  0.91784381  0.08215619  1
  K  K52  1  0.41784381  0.78186897  0.91784381  1
  K  K53  1  -0.41784381  0.78186897  0.08215619  1
  K  K54  1  0.41784381  0.21813103  0.08215619  1
  K  K55  1  -0.41784381  0.21813103  0.91784381  1
  K  K56  1  0.91784381  0.41784381  0.78186897  1
  K  K57  1  0.08215619  -0.41784381  0.78186897  1
  K  K58  1  0.08215619  0.41784381  0.21813103  1
  K  K59  1  0.91784381  -0.41784381  0.21813103  1
  K  K60  1  0.78186897  0.41784381  0.91784381  1
  K  K61  1  0.78186897  -0.41784381  0.08215619  1
  K  K62  1  0.21813103  -0.41784381  0.91784381  1
  K  K63  1  0.21813103  0.41784381  0.08215619  1
  K  K64  1  0.91784381  0.28186897  0.91784381  1
  K  K65  1  0.08215619  0.28186897  0.08215619  1
  K  K66  1  0.91784381  -0.28186897  0.08215619  1
  K  K67  1  0.08215619  -0.28186897  0.91784381  1
  K  K68  1  0.91784381  0.91784381  0.28186897  1
  K  K69  1  0.08215619  0.08215619  0.28186897  1
  K  K70  1  0.08215619  0.91784381  -0.28186897  1
  K  K71  1  0.91784381  0.08215619  -0.28186897  1
  K  K72  1  0.78186897  0.91784381  0.41784381  1
  K  K73  1  0.78186897  0.08215619  -0.41784381  1
  K  K74  1  0.21813103  0.08215619  0.41784381  1
  K  K75  1  0.21813103  0.91784381  -0.41784381  1
  K  K76  1  0.91784381  0.78186897  0.41784381  1
  K  K77  1  0.08215619  0.78186897  -0.41784381  1
  K  K78  1  0.91784381  0.21813103  -0.41784381  1
  K  K79  1  0.08215619  0.21813103  0.41784381  1
  K  K80  1  0.14959957  0.14959957  0.14959957  1
  K  K81  1  0.85040043  0.85040043  0.14959957  1
  K  K82  1  0.85040043  0.14959957  0.85040043  1
  K  K83  1  0.14959957  0.85040043  0.85040043  1
  K  K84  1  0.14959957  0.64959957  0.64959957  1
  K  K85  1  0.85040043  0.35040043  0.64959957  1
  K  K86  1  0.85040043  0.64959957  0.35040043  1
  K  K87  1  0.14959957  0.35040043  0.35040043  1
  K  K88  1  0.64959957  0.14959957  0.64959957  1
  K  K89  1  0.35040043  0.85040043  0.64959957  1
  K  K90  1  0.35040043  0.14959957  0.35040043  1
  K  K91  1  0.64959957  0.85040043  0.35040043  1
  K  K92  1  0.64959957  0.64959957  0.14959957  1
  K  K93  1  0.35040043  0.35040043  0.14959957  1
  K  K94  1  0.35040043  0.64959957  0.85040043  1
  K  K95  1  0.64959957  0.35040043  0.85040043  1
  Se  Se96  1  0.48271491  0.25000000  0.25000000  1
  Se  Se97  1  0.51728509  0.75000000  0.25000000  1
  Se  Se98  1  0.25000000  0.48271491  0.25000000  1
  Se  Se99  1  0.25000000  0.51728509  0.75000000  1
  Se  Se100  1  0.25000000  0.25000000  0.48271491  1
  Se  Se101  1  0.75000000  0.25000000  0.51728509  1
  Se  Se102  1  0.48271491  0.75000000  0.75000000  1
  Se  Se103  1  0.51728509  0.25000000  0.75000000  1
  Se  Se104  1  0.25000000  0.98271491  0.75000000  1
  Se  Se105  1  0.25000000  0.01728509  0.25000000  1
  Se  Se106  1  0.25000000  0.75000000  0.98271491  1
  Se  Se107  1  0.75000000  0.75000000  0.01728509  1
  Se  Se108  1  0.98271491  0.25000000  0.75000000  1
  Se  Se109  1  0.01728509  0.75000000  0.75000000  1
  Se  Se110  1  0.75000000  0.48271491  0.75000000  1
  Se  Se111  1  0.75000000  0.51728509  0.25000000  1
  Se  Se112  1  0.75000000  0.25000000  0.98271491  1
  Se  Se113  1  0.25000000  0.25000000  0.01728509  1
  Se  Se114  1  0.98271491  0.75000000  0.25000000  1
  Se  Se115  1  0.01728509  0.25000000  0.25000000  1
  Se  Se116  1  0.75000000  0.98271491  0.25000000  1
  Se  Se117  1  0.75000000  0.01728509  0.75000000  1
  Se  Se118  1  0.75000000  0.75000000  0.48271491  1
  Se  Se119  1  0.25000000  0.75000000  0.51728509  1
  Se  Se120  1  0.34359061  0.25000000  0.25000000  1
  Se  Se121  1  0.65640939  0.75000000  0.25000000  1
  Se  Se122  1  0.25000000  0.34359061  0.25000000  1
  Se  Se123  1  0.25000000  0.65640939  0.75000000  1
  Se  Se124  1  0.25000000  0.25000000  0.34359061  1
  Se  Se125  1  0.75000000  0.25000000  0.65640939  1
  Se  Se126  1  0.34359061  0.75000000  0.75000000  1
  Se  Se127  1  0.65640939  0.25000000  0.75000000  1
  Se  Se128  1  0.25000000  0.84359061  0.75000000  1
  Se  Se129  1  0.25000000  0.15640939  0.25000000  1
  Se  Se130  1  0.25000000  0.75000000  0.84359061  1
  Se  Se131  1  0.75000000  0.75000000  0.15640939  1
  Se  Se132  1  0.84359061  0.25000000  0.75000000  1
  Se  Se133  1  0.15640939  0.75000000  0.75000000  1
  Se  Se134  1  0.75000000  0.34359061  0.75000000  1
  Se  Se135  1  0.75000000  0.65640939  0.25000000  1
  Se  Se136  1  0.75000000  0.25000000  0.84359061  1
  Se  Se137  1  0.25000000  0.25000000  0.15640939  1
  Se  Se138  1  0.84359061  0.75000000  0.25000000  1
  Se  Se139  1  0.15640939  0.25000000  0.25000000  1
  Se  Se140  1  0.75000000  0.84359061  0.25000000  1
  Se  Se141  1  0.75000000  0.15640939  0.75000000  1
  Se  Se142  1  0.75000000  0.75000000  0.34359061  1
  Se  Se143  1  0.25000000  0.75000000  0.65640939  1
  Si  Si144  1  0.93767671  0.93767671  0.93767671  1
  Si  Si145  1  0.06232329  0.06232329  0.93767671  1
  Si  Si146  1  0.06232329  0.93767671  0.06232329  1
  Si  Si147  1  0.93767671  0.06232329  0.06232329  1
  Si  Si148  1  0.93767671  0.43767671  0.43767671  1
  Si  Si149  1  0.06232329  0.56232329  0.43767671  1
  Si  Si150  1  0.06232329  0.43767671  0.56232329  1
  Si  Si151  1  0.93767671  0.56232329  0.56232329  1
  Si  Si152  1  0.43767671  0.93767671  0.43767671  1
  Si  Si153  1  0.56232329  0.06232329  0.43767671  1
  Si  Si154  1  0.56232329  0.93767671  0.56232329  1
  Si  Si155  1  0.43767671  0.06232329  0.56232329  1
  Si  Si156  1  0.43767671  0.43767671  0.93767671  1
  Si  Si157  1  0.56232329  0.56232329  0.93767671  1
  Si  Si158  1  0.56232329  0.43767671  0.06232329  1
  Si  Si159  1  0.43767671  0.56232329  0.06232329  1
