# generated using pymatgen
data_Li3TiO
_symmetry_space_group_name_H-M   'P 1'
_cell_length_a   3.48982225
_cell_length_b   3.16016962
_cell_length_c   5.07034524
_cell_angle_alpha   118.19804481
_cell_angle_beta   113.15015510
_cell_angle_gamma   110.74994423
_symmetry_Int_Tables_number   1
_chemical_formula_structural   Li3TiO
_chemical_formula_sum   'Li3 Ti1 O1'
_cell_volume   33.78344572
_cell_formula_units_Z   1
loop_
 _symmetry_equiv_pos_site_id
 _symmetry_equiv_pos_as_xyz
  1  'x, y, z'
loop_
 _atom_site_type_symbol
 _atom_site_label
 _atom_site_symmetry_multiplicity
 _atom_site_fract_x
 _atom_site_fract_y
 _atom_site_fract_z
 _atom_site_occupancy
  Li  Li0  1  0.00000000  0.00000000  0.00000000  1
  Li  Li1  1  0.33300000  0.66700000  0.25000000  1
  Li  Li2  1  0.66700000  0.33300000  0.50000000  1
  Ti  Ti3  1  0.00000000  0.00000000  0.75000000  1
  O  O4  1  0.57227989  0.31762171  0.73931699  1
