# generated using pymatgen
data_Li6SBr4
_symmetry_space_group_name_H-M   'P 1'
_cell_length_a   6.99551950
_cell_length_b   9.94786218
_cell_length_c   6.24850032
_cell_angle_alpha   90.00000000
_cell_angle_beta   90.00000000
_cell_angle_gamma   90.00000000
_symmetry_Int_Tables_number   1
_chemical_formula_structural   Li6SBr4
_chemical_formula_sum   'Li12 S2 Br8'
_cell_volume   434.83603630
_cell_formula_units_Z   2
loop_
 _symmetry_equiv_pos_site_id
 _symmetry_equiv_pos_as_xyz
  1  'x, y, z'
loop_
 _atom_site_type_symbol
 _atom_site_label
 _atom_site_symmetry_multiplicity
 _atom_site_fract_x
 _atom_site_fract_y
 _atom_site_fract_z
 _atom_site_occupancy
  Br  Br0  1  0.25516671  0.71440800  0.72162984  1
  Br  Br1  1  -0.25516671  -0.71440800  0.72162984  1
  Br  Br2  1  0.24483329  1.21440800  -0.72162984  1
  Br  Br3  1  0.75516671  -0.21440800  -0.72162984  1
  Br  Br4  1  -0.25516671  -0.71440800  -0.72162984  1
  Br  Br5  1  0.25516671  0.71440800  -0.72162984  1
  Br  Br6  1  0.75516671  -0.21440800  0.72162984  1
  Br  Br7  1  0.24483329  1.21440800  0.72162984  1
  Li  Li8  1  0.50471141  0.81171820  0.24397761  1
  Li  Li9  1  0.49528859  0.18828180  0.24397761  1
  Li  Li10  1  0.99528859  0.31171820  0.75602239  1
  Li  Li11  1  0.00471141  0.68828180  0.75602239  1
  Li  Li12  1  0.49528859  0.18828180  0.75602239  1
  Li  Li13  1  0.50471141  0.81171820  0.75602239  1
  Li  Li14  1  0.00471141  0.68828180  0.24397761  1
  Li  Li15  1  0.99528859  0.31171820  0.24397761  1
  Li  Li16  1  0.00000000  0.00000000  0.50000000  1
  Li  Li17  1  0.50000000  0.50000000  0.50000000  1
  Li  Li18  1  0.00000000  0.50000000  0.50000000  1
  Li  Li19  1  0.50000000  0.00000000  0.50000000  1
  S  S20  1  0.00000000  0.00000000  0.00000000  1
  S  S21  1  0.50000000  0.50000000  0.00000000  1
