# generated using pymatgen
data_LiMg3Al2BrO6
_symmetry_space_group_name_H-M   'P 1'
_cell_length_a   12.96469496
_cell_length_b   12.96469496
_cell_length_c   12.96469496
_cell_angle_alpha   90.00000000
_cell_angle_beta   90.00000000
_cell_angle_gamma   90.00000000
_symmetry_Int_Tables_number   1
_chemical_formula_structural   LiMg3Al2BrO6
_chemical_formula_sum   'Li16 Mg48 Al32 Br16 O96'
_cell_volume   2179.14891443
_cell_formula_units_Z   16
loop_
 _symmetry_equiv_pos_site_id
 _symmetry_equiv_pos_as_xyz
  1  'x, y, z'
loop_
 _atom_site_type_symbol
 _atom_site_label
 _atom_site_symmetry_multiplicity
 _atom_site_fract_x
 _atom_site_fract_y
 _atom_site_fract_z
 _atom_site_occupancy
  Al  Al0  1  0.19948300  0.19948300  0.19948300  1
  Al  Al1  1  0.55051700  0.05051700  0.69948300  1
  Al  Al2  1  0.05051700  0.69948300  0.55051700  1
  Al  Al3  1  0.69948300  0.55051700  0.05051700  1
  Al  Al4  1  0.94948300  0.44948300  0.30051700  1
  Al  Al5  1  0.80051700  0.80051700  0.80051700  1
  Al  Al6  1  0.44948300  0.30051700  0.94948300  1
  Al  Al7  1  0.30051700  0.94948300  0.44948300  1
  Al  Al8  1  0.19948300  0.69948300  0.69948300  1
  Al  Al9  1  0.55051700  0.55051700  0.19948300  1
  Al  Al10  1  0.05051700  0.19948300  0.05051700  1
  Al  Al11  1  0.69948300  0.05051700  0.55051700  1
  Al  Al12  1  0.94948300  0.94948300  0.80051700  1
  Al  Al13  1  0.80051700  0.30051700  0.30051700  1
  Al  Al14  1  0.44948300  0.80051700  0.44948300  1
  Al  Al15  1  0.30051700  0.44948300  0.94948300  1
  Al  Al16  1  0.69948300  0.19948300  0.69948300  1
  Al  Al17  1  0.05051700  0.05051700  0.19948300  1
  Al  Al18  1  0.55051700  0.69948300  0.05051700  1
  Al  Al19  1  0.19948300  0.55051700  0.55051700  1
  Al  Al20  1  0.44948300  0.44948300  0.80051700  1
  Al  Al21  1  0.30051700  0.80051700  0.30051700  1
  Al  Al22  1  0.94948300  0.30051700  0.44948300  1
  Al  Al23  1  0.80051700  0.94948300  0.94948300  1
  Al  Al24  1  0.69948300  0.69948300  0.19948300  1
  Al  Al25  1  0.05051700  0.55051700  0.69948300  1
  Al  Al26  1  0.55051700  0.19948300  0.55051700  1
  Al  Al27  1  0.19948300  0.05051700  0.05051700  1
  Al  Al28  1  0.44948300  0.94948300  0.30051700  1
  Al  Al29  1  0.30051700  0.30051700  0.80051700  1
  Al  Al30  1  0.94948300  0.80051700  0.94948300  1
  Al  Al31  1  0.80051700  0.44948300  0.44948300  1
  Br  Br32  1  0.37500000  0.37500000  0.37500000  1
  Br  Br33  1  0.12500000  0.62500000  0.12500000  1
  Br  Br34  1  0.37500000  0.87500000  0.87500000  1
  Br  Br35  1  0.12500000  0.12500000  0.62500000  1
  Br  Br36  1  0.87500000  0.37500000  0.87500000  1
  Br  Br37  1  0.62500000  0.62500000  0.62500000  1
  Br  Br38  1  0.87500000  0.87500000  0.37500000  1
  Br  Br39  1  0.62500000  0.12500000  0.12500000  1
  Br  Br40  1  0.12500000  0.12500000  0.12500000  1
  Br  Br41  1  0.87500000  0.37500000  0.37500000  1
  Br  Br42  1  0.12500000  0.62500000  0.62500000  1
  Br  Br43  1  0.87500000  0.87500000  0.87500000  1
  Br  Br44  1  0.62500000  0.12500000  0.62500000  1
  Br  Br45  1  0.37500000  0.37500000  0.87500000  1
  Br  Br46  1  0.62500000  0.62500000  0.12500000  1
  Br  Br47  1  0.37500000  0.87500000  0.37500000  1
  Li  Li48  1  0.50000000  0.50000000  0.50000000  1
  Li  Li49  1  0.25000000  0.75000000  0.00000000  1
  Li  Li50  1  0.75000000  0.00000000  0.25000000  1
  Li  Li51  1  0.00000000  0.25000000  0.75000000  1
  Li  Li52  1  0.50000000  0.00000000  0.00000000  1
  Li  Li53  1  0.25000000  0.25000000  0.50000000  1
  Li  Li54  1  0.75000000  0.50000000  0.75000000  1
  Li  Li55  1  0.00000000  0.75000000  0.25000000  1
  Li  Li56  1  0.00000000  0.50000000  0.00000000  1
  Li  Li57  1  0.75000000  0.75000000  0.50000000  1
  Li  Li58  1  0.25000000  0.00000000  0.75000000  1
  Li  Li59  1  0.50000000  0.25000000  0.25000000  1
  Li  Li60  1  0.00000000  0.00000000  0.50000000  1
  Li  Li61  1  0.75000000  0.25000000  0.00000000  1
  Li  Li62  1  0.25000000  0.50000000  0.25000000  1
  Li  Li63  1  0.50000000  0.75000000  0.75000000  1
  Mg  Mg64  1  0.85391690  0.12500000  0.12500000  1
  Mg  Mg65  1  -0.10391690  0.12500000  0.62500000  1
  Mg  Mg66  1  0.12500000  0.85391690  0.12500000  1
  Mg  Mg67  1  0.62500000  -0.10391690  0.12500000  1
  Mg  Mg68  1  0.12500000  0.12500000  0.85391690  1
  Mg  Mg69  1  0.12500000  0.62500000  -0.10391690  1
  Mg  Mg70  1  0.87500000  1.10391690  0.37500000  1
  Mg  Mg71  1  0.87500000  -0.85391690  0.87500000  1
  Mg  Mg72  1  1.60391690  0.37500000  0.37500000  1
  Mg  Mg73  1  -0.35391690  0.87500000  0.37500000  1
  Mg  Mg74  1  0.87500000  0.37500000  -0.35391690  1
  Mg  Mg75  1  0.37500000  0.37500000  1.60391690  1
  Mg  Mg76  1  0.85391690  0.62500000  0.62500000  1
  Mg  Mg77  1  -0.10391690  0.62500000  1.12500000  1
  Mg  Mg78  1  0.12500000  1.35391690  0.62500000  1
  Mg  Mg79  1  0.62500000  0.39608310  0.62500000  1
  Mg  Mg80  1  0.12500000  0.62500000  1.35391690  1
  Mg  Mg81  1  0.12500000  1.12500000  0.39608310  1
  Mg  Mg82  1  0.87500000  1.60391690  0.87500000  1
  Mg  Mg83  1  0.87500000  -0.35391690  1.37500000  1
  Mg  Mg84  1  1.60391690  0.87500000  0.87500000  1
  Mg  Mg85  1  -0.35391690  1.37500000  0.87500000  1
  Mg  Mg86  1  0.87500000  0.87500000  0.14608310  1
  Mg  Mg87  1  0.37500000  0.87500000  2.10391690  1
  Mg  Mg88  1  1.35391690  0.12500000  0.62500000  1
  Mg  Mg89  1  0.39608310  0.12500000  1.12500000  1
  Mg  Mg90  1  0.62500000  0.85391690  0.62500000  1
  Mg  Mg91  1  1.12500000  -0.10391690  0.62500000  1
  Mg  Mg92  1  0.62500000  0.12500000  1.35391690  1
  Mg  Mg93  1  0.62500000  0.62500000  0.39608310  1
  Mg  Mg94  1  1.37500000  1.10391690  0.87500000  1
  Mg  Mg95  1  1.37500000  -0.85391690  1.37500000  1
  Mg  Mg96  1  2.10391690  0.37500000  0.87500000  1
  Mg  Mg97  1  0.14608310  0.87500000  0.87500000  1
  Mg  Mg98  1  1.37500000  0.37500000  0.14608310  1
  Mg  Mg99  1  0.87500000  0.37500000  2.10391690  1
  Mg  Mg100  1  1.35391690  0.62500000  0.12500000  1
  Mg  Mg101  1  0.39608310  0.62500000  0.62500000  1
  Mg  Mg102  1  0.62500000  1.35391690  0.12500000  1
  Mg  Mg103  1  1.12500000  0.39608310  0.12500000  1
  Mg  Mg104  1  0.62500000  0.62500000  0.85391690  1
  Mg  Mg105  1  0.62500000  1.12500000  -0.10391690  1
  Mg  Mg106  1  1.37500000  1.60391690  0.37500000  1
  Mg  Mg107  1  1.37500000  -0.35391690  0.87500000  1
  Mg  Mg108  1  2.10391690  0.87500000  0.37500000  1
  Mg  Mg109  1  0.14608310  1.37500000  0.37500000  1
  Mg  Mg110  1  1.37500000  0.87500000  -0.35391690  1
  Mg  Mg111  1  0.87500000  0.87500000  1.60391690  1
  O  O112  1  0.00000000  0.00000000  0.00000000  1
  O  O113  1  0.75000000  0.25000000  0.50000000  1
  O  O114  1  0.25000000  0.50000000  0.75000000  1
  O  O115  1  0.50000000  0.75000000  0.25000000  1
  O  O116  1  0.00000000  0.50000000  0.50000000  1
  O  O117  1  0.75000000  0.75000000  0.00000000  1
  O  O118  1  0.25000000  0.00000000  0.25000000  1
  O  O119  1  0.50000000  0.25000000  0.75000000  1
  O  O120  1  0.50000000  0.00000000  0.50000000  1
  O  O121  1  0.25000000  0.25000000  0.00000000  1
  O  O122  1  0.75000000  0.50000000  0.25000000  1
  O  O123  1  0.00000000  0.75000000  0.75000000  1
  O  O124  1  0.50000000  0.50000000  0.00000000  1
  O  O125  1  0.25000000  0.75000000  0.50000000  1
  O  O126  1  0.75000000  0.00000000  0.75000000  1
  O  O127  1  0.00000000  0.25000000  0.25000000  1
  O  O128  1  0.27531501  0.12500000  0.12500000  1
  O  O129  1  0.47468499  0.12500000  0.62500000  1
  O  O130  1  0.12500000  0.27531501  0.12500000  1
  O  O131  1  0.62500000  0.47468499  0.12500000  1
  O  O132  1  0.12500000  0.12500000  0.27531501  1
  O  O133  1  0.12500000  0.62500000  0.47468499  1
  O  O134  1  0.87500000  0.52531501  0.37500000  1
  O  O135  1  0.87500000  0.72468499  0.87500000  1
  O  O136  1  0.02531501  0.37500000  0.37500000  1
  O  O137  1  0.22468499  0.87500000  0.37500000  1
  O  O138  1  0.87500000  0.37500000  0.22468499  1
  O  O139  1  0.37500000  0.37500000  0.02531501  1
  O  O140  1  0.27531501  0.62500000  0.62500000  1
  O  O141  1  0.47468499  0.62500000  0.12500000  1
  O  O142  1  0.12500000  0.77531501  0.62500000  1
  O  O143  1  0.62500000  0.97468499  0.62500000  1
  O  O144  1  0.12500000  0.62500000  0.77531501  1
  O  O145  1  0.12500000  0.12500000  0.97468499  1
  O  O146  1  0.87500000  0.02531501  0.87500000  1
  O  O147  1  0.87500000  0.22468499  0.37500000  1
  O  O148  1  0.02531501  0.87500000  0.87500000  1
  O  O149  1  0.22468499  0.37500000  0.87500000  1
  O  O150  1  0.87500000  0.87500000  0.72468499  1
  O  O151  1  0.37500000  0.87500000  0.52531501  1
  O  O152  1  0.77531501  0.12500000  0.62500000  1
  O  O153  1  0.97468499  0.12500000  0.12500000  1
  O  O154  1  0.62500000  0.27531501  0.62500000  1
  O  O155  1  0.12500000  0.47468499  0.62500000  1
  O  O156  1  0.62500000  0.12500000  0.77531501  1
  O  O157  1  0.62500000  0.62500000  0.97468499  1
  O  O158  1  0.37500000  0.52531501  0.87500000  1
  O  O159  1  0.37500000  0.72468499  0.37500000  1
  O  O160  1  0.52531501  0.37500000  0.87500000  1
  O  O161  1  0.72468499  0.87500000  0.87500000  1
  O  O162  1  0.37500000  0.37500000  0.72468499  1
  O  O163  1  0.87500000  0.37500000  0.52531501  1
  O  O164  1  0.77531501  0.62500000  0.12500000  1
  O  O165  1  0.97468499  0.62500000  0.62500000  1
  O  O166  1  0.62500000  0.77531501  0.12500000  1
  O  O167  1  0.12500000  0.97468499  0.12500000  1
  O  O168  1  0.62500000  0.62500000  0.27531501  1
  O  O169  1  0.62500000  0.12500000  0.47468499  1
  O  O170  1  0.37500000  0.02531501  0.37500000  1
  O  O171  1  0.37500000  0.22468499  0.87500000  1
  O  O172  1  0.52531501  0.87500000  0.37500000  1
  O  O173  1  0.72468499  0.37500000  0.37500000  1
  O  O174  1  0.37500000  0.87500000  0.22468499  1
  O  O175  1  0.87500000  0.87500000  0.02531501  1
  O  O176  1  0.28340775  0.28340775  0.28340775  1
  O  O177  1  0.46659225  0.96659225  0.78340775  1
  O  O178  1  0.96659225  0.78340775  0.46659225  1
  O  O179  1  0.78340775  0.46659225  0.96659225  1
  O  O180  1  0.03340775  0.53340775  0.21659225  1
  O  O181  1  0.71659225  0.71659225  0.71659225  1
  O  O182  1  0.53340775  0.21659225  0.03340775  1
  O  O183  1  0.21659225  0.03340775  0.53340775  1
  O  O184  1  0.28340775  0.78340775  0.78340775  1
  O  O185  1  0.46659225  0.46659225  0.28340775  1
  O  O186  1  0.96659225  0.28340775  0.96659225  1
  O  O187  1  0.78340775  0.96659225  0.46659225  1
  O  O188  1  0.03340775  0.03340775  0.71659225  1
  O  O189  1  0.71659225  0.21659225  0.21659225  1
  O  O190  1  0.53340775  0.71659225  0.53340775  1
  O  O191  1  0.21659225  0.53340775  0.03340775  1
  O  O192  1  0.78340775  0.28340775  0.78340775  1
  O  O193  1  0.96659225  0.96659225  0.28340775  1
  O  O194  1  0.46659225  0.78340775  0.96659225  1
  O  O195  1  0.28340775  0.46659225  0.46659225  1
  O  O196  1  0.53340775  0.53340775  0.71659225  1
  O  O197  1  0.21659225  0.71659225  0.21659225  1
  O  O198  1  0.03340775  0.21659225  0.53340775  1
  O  O199  1  0.71659225  0.03340775  0.03340775  1
  O  O200  1  0.78340775  0.78340775  0.28340775  1
  O  O201  1  0.96659225  0.46659225  0.78340775  1
  O  O202  1  0.46659225  0.28340775  0.46659225  1
  O  O203  1  0.28340775  0.96659225  0.96659225  1
  O  O204  1  0.53340775  0.03340775  0.21659225  1
  O  O205  1  0.21659225  0.21659225  0.71659225  1
  O  O206  1  0.03340775  0.71659225  0.03340775  1
  O  O207  1  0.71659225  0.53340775  0.53340775  1
