# generated using pymatgen
data_Li2B4Se(SO2)2
_symmetry_space_group_name_H-M   'P 1'
_cell_length_a   10.37155765
_cell_length_b   12.48559946
_cell_length_c   11.17334029
_cell_angle_alpha   90.00000000
_cell_angle_beta   90.00000000
_cell_angle_gamma   90.00000000
_symmetry_Int_Tables_number   1
_chemical_formula_structural   Li2B4Se(SO2)2
_chemical_formula_sum   'Li16 B32 Se8 S16 O32'
_cell_volume   1446.89298232
_cell_formula_units_Z   8
loop_
 _symmetry_equiv_pos_site_id
 _symmetry_equiv_pos_as_xyz
  1  'x, y, z'
loop_
 _atom_site_type_symbol
 _atom_site_label
 _atom_site_symmetry_multiplicity
 _atom_site_fract_x
 _atom_site_fract_y
 _atom_site_fract_z
 _atom_site_occupancy
  B  B0  1  0.00040667  0.72595864  0.61402705  1
  B  B1  1  0.74959333  0.02404136  0.61402705  1
  B  B2  1  0.74959333  0.72595864  0.13597295  1
  B  B3  1  0.00040667  0.02404136  0.13597295  1
  B  B4  1  -0.00040667  -0.72595864  -0.61402705  1
  B  B5  1  0.25040667  0.97595864  -0.61402705  1
  B  B6  1  0.25040667  -0.72595864  0.86402705  1
  B  B7  1  -0.00040667  0.97595864  0.86402705  1
  B  B8  1  0.00040667  1.22595864  1.11402705  1
  B  B9  1  0.74959333  0.52404136  1.11402705  1
  B  B10  1  0.74959333  1.22595864  0.63597295  1
  B  B11  1  0.00040667  0.52404136  0.63597295  1
  B  B12  1  -0.00040667  -0.22595864  -0.11402705  1
  B  B13  1  0.25040667  1.47595864  -0.11402705  1
  B  B14  1  0.25040667  -0.22595864  1.36402705  1
  B  B15  1  -0.00040667  1.47595864  1.36402705  1
  B  B16  1  0.50040667  0.72595864  1.11402705  1
  B  B17  1  1.24959333  0.02404136  1.11402705  1
  B  B18  1  1.24959333  0.72595864  0.63597295  1
  B  B19  1  0.50040667  0.02404136  0.63597295  1
  B  B20  1  0.49959333  -0.72595864  -0.11402705  1
  B  B21  1  0.75040667  0.97595864  -0.11402705  1
  B  B22  1  0.75040667  -0.72595864  1.36402705  1
  B  B23  1  0.49959333  0.97595864  1.36402705  1
  B  B24  1  0.50040667  1.22595864  0.61402705  1
  B  B25  1  1.24959333  0.52404136  0.61402705  1
  B  B26  1  1.24959333  1.22595864  0.13597295  1
  B  B27  1  0.50040667  0.52404136  0.13597295  1
  B  B28  1  0.49959333  -0.22595864  -0.61402705  1
  B  B29  1  0.75040667  1.47595864  -0.61402705  1
  B  B30  1  0.75040667  -0.22595864  0.86402705  1
  B  B31  1  0.49959333  1.47595864  0.86402705  1
  Li  Li32  1  0.50000000  0.50000000  0.50000000  1
  Li  Li33  1  0.25000000  0.25000000  0.50000000  1
  Li  Li34  1  0.25000000  0.50000000  0.25000000  1
  Li  Li35  1  0.50000000  0.25000000  0.25000000  1
  Li  Li36  1  0.50000000  0.00000000  0.00000000  1
  Li  Li37  1  0.25000000  0.75000000  0.00000000  1
  Li  Li38  1  0.25000000  0.00000000  0.75000000  1
  Li  Li39  1  0.50000000  0.75000000  0.75000000  1
  Li  Li40  1  0.00000000  0.50000000  0.00000000  1
  Li  Li41  1  0.75000000  0.25000000  0.00000000  1
  Li  Li42  1  0.75000000  0.50000000  0.75000000  1
  Li  Li43  1  0.00000000  0.25000000  0.75000000  1
  Li  Li44  1  0.00000000  0.00000000  0.50000000  1
  Li  Li45  1  0.75000000  0.75000000  0.50000000  1
  Li  Li46  1  0.75000000  0.00000000  0.25000000  1
  Li  Li47  1  0.00000000  0.75000000  0.25000000  1
  O  O48  1  0.91226305  0.65836430  0.27810368  1
  O  O49  1  0.83773695  0.09163570  0.27810368  1
  O  O50  1  0.83773695  0.65836430  0.47189632  1
  O  O51  1  0.91226305  0.09163570  0.47189632  1
  O  O52  1  0.08773695  0.34163570  0.72189632  1
  O  O53  1  0.16226305  0.90836430  0.72189632  1
  O  O54  1  0.16226305  0.34163570  0.52810368  1
  O  O55  1  0.08773695  0.90836430  0.52810368  1
  O  O56  1  0.91226305  0.15836430  0.77810368  1
  O  O57  1  0.83773695  0.59163570  0.77810368  1
  O  O58  1  0.83773695  0.15836430  0.97189632  1
  O  O59  1  0.91226305  0.59163570  0.97189632  1
  O  O60  1  0.08773695  0.84163570  0.22189632  1
  O  O61  1  0.16226305  0.40836430  0.22189632  1
  O  O62  1  0.16226305  0.84163570  0.02810368  1
  O  O63  1  0.08773695  0.40836430  0.02810368  1
  O  O64  1  0.41226305  0.65836430  0.77810368  1
  O  O65  1  0.33773695  0.09163570  0.77810368  1
  O  O66  1  0.33773695  0.65836430  0.97189632  1
  O  O67  1  0.41226305  0.09163570  0.97189632  1
  O  O68  1  0.58773695  0.34163570  0.22189632  1
  O  O69  1  0.66226305  0.90836430  0.22189632  1
  O  O70  1  0.66226305  0.34163570  0.02810368  1
  O  O71  1  0.58773695  0.90836430  0.02810368  1
  O  O72  1  0.41226305  0.15836430  0.27810368  1
  O  O73  1  0.33773695  0.59163570  0.27810368  1
  O  O74  1  0.33773695  0.15836430  0.47189632  1
  O  O75  1  0.41226305  0.59163570  0.47189632  1
  O  O76  1  0.58773695  0.84163570  0.72189632  1
  O  O77  1  0.66226305  0.40836430  0.72189632  1
  O  O78  1  0.66226305  0.84163570  0.52810368  1
  O  O79  1  0.58773695  0.40836430  0.52810368  1
  S  S80  1  0.00000000  0.00000000  0.00000000  1
  S  S81  1  0.75000000  0.75000000  0.00000000  1
  S  S82  1  0.75000000  0.00000000  0.75000000  1
  S  S83  1  0.00000000  0.75000000  0.75000000  1
  S  S84  1  0.00000000  0.50000000  0.50000000  1
  S  S85  1  0.75000000  0.25000000  0.50000000  1
  S  S86  1  0.75000000  0.50000000  0.25000000  1
  S  S87  1  0.00000000  0.25000000  0.25000000  1
  S  S88  1  0.50000000  0.00000000  0.50000000  1
  S  S89  1  0.25000000  0.75000000  0.50000000  1
  S  S90  1  0.25000000  0.00000000  0.25000000  1
  S  S91  1  0.50000000  0.75000000  0.25000000  1
  S  S92  1  0.50000000  0.50000000  0.00000000  1
  S  S93  1  0.25000000  0.25000000  0.00000000  1
  S  S94  1  0.25000000  0.50000000  0.75000000  1
  S  S95  1  0.50000000  0.25000000  0.75000000  1
  Se  Se96  1  0.12500000  0.12500000  0.62500000  1
  Se  Se97  1  0.87500000  0.87500000  0.37500000  1
  Se  Se98  1  0.12500000  0.62500000  0.12500000  1
  Se  Se99  1  0.87500000  0.37500000  0.87500000  1
  Se  Se100  1  0.62500000  0.12500000  0.12500000  1
  Se  Se101  1  0.37500000  0.87500000  0.87500000  1
  Se  Se102  1  0.62500000  0.62500000  0.62500000  1
  Se  Se103  1  0.37500000  0.37500000  0.37500000  1
