# generated using pymatgen
data_KLi3SF2
_symmetry_space_group_name_H-M   'P 1'
_cell_length_a   12.32231593
_cell_length_b   12.32231593
_cell_length_c   8.72015403
_cell_angle_alpha   90.00000000
_cell_angle_beta   90.00000000
_cell_angle_gamma   90.00000000
_symmetry_Int_Tables_number   1
_chemical_formula_structural   KLi3SF2
_chemical_formula_sum   'K8 Li24 S8 F16'
_cell_volume   1324.06356406
_cell_formula_units_Z   8
loop_
 _symmetry_equiv_pos_site_id
 _symmetry_equiv_pos_as_xyz
  1  'x, y, z'
loop_
 _atom_site_type_symbol
 _atom_site_label
 _atom_site_symmetry_multiplicity
 _atom_site_fract_x
 _atom_site_fract_y
 _atom_site_fract_z
 _atom_site_occupancy
  F  F0  1  0.00000000  0.52705539  0.86620496  1
  F  F1  1  0.50000000  -0.52705539  1.36620496  1
  F  F2  1  -0.27705539  0.75000000  1.11620496  1
  F  F3  1  0.77705539  0.25000000  1.61620496  1
  F  F4  1  0.50000000  0.52705539  -0.36620496  1
  F  F5  1  0.00000000  -0.52705539  -0.86620496  1
  F  F6  1  0.77705539  0.75000000  -0.61620496  1
  F  F7  1  -0.27705539  0.25000000  -0.11620496  1
  F  F8  1  0.50000000  1.02705539  1.36620496  1
  F  F9  1  1.00000000  -0.02705539  1.86620496  1
  F  F10  1  0.22294461  1.25000000  1.61620496  1
  F  F11  1  1.27705539  0.75000000  2.11620496  1
  F  F12  1  1.00000000  1.02705539  0.13379504  1
  F  F13  1  0.50000000  -0.02705539  -0.36620496  1
  F  F14  1  1.27705539  1.25000000  -0.11620496  1
  F  F15  1  0.22294461  0.75000000  0.38379504  1
  K  K16  1  0.00000000  0.00000000  0.50000000  1
  K  K17  1  0.50000000  0.00000000  0.00000000  1
  K  K18  1  0.25000000  0.75000000  0.75000000  1
  K  K19  1  0.25000000  0.25000000  0.25000000  1
  K  K20  1  0.50000000  0.50000000  0.00000000  1
  K  K21  1  0.00000000  0.50000000  0.50000000  1
  K  K22  1  0.75000000  0.25000000  0.25000000  1
  K  K23  1  0.75000000  0.75000000  0.75000000  1
  Li  Li24  1  0.19912795  0.00000000  0.00000000  1
  Li  Li25  1  0.30087205  0.00000000  0.50000000  1
  Li  Li26  1  0.25000000  0.94912795  0.25000000  1
  Li  Li27  1  0.25000000  0.05087205  0.75000000  1
  Li  Li28  1  0.80087205  -0.00000000  0.00000000  1
  Li  Li29  1  0.69912795  0.00000000  0.50000000  1
  Li  Li30  1  0.75000000  0.05087205  0.75000000  1
  Li  Li31  1  0.75000000  0.94912795  0.25000000  1
  Li  Li32  1  0.69912795  0.50000000  0.50000000  1
  Li  Li33  1  0.80087205  0.50000000  -0.00000000  1
  Li  Li34  1  0.75000000  0.44912795  0.75000000  1
  Li  Li35  1  0.75000000  0.55087205  0.25000000  1
  Li  Li36  1  0.30087205  0.50000000  0.50000000  1
  Li  Li37  1  0.19912795  0.50000000  0.00000000  1
  Li  Li38  1  0.25000000  0.55087205  0.25000000  1
  Li  Li39  1  0.25000000  0.44912795  0.75000000  1
  Li  Li40  1  0.00000000  0.00000000  0.00000000  1
  Li  Li41  1  0.50000000  0.00000000  0.50000000  1
  Li  Li42  1  0.25000000  0.75000000  0.25000000  1
  Li  Li43  1  0.25000000  0.25000000  0.75000000  1
  Li  Li44  1  0.50000000  0.50000000  0.50000000  1
  Li  Li45  1  0.00000000  0.50000000  0.00000000  1
  Li  Li46  1  0.75000000  0.25000000  0.75000000  1
  Li  Li47  1  0.75000000  0.75000000  0.25000000  1
  S  S48  1  0.00000000  0.75000000  0.12500000  1
  S  S49  1  0.50000000  0.75000000  0.37500000  1
  S  S50  1  0.50000000  0.25000000  0.62500000  1
  S  S51  1  0.00000000  0.25000000  0.87500000  1
  S  S52  1  0.00000000  0.25000000  0.37500000  1
  S  S53  1  0.00000000  0.75000000  0.62500000  1
  S  S54  1  0.50000000  0.75000000  0.87500000  1
  S  S55  1  0.50000000  0.25000000  0.12500000  1
