# generated using pymatgen
data_Li12Sn(S3O)2
_symmetry_space_group_name_H-M   'P 1'
_cell_length_a   14.76122997
_cell_length_b   14.76122997
_cell_length_c   14.76122997
_cell_angle_alpha   90.00000000
_cell_angle_beta   90.00000000
_cell_angle_gamma   90.00000000
_symmetry_Int_Tables_number   1
_chemical_formula_structural   Li12Sn(S3O)2
_chemical_formula_sum   'Li96 Sn8 S48 O16'
_cell_volume   3216.38211950
_cell_formula_units_Z   8
loop_
 _symmetry_equiv_pos_site_id
 _symmetry_equiv_pos_as_xyz
  1  'x, y, z'
loop_
 _atom_site_type_symbol
 _atom_site_label
 _atom_site_symmetry_multiplicity
 _atom_site_fract_x
 _atom_site_fract_y
 _atom_site_fract_z
 _atom_site_occupancy
  Li  Li0  1  0.79297842  -0.00000000  -0.00000000  1
  Li  Li1  1  0.20702158  0.00000000  -0.00000000  1
  Li  Li2  1  0.00000000  0.79297842  -0.00000000  1
  Li  Li3  1  0.00000000  0.20702158  0.00000000  1
  Li  Li4  1  0.00000000  0.00000000  0.79297842  1
  Li  Li5  1  0.00000000  0.00000000  0.20702158  1
  Li  Li6  1  0.79297842  0.50000000  0.50000000  1
  Li  Li7  1  0.20702158  0.50000000  0.50000000  1
  Li  Li8  1  0.00000000  0.29297842  0.50000000  1
  Li  Li9  1  0.00000000  0.70702158  0.50000000  1
  Li  Li10  1  0.00000000  0.50000000  0.29297842  1
  Li  Li11  1  0.00000000  0.50000000  0.70702158  1
  Li  Li12  1  0.29297842  0.00000000  0.50000000  1
  Li  Li13  1  0.70702158  0.00000000  0.50000000  1
  Li  Li14  1  0.50000000  0.79297842  0.50000000  1
  Li  Li15  1  0.50000000  0.20702158  0.50000000  1
  Li  Li16  1  0.50000000  0.00000000  0.29297842  1
  Li  Li17  1  0.50000000  0.00000000  0.70702158  1
  Li  Li18  1  0.29297842  0.50000000  0.00000000  1
  Li  Li19  1  0.70702158  0.50000000  0.00000000  1
  Li  Li20  1  0.50000000  0.29297842  0.00000000  1
  Li  Li21  1  0.50000000  0.70702158  0.00000000  1
  Li  Li22  1  0.50000000  0.50000000  0.79297842  1
  Li  Li23  1  0.50000000  0.50000000  0.20702158  1
  Li  Li24  1  0.10687475  0.10687475  0.77035443  1
  Li  Li25  1  0.89312525  0.89312525  0.77035443  1
  Li  Li26  1  0.89312525  0.10687475  0.22964557  1
  Li  Li27  1  0.10687475  0.89312525  0.22964557  1
  Li  Li28  1  0.77035443  0.10687475  0.10687475  1
  Li  Li29  1  0.77035443  0.89312525  0.89312525  1
  Li  Li30  1  0.22964557  0.89312525  0.10687475  1
  Li  Li31  1  0.22964557  0.10687475  0.89312525  1
  Li  Li32  1  0.10687475  0.77035443  0.10687475  1
  Li  Li33  1  0.89312525  0.77035443  0.89312525  1
  Li  Li34  1  0.10687475  0.22964557  0.89312525  1
  Li  Li35  1  0.89312525  0.22964557  0.10687475  1
  Li  Li36  1  0.10687475  0.60687475  0.27035443  1
  Li  Li37  1  0.89312525  0.39312525  0.27035443  1
  Li  Li38  1  0.89312525  0.60687475  0.72964557  1
  Li  Li39  1  0.10687475  0.39312525  0.72964557  1
  Li  Li40  1  0.77035443  0.60687475  0.60687475  1
  Li  Li41  1  0.77035443  0.39312525  0.39312525  1
  Li  Li42  1  0.22964557  0.39312525  0.60687475  1
  Li  Li43  1  0.22964557  0.60687475  0.39312525  1
  Li  Li44  1  0.10687475  0.27035443  0.60687475  1
  Li  Li45  1  0.89312525  0.27035443  0.39312525  1
  Li  Li46  1  0.10687475  0.72964557  0.39312525  1
  Li  Li47  1  0.89312525  0.72964557  0.60687475  1
  Li  Li48  1  0.60687475  0.10687475  0.27035443  1
  Li  Li49  1  0.39312525  0.89312525  0.27035443  1
  Li  Li50  1  0.39312525  0.10687475  0.72964557  1
  Li  Li51  1  0.60687475  0.89312525  0.72964557  1
  Li  Li52  1  0.27035443  0.10687475  0.60687475  1
  Li  Li53  1  0.27035443  0.89312525  0.39312525  1
  Li  Li54  1  0.72964557  0.89312525  0.60687475  1
  Li  Li55  1  0.72964557  0.10687475  0.39312525  1
  Li  Li56  1  0.60687475  0.77035443  0.60687475  1
  Li  Li57  1  0.39312525  0.77035443  0.39312525  1
  Li  Li58  1  0.60687475  0.22964557  0.39312525  1
  Li  Li59  1  0.39312525  0.22964557  0.60687475  1
  Li  Li60  1  0.60687475  0.60687475  0.77035443  1
  Li  Li61  1  0.39312525  0.39312525  0.77035443  1
  Li  Li62  1  0.39312525  0.60687475  0.22964557  1
  Li  Li63  1  0.60687475  0.39312525  0.22964557  1
  Li  Li64  1  0.27035443  0.60687475  0.10687475  1
  Li  Li65  1  0.27035443  0.39312525  0.89312525  1
  Li  Li66  1  0.72964557  0.39312525  0.10687475  1
  Li  Li67  1  0.72964557  0.60687475  0.89312525  1
  Li  Li68  1  0.60687475  0.27035443  0.10687475  1
  Li  Li69  1  0.39312525  0.27035443  0.89312525  1
  Li  Li70  1  0.60687475  0.72964557  0.89312525  1
  Li  Li71  1  0.39312525  0.72964557  0.10687475  1
  Li  Li72  1  0.39160014  0.25000000  0.25000000  1
  Li  Li73  1  0.60839986  0.75000000  0.25000000  1
  Li  Li74  1  0.25000000  0.39160014  0.25000000  1
  Li  Li75  1  0.25000000  0.60839986  0.75000000  1
  Li  Li76  1  0.25000000  0.25000000  0.39160014  1
  Li  Li77  1  0.75000000  0.25000000  0.60839986  1
  Li  Li78  1  0.39160014  0.75000000  0.75000000  1
  Li  Li79  1  0.60839986  0.25000000  0.75000000  1
  Li  Li80  1  0.25000000  0.89160014  0.75000000  1
  Li  Li81  1  0.25000000  0.10839986  0.25000000  1
  Li  Li82  1  0.25000000  0.75000000  0.89160014  1
  Li  Li83  1  0.75000000  0.75000000  0.10839986  1
  Li  Li84  1  0.89160014  0.25000000  0.75000000  1
  Li  Li85  1  0.10839986  0.75000000  0.75000000  1
  Li  Li86  1  0.75000000  0.39160014  0.75000000  1
  Li  Li87  1  0.75000000  0.60839986  0.25000000  1
  Li  Li88  1  0.75000000  0.25000000  0.89160014  1
  Li  Li89  1  0.25000000  0.25000000  0.10839986  1
  Li  Li90  1  0.89160014  0.75000000  0.25000000  1
  Li  Li91  1  0.10839986  0.25000000  0.25000000  1
  Li  Li92  1  0.75000000  0.89160014  0.25000000  1
  Li  Li93  1  0.75000000  0.10839986  0.75000000  1
  Li  Li94  1  0.75000000  0.75000000  0.39160014  1
  Li  Li95  1  0.25000000  0.75000000  0.60839986  1
  O  O96  1  0.08019557  0.08019557  0.08019557  1
  O  O97  1  0.91980443  0.91980443  0.08019557  1
  O  O98  1  0.91980443  0.08019557  0.91980443  1
  O  O99  1  0.08019557  0.91980443  0.91980443  1
  O  O100  1  0.08019557  0.58019557  0.58019557  1
  O  O101  1  0.91980443  0.41980443  0.58019557  1
  O  O102  1  0.91980443  0.58019557  0.41980443  1
  O  O103  1  0.08019557  0.41980443  0.41980443  1
  O  O104  1  0.58019557  0.08019557  0.58019557  1
  O  O105  1  0.41980443  0.91980443  0.58019557  1
  O  O106  1  0.41980443  0.08019557  0.41980443  1
  O  O107  1  0.58019557  0.91980443  0.41980443  1
  O  O108  1  0.58019557  0.58019557  0.08019557  1
  O  O109  1  0.41980443  0.41980443  0.08019557  1
  O  O110  1  0.41980443  0.58019557  0.91980443  1
  O  O111  1  0.58019557  0.41980443  0.91980443  1
  S  S112  1  0.33818394  0.33818394  0.05472157  1
  S  S113  1  -0.33818394  -0.33818394  0.05472157  1
  S  S114  1  -0.33818394  0.33818394  -0.05472157  1
  S  S115  1  0.33818394  -0.33818394  -0.05472157  1
  S  S116  1  0.05472157  0.33818394  0.33818394  1
  S  S117  1  0.05472157  -0.33818394  -0.33818394  1
  S  S118  1  -0.05472157  -0.33818394  0.33818394  1
  S  S119  1  -0.05472157  0.33818394  -0.33818394  1
  S  S120  1  0.33818394  0.05472157  0.33818394  1
  S  S121  1  -0.33818394  0.05472157  -0.33818394  1
  S  S122  1  0.33818394  -0.05472157  -0.33818394  1
  S  S123  1  -0.33818394  -0.05472157  0.33818394  1
  S  S124  1  0.33818394  0.83818394  0.55472157  1
  S  S125  1  -0.33818394  0.16181606  0.55472157  1
  S  S126  1  -0.33818394  0.83818394  0.44527843  1
  S  S127  1  0.33818394  0.16181606  0.44527843  1
  S  S128  1  0.05472157  0.83818394  0.83818394  1
  S  S129  1  0.05472157  0.16181606  0.16181606  1
  S  S130  1  -0.05472157  0.16181606  0.83818394  1
  S  S131  1  -0.05472157  0.83818394  0.16181606  1
  S  S132  1  0.33818394  0.55472157  0.83818394  1
  S  S133  1  -0.33818394  0.55472157  0.16181606  1
  S  S134  1  0.33818394  0.44527843  0.16181606  1
  S  S135  1  -0.33818394  0.44527843  0.83818394  1
  S  S136  1  0.83818394  0.33818394  0.55472157  1
  S  S137  1  0.16181606  -0.33818394  0.55472157  1
  S  S138  1  0.16181606  0.33818394  0.44527843  1
  S  S139  1  0.83818394  -0.33818394  0.44527843  1
  S  S140  1  0.55472157  0.33818394  0.83818394  1
  S  S141  1  0.55472157  -0.33818394  0.16181606  1
  S  S142  1  0.44527843  -0.33818394  0.83818394  1
  S  S143  1  0.44527843  0.33818394  0.16181606  1
  S  S144  1  0.83818394  0.05472157  0.83818394  1
  S  S145  1  0.16181606  0.05472157  0.16181606  1
  S  S146  1  0.83818394  -0.05472157  0.16181606  1
  S  S147  1  0.16181606  -0.05472157  0.83818394  1
  S  S148  1  0.83818394  0.83818394  0.05472157  1
  S  S149  1  0.16181606  0.16181606  0.05472157  1
  S  S150  1  0.16181606  0.83818394  -0.05472157  1
  S  S151  1  0.83818394  0.16181606  -0.05472157  1
  S  S152  1  0.55472157  0.83818394  0.33818394  1
  S  S153  1  0.55472157  0.16181606  -0.33818394  1
  S  S154  1  0.44527843  0.16181606  0.33818394  1
  S  S155  1  0.44527843  0.83818394  -0.33818394  1
  S  S156  1  0.83818394  0.55472157  0.33818394  1
  S  S157  1  0.16181606  0.55472157  -0.33818394  1
  S  S158  1  0.83818394  0.44527843  -0.33818394  1
  S  S159  1  0.16181606  0.44527843  0.33818394  1
  Sn  Sn160  1  0.25000000  0.25000000  0.25000000  1
  Sn  Sn161  1  0.25000000  0.75000000  0.75000000  1
  Sn  Sn162  1  0.75000000  0.25000000  0.75000000  1
  Sn  Sn163  1  0.75000000  0.75000000  0.25000000  1
  Sn  Sn164  1  0.75000000  0.75000000  0.75000000  1
  Sn  Sn165  1  0.75000000  0.25000000  0.25000000  1
  Sn  Sn166  1  0.25000000  0.75000000  0.25000000  1
  Sn  Sn167  1  0.25000000  0.25000000  0.75000000  1
