# generated using pymatgen
data_Li4Zr3Ti(Br2Cl3)4
_symmetry_space_group_name_H-M   'P 1'
_cell_length_a   16.16839253
_cell_length_b   16.16839253
_cell_length_c   13.98525595
_cell_angle_alpha   90.00000000
_cell_angle_beta   90.00000000
_cell_angle_gamma   90.00000000
_symmetry_Int_Tables_number   1
_chemical_formula_structural   Li4Zr3Ti(Br2Cl3)4
_chemical_formula_sum   'Li32 Zr24 Ti8 Br64 Cl96'
_cell_volume   3655.98249287
_cell_formula_units_Z   8
loop_
 _symmetry_equiv_pos_site_id
 _symmetry_equiv_pos_as_xyz
  1  'x, y, z'
loop_
 _atom_site_type_symbol
 _atom_site_label
 _atom_site_symmetry_multiplicity
 _atom_site_fract_x
 _atom_site_fract_y
 _atom_site_fract_z
 _atom_site_occupancy
  Br  Br0  1  0.06561508  0.05131368  0.05128312  1
  Br  Br1  1  0.43438492  0.94868632  0.55128312  1
  Br  Br2  1  0.19868632  0.81561508  0.30128312  1
  Br  Br3  1  0.30131368  0.18438492  0.80128312  1
  Br  Br4  1  0.43438492  0.05131368  0.44871688  1
  Br  Br5  1  0.06561508  0.94868632  0.94871688  1
  Br  Br6  1  0.30131368  0.81561508  0.19871688  1
  Br  Br7  1  0.19868632  0.18438492  0.69871688  1
  Br  Br8  1  0.93438492  0.94868632  0.94871688  1
  Br  Br9  1  0.56561508  0.05131368  0.44871688  1
  Br  Br10  1  0.80131368  0.18438492  0.69871688  1
  Br  Br11  1  0.69868632  0.81561508  0.19871688  1
  Br  Br12  1  0.56561508  0.94868632  0.55128312  1
  Br  Br13  1  0.93438492  0.05131368  0.05128312  1
  Br  Br14  1  0.69868632  0.18438492  0.80128312  1
  Br  Br15  1  0.80131368  0.81561508  0.30128312  1
  Br  Br16  1  0.56561508  0.55131368  0.55128312  1
  Br  Br17  1  0.93438492  0.44868632  0.05128312  1
  Br  Br18  1  0.69868632  0.31561508  0.80128312  1
  Br  Br19  1  0.80131368  0.68438492  0.30128312  1
  Br  Br20  1  0.93438492  0.55131368  0.94871688  1
  Br  Br21  1  0.56561508  0.44868632  0.44871688  1
  Br  Br22  1  0.80131368  0.31561508  0.69871688  1
  Br  Br23  1  0.69868632  0.68438492  0.19871688  1
  Br  Br24  1  0.43438492  0.44868632  0.44871688  1
  Br  Br25  1  0.06561508  0.55131368  0.94871688  1
  Br  Br26  1  0.30131368  0.68438492  0.19871688  1
  Br  Br27  1  0.19868632  0.31561508  0.69871688  1
  Br  Br28  1  0.06561508  0.44868632  0.05128312  1
  Br  Br29  1  0.43438492  0.55131368  0.55128312  1
  Br  Br30  1  0.19868632  0.68438492  0.30128312  1
  Br  Br31  1  0.30131368  0.31561508  0.80128312  1
  Br  Br32  1  0.20932907  0.63533320  0.94377407  1
  Br  Br33  1  0.29067093  0.36466680  0.44377407  1
  Br  Br34  1  0.61466680  0.95932907  0.19377407  1
  Br  Br35  1  0.88533320  0.04067093  0.69377407  1
  Br  Br36  1  0.29067093  0.63533320  0.55622593  1
  Br  Br37  1  0.20932907  0.36466680  0.05622593  1
  Br  Br38  1  0.88533320  0.95932907  0.30622593  1
  Br  Br39  1  0.61466680  0.04067093  0.80622593  1
  Br  Br40  1  0.79067093  0.36466680  0.05622593  1
  Br  Br41  1  0.70932907  0.63533320  0.55622593  1
  Br  Br42  1  0.38533320  0.04067093  0.80622593  1
  Br  Br43  1  0.11466680  0.95932907  0.30622593  1
  Br  Br44  1  0.70932907  0.36466680  0.44377407  1
  Br  Br45  1  0.79067093  0.63533320  0.94377407  1
  Br  Br46  1  0.11466680  0.04067093  0.69377407  1
  Br  Br47  1  0.38533320  0.95932907  0.19377407  1
  Br  Br48  1  0.70932907  0.13533320  0.44377407  1
  Br  Br49  1  0.79067093  0.86466680  0.94377407  1
  Br  Br50  1  0.11466680  0.45932907  0.69377407  1
  Br  Br51  1  0.38533320  0.54067093  0.19377407  1
  Br  Br52  1  0.79067093  0.13533320  0.05622593  1
  Br  Br53  1  0.70932907  0.86466680  0.55622593  1
  Br  Br54  1  0.38533320  0.45932907  0.80622593  1
  Br  Br55  1  0.11466680  0.54067093  0.30622593  1
  Br  Br56  1  0.29067093  0.86466680  0.55622593  1
  Br  Br57  1  0.20932907  0.13533320  0.05622593  1
  Br  Br58  1  0.88533320  0.54067093  0.30622593  1
  Br  Br59  1  0.61466680  0.45932907  0.80622593  1
  Br  Br60  1  0.20932907  0.86466680  0.94377407  1
  Br  Br61  1  0.29067093  0.13533320  0.44377407  1
  Br  Br62  1  0.61466680  0.54067093  0.19377407  1
  Br  Br63  1  0.88533320  0.45932907  0.69377407  1
  Cl  Cl64  1  0.54307866  0.79307866  0.87500000  1
  Cl  Cl65  1  0.95692134  0.20692134  0.37500000  1
  Cl  Cl66  1  0.45692134  0.29307866  0.12500000  1
  Cl  Cl67  1  0.04307866  0.70692134  0.62500000  1
  Cl  Cl68  1  0.45692134  0.20692134  0.12500000  1
  Cl  Cl69  1  0.04307866  0.79307866  0.62500000  1
  Cl  Cl70  1  0.54307866  0.70692134  0.87500000  1
  Cl  Cl71  1  0.95692134  0.29307866  0.37500000  1
  Cl  Cl72  1  0.04307866  0.29307866  0.37500000  1
  Cl  Cl73  1  0.45692134  0.70692134  0.87500000  1
  Cl  Cl74  1  0.95692134  0.79307866  0.62500000  1
  Cl  Cl75  1  0.54307866  0.20692134  0.12500000  1
  Cl  Cl76  1  0.95692134  0.70692134  0.62500000  1
  Cl  Cl77  1  0.54307866  0.29307866  0.12500000  1
  Cl  Cl78  1  0.04307866  0.20692134  0.37500000  1
  Cl  Cl79  1  0.45692134  0.79307866  0.87500000  1
  Cl  Cl80  1  0.89556864  0.69382015  0.00076208  1
  Cl  Cl81  1  -0.39556864  -0.69382015  0.50076208  1
  Cl  Cl82  1  -0.44382015  1.64556864  0.25076208  1
  Cl  Cl83  1  0.94382015  -0.64556864  0.75076208  1
  Cl  Cl84  1  -0.39556864  0.69382015  0.49923792  1
  Cl  Cl85  1  0.89556864  -0.69382015  -0.00076208  1
  Cl  Cl86  1  0.94382015  1.64556864  0.24923792  1
  Cl  Cl87  1  -0.44382015  -0.64556864  0.74923792  1
  Cl  Cl88  1  -0.89556864  -0.69382015  -0.00076208  1
  Cl  Cl89  1  1.39556864  0.69382015  0.49923792  1
  Cl  Cl90  1  1.44382015  -0.64556864  0.74923792  1
  Cl  Cl91  1  0.05617985  1.64556864  0.24923792  1
  Cl  Cl92  1  1.39556864  -0.69382015  0.50076208  1
  Cl  Cl93  1  -0.89556864  0.69382015  0.00076208  1
  Cl  Cl94  1  0.05617985  -0.64556864  0.75076208  1
  Cl  Cl95  1  1.44382015  1.64556864  0.25076208  1
  Cl  Cl96  1  1.39556864  1.19382015  0.50076208  1
  Cl  Cl97  1  0.10443136  -0.19382015  1.00076208  1
  Cl  Cl98  1  0.05617985  2.14556864  0.75076208  1
  Cl  Cl99  1  1.44382015  -0.14556864  1.25076208  1
  Cl  Cl100  1  0.10443136  1.19382015  0.99923792  1
  Cl  Cl101  1  1.39556864  -0.19382015  0.49923792  1
  Cl  Cl102  1  1.44382015  2.14556864  0.74923792  1
  Cl  Cl103  1  0.05617985  -0.14556864  1.24923792  1
  Cl  Cl104  1  -0.39556864  -0.19382015  0.49923792  1
  Cl  Cl105  1  1.89556864  1.19382015  0.99923792  1
  Cl  Cl106  1  1.94382015  -0.14556864  1.24923792  1
  Cl  Cl107  1  0.55617985  2.14556864  0.74923792  1
  Cl  Cl108  1  1.89556864  -0.19382015  1.00076208  1
  Cl  Cl109  1  -0.39556864  1.19382015  0.50076208  1
  Cl  Cl110  1  0.55617985  -0.14556864  1.25076208  1
  Cl  Cl111  1  1.94382015  2.14556864  0.75076208  1
  Cl  Cl112  1  0.22048432  0.65002040  0.58153610  1
  Cl  Cl113  1  0.27951568  0.34997960  0.08153610  1
  Cl  Cl114  1  0.59997960  0.97048432  0.83153610  1
  Cl  Cl115  1  0.90002040  0.02951568  0.33153610  1
  Cl  Cl116  1  0.27951568  0.65002040  0.91846390  1
  Cl  Cl117  1  0.22048432  0.34997960  0.41846390  1
  Cl  Cl118  1  0.90002040  0.97048432  0.66846390  1
  Cl  Cl119  1  0.59997960  0.02951568  0.16846390  1
  Cl  Cl120  1  0.77951568  0.34997960  0.41846390  1
  Cl  Cl121  1  0.72048432  0.65002040  0.91846390  1
  Cl  Cl122  1  0.40002040  0.02951568  0.16846390  1
  Cl  Cl123  1  0.09997960  0.97048432  0.66846390  1
  Cl  Cl124  1  0.72048432  0.34997960  0.08153610  1
  Cl  Cl125  1  0.77951568  0.65002040  0.58153610  1
  Cl  Cl126  1  0.09997960  0.02951568  0.33153610  1
  Cl  Cl127  1  0.40002040  0.97048432  0.83153610  1
  Cl  Cl128  1  0.72048432  0.15002040  0.08153610  1
  Cl  Cl129  1  0.77951568  0.84997960  0.58153610  1
  Cl  Cl130  1  0.09997960  0.47048432  0.33153610  1
  Cl  Cl131  1  0.40002040  0.52951568  0.83153610  1
  Cl  Cl132  1  0.77951568  0.15002040  0.41846390  1
  Cl  Cl133  1  0.72048432  0.84997960  0.91846390  1
  Cl  Cl134  1  0.40002040  0.47048432  0.16846390  1
  Cl  Cl135  1  0.09997960  0.52951568  0.66846390  1
  Cl  Cl136  1  0.27951568  0.84997960  0.91846390  1
  Cl  Cl137  1  0.22048432  0.15002040  0.41846390  1
  Cl  Cl138  1  0.90002040  0.52951568  0.66846390  1
  Cl  Cl139  1  0.59997960  0.47048432  0.16846390  1
  Cl  Cl140  1  0.22048432  0.84997960  0.58153610  1
  Cl  Cl141  1  0.27951568  0.15002040  0.08153610  1
  Cl  Cl142  1  0.59997960  0.52951568  0.83153610  1
  Cl  Cl143  1  0.90002040  0.47048432  0.33153610  1
  Cl  Cl144  1  0.00000000  0.64923295  0.79194878  1
  Cl  Cl145  1  0.50000000  0.35076705  0.29194878  1
  Cl  Cl146  1  0.60076705  0.75000000  0.04194878  1
  Cl  Cl147  1  0.89923295  0.25000000  0.54194878  1
  Cl  Cl148  1  0.50000000  0.64923295  0.70805122  1
  Cl  Cl149  1  0.00000000  0.35076705  0.20805122  1
  Cl  Cl150  1  0.89923295  0.75000000  0.45805122  1
  Cl  Cl151  1  0.60076705  0.25000000  0.95805122  1
  Cl  Cl152  1  0.50000000  0.14923295  0.29194878  1
  Cl  Cl153  1  0.00000000  0.85076705  0.79194878  1
  Cl  Cl154  1  0.10076705  0.25000000  0.54194878  1
  Cl  Cl155  1  0.39923295  0.75000000  0.04194878  1
  Cl  Cl156  1  0.00000000  0.14923295  0.20805122  1
  Cl  Cl157  1  0.50000000  0.85076705  0.70805122  1
  Cl  Cl158  1  0.39923295  0.25000000  0.95805122  1
  Cl  Cl159  1  0.10076705  0.75000000  0.45805122  1
  Li  Li160  1  0.64825805  0.12854154  0.35097534  1
  Li  Li161  1  0.85174195  0.87145846  0.85097534  1
  Li  Li162  1  0.12145846  0.39825805  0.60097534  1
  Li  Li163  1  0.37854154  0.60174195  0.10097534  1
  Li  Li164  1  0.85174195  0.12854154  0.14902466  1
  Li  Li165  1  0.64825805  0.87145846  0.64902466  1
  Li  Li166  1  0.37854154  0.39825805  0.89902466  1
  Li  Li167  1  0.12145846  0.60174195  0.39902466  1
  Li  Li168  1  0.35174195  0.87145846  0.64902466  1
  Li  Li169  1  0.14825805  0.12854154  0.14902466  1
  Li  Li170  1  0.87854154  0.60174195  0.39902466  1
  Li  Li171  1  0.62145846  0.39825805  0.89902466  1
  Li  Li172  1  0.14825805  0.87145846  0.85097534  1
  Li  Li173  1  0.35174195  0.12854154  0.35097534  1
  Li  Li174  1  0.62145846  0.60174195  0.10097534  1
  Li  Li175  1  0.87854154  0.39825805  0.60097534  1
  Li  Li176  1  0.14825805  0.62854154  0.85097534  1
  Li  Li177  1  0.35174195  0.37145846  0.35097534  1
  Li  Li178  1  0.62145846  0.89825805  0.10097534  1
  Li  Li179  1  0.87854154  0.10174195  0.60097534  1
  Li  Li180  1  0.35174195  0.62854154  0.64902466  1
  Li  Li181  1  0.14825805  0.37145846  0.14902466  1
  Li  Li182  1  0.87854154  0.89825805  0.39902466  1
  Li  Li183  1  0.62145846  0.10174195  0.89902466  1
  Li  Li184  1  0.85174195  0.37145846  0.14902466  1
  Li  Li185  1  0.64825805  0.62854154  0.64902466  1
  Li  Li186  1  0.37854154  0.10174195  0.89902466  1
  Li  Li187  1  0.12145846  0.89825805  0.39902466  1
  Li  Li188  1  0.64825805  0.37145846  0.35097534  1
  Li  Li189  1  0.85174195  0.62854154  0.85097534  1
  Li  Li190  1  0.12145846  0.10174195  0.60097534  1
  Li  Li191  1  0.37854154  0.89825805  0.10097534  1
  Ti  Ti192  1  0.00000000  0.25000000  0.46964452  1
  Ti  Ti193  1  0.00000000  0.75000000  0.71964452  1
  Ti  Ti194  1  0.50000000  0.25000000  0.03035548  1
  Ti  Ti195  1  0.50000000  0.75000000  0.78035548  1
  Ti  Ti196  1  0.50000000  0.75000000  0.96964452  1
  Ti  Ti197  1  0.50000000  0.25000000  0.21964452  1
  Ti  Ti198  1  0.00000000  0.75000000  0.53035548  1
  Ti  Ti199  1  0.00000000  0.25000000  0.28035548  1
  Zr  Zr200  1  0.00000000  0.00000000  0.00000000  1
  Zr  Zr201  1  0.50000000  0.00000000  0.50000000  1
  Zr  Zr202  1  0.25000000  0.75000000  0.25000000  1
  Zr  Zr203  1  0.25000000  0.25000000  0.75000000  1
  Zr  Zr204  1  0.50000000  0.50000000  0.50000000  1
  Zr  Zr205  1  0.00000000  0.50000000  -0.00000000  1
  Zr  Zr206  1  0.75000000  0.25000000  0.75000000  1
  Zr  Zr207  1  0.75000000  0.75000000  0.25000000  1
  Zr  Zr208  1  0.07073430  0.32073430  0.87500000  1
  Zr  Zr209  1  0.42926570  0.67926570  0.37500000  1
  Zr  Zr210  1  0.92926570  0.82073430  0.12500000  1
  Zr  Zr211  1  0.57073430  0.17926570  0.62500000  1
  Zr  Zr212  1  0.92926570  0.67926570  0.12500000  1
  Zr  Zr213  1  0.57073430  0.32073430  0.62500000  1
  Zr  Zr214  1  0.07073430  0.17926570  0.87500000  1
  Zr  Zr215  1  0.42926570  0.82073430  0.37500000  1
  Zr  Zr216  1  0.57073430  0.82073430  0.37500000  1
  Zr  Zr217  1  0.92926570  0.17926570  0.87500000  1
  Zr  Zr218  1  0.42926570  0.32073430  0.62500000  1
  Zr  Zr219  1  0.07073430  0.67926570  0.12500000  1
  Zr  Zr220  1  0.42926570  0.17926570  0.62500000  1
  Zr  Zr221  1  0.07073430  0.82073430  0.12500000  1
  Zr  Zr222  1  0.57073430  0.67926570  0.37500000  1
  Zr  Zr223  1  0.92926570  0.32073430  0.87500000  1
