# generated using pymatgen
data_Li3Ca2Te2SeBr
_symmetry_space_group_name_H-M   'P 1'
_cell_length_a   11.08817174
_cell_length_b   11.08817174
_cell_length_c   32.05234525
_cell_angle_alpha   90.00000000
_cell_angle_beta   90.00000000
_cell_angle_gamma   90.00000000
_symmetry_Int_Tables_number   1
_chemical_formula_structural   Li3Ca2Te2SeBr
_chemical_formula_sum   'Li48 Ca32 Te32 Se16 Br16'
_cell_volume   3940.75740043
_cell_formula_units_Z   16
loop_
 _symmetry_equiv_pos_site_id
 _symmetry_equiv_pos_as_xyz
  1  'x, y, z'
loop_
 _atom_site_type_symbol
 _atom_site_label
 _atom_site_symmetry_multiplicity
 _atom_site_fract_x
 _atom_site_fract_y
 _atom_site_fract_z
 _atom_site_occupancy
  Br  Br0  1  0.29903929  0.54903929  0.12500000  1
  Br  Br1  1  0.20096071  0.45096071  0.62500000  1
  Br  Br2  1  0.70096071  0.04903929  0.37500000  1
  Br  Br3  1  0.79903929  0.95096071  0.87500000  1
  Br  Br4  1  0.70096071  0.45096071  0.87500000  1
  Br  Br5  1  0.79903929  0.54903929  0.37500000  1
  Br  Br6  1  0.29903929  0.95096071  0.62500000  1
  Br  Br7  1  0.20096071  0.04903929  0.12500000  1
  Br  Br8  1  0.79903929  0.04903929  0.62500000  1
  Br  Br9  1  0.70096071  0.95096071  0.12500000  1
  Br  Br10  1  0.20096071  0.54903929  0.87500000  1
  Br  Br11  1  0.29903929  0.45096071  0.37500000  1
  Br  Br12  1  0.20096071  0.95096071  0.37500000  1
  Br  Br13  1  0.29903929  0.04903929  0.87500000  1
  Br  Br14  1  0.79903929  0.45096071  0.12500000  1
  Br  Br15  1  0.70096071  0.54903929  0.62500000  1
  Ca  Ca16  1  0.00000000  0.25000000  0.12500000  1
  Ca  Ca17  1  0.00000000  0.75000000  0.37500000  1
  Ca  Ca18  1  0.00000000  0.75000000  0.87500000  1
  Ca  Ca19  1  0.00000000  0.25000000  0.62500000  1
  Ca  Ca20  1  0.50000000  0.75000000  0.62500000  1
  Ca  Ca21  1  0.50000000  0.25000000  0.87500000  1
  Ca  Ca22  1  0.50000000  0.25000000  0.37500000  1
  Ca  Ca23  1  0.50000000  0.75000000  0.12500000  1
  Ca  Ca24  1  0.80821870  -0.00000000  0.25000000  1
  Ca  Ca25  1  0.69178130  -0.00000000  0.75000000  1
  Ca  Ca26  1  0.25000000  0.55821870  0.50000000  1
  Ca  Ca27  1  0.25000000  0.44178130  -0.00000000  1
  Ca  Ca28  1  0.19178130  0.00000000  0.75000000  1
  Ca  Ca29  1  0.30821870  -0.00000000  0.25000000  1
  Ca  Ca30  1  0.75000000  0.44178130  0.50000000  1
  Ca  Ca31  1  0.75000000  0.55821870  -0.00000000  1
  Ca  Ca32  1  0.30821870  0.50000000  0.75000000  1
  Ca  Ca33  1  0.19178130  0.50000000  0.25000000  1
  Ca  Ca34  1  0.75000000  0.05821870  -0.00000000  1
  Ca  Ca35  1  0.75000000  0.94178130  0.50000000  1
  Ca  Ca36  1  0.69178130  0.50000000  0.25000000  1
  Ca  Ca37  1  0.80821870  0.50000000  0.75000000  1
  Ca  Ca38  1  0.25000000  0.94178130  0.00000000  1
  Ca  Ca39  1  0.25000000  0.05821870  0.50000000  1
  Ca  Ca40  1  0.00000000  0.25000000  0.37500000  1
  Ca  Ca41  1  0.00000000  0.75000000  0.62500000  1
  Ca  Ca42  1  0.50000000  0.25000000  0.62500000  1
  Ca  Ca43  1  0.50000000  0.75000000  0.37500000  1
  Ca  Ca44  1  0.50000000  0.75000000  0.87500000  1
  Ca  Ca45  1  0.50000000  0.25000000  0.12500000  1
  Ca  Ca46  1  0.00000000  0.75000000  0.12500000  1
  Ca  Ca47  1  0.00000000  0.25000000  0.87500000  1
  Li  Li48  1  0.00000000  0.00000000  0.00000000  1
  Li  Li49  1  0.50000000  -0.00000000  0.50000000  1
  Li  Li50  1  0.25000000  0.75000000  0.25000000  1
  Li  Li51  1  0.25000000  0.25000000  0.75000000  1
  Li  Li52  1  0.50000000  -0.00000000  0.00000000  1
  Li  Li53  1  0.00000000  0.00000000  0.50000000  1
  Li  Li54  1  0.25000000  0.75000000  0.75000000  1
  Li  Li55  1  0.25000000  0.25000000  0.25000000  1
  Li  Li56  1  0.50000000  0.50000000  0.50000000  1
  Li  Li57  1  0.00000000  0.50000000  0.00000000  1
  Li  Li58  1  0.75000000  0.25000000  0.75000000  1
  Li  Li59  1  0.75000000  0.75000000  0.25000000  1
  Li  Li60  1  0.00000000  0.50000000  0.50000000  1
  Li  Li61  1  0.50000000  0.50000000  0.00000000  1
  Li  Li62  1  0.75000000  0.25000000  0.25000000  1
  Li  Li63  1  0.75000000  0.75000000  0.75000000  1
  Li  Li64  1  0.00000000  0.25000000  0.06432384  1
  Li  Li65  1  0.00000000  0.75000000  0.31432384  1
  Li  Li66  1  0.50000000  0.25000000  0.93567616  1
  Li  Li67  1  0.50000000  0.75000000  0.68567616  1
  Li  Li68  1  0.00000000  0.75000000  0.93567616  1
  Li  Li69  1  0.00000000  0.25000000  0.68567616  1
  Li  Li70  1  0.50000000  0.75000000  0.06432384  1
  Li  Li71  1  0.50000000  0.25000000  0.31432384  1
  Li  Li72  1  0.50000000  0.75000000  0.56432384  1
  Li  Li73  1  0.50000000  0.25000000  0.81432384  1
  Li  Li74  1  0.00000000  0.75000000  0.43567616  1
  Li  Li75  1  0.00000000  0.25000000  0.18567616  1
  Li  Li76  1  0.50000000  0.25000000  0.43567616  1
  Li  Li77  1  0.50000000  0.75000000  0.18567616  1
  Li  Li78  1  0.00000000  0.25000000  0.56432384  1
  Li  Li79  1  0.00000000  0.75000000  0.81432384  1
  Li  Li80  1  0.79205935  0.04205935  0.12500000  1
  Li  Li81  1  0.70794065  0.95794065  0.62500000  1
  Li  Li82  1  0.20794065  0.54205935  0.37500000  1
  Li  Li83  1  0.29205935  0.45794065  0.87500000  1
  Li  Li84  1  0.20794065  0.95794065  0.87500000  1
  Li  Li85  1  0.29205935  0.04205935  0.37500000  1
  Li  Li86  1  0.79205935  0.45794065  0.62500000  1
  Li  Li87  1  0.70794065  0.54205935  0.12500000  1
  Li  Li88  1  0.29205935  0.54205935  0.62500000  1
  Li  Li89  1  0.20794065  0.45794065  0.12500000  1
  Li  Li90  1  0.70794065  0.04205935  0.87500000  1
  Li  Li91  1  0.79205935  0.95794065  0.37500000  1
  Li  Li92  1  0.70794065  0.45794065  0.37500000  1
  Li  Li93  1  0.79205935  0.54205935  0.87500000  1
  Li  Li94  1  0.29205935  0.95794065  0.12500000  1
  Li  Li95  1  0.20794065  0.04205935  0.62500000  1
  Se  Se96  1  0.62535829  0.00000000  0.25000000  1
  Se  Se97  1  0.87464171  -0.00000000  0.75000000  1
  Se  Se98  1  0.25000000  0.37535829  0.50000000  1
  Se  Se99  1  0.25000000  0.62464171  -0.00000000  1
  Se  Se100  1  0.37464171  -0.00000000  0.75000000  1
  Se  Se101  1  0.12535829  -0.00000000  0.25000000  1
  Se  Se102  1  0.75000000  0.62464171  0.50000000  1
  Se  Se103  1  0.75000000  0.37535829  -0.00000000  1
  Se  Se104  1  0.12535829  0.50000000  0.75000000  1
  Se  Se105  1  0.37464171  0.50000000  0.25000000  1
  Se  Se106  1  0.75000000  0.87535829  -0.00000000  1
  Se  Se107  1  0.75000000  0.12464171  0.50000000  1
  Se  Se108  1  0.87464171  0.50000000  0.25000000  1
  Se  Se109  1  0.62535829  0.50000000  0.75000000  1
  Se  Se110  1  0.25000000  0.12464171  -0.00000000  1
  Se  Se111  1  0.25000000  0.87535829  0.50000000  1
  Te  Te112  1  0.05632250  0.70637133  0.69472262  1
  Te  Te113  1  0.44367750  -0.70637133  1.19472262  1
  Te  Te114  1  -0.45637133  0.80632250  0.94472262  1
  Te  Te115  1  0.95637133  0.19367750  1.44472262  1
  Te  Te116  1  0.44367750  0.70637133  -0.69472262  1
  Te  Te117  1  0.05632250  -0.70637133  -0.19472262  1
  Te  Te118  1  0.95637133  0.80632250  0.05527738  1
  Te  Te119  1  -0.45637133  0.19367750  -0.44472262  1
  Te  Te120  1  -0.05632250  -0.70637133  -0.69472262  1
  Te  Te121  1  0.55632250  0.70637133  -0.19472262  1
  Te  Te122  1  1.45637133  0.19367750  0.05527738  1
  Te  Te123  1  0.04362867  0.80632250  -0.44472262  1
  Te  Te124  1  0.55632250  -0.70637133  0.69472262  1
  Te  Te125  1  -0.05632250  0.70637133  1.19472262  1
  Te  Te126  1  0.04362867  0.19367750  0.94472262  1
  Te  Te127  1  1.45637133  0.80632250  1.44472262  1
  Te  Te128  1  0.55632250  1.20637133  1.19472262  1
  Te  Te129  1  0.94367750  -0.20637133  1.69472262  1
  Te  Te130  1  0.04362867  1.30632250  1.44472262  1
  Te  Te131  1  1.45637133  0.69367750  1.94472262  1
  Te  Te132  1  0.94367750  1.20637133  -0.19472262  1
  Te  Te133  1  0.55632250  -0.20637133  0.30527738  1
  Te  Te134  1  1.45637133  1.30632250  0.55527738  1
  Te  Te135  1  0.04362867  0.69367750  0.05527738  1
  Te  Te136  1  0.44367750  -0.20637133  -0.19472262  1
  Te  Te137  1  1.05632250  1.20637133  0.30527738  1
  Te  Te138  1  1.95637133  0.69367750  0.55527738  1
  Te  Te139  1  0.54362867  1.30632250  0.05527738  1
  Te  Te140  1  1.05632250  -0.20637133  1.19472262  1
  Te  Te141  1  0.44367750  1.20637133  1.69472262  1
  Te  Te142  1  0.54362867  0.69367750  1.44472262  1
  Te  Te143  1  1.95637133  1.30632250  1.94472262  1
