# generated using pymatgen
data_Li2S
_symmetry_space_group_name_H-M   'P 1'
_cell_length_a   7.67156304
_cell_length_b   9.12678090
_cell_length_c   6.26058151
_cell_angle_alpha   90.00000000
_cell_angle_beta   90.00000000
_cell_angle_gamma   90.00000000
_symmetry_Int_Tables_number   1
_chemical_formula_structural   Li2S
_chemical_formula_sum   'Li16 S8'
_cell_volume   438.34510158
_cell_formula_units_Z   8
loop_
 _symmetry_equiv_pos_site_id
 _symmetry_equiv_pos_as_xyz
  1  'x, y, z'
loop_
 _atom_site_type_symbol
 _atom_site_label
 _atom_site_symmetry_multiplicity
 _atom_site_fract_x
 _atom_site_fract_y
 _atom_site_fract_z
 _atom_site_occupancy
  Li  Li0  1  0.13952218  0.84346122  0.61154965  1
  Li  Li1  1  0.36047782  -0.84346122  1.11154965  1
  Li  Li2  1  -0.13952218  1.34346122  -0.61154965  1
  Li  Li3  1  0.63952218  -0.34346122  -0.11154965  1
  Li  Li4  1  -0.13952218  -0.84346122  -0.61154965  1
  Li  Li5  1  0.63952218  0.84346122  -0.11154965  1
  Li  Li6  1  0.13952218  -0.34346122  0.61154965  1
  Li  Li7  1  0.36047782  1.34346122  1.11154965  1
  Li  Li8  1  0.34390038  0.90531086  0.07173116  1
  Li  Li9  1  0.15609962  0.09468914  0.57173116  1
  Li  Li10  1  0.65609962  0.40531086  0.92826884  1
  Li  Li11  1  0.84390038  0.59468914  0.42826884  1
  Li  Li12  1  0.65609962  0.09468914  0.92826884  1
  Li  Li13  1  0.84390038  0.90531086  0.42826884  1
  Li  Li14  1  0.34390038  0.59468914  0.07173116  1
  Li  Li15  1  0.15609962  0.40531086  0.57173116  1
  S  S16  1  0.02713481  0.25000000  0.15054639  1
  S  S17  1  0.47286519  0.75000000  0.65054639  1
  S  S18  1  0.97286519  0.75000000  0.84945361  1
  S  S19  1  0.52713481  0.25000000  0.34945361  1
  S  S20  1  0.00000000  0.00000000  0.50000000  1
  S  S21  1  0.50000000  0.00000000  -0.00000000  1
  S  S22  1  0.00000000  0.50000000  0.50000000  1
  S  S23  1  0.50000000  0.50000000  0.00000000  1
