# generated using pymatgen
data_Li2O
_symmetry_space_group_name_H-M   'P 1'
_cell_length_a   8.54494566
_cell_length_b   8.54494566
_cell_length_c   8.42812924
_cell_angle_alpha   90.00000000
_cell_angle_beta   90.00000000
_cell_angle_gamma   120.00000000
_symmetry_Int_Tables_number   1
_chemical_formula_structural   Li2O
_chemical_formula_sum   'Li36 O18'
_cell_volume   532.94259064
_cell_formula_units_Z   18
loop_
 _symmetry_equiv_pos_site_id
 _symmetry_equiv_pos_as_xyz
  1  'x, y, z'
loop_
 _atom_site_type_symbol
 _atom_site_label
 _atom_site_symmetry_multiplicity
 _atom_site_fract_x
 _atom_site_fract_y
 _atom_site_fract_z
 _atom_site_occupancy
  Li  Li0  1  0.23203326  0.22036735  0.25000000  1
  Li  Li1  1  0.77963265  0.01166591  0.25000000  1
  Li  Li2  1  0.98833409  0.76796674  0.25000000  1
  Li  Li3  1  0.76796674  0.77963265  0.75000000  1
  Li  Li4  1  0.22036735  0.98833409  0.75000000  1
  Li  Li5  1  0.01166591  0.23203326  0.75000000  1
  Li  Li6  1  0.84969219  0.45316927  0.00320205  1
  Li  Li7  1  -0.45316927  0.39652292  0.00320205  1
  Li  Li8  1  -0.39652292  -0.84969219  0.00320205  1
  Li  Li9  1  -0.84969219  -0.45316927  0.50320205  1
  Li  Li10  1  0.45316927  -0.39652292  0.50320205  1
  Li  Li11  1  0.39652292  0.84969219  0.50320205  1
  Li  Li12  1  -0.84969219  -0.45316927  -0.00320205  1
  Li  Li13  1  0.45316927  -0.39652292  -0.00320205  1
  Li  Li14  1  0.39652292  0.84969219  -0.00320205  1
  Li  Li15  1  0.84969219  0.45316927  0.49679795  1
  Li  Li16  1  -0.45316927  0.39652292  0.49679795  1
  Li  Li17  1  -0.39652292  -0.84969219  0.49679795  1
  Li  Li18  1  0.72087107  0.78776905  0.12474723  1
  Li  Li19  1  0.21223095  0.93310203  0.12474723  1
  Li  Li20  1  0.06689797  0.27912893  0.12474723  1
  Li  Li21  1  0.27912893  0.21223095  0.62474723  1
  Li  Li22  1  0.78776905  0.06689797  0.62474723  1
  Li  Li23  1  0.93310203  0.72087107  0.62474723  1
  Li  Li24  1  0.27912893  0.21223095  0.87525277  1
  Li  Li25  1  0.78776905  0.06689797  0.87525277  1
  Li  Li26  1  0.93310203  0.72087107  0.87525277  1
  Li  Li27  1  0.72087107  0.78776905  0.37525277  1
  Li  Li28  1  0.21223095  0.93310203  0.37525277  1
  Li  Li29  1  0.06689797  0.27912893  0.37525277  1
  Li  Li30  1  0.99907115  0.10047642  0.25000000  1
  Li  Li31  1  0.89952358  0.89859473  0.25000000  1
  Li  Li32  1  0.10140527  0.00092885  0.25000000  1
  Li  Li33  1  0.00092885  0.89952358  0.75000000  1
  Li  Li34  1  0.10047642  0.10140527  0.75000000  1
  Li  Li35  1  0.89859473  0.99907115  0.75000000  1
  O  O36  1  0.33333333  0.66666667  0.57645066  1
  O  O37  1  0.66666667  0.33333333  0.07645066  1
  O  O38  1  0.66666667  0.33333333  0.42354934  1
  O  O39  1  0.33333333  0.66666667  0.92354934  1
  O  O40  1  0.00000000  0.00000000  0.00000000  1
  O  O41  1  0.00000000  0.00000000  0.50000000  1
  O  O42  1  0.50000000  0.00000000  0.00000000  1
  O  O43  1  0.00000000  0.50000000  0.00000000  1
  O  O44  1  0.50000000  0.50000000  0.00000000  1
  O  O45  1  0.50000000  0.00000000  0.50000000  1
  O  O46  1  0.00000000  0.50000000  0.50000000  1
  O  O47  1  0.50000000  0.50000000  0.50000000  1
  O  O48  1  0.61633222  0.66889693  0.25000000  1
  O  O49  1  0.33110307  0.94743529  0.25000000  1
  O  O50  1  0.05256471  0.38366778  0.25000000  1
  O  O51  1  0.38366778  0.33110307  0.75000000  1
  O  O52  1  0.66889693  0.05256471  0.75000000  1
  O  O53  1  0.94743529  0.61633222  0.75000000  1
