# generated using pymatgen
data_K2Li12MgCl16
_symmetry_space_group_name_H-M   'P 1'
_cell_length_a   19.49410486
_cell_length_b   19.49410486
_cell_length_c   19.49410486
_cell_angle_alpha   90.00000000
_cell_angle_beta   90.00000000
_cell_angle_gamma   90.00000000
_symmetry_Int_Tables_number   1
_chemical_formula_structural   K2Li12MgCl16
_chemical_formula_sum   'K24 Li144 Mg12 Cl192'
_cell_volume   7408.15215725
_cell_formula_units_Z   12
loop_
 _symmetry_equiv_pos_site_id
 _symmetry_equiv_pos_as_xyz
  1  'x, y, z'
loop_
 _atom_site_type_symbol
 _atom_site_label
 _atom_site_symmetry_multiplicity
 _atom_site_fract_x
 _atom_site_fract_y
 _atom_site_fract_z
 _atom_site_occupancy
  Cl  Cl0  1  0.20795438  0.20795438  0.42360944  1
  Cl  Cl1  1  -0.20795438  -0.20795438  0.42360944  1
  Cl  Cl2  1  -0.20795438  0.20795438  -0.42360944  1
  Cl  Cl3  1  0.20795438  -0.20795438  -0.42360944  1
  Cl  Cl4  1  0.42360944  0.20795438  0.20795438  1
  Cl  Cl5  1  0.42360944  -0.20795438  -0.20795438  1
  Cl  Cl6  1  -0.42360944  -0.20795438  0.20795438  1
  Cl  Cl7  1  -0.42360944  0.20795438  -0.20795438  1
  Cl  Cl8  1  0.20795438  0.42360944  0.20795438  1
  Cl  Cl9  1  -0.20795438  0.42360944  -0.20795438  1
  Cl  Cl10  1  0.20795438  -0.42360944  -0.20795438  1
  Cl  Cl11  1  -0.20795438  -0.42360944  0.20795438  1
  Cl  Cl12  1  0.20795438  0.20795438  -0.42360944  1
  Cl  Cl13  1  -0.20795438  -0.20795438  -0.42360944  1
  Cl  Cl14  1  0.20795438  -0.20795438  0.42360944  1
  Cl  Cl15  1  -0.20795438  0.20795438  0.42360944  1
  Cl  Cl16  1  0.20795438  0.42360944  -0.20795438  1
  Cl  Cl17  1  -0.20795438  0.42360944  0.20795438  1
  Cl  Cl18  1  -0.20795438  -0.42360944  -0.20795438  1
  Cl  Cl19  1  0.20795438  -0.42360944  0.20795438  1
  Cl  Cl20  1  0.42360944  0.20795438  -0.20795438  1
  Cl  Cl21  1  0.42360944  -0.20795438  0.20795438  1
  Cl  Cl22  1  -0.42360944  0.20795438  0.20795438  1
  Cl  Cl23  1  -0.42360944  -0.20795438  -0.20795438  1
  Cl  Cl24  1  0.20795438  0.70795438  0.92360944  1
  Cl  Cl25  1  -0.20795438  0.29204562  0.92360944  1
  Cl  Cl26  1  -0.20795438  0.70795438  0.07639056  1
  Cl  Cl27  1  0.20795438  0.29204562  0.07639056  1
  Cl  Cl28  1  0.42360944  0.70795438  0.70795438  1
  Cl  Cl29  1  0.42360944  0.29204562  0.29204562  1
  Cl  Cl30  1  -0.42360944  0.29204562  0.70795438  1
  Cl  Cl31  1  -0.42360944  0.70795438  0.29204562  1
  Cl  Cl32  1  0.20795438  0.92360944  0.70795438  1
  Cl  Cl33  1  -0.20795438  0.92360944  0.29204562  1
  Cl  Cl34  1  0.20795438  0.07639056  0.29204562  1
  Cl  Cl35  1  -0.20795438  0.07639056  0.70795438  1
  Cl  Cl36  1  0.20795438  0.70795438  0.07639056  1
  Cl  Cl37  1  -0.20795438  0.29204562  0.07639056  1
  Cl  Cl38  1  0.20795438  0.29204562  0.92360944  1
  Cl  Cl39  1  -0.20795438  0.70795438  0.92360944  1
  Cl  Cl40  1  0.20795438  0.92360944  0.29204562  1
  Cl  Cl41  1  -0.20795438  0.92360944  0.70795438  1
  Cl  Cl42  1  -0.20795438  0.07639056  0.29204562  1
  Cl  Cl43  1  0.20795438  0.07639056  0.70795438  1
  Cl  Cl44  1  0.42360944  0.70795438  0.29204562  1
  Cl  Cl45  1  0.42360944  0.29204562  0.70795438  1
  Cl  Cl46  1  -0.42360944  0.70795438  0.70795438  1
  Cl  Cl47  1  -0.42360944  0.29204562  0.29204562  1
  Cl  Cl48  1  0.70795438  0.20795438  0.92360944  1
  Cl  Cl49  1  0.29204562  -0.20795438  0.92360944  1
  Cl  Cl50  1  0.29204562  0.20795438  0.07639056  1
  Cl  Cl51  1  0.70795438  -0.20795438  0.07639056  1
  Cl  Cl52  1  0.92360944  0.20795438  0.70795438  1
  Cl  Cl53  1  0.92360944  -0.20795438  0.29204562  1
  Cl  Cl54  1  0.07639056  -0.20795438  0.70795438  1
  Cl  Cl55  1  0.07639056  0.20795438  0.29204562  1
  Cl  Cl56  1  0.70795438  0.42360944  0.70795438  1
  Cl  Cl57  1  0.29204562  0.42360944  0.29204562  1
  Cl  Cl58  1  0.70795438  -0.42360944  0.29204562  1
  Cl  Cl59  1  0.29204562  -0.42360944  0.70795438  1
  Cl  Cl60  1  0.70795438  0.20795438  0.07639056  1
  Cl  Cl61  1  0.29204562  -0.20795438  0.07639056  1
  Cl  Cl62  1  0.70795438  -0.20795438  0.92360944  1
  Cl  Cl63  1  0.29204562  0.20795438  0.92360944  1
  Cl  Cl64  1  0.70795438  0.42360944  0.29204562  1
  Cl  Cl65  1  0.29204562  0.42360944  0.70795438  1
  Cl  Cl66  1  0.29204562  -0.42360944  0.29204562  1
  Cl  Cl67  1  0.70795438  -0.42360944  0.70795438  1
  Cl  Cl68  1  0.92360944  0.20795438  0.29204562  1
  Cl  Cl69  1  0.92360944  -0.20795438  0.70795438  1
  Cl  Cl70  1  0.07639056  0.20795438  0.70795438  1
  Cl  Cl71  1  0.07639056  -0.20795438  0.29204562  1
  Cl  Cl72  1  0.70795438  0.70795438  0.42360944  1
  Cl  Cl73  1  0.29204562  0.29204562  0.42360944  1
  Cl  Cl74  1  0.29204562  0.70795438  -0.42360944  1
  Cl  Cl75  1  0.70795438  0.29204562  -0.42360944  1
  Cl  Cl76  1  0.92360944  0.70795438  0.20795438  1
  Cl  Cl77  1  0.92360944  0.29204562  -0.20795438  1
  Cl  Cl78  1  0.07639056  0.29204562  0.20795438  1
  Cl  Cl79  1  0.07639056  0.70795438  -0.20795438  1
  Cl  Cl80  1  0.70795438  0.92360944  0.20795438  1
  Cl  Cl81  1  0.29204562  0.92360944  -0.20795438  1
  Cl  Cl82  1  0.70795438  0.07639056  -0.20795438  1
  Cl  Cl83  1  0.29204562  0.07639056  0.20795438  1
  Cl  Cl84  1  0.70795438  0.70795438  -0.42360944  1
  Cl  Cl85  1  0.29204562  0.29204562  -0.42360944  1
  Cl  Cl86  1  0.70795438  0.29204562  0.42360944  1
  Cl  Cl87  1  0.29204562  0.70795438  0.42360944  1
  Cl  Cl88  1  0.70795438  0.92360944  -0.20795438  1
  Cl  Cl89  1  0.29204562  0.92360944  0.20795438  1
  Cl  Cl90  1  0.29204562  0.07639056  -0.20795438  1
  Cl  Cl91  1  0.70795438  0.07639056  0.20795438  1
  Cl  Cl92  1  0.92360944  0.70795438  -0.20795438  1
  Cl  Cl93  1  0.92360944  0.29204562  0.20795438  1
  Cl  Cl94  1  0.07639056  0.70795438  0.20795438  1
  Cl  Cl95  1  0.07639056  0.29204562  -0.20795438  1
  Cl  Cl96  1  0.50000000  0.83370638  0.83370638  1
  Cl  Cl97  1  0.50000000  0.16629362  0.83370638  1
  Cl  Cl98  1  0.50000000  0.83370638  0.16629362  1
  Cl  Cl99  1  0.50000000  0.16629362  0.16629362  1
  Cl  Cl100  1  0.83370638  0.50000000  0.83370638  1
  Cl  Cl101  1  0.83370638  0.50000000  0.16629362  1
  Cl  Cl102  1  0.16629362  0.50000000  0.83370638  1
  Cl  Cl103  1  0.16629362  0.50000000  0.16629362  1
  Cl  Cl104  1  0.83370638  0.83370638  0.50000000  1
  Cl  Cl105  1  0.16629362  0.83370638  0.50000000  1
  Cl  Cl106  1  0.83370638  0.16629362  0.50000000  1
  Cl  Cl107  1  0.16629362  0.16629362  0.50000000  1
  Cl  Cl108  1  0.50000000  0.33370638  0.33370638  1
  Cl  Cl109  1  0.50000000  0.66629362  0.33370638  1
  Cl  Cl110  1  0.50000000  0.33370638  0.66629362  1
  Cl  Cl111  1  0.50000000  0.66629362  0.66629362  1
  Cl  Cl112  1  0.83370638  -0.00000000  0.33370638  1
  Cl  Cl113  1  0.83370638  -0.00000000  0.66629362  1
  Cl  Cl114  1  0.16629362  0.00000000  0.33370638  1
  Cl  Cl115  1  0.16629362  0.00000000  0.66629362  1
  Cl  Cl116  1  0.83370638  0.33370638  -0.00000000  1
  Cl  Cl117  1  0.16629362  0.33370638  0.00000000  1
  Cl  Cl118  1  0.83370638  0.66629362  -0.00000000  1
  Cl  Cl119  1  0.16629362  0.66629362  -0.00000000  1
  Cl  Cl120  1  0.00000000  0.83370638  0.33370638  1
  Cl  Cl121  1  0.00000000  0.16629362  0.33370638  1
  Cl  Cl122  1  0.00000000  0.83370638  0.66629362  1
  Cl  Cl123  1  0.00000000  0.16629362  0.66629362  1
  Cl  Cl124  1  0.33370638  0.50000000  0.33370638  1
  Cl  Cl125  1  0.33370638  0.50000000  0.66629362  1
  Cl  Cl126  1  0.66629362  0.50000000  0.33370638  1
  Cl  Cl127  1  0.66629362  0.50000000  0.66629362  1
  Cl  Cl128  1  0.33370638  0.83370638  -0.00000000  1
  Cl  Cl129  1  0.66629362  0.83370638  -0.00000000  1
  Cl  Cl130  1  0.33370638  0.16629362  0.00000000  1
  Cl  Cl131  1  0.66629362  0.16629362  -0.00000000  1
  Cl  Cl132  1  0.00000000  0.33370638  0.83370638  1
  Cl  Cl133  1  0.00000000  0.66629362  0.83370638  1
  Cl  Cl134  1  0.00000000  0.33370638  0.16629362  1
  Cl  Cl135  1  0.00000000  0.66629362  0.16629362  1
  Cl  Cl136  1  0.33370638  -0.00000000  0.83370638  1
  Cl  Cl137  1  0.33370638  -0.00000000  0.16629362  1
  Cl  Cl138  1  0.66629362  -0.00000000  0.83370638  1
  Cl  Cl139  1  0.66629362  -0.00000000  0.16629362  1
  Cl  Cl140  1  0.33370638  0.33370638  0.50000000  1
  Cl  Cl141  1  0.66629362  0.33370638  0.50000000  1
  Cl  Cl142  1  0.33370638  0.66629362  0.50000000  1
  Cl  Cl143  1  0.66629362  0.66629362  0.50000000  1
  Cl  Cl144  1  0.00000000  0.45178826  0.45178826  1
  Cl  Cl145  1  0.00000000  0.54821174  0.45178826  1
  Cl  Cl146  1  0.00000000  0.45178826  0.54821174  1
  Cl  Cl147  1  0.00000000  0.54821174  0.54821174  1
  Cl  Cl148  1  0.45178826  -0.00000000  0.45178826  1
  Cl  Cl149  1  0.45178826  -0.00000000  0.54821174  1
  Cl  Cl150  1  0.54821174  -0.00000000  0.45178826  1
  Cl  Cl151  1  0.54821174  -0.00000000  0.54821174  1
  Cl  Cl152  1  0.45178826  0.45178826  -0.00000000  1
  Cl  Cl153  1  0.54821174  0.45178826  0.00000000  1
  Cl  Cl154  1  0.45178826  0.54821174  0.00000000  1
  Cl  Cl155  1  0.54821174  0.54821174  -0.00000000  1
  Cl  Cl156  1  0.00000000  0.95178826  0.95178826  1
  Cl  Cl157  1  0.00000000  0.04821174  0.95178826  1
  Cl  Cl158  1  0.00000000  0.95178826  0.04821174  1
  Cl  Cl159  1  0.00000000  0.04821174  0.04821174  1
  Cl  Cl160  1  0.45178826  0.50000000  0.95178826  1
  Cl  Cl161  1  0.45178826  0.50000000  0.04821174  1
  Cl  Cl162  1  0.54821174  0.50000000  0.95178826  1
  Cl  Cl163  1  0.54821174  0.50000000  0.04821174  1
  Cl  Cl164  1  0.45178826  0.95178826  0.50000000  1
  Cl  Cl165  1  0.54821174  0.95178826  0.50000000  1
  Cl  Cl166  1  0.45178826  0.04821174  0.50000000  1
  Cl  Cl167  1  0.54821174  0.04821174  0.50000000  1
  Cl  Cl168  1  0.50000000  0.45178826  0.95178826  1
  Cl  Cl169  1  0.50000000  0.54821174  0.95178826  1
  Cl  Cl170  1  0.50000000  0.45178826  0.04821174  1
  Cl  Cl171  1  0.50000000  0.54821174  0.04821174  1
  Cl  Cl172  1  0.95178826  0.00000000  0.95178826  1
  Cl  Cl173  1  0.95178826  0.00000000  0.04821174  1
  Cl  Cl174  1  0.04821174  0.00000000  0.95178826  1
  Cl  Cl175  1  0.04821174  0.00000000  0.04821174  1
  Cl  Cl176  1  0.95178826  0.45178826  0.50000000  1
  Cl  Cl177  1  0.04821174  0.45178826  0.50000000  1
  Cl  Cl178  1  0.95178826  0.54821174  0.50000000  1
  Cl  Cl179  1  0.04821174  0.54821174  0.50000000  1
  Cl  Cl180  1  0.50000000  0.95178826  0.45178826  1
  Cl  Cl181  1  0.50000000  0.04821174  0.45178826  1
  Cl  Cl182  1  0.50000000  0.95178826  0.54821174  1
  Cl  Cl183  1  0.50000000  0.04821174  0.54821174  1
  Cl  Cl184  1  0.95178826  0.50000000  0.45178826  1
  Cl  Cl185  1  0.95178826  0.50000000  0.54821174  1
  Cl  Cl186  1  0.04821174  0.50000000  0.45178826  1
  Cl  Cl187  1  0.04821174  0.50000000  0.54821174  1
  Cl  Cl188  1  0.95178826  0.95178826  0.00000000  1
  Cl  Cl189  1  0.04821174  0.95178826  0.00000000  1
  Cl  Cl190  1  0.95178826  0.04821174  0.00000000  1
  Cl  Cl191  1  0.04821174  0.04821174  -0.00000000  1
  K  K192  1  0.69663390  0.00000000  0.00000000  1
  K  K193  1  0.30336610  0.00000000  0.00000000  1
  K  K194  1  0.00000000  0.69663390  0.00000000  1
  K  K195  1  0.00000000  0.30336610  0.00000000  1
  K  K196  1  0.00000000  0.00000000  0.69663390  1
  K  K197  1  0.00000000  0.00000000  0.30336610  1
  K  K198  1  0.69663390  0.50000000  0.50000000  1
  K  K199  1  0.30336610  0.50000000  0.50000000  1
  K  K200  1  0.00000000  0.19663390  0.50000000  1
  K  K201  1  0.00000000  0.80336610  0.50000000  1
  K  K202  1  0.00000000  0.50000000  0.19663390  1
  K  K203  1  0.00000000  0.50000000  0.80336610  1
  K  K204  1  0.19663390  0.00000000  0.50000000  1
  K  K205  1  0.80336610  -0.00000000  0.50000000  1
  K  K206  1  0.50000000  0.69663390  0.50000000  1
  K  K207  1  0.50000000  0.30336610  0.50000000  1
  K  K208  1  0.50000000  0.00000000  0.19663390  1
  K  K209  1  0.50000000  0.00000000  0.80336610  1
  K  K210  1  0.19663390  0.50000000  0.00000000  1
  K  K211  1  0.80336610  0.50000000  -0.00000000  1
  K  K212  1  0.50000000  0.19663390  0.00000000  1
  K  K213  1  0.50000000  0.80336610  -0.00000000  1
  K  K214  1  0.50000000  0.50000000  0.69663390  1
  K  K215  1  0.50000000  0.50000000  0.30336610  1
  Li  Li216  1  0.71660389  0.71660389  0.66161828  1
  Li  Li217  1  0.28339611  0.28339611  0.66161828  1
  Li  Li218  1  0.28339611  0.71660389  0.33838172  1
  Li  Li219  1  0.71660389  0.28339611  0.33838172  1
  Li  Li220  1  0.66161828  0.71660389  0.71660389  1
  Li  Li221  1  0.66161828  0.28339611  0.28339611  1
  Li  Li222  1  0.33838172  0.28339611  0.71660389  1
  Li  Li223  1  0.33838172  0.71660389  0.28339611  1
  Li  Li224  1  0.71660389  0.66161828  0.71660389  1
  Li  Li225  1  0.28339611  0.66161828  0.28339611  1
  Li  Li226  1  0.71660389  0.33838172  0.28339611  1
  Li  Li227  1  0.28339611  0.33838172  0.71660389  1
  Li  Li228  1  0.71660389  0.71660389  0.33838172  1
  Li  Li229  1  0.28339611  0.28339611  0.33838172  1
  Li  Li230  1  0.71660389  0.28339611  0.66161828  1
  Li  Li231  1  0.28339611  0.71660389  0.66161828  1
  Li  Li232  1  0.71660389  0.66161828  0.28339611  1
  Li  Li233  1  0.28339611  0.66161828  0.71660389  1
  Li  Li234  1  0.28339611  0.33838172  0.28339611  1
  Li  Li235  1  0.71660389  0.33838172  0.71660389  1
  Li  Li236  1  0.66161828  0.71660389  0.28339611  1
  Li  Li237  1  0.66161828  0.28339611  0.71660389  1
  Li  Li238  1  0.33838172  0.71660389  0.71660389  1
  Li  Li239  1  0.33838172  0.28339611  0.28339611  1
  Li  Li240  1  0.71660389  0.21660389  0.16161828  1
  Li  Li241  1  0.28339611  0.78339611  0.16161828  1
  Li  Li242  1  0.28339611  0.21660389  0.83838172  1
  Li  Li243  1  0.71660389  0.78339611  0.83838172  1
  Li  Li244  1  0.66161828  0.21660389  0.21660389  1
  Li  Li245  1  0.66161828  0.78339611  0.78339611  1
  Li  Li246  1  0.33838172  0.78339611  0.21660389  1
  Li  Li247  1  0.33838172  0.21660389  0.78339611  1
  Li  Li248  1  0.71660389  0.16161828  0.21660389  1
  Li  Li249  1  0.28339611  0.16161828  0.78339611  1
  Li  Li250  1  0.71660389  0.83838172  0.78339611  1
  Li  Li251  1  0.28339611  0.83838172  0.21660389  1
  Li  Li252  1  0.71660389  0.21660389  0.83838172  1
  Li  Li253  1  0.28339611  0.78339611  0.83838172  1
  Li  Li254  1  0.71660389  0.78339611  0.16161828  1
  Li  Li255  1  0.28339611  0.21660389  0.16161828  1
  Li  Li256  1  0.71660389  0.16161828  0.78339611  1
  Li  Li257  1  0.28339611  0.16161828  0.21660389  1
  Li  Li258  1  0.28339611  0.83838172  0.78339611  1
  Li  Li259  1  0.71660389  0.83838172  0.21660389  1
  Li  Li260  1  0.66161828  0.21660389  0.78339611  1
  Li  Li261  1  0.66161828  0.78339611  0.21660389  1
  Li  Li262  1  0.33838172  0.21660389  0.21660389  1
  Li  Li263  1  0.33838172  0.78339611  0.78339611  1
  Li  Li264  1  0.21660389  0.71660389  0.16161828  1
  Li  Li265  1  0.78339611  0.28339611  0.16161828  1
  Li  Li266  1  0.78339611  0.71660389  0.83838172  1
  Li  Li267  1  0.21660389  0.28339611  0.83838172  1
  Li  Li268  1  0.16161828  0.71660389  0.21660389  1
  Li  Li269  1  0.16161828  0.28339611  0.78339611  1
  Li  Li270  1  0.83838172  0.28339611  0.21660389  1
  Li  Li271  1  0.83838172  0.71660389  0.78339611  1
  Li  Li272  1  0.21660389  0.66161828  0.21660389  1
  Li  Li273  1  0.78339611  0.66161828  0.78339611  1
  Li  Li274  1  0.21660389  0.33838172  0.78339611  1
  Li  Li275  1  0.78339611  0.33838172  0.21660389  1
  Li  Li276  1  0.21660389  0.71660389  0.83838172  1
  Li  Li277  1  0.78339611  0.28339611  0.83838172  1
  Li  Li278  1  0.21660389  0.28339611  0.16161828  1
  Li  Li279  1  0.78339611  0.71660389  0.16161828  1
  Li  Li280  1  0.21660389  0.66161828  0.78339611  1
  Li  Li281  1  0.78339611  0.66161828  0.21660389  1
  Li  Li282  1  0.78339611  0.33838172  0.78339611  1
  Li  Li283  1  0.21660389  0.33838172  0.21660389  1
  Li  Li284  1  0.16161828  0.71660389  0.78339611  1
  Li  Li285  1  0.16161828  0.28339611  0.21660389  1
  Li  Li286  1  0.83838172  0.71660389  0.21660389  1
  Li  Li287  1  0.83838172  0.28339611  0.78339611  1
  Li  Li288  1  0.21660389  0.21660389  0.66161828  1
  Li  Li289  1  0.78339611  0.78339611  0.66161828  1
  Li  Li290  1  0.78339611  0.21660389  0.33838172  1
  Li  Li291  1  0.21660389  0.78339611  0.33838172  1
  Li  Li292  1  0.16161828  0.21660389  0.71660389  1
  Li  Li293  1  0.16161828  0.78339611  0.28339611  1
  Li  Li294  1  0.83838172  0.78339611  0.71660389  1
  Li  Li295  1  0.83838172  0.21660389  0.28339611  1
  Li  Li296  1  0.21660389  0.16161828  0.71660389  1
  Li  Li297  1  0.78339611  0.16161828  0.28339611  1
  Li  Li298  1  0.21660389  0.83838172  0.28339611  1
  Li  Li299  1  0.78339611  0.83838172  0.71660389  1
  Li  Li300  1  0.21660389  0.21660389  0.33838172  1
  Li  Li301  1  0.78339611  0.78339611  0.33838172  1
  Li  Li302  1  0.21660389  0.78339611  0.66161828  1
  Li  Li303  1  0.78339611  0.21660389  0.66161828  1
  Li  Li304  1  0.21660389  0.16161828  0.28339611  1
  Li  Li305  1  0.78339611  0.16161828  0.71660389  1
  Li  Li306  1  0.78339611  0.83838172  0.28339611  1
  Li  Li307  1  0.21660389  0.83838172  0.71660389  1
  Li  Li308  1  0.16161828  0.21660389  0.28339611  1
  Li  Li309  1  0.16161828  0.78339611  0.71660389  1
  Li  Li310  1  0.83838172  0.21660389  0.71660389  1
  Li  Li311  1  0.83838172  0.78339611  0.28339611  1
  Li  Li312  1  0.50000000  0.27431179  0.27431179  1
  Li  Li313  1  0.50000000  0.72568821  0.27431179  1
  Li  Li314  1  0.50000000  0.27431179  0.72568821  1
  Li  Li315  1  0.50000000  0.72568821  0.72568821  1
  Li  Li316  1  0.27431179  0.50000000  0.27431179  1
  Li  Li317  1  0.27431179  0.50000000  0.72568821  1
  Li  Li318  1  0.72568821  0.50000000  0.27431179  1
  Li  Li319  1  0.72568821  0.50000000  0.72568821  1
  Li  Li320  1  0.27431179  0.27431179  0.50000000  1
  Li  Li321  1  0.72568821  0.27431179  0.50000000  1
  Li  Li322  1  0.27431179  0.72568821  0.50000000  1
  Li  Li323  1  0.72568821  0.72568821  0.50000000  1
  Li  Li324  1  0.50000000  0.77431179  0.77431179  1
  Li  Li325  1  0.50000000  0.22568821  0.77431179  1
  Li  Li326  1  0.50000000  0.77431179  0.22568821  1
  Li  Li327  1  0.50000000  0.22568821  0.22568821  1
  Li  Li328  1  0.27431179  -0.00000000  0.77431179  1
  Li  Li329  1  0.27431179  -0.00000000  0.22568821  1
  Li  Li330  1  0.72568821  0.00000000  0.77431179  1
  Li  Li331  1  0.72568821  0.00000000  0.22568821  1
  Li  Li332  1  0.27431179  0.77431179  -0.00000000  1
  Li  Li333  1  0.72568821  0.77431179  0.00000000  1
  Li  Li334  1  0.27431179  0.22568821  0.00000000  1
  Li  Li335  1  0.72568821  0.22568821  -0.00000000  1
  Li  Li336  1  0.00000000  0.27431179  0.77431179  1
  Li  Li337  1  0.00000000  0.72568821  0.77431179  1
  Li  Li338  1  0.00000000  0.27431179  0.22568821  1
  Li  Li339  1  0.00000000  0.72568821  0.22568821  1
  Li  Li340  1  0.77431179  0.50000000  0.77431179  1
  Li  Li341  1  0.77431179  0.50000000  0.22568821  1
  Li  Li342  1  0.22568821  0.50000000  0.77431179  1
  Li  Li343  1  0.22568821  0.50000000  0.22568821  1
  Li  Li344  1  0.77431179  0.27431179  -0.00000000  1
  Li  Li345  1  0.22568821  0.27431179  0.00000000  1
  Li  Li346  1  0.77431179  0.72568821  0.00000000  1
  Li  Li347  1  0.22568821  0.72568821  0.00000000  1
  Li  Li348  1  0.00000000  0.77431179  0.27431179  1
  Li  Li349  1  0.00000000  0.22568821  0.27431179  1
  Li  Li350  1  0.00000000  0.77431179  0.72568821  1
  Li  Li351  1  0.00000000  0.22568821  0.72568821  1
  Li  Li352  1  0.77431179  0.00000000  0.27431179  1
  Li  Li353  1  0.77431179  0.00000000  0.72568821  1
  Li  Li354  1  0.22568821  0.00000000  0.27431179  1
  Li  Li355  1  0.22568821  0.00000000  0.72568821  1
  Li  Li356  1  0.77431179  0.77431179  0.50000000  1
  Li  Li357  1  0.22568821  0.77431179  0.50000000  1
  Li  Li358  1  0.77431179  0.22568821  0.50000000  1
  Li  Li359  1  0.22568821  0.22568821  0.50000000  1
  Mg  Mg360  1  0.50000000  0.50000000  0.50000000  1
  Mg  Mg361  1  0.50000000  0.00000000  0.00000000  1
  Mg  Mg362  1  0.00000000  0.50000000  0.00000000  1
  Mg  Mg363  1  0.00000000  0.00000000  0.50000000  1
  Mg  Mg364  1  0.25000000  0.25000000  0.25000000  1
  Mg  Mg365  1  0.25000000  0.25000000  0.75000000  1
  Mg  Mg366  1  0.25000000  0.75000000  0.75000000  1
  Mg  Mg367  1  0.25000000  0.75000000  0.25000000  1
  Mg  Mg368  1  0.75000000  0.25000000  0.75000000  1
  Mg  Mg369  1  0.75000000  0.25000000  0.25000000  1
  Mg  Mg370  1  0.75000000  0.75000000  0.25000000  1
  Mg  Mg371  1  0.75000000  0.75000000  0.75000000  1
