# generated using pymatgen
data_CaO
_symmetry_space_group_name_H-M   'P 1'
_cell_length_a   8.22059365
_cell_length_b   8.22059365
_cell_length_c   49.38369284
_cell_angle_alpha   90.00000000
_cell_angle_beta   90.00000000
_cell_angle_gamma   120.00000000
_symmetry_Int_Tables_number   1
_chemical_formula_structural   CaO
_chemical_formula_sum   'Ca54 O54'
_cell_volume   2890.15115130
_cell_formula_units_Z   54
loop_
 _symmetry_equiv_pos_site_id
 _symmetry_equiv_pos_as_xyz
  1  'x, y, z'
loop_
 _atom_site_type_symbol
 _atom_site_label
 _atom_site_symmetry_multiplicity
 _atom_site_fract_x
 _atom_site_fract_y
 _atom_site_fract_z
 _atom_site_occupancy
  Ca  Ca0  1  0.60042496  0.86858864  0.65447193  1
  Ca  Ca1  1  -0.86858864  -0.26816367  0.65447193  1
  Ca  Ca2  1  0.26816367  -0.60042496  0.65447193  1
  Ca  Ca3  1  0.86858864  0.60042496  -0.15447193  1
  Ca  Ca4  1  -0.26816367  -0.86858864  -0.15447193  1
  Ca  Ca5  1  -0.60042496  0.26816367  -0.15447193  1
  Ca  Ca6  1  -0.60042496  -0.86858864  -0.65447193  1
  Ca  Ca7  1  0.86858864  0.26816367  -0.65447193  1
  Ca  Ca8  1  -0.26816367  0.60042496  -0.65447193  1
  Ca  Ca9  1  -0.86858864  -0.60042496  1.15447193  1
  Ca  Ca10  1  0.26816367  0.86858864  1.15447193  1
  Ca  Ca11  1  0.60042496  -0.26816367  1.15447193  1
  Ca  Ca12  1  1.26709163  1.20192197  0.98780526  1
  Ca  Ca13  1  -0.20192197  0.06516966  0.98780526  1
  Ca  Ca14  1  0.93483034  -0.26709163  0.98780526  1
  Ca  Ca15  1  1.53525530  0.93375830  0.17886140  1
  Ca  Ca16  1  0.39850299  -0.53525530  0.17886140  1
  Ca  Ca17  1  0.06624170  0.60149701  0.17886140  1
  Ca  Ca18  1  0.06624170  -0.53525530  -0.32113860  1
  Ca  Ca19  1  1.53525530  0.60149701  -0.32113860  1
  Ca  Ca20  1  0.39850299  0.93375830  -0.32113860  1
  Ca  Ca21  1  -0.20192197  -0.26709163  1.48780526  1
  Ca  Ca22  1  0.93483034  1.20192197  1.48780526  1
  Ca  Ca23  1  1.26709163  0.06516966  1.48780526  1
  Ca  Ca24  1  0.93375830  1.53525530  1.32113860  1
  Ca  Ca25  1  -0.53525530  0.39850299  1.32113860  1
  Ca  Ca26  1  0.60149701  0.06624170  1.32113860  1
  Ca  Ca27  1  1.20192197  1.26709163  0.51219474  1
  Ca  Ca28  1  0.06516966  -0.20192197  0.51219474  1
  Ca  Ca29  1  -0.26709163  0.93483034  0.51219474  1
  Ca  Ca30  1  -0.26709163  -0.20192197  0.01219474  1
  Ca  Ca31  1  1.20192197  0.93483034  0.01219474  1
  Ca  Ca32  1  0.06516966  1.26709163  0.01219474  1
  Ca  Ca33  1  -0.53525530  0.06624170  1.82113860  1
  Ca  Ca34  1  0.60149701  1.53525530  1.82113860  1
  Ca  Ca35  1  0.93375830  0.39850299  1.82113860  1
  Ca  Ca36  1  0.00000000  0.00000000  0.00000000  1
  Ca  Ca37  1  0.00000000  0.00000000  0.50000000  1
  Ca  Ca38  1  0.66666667  0.33333333  0.33333333  1
  Ca  Ca39  1  0.66666667  0.33333333  0.83333333  1
  Ca  Ca40  1  0.33333333  0.66666667  0.66666667  1
  Ca  Ca41  1  0.33333333  0.66666667  0.16666667  1
  Ca  Ca42  1  0.00000000  0.00000000  0.17734180  1
  Ca  Ca43  1  0.00000000  0.00000000  0.32265820  1
  Ca  Ca44  1  0.00000000  0.00000000  0.82265820  1
  Ca  Ca45  1  0.00000000  0.00000000  0.67734180  1
  Ca  Ca46  1  0.66666667  0.33333333  0.51067514  1
  Ca  Ca47  1  0.66666667  0.33333333  0.65599153  1
  Ca  Ca48  1  0.66666667  0.33333333  0.15599153  1
  Ca  Ca49  1  0.66666667  0.33333333  0.01067514  1
  Ca  Ca50  1  0.33333333  0.66666667  0.84400847  1
  Ca  Ca51  1  0.33333333  0.66666667  0.98932486  1
  Ca  Ca52  1  0.33333333  0.66666667  0.48932486  1
  Ca  Ca53  1  0.33333333  0.66666667  0.34400847  1
  O  O54  1  0.34465832  0.01284221  0.75810369  1
  O  O55  1  0.98715779  0.33181612  0.75810369  1
  O  O56  1  0.66818388  0.65534168  0.75810369  1
  O  O57  1  0.01284221  0.34465832  0.74189631  1
  O  O58  1  0.33181612  0.98715779  0.74189631  1
  O  O59  1  0.65534168  0.66818388  0.74189631  1
  O  O60  1  0.65534168  0.98715779  0.24189631  1
  O  O61  1  0.01284221  0.66818388  0.24189631  1
  O  O62  1  0.33181612  0.34465832  0.24189631  1
  O  O63  1  0.98715779  0.65534168  0.25810369  1
  O  O64  1  0.66818388  0.01284221  0.25810369  1
  O  O65  1  0.34465832  0.33181612  0.25810369  1
  O  O66  1  0.01132499  0.34617554  0.09143702  1
  O  O67  1  0.65382446  0.66514945  0.09143702  1
  O  O68  1  0.33485055  0.98867501  0.09143702  1
  O  O69  1  0.67950887  0.67799166  0.07522965  1
  O  O70  1  0.99848279  0.32049113  0.07522965  1
  O  O71  1  0.32200834  0.00151721  0.07522965  1
  O  O72  1  0.32200834  0.32049113  0.57522965  1
  O  O73  1  0.67950887  0.00151721  0.57522965  1
  O  O74  1  0.99848279  0.67799166  0.57522965  1
  O  O75  1  0.65382446  0.98867501  0.59143702  1
  O  O76  1  0.33485055  0.34617554  0.59143702  1
  O  O77  1  0.01132499  0.66514945  0.59143702  1
  O  O78  1  0.67799166  0.67950887  0.42477035  1
  O  O79  1  0.32049113  0.99848279  0.42477035  1
  O  O80  1  0.00151721  0.32200834  0.42477035  1
  O  O81  1  0.34617554  0.01132499  0.40856298  1
  O  O82  1  0.66514945  0.65382446  0.40856298  1
  O  O83  1  0.98867501  0.33485055  0.40856298  1
  O  O84  1  0.98867501  0.65382446  0.90856298  1
  O  O85  1  0.34617554  0.33485055  0.90856298  1
  O  O86  1  0.66514945  0.01132499  0.90856298  1
  O  O87  1  0.32049113  0.32200834  0.92477035  1
  O  O88  1  0.00151721  0.67950887  0.92477035  1
  O  O89  1  0.67799166  0.99848279  0.92477035  1
  O  O90  1  0.00000000  0.00000000  0.25000000  1
  O  O91  1  0.00000000  0.00000000  0.75000000  1
  O  O92  1  0.66666667  0.33333333  0.58333333  1
  O  O93  1  0.66666667  0.33333333  0.08333333  1
  O  O94  1  0.33333333  0.66666667  0.91666667  1
  O  O95  1  0.33333333  0.66666667  0.41666667  1
  O  O96  1  0.00000000  0.00000000  0.73564349  1
  O  O97  1  0.00000000  0.00000000  0.76435651  1
  O  O98  1  0.00000000  0.00000000  0.26435651  1
  O  O99  1  0.00000000  0.00000000  0.23564349  1
  O  O100  1  0.66666667  0.33333333  0.06897682  1
  O  O101  1  0.66666667  0.33333333  0.09768984  1
  O  O102  1  0.66666667  0.33333333  0.59768984  1
  O  O103  1  0.66666667  0.33333333  0.56897682  1
  O  O104  1  0.33333333  0.66666667  0.40231016  1
  O  O105  1  0.33333333  0.66666667  0.43102318  1
  O  O106  1  0.33333333  0.66666667  0.93102318  1
  O  O107  1  0.33333333  0.66666667  0.90231016  1
