# generated using pymatgen
data_Na3Ca6Mg2SeIO8
_symmetry_space_group_name_H-M   'P 1'
_cell_length_a   10.72928001
_cell_length_b   10.72928001
_cell_length_c   15.81690414
_cell_angle_alpha   90.00000000
_cell_angle_beta   90.00000000
_cell_angle_gamma   120.00000000
_symmetry_Int_Tables_number   1
_chemical_formula_structural   Na3Ca6Mg2SeIO8
_chemical_formula_sum   'Na9 Ca18 Mg6 Se3 I3 O24'
_cell_volume   1576.86049682
_cell_formula_units_Z   3
loop_
 _symmetry_equiv_pos_site_id
 _symmetry_equiv_pos_as_xyz
  1  'x, y, z'
loop_
 _atom_site_type_symbol
 _atom_site_label
 _atom_site_symmetry_multiplicity
 _atom_site_fract_x
 _atom_site_fract_y
 _atom_site_fract_z
 _atom_site_occupancy
  Ca  Ca0  1  0.37275554  0.13492398  0.61292553  1
  Ca  Ca1  1  0.86507602  0.23783156  0.61292553  1
  Ca  Ca2  1  0.76216844  0.62724446  0.61292553  1
  Ca  Ca3  1  0.86507602  0.62724446  0.38707447  1
  Ca  Ca4  1  0.76216844  0.13492398  0.38707447  1
  Ca  Ca5  1  0.37275554  0.23783156  0.38707447  1
  Ca  Ca6  1  0.08949669  0.86707249  0.59445929  1
  Ca  Ca7  1  0.13292751  0.22242420  0.59445929  1
  Ca  Ca8  1  0.77757580  0.91050331  0.59445929  1
  Ca  Ca9  1  0.13292751  0.91050331  0.40554071  1
  Ca  Ca10  1  0.77757580  0.86707249  0.40554071  1
  Ca  Ca11  1  0.08949669  0.22242420  0.40554071  1
  Ca  Ca12  1  0.66666667  0.33333333  0.64335706  1
  Ca  Ca13  1  0.66666667  0.33333333  0.35664294  1
  Ca  Ca14  1  0.56317814  0.43682186  0.00000000  1
  Ca  Ca15  1  0.56317814  0.12635628  0.00000000  1
  Ca  Ca16  1  0.87364372  0.43682186  0.00000000  1
  Ca  Ca17  1  0.00000000  0.00000000  0.00000000  1
  I  I18  1  0.58383597  0.41616403  0.50000000  1
  I  I19  1  0.58383597  0.16767194  0.50000000  1
  I  I20  1  0.83232806  0.41616403  0.50000000  1
  Mg  Mg21  1  0.53114103  0.94493766  0.42678096  1
  Mg  Mg22  1  0.05506234  0.58620337  0.42678096  1
  Mg  Mg23  1  0.41379663  0.46885897  0.42678096  1
  Mg  Mg24  1  0.05506234  0.46885897  0.57321904  1
  Mg  Mg25  1  0.41379663  0.94493766  0.57321904  1
  Mg  Mg26  1  0.53114103  0.58620337  0.57321904  1
  Na  Na27  1  0.77188819  0.22811181  0.00000000  1
  Na  Na28  1  0.77188819  0.54377639  0.00000000  1
  Na  Na29  1  0.45622361  0.22811181  0.00000000  1
  Na  Na30  1  0.33333333  0.66666667  0.00000000  1
  Na  Na31  1  0.12947611  0.87052389  0.00000000  1
  Na  Na32  1  0.12947611  0.25895222  0.00000000  1
  Na  Na33  1  0.74104778  0.87052389  0.00000000  1
  Na  Na34  1  0.66666667  0.33333333  0.17623744  1
  Na  Na35  1  0.66666667  0.33333333  0.82376256  1
  O  O36  1  0.25918913  0.67860451  0.21951805  1
  O  O37  1  -0.67860451  -0.41941538  0.21951805  1
  O  O38  1  0.41941538  -0.25918913  0.21951805  1
  O  O39  1  -0.67860451  -0.25918913  -0.21951805  1
  O  O40  1  0.41941538  0.67860451  -0.21951805  1
  O  O41  1  0.25918913  -0.41941538  -0.21951805  1
  O  O42  1  0.15702779  0.64559115  0.54175922  1
  O  O43  1  0.35440885  0.51143664  0.54175922  1
  O  O44  1  0.48856336  0.84297221  0.54175922  1
  O  O45  1  0.35440885  0.84297221  0.45824078  1
  O  O46  1  0.48856336  0.64559115  0.45824078  1
  O  O47  1  0.15702779  0.51143664  0.45824078  1
  O  O48  1  0.66666667  0.33333333  0.00000000  1
  O  O49  1  0.43837655  0.82885433  0.47991305  1
  O  O50  1  0.17114567  0.60952222  0.47991305  1
  O  O51  1  0.39047778  0.56162345  0.47991305  1
  O  O52  1  0.17114567  0.56162345  0.52008695  1
  O  O53  1  0.39047778  0.82885433  0.52008695  1
  O  O54  1  0.43837655  0.60952222  0.52008695  1
  O  O55  1  0.77709256  0.22290744  0.50000000  1
  O  O56  1  0.77709256  0.55418512  0.50000000  1
  O  O57  1  0.44581488  0.22290744  0.50000000  1
  O  O58  1  0.33333333  0.66666667  0.50000000  1
  O  O59  1  0.00000000  0.00000000  0.50000000  1
  Se  Se60  1  0.90929084  0.09070916  0.00000000  1
  Se  Se61  1  0.90929084  0.81858167  0.00000000  1
  Se  Se62  1  0.18141833  0.09070916  0.00000000  1
