# generated using pymatgen
data_LiI
_symmetry_space_group_name_H-M   'P 1'
_cell_length_a   5.55767110
_cell_length_b   7.03065029
_cell_length_c   12.45932869
_cell_angle_alpha   90.00000000
_cell_angle_beta   90.00000000
_cell_angle_gamma   90.00000000
_symmetry_Int_Tables_number   1
_chemical_formula_structural   LiI
_chemical_formula_sum   'Li12 I12'
_cell_volume   486.83633110
_cell_formula_units_Z   12
loop_
 _symmetry_equiv_pos_site_id
 _symmetry_equiv_pos_as_xyz
  1  'x, y, z'
loop_
 _atom_site_type_symbol
 _atom_site_label
 _atom_site_symmetry_multiplicity
 _atom_site_fract_x
 _atom_site_fract_y
 _atom_site_fract_z
 _atom_site_occupancy
  I  I0  1  0.19160575  0.99587841  0.92665962  1
  I  I1  1  0.30839425  -0.99587841  1.42665962  1
  I  I2  1  -0.19160575  1.49587841  -0.92665962  1
  I  I3  1  0.69160575  -0.49587841  -0.42665962  1
  I  I4  1  -0.19160575  -0.99587841  -0.92665962  1
  I  I5  1  0.69160575  0.99587841  -0.42665962  1
  I  I6  1  0.19160575  -0.49587841  0.92665962  1
  I  I7  1  0.30839425  1.49587841  1.42665962  1
  I  I8  1  0.00000000  0.00000000  0.00000000  1
  I  I9  1  0.50000000  0.00000000  0.50000000  1
  I  I10  1  0.00000000  0.50000000  0.00000000  1
  I  I11  1  0.50000000  0.50000000  0.50000000  1
  Li  Li12  1  0.00000000  0.00000000  0.50000000  1
  Li  Li13  1  0.50000000  0.00000000  0.00000000  1
  Li  Li14  1  0.00000000  0.50000000  0.50000000  1
  Li  Li15  1  0.50000000  0.50000000  0.00000000  1
  Li  Li16  1  0.44578207  0.25000000  0.44928915  1
  Li  Li17  1  0.05421793  0.75000000  0.94928915  1
  Li  Li18  1  0.55421793  0.75000000  0.55071085  1
  Li  Li19  1  0.94578207  0.25000000  0.05071085  1
  Li  Li20  1  0.13595624  0.25000000  0.77998102  1
  Li  Li21  1  0.36404376  0.75000000  0.27998102  1
  Li  Li22  1  0.86404376  0.75000000  0.22001898  1
  Li  Li23  1  0.63595624  0.25000000  0.72001898  1
