# generated using pymatgen
data_Li3La2SiO
_symmetry_space_group_name_H-M   'P 1'
_cell_length_a   12.13524043
_cell_length_b   12.38329048
_cell_length_c   14.13721392
_cell_angle_alpha   90.00000000
_cell_angle_beta   90.00000000
_cell_angle_gamma   90.00000000
_symmetry_Int_Tables_number   1
_chemical_formula_structural   Li3La2SiO
_chemical_formula_sum   'Li3 La2 Si1 O1'
_cell_volume   2124.45861566
_cell_formula_units_Z   1
loop_
 _symmetry_equiv_pos_site_id
 _symmetry_equiv_pos_as_xyz
  1  'x, y, z'
loop_
 _atom_site_type_symbol
 _atom_site_label
 _atom_site_symmetry_multiplicity
 _atom_site_fract_x
 _atom_site_fract_y
 _atom_site_fract_z
 _atom_site_occupancy
  Li  Li0  1  0.12500000  0.00000000  0.25000000  1
  Li  Li1  1  0.00000000  0.00000000  0.00000000  1
  Li  Li2  1  0.37500000  0.00000000  0.25000000  1
  La  La3  1  0.25000000  0.25000000  0.25000000  1
  La  La4  1  0.00000000  0.25000000  0.12500000  1
  Si  Si5  1  0.77008536  0.94557614  0.61918838  1
  O  O6  1  0.45067318  0.96941177  0.79131812  1
