# generated using pymatgen
data_Li4TiO
_symmetry_space_group_name_H-M   'P 1'
_cell_length_a   3.72286816
_cell_length_b   4.12134761
_cell_length_c   6.78228551
_cell_angle_alpha   96.47111188
_cell_angle_beta   113.68309095
_cell_angle_gamma   92.20487909
_symmetry_Int_Tables_number   1
_chemical_formula_structural   Li4TiO
_chemical_formula_sum   'Li4 Ti1 O1'
_cell_volume   94.28918205
_cell_formula_units_Z   1
loop_
 _symmetry_equiv_pos_site_id
 _symmetry_equiv_pos_as_xyz
  1  'x, y, z'
loop_
 _atom_site_type_symbol
 _atom_site_label
 _atom_site_symmetry_multiplicity
 _atom_site_fract_x
 _atom_site_fract_y
 _atom_site_fract_z
 _atom_site_occupancy
  Li  Li0  1  0.00000000  0.00000000  0.00000000  1
  Li  Li1  1  0.33300000  0.66700000  0.25000000  1
  Li  Li2  1  0.66700000  0.33300000  0.50000000  1
  Li  Li3  1  0.00000000  0.00000000  0.75000000  1
  Ti  Ti4  1  0.00247048  0.80154465  0.22320875  1
  O  O5  1  0.96813836  0.29477849  0.59389496  1
