# generated using pymatgen
data_Sr2OF2
_symmetry_space_group_name_H-M   'P 1'
_cell_length_a   14.30477399
_cell_length_b   8.61132502
_cell_length_c   8.94498081
_cell_angle_alpha   90.00000000
_cell_angle_beta   90.00000000
_cell_angle_gamma   90.00000000
_symmetry_Int_Tables_number   1
_chemical_formula_structural   Sr2OF2
_chemical_formula_sum   'Sr16 O8 F16'
_cell_volume   1101.87009125
_cell_formula_units_Z   8
loop_
 _symmetry_equiv_pos_site_id
 _symmetry_equiv_pos_as_xyz
  1  'x, y, z'
loop_
 _atom_site_type_symbol
 _atom_site_label
 _atom_site_symmetry_multiplicity
 _atom_site_fract_x
 _atom_site_fract_y
 _atom_site_fract_z
 _atom_site_occupancy
  F  F0  1  0.12500000  0.94084885  0.12500000  1
  F  F1  1  0.62500000  0.80915115  0.12500000  1
  F  F2  1  0.87500000  0.05915115  0.87500000  1
  F  F3  1  0.37500000  0.19084885  0.87500000  1
  F  F4  1  0.12500000  0.44084885  0.62500000  1
  F  F5  1  0.62500000  0.30915115  0.62500000  1
  F  F6  1  0.87500000  0.55915115  0.37500000  1
  F  F7  1  0.37500000  0.69084885  0.37500000  1
  F  F8  1  0.62500000  0.94084885  0.62500000  1
  F  F9  1  0.12500000  0.80915115  0.62500000  1
  F  F10  1  0.37500000  0.05915115  0.37500000  1
  F  F11  1  0.87500000  0.19084885  0.37500000  1
  F  F12  1  0.62500000  0.44084885  0.12500000  1
  F  F13  1  0.12500000  0.30915115  0.12500000  1
  F  F14  1  0.37500000  0.55915115  0.87500000  1
  F  F15  1  0.87500000  0.69084885  0.87500000  1
  O  O16  1  0.12500000  0.12500000  0.62500000  1
  O  O17  1  0.87500000  0.87500000  0.37500000  1
  O  O18  1  0.12500000  0.62500000  0.12500000  1
  O  O19  1  0.87500000  0.37500000  0.87500000  1
  O  O20  1  0.62500000  0.12500000  0.12500000  1
  O  O21  1  0.37500000  0.87500000  0.87500000  1
  O  O22  1  0.62500000  0.62500000  0.62500000  1
  O  O23  1  0.37500000  0.37500000  0.37500000  1
  Sr  Sr24  1  0.12500000  0.12500000  0.42792864  1
  Sr  Sr25  1  0.62500000  0.12500000  0.32207136  1
  Sr  Sr26  1  0.87500000  0.87500000  -0.42792864  1
  Sr  Sr27  1  0.37500000  0.87500000  0.67792864  1
  Sr  Sr28  1  0.12500000  0.62500000  0.92792864  1
  Sr  Sr29  1  0.62500000  0.62500000  0.82207136  1
  Sr  Sr30  1  0.87500000  1.37500000  0.07207136  1
  Sr  Sr31  1  0.37500000  1.37500000  1.17792864  1
  Sr  Sr32  1  0.62500000  0.12500000  0.92792864  1
  Sr  Sr33  1  1.12500000  0.12500000  0.82207136  1
  Sr  Sr34  1  1.37500000  0.87500000  0.07207136  1
  Sr  Sr35  1  0.87500000  0.87500000  1.17792864  1
  Sr  Sr36  1  0.62500000  0.62500000  0.42792864  1
  Sr  Sr37  1  1.12500000  0.62500000  0.32207136  1
  Sr  Sr38  1  1.37500000  1.37500000  -0.42792864  1
  Sr  Sr39  1  0.87500000  1.37500000  0.67792864  1
