# generated using pymatgen
data_Li12Zr(S3O)2
_symmetry_space_group_name_H-M   'P 1'
_cell_length_a   6.45133275
_cell_length_b   6.45133275
_cell_length_c   10.23756773
_cell_angle_alpha   90.00000000
_cell_angle_beta   90.00000000
_cell_angle_gamma   120.00000000
_symmetry_Int_Tables_number   1
_chemical_formula_structural   Li12Zr(S3O)2
_chemical_formula_sum   'Li12 Zr1 S6 O2'
_cell_volume   368.99994825
_cell_formula_units_Z   1
loop_
 _symmetry_equiv_pos_site_id
 _symmetry_equiv_pos_as_xyz
  1  'x, y, z'
loop_
 _atom_site_type_symbol
 _atom_site_label
 _atom_site_symmetry_multiplicity
 _atom_site_fract_x
 _atom_site_fract_y
 _atom_site_fract_z
 _atom_site_occupancy
  Li  Li0  1  0.50577055  0.17467923  0.50000000  1
  Li  Li1  1  -0.17467923  0.33109131  0.50000000  1
  Li  Li2  1  -0.33109131  -0.50577055  0.50000000  1
  Li  Li3  1  0.17467923  0.50577055  0.50000000  1
  Li  Li4  1  0.33109131  -0.17467923  0.50000000  1
  Li  Li5  1  -0.50577055  -0.33109131  0.50000000  1
  Li  Li6  1  0.43469404  -0.00000000  0.67361470  1
  Li  Li7  1  0.00000000  0.43469404  0.67361470  1
  Li  Li8  1  0.56530596  0.56530596  0.67361470  1
  Li  Li9  1  0.43469404  -0.00000000  0.32638530  1
  Li  Li10  1  0.00000000  0.43469404  0.32638530  1
  Li  Li11  1  0.56530596  0.56530596  0.32638530  1
  O  O12  1  0.33333333  0.66666667  -0.00000000  1
  O  O13  1  0.66666667  0.33333333  -0.00000000  1
  S  S14  1  0.77597549  0.00000000  0.50000000  1
  S  S15  1  0.00000000  0.77597549  0.50000000  1
  S  S16  1  0.22402451  0.22402451  0.50000000  1
  S  S17  1  0.58938866  -0.00000000  0.00000000  1
  S  S18  1  0.00000000  0.58938866  0.00000000  1
  S  S19  1  0.41061134  0.41061134  0.00000000  1
  Zr  Zr20  1  0.00000000  0.00000000  0.00000000  1
