# generated using pymatgen
data_AlF3
_symmetry_space_group_name_H-M   'P 1'
_cell_length_a   8.96396611
_cell_length_b   4.22886021
_cell_length_c   4.86671046
_cell_angle_alpha   90.00000000
_cell_angle_beta   90.00000000
_cell_angle_gamma   90.00000000
_symmetry_Int_Tables_number   1
_chemical_formula_structural   AlF3
_chemical_formula_sum   'Al8 F24'
_cell_volume   184.48414352
_cell_formula_units_Z   8
loop_
 _symmetry_equiv_pos_site_id
 _symmetry_equiv_pos_as_xyz
  1  'x, y, z'
loop_
 _atom_site_type_symbol
 _atom_site_label
 _atom_site_symmetry_multiplicity
 _atom_site_fract_x
 _atom_site_fract_y
 _atom_site_fract_z
 _atom_site_occupancy
  Al  Al0  1  0.00000000  0.00000000  0.50000000  1
  Al  Al1  1  0.50000000  0.00000000  0.00000000  1
  Al  Al2  1  0.00000000  0.50000000  0.50000000  1
  Al  Al3  1  0.50000000  0.50000000  0.00000000  1
  Al  Al4  1  0.00000000  0.00000000  0.00000000  1
  Al  Al5  1  0.50000000  0.00000000  0.50000000  1
  Al  Al6  1  0.00000000  0.50000000  0.00000000  1
  Al  Al7  1  0.50000000  0.50000000  0.50000000  1
  F  F8  1  0.63709292  0.47367734  0.88006712  1
  F  F9  1  -0.13709292  -0.47367734  1.38006712  1
  F  F10  1  -0.63709292  0.97367734  -0.88006712  1
  F  F11  1  1.13709292  0.02632266  -0.38006712  1
  F  F12  1  -0.63709292  -0.47367734  -0.88006712  1
  F  F13  1  1.13709292  0.47367734  -0.38006712  1
  F  F14  1  0.63709292  0.02632266  0.88006712  1
  F  F15  1  -0.13709292  0.97367734  1.38006712  1
  F  F16  1  0.40817691  0.25000000  0.97564693  1
  F  F17  1  0.09182309  0.75000000  0.47564693  1
  F  F18  1  0.59182309  0.75000000  0.02435307  1
  F  F19  1  0.90817691  0.25000000  0.52435307  1
  F  F20  1  0.24133823  0.25000000  0.52133110  1
  F  F21  1  0.25866177  0.75000000  0.02133110  1
  F  F22  1  0.75866177  0.75000000  0.47866890  1
  F  F23  1  0.74133823  0.25000000  0.97866890  1
  F  F24  1  0.31227236  0.66880515  0.80363514  1
  F  F25  1  0.18772764  0.33119485  0.30363514  1
  F  F26  1  0.68772764  0.16880515  0.19636486  1
  F  F27  1  0.81227236  0.83119485  0.69636486  1
  F  F28  1  0.68772764  0.33119485  0.19636486  1
  F  F29  1  0.81227236  0.66880515  0.69636486  1
  F  F30  1  0.31227236  0.83119485  0.80363514  1
  F  F31  1  0.18772764  0.16880515  0.30363514  1
