# generated using pymatgen
data_LiTiIO2
_symmetry_space_group_name_H-M   'P 1'
_cell_length_a   3.54551755
_cell_length_b   2.97864887
_cell_length_c   4.10173658
_cell_angle_alpha   92.12018684
_cell_angle_beta   85.13671962
_cell_angle_gamma   87.16003557
_symmetry_Int_Tables_number   1
_chemical_formula_structural   LiTiIO2
_chemical_formula_sum   'Li1 Ti1 I1 O2'
_cell_volume   43.07191822
_cell_formula_units_Z   1
loop_
 _symmetry_equiv_pos_site_id
 _symmetry_equiv_pos_as_xyz
  1  'x, y, z'
loop_
 _atom_site_type_symbol
 _atom_site_label
 _atom_site_symmetry_multiplicity
 _atom_site_fract_x
 _atom_site_fract_y
 _atom_site_fract_z
 _atom_site_occupancy
  Li  Li0  1  0.00000000  0.00000000  0.00000000  1
  Ti  Ti1  1  0.50000000  0.50000000  0.50000000  1
  I  I2  1  0.50000000  0.50000000  0.00000000  1
  O  O3  1  0.50000000  0.00000000  0.50000000  1
  O  O4  1  0.00000000  0.50000000  0.50000000  1
