# generated using pymatgen
data_LiTi3TeP4S5
_symmetry_space_group_name_H-M   'P 1'
_cell_length_a   8.17199691
_cell_length_b   8.23112591
_cell_length_c   7.88673408
_cell_angle_alpha   90.00000000
_cell_angle_beta   90.00000000
_cell_angle_gamma   90.00000000
_symmetry_Int_Tables_number   1
_chemical_formula_structural   LiTi3TeP4S5
_chemical_formula_sum   'Li1 Ti3 Te1 P4 S5'
_cell_volume   530.49908185
_cell_formula_units_Z   1
loop_
 _symmetry_equiv_pos_site_id
 _symmetry_equiv_pos_as_xyz
  1  'x, y, z'
loop_
 _atom_site_type_symbol
 _atom_site_label
 _atom_site_symmetry_multiplicity
 _atom_site_fract_x
 _atom_site_fract_y
 _atom_site_fract_z
 _atom_site_occupancy
  Li  Li0  1  0.00000000  0.00000000  0.00000000  1
  Ti  Ti1  1  0.50000000  0.50000000  0.50000000  1
  Ti  Ti2  1  0.25000000  0.25000000  0.25000000  1
  Ti  Ti3  1  0.75000000  0.25000000  0.00000000  1
  Te  Te4  1  0.25000000  0.75000000  0.50000000  1
  P  P5  1  0.66105093  0.96759503  0.37480418  1
  P  P6  1  0.99460183  0.08053166  0.64964554  1
  P  P7  1  0.16785646  0.64539434  0.65267521  1
  P  P8  1  0.42757375  0.87754899  0.30557397  1
  S  S9  1  0.27846209  0.58784275  0.60029344  1
  S  S10  1  0.86256552  0.92036424  0.53616373  1
  S  S11  1  0.81662408  0.42734084  0.70810919  1
  S  S12  1  0.11801753  0.60075272  0.76037200  1
  S  S13  1  0.40636136  0.40667612  0.92555228  1
