# generated using pymatgen
data_Sr3Li4Ti6Sn4TeO24
_symmetry_space_group_name_H-M   'P 1'
_cell_length_a   8.53738117
_cell_length_b   8.53738117
_cell_length_c   45.58339512
_cell_angle_alpha   90.00000000
_cell_angle_beta   90.00000000
_cell_angle_gamma   120.00000000
_symmetry_Int_Tables_number   1
_chemical_formula_structural   Sr3Li4Ti6Sn4TeO24
_chemical_formula_sum   'Sr12 Li16 Ti24 Sn16 Te4 O96'
_cell_volume   2877.30992799
_cell_formula_units_Z   4
loop_
 _symmetry_equiv_pos_site_id
 _symmetry_equiv_pos_as_xyz
  1  'x, y, z'
loop_
 _atom_site_type_symbol
 _atom_site_label
 _atom_site_symmetry_multiplicity
 _atom_site_fract_x
 _atom_site_fract_y
 _atom_site_fract_z
 _atom_site_occupancy
  Li  Li0  1  0.54994327  0.09988654  0.89178370  1
  Li  Li1  1  0.90011346  0.45005673  0.89178370  1
  Li  Li2  1  0.54994327  0.45005673  0.89178370  1
  Li  Li3  1  0.45005673  0.90011346  0.39178370  1
  Li  Li4  1  0.09988654  0.54994327  0.39178370  1
  Li  Li5  1  0.45005673  0.54994327  0.39178370  1
  Li  Li6  1  0.09988654  0.54994327  0.10821630  1
  Li  Li7  1  0.45005673  0.90011346  0.10821630  1
  Li  Li8  1  0.45005673  0.54994327  0.10821630  1
  Li  Li9  1  0.90011346  0.45005673  0.60821630  1
  Li  Li10  1  0.54994327  0.09988654  0.60821630  1
  Li  Li11  1  0.54994327  0.45005673  0.60821630  1
  Li  Li12  1  0.00000000  0.00000000  0.37646058  1
  Li  Li13  1  0.00000000  0.00000000  0.87646058  1
  Li  Li14  1  0.00000000  0.00000000  0.62353942  1
  Li  Li15  1  0.00000000  0.00000000  0.12353942  1
  O  O16  1  0.22427410  0.34125453  0.88925978  1
  O  O17  1  -0.34125453  -0.11698042  0.88925978  1
  O  O18  1  0.11698042  -0.22427410  0.88925978  1
  O  O19  1  -0.22427410  -0.34125453  1.38925978  1
  O  O20  1  0.34125453  0.11698042  1.38925978  1
  O  O21  1  -0.11698042  0.22427410  1.38925978  1
  O  O22  1  0.34125453  0.22427410  -0.88925978  1
  O  O23  1  -0.11698042  -0.34125453  -0.88925978  1
  O  O24  1  -0.22427410  0.11698042  -0.88925978  1
  O  O25  1  -0.34125453  -0.22427410  -0.38925978  1
  O  O26  1  0.11698042  0.34125453  -0.38925978  1
  O  O27  1  0.22427410  -0.11698042  -0.38925978  1
  O  O28  1  -0.22427410  -0.34125453  -0.88925978  1
  O  O29  1  0.34125453  0.11698042  -0.88925978  1
  O  O30  1  -0.11698042  0.22427410  -0.88925978  1
  O  O31  1  0.22427410  0.34125453  -0.38925978  1
  O  O32  1  -0.34125453  -0.11698042  -0.38925978  1
  O  O33  1  0.11698042  -0.22427410  -0.38925978  1
  O  O34  1  -0.34125453  -0.22427410  0.88925978  1
  O  O35  1  0.11698042  0.34125453  0.88925978  1
  O  O36  1  0.22427410  -0.11698042  0.88925978  1
  O  O37  1  0.34125453  0.22427410  1.38925978  1
  O  O38  1  -0.11698042  -0.34125453  1.38925978  1
  O  O39  1  -0.22427410  0.11698042  1.38925978  1
  O  O40  1  0.74707465  0.65456794  0.57602438  1
  O  O41  1  0.34543206  0.09250672  0.57602438  1
  O  O42  1  0.90749328  0.25292535  0.57602438  1
  O  O43  1  0.25292535  0.34543206  0.07602438  1
  O  O44  1  0.65456794  0.90749328  0.07602438  1
  O  O45  1  0.09250672  0.74707465  0.07602438  1
  O  O46  1  0.65456794  0.74707465  0.42397562  1
  O  O47  1  0.09250672  0.34543206  0.42397562  1
  O  O48  1  0.25292535  0.90749328  0.42397562  1
  O  O49  1  0.34543206  0.25292535  0.92397562  1
  O  O50  1  0.90749328  0.65456794  0.92397562  1
  O  O51  1  0.74707465  0.09250672  0.92397562  1
  O  O52  1  0.25292535  0.34543206  0.42397562  1
  O  O53  1  0.65456794  0.90749328  0.42397562  1
  O  O54  1  0.09250672  0.74707465  0.42397562  1
  O  O55  1  0.74707465  0.65456794  0.92397562  1
  O  O56  1  0.34543206  0.09250672  0.92397562  1
  O  O57  1  0.90749328  0.25292535  0.92397562  1
  O  O58  1  0.34543206  0.25292535  0.57602438  1
  O  O59  1  0.90749328  0.65456794  0.57602438  1
  O  O60  1  0.74707465  0.09250672  0.57602438  1
  O  O61  1  0.65456794  0.74707465  0.07602438  1
  O  O62  1  0.09250672  0.34543206  0.07602438  1
  O  O63  1  0.25292535  0.90749328  0.07602438  1
  O  O64  1  0.08971338  0.59481225  0.54268855  1
  O  O65  1  0.40518775  0.49490113  0.54268855  1
  O  O66  1  0.50509887  0.91028662  0.54268855  1
  O  O67  1  0.91028662  0.40518775  0.04268855  1
  O  O68  1  0.59481225  0.50509887  0.04268855  1
  O  O69  1  0.49490113  0.08971338  0.04268855  1
  O  O70  1  0.59481225  0.08971338  0.45731145  1
  O  O71  1  0.49490113  0.40518775  0.45731145  1
  O  O72  1  0.91028662  0.50509887  0.45731145  1
  O  O73  1  0.40518775  0.91028662  0.95731145  1
  O  O74  1  0.50509887  0.59481225  0.95731145  1
  O  O75  1  0.08971338  0.49490113  0.95731145  1
  O  O76  1  0.91028662  0.40518775  0.45731145  1
  O  O77  1  0.59481225  0.50509887  0.45731145  1
  O  O78  1  0.49490113  0.08971338  0.45731145  1
  O  O79  1  0.08971338  0.59481225  0.95731145  1
  O  O80  1  0.40518775  0.49490113  0.95731145  1
  O  O81  1  0.50509887  0.91028662  0.95731145  1
  O  O82  1  0.40518775  0.91028662  0.54268855  1
  O  O83  1  0.50509887  0.59481225  0.54268855  1
  O  O84  1  0.08971338  0.49490113  0.54268855  1
  O  O85  1  0.59481225  0.08971338  0.04268855  1
  O  O86  1  0.49490113  0.40518775  0.04268855  1
  O  O87  1  0.91028662  0.50509887  0.04268855  1
  O  O88  1  0.90328336  0.80656672  0.33300290  1
  O  O89  1  0.19343328  0.09671664  0.33300290  1
  O  O90  1  0.90328336  0.09671664  0.33300290  1
  O  O91  1  0.09671664  0.19343328  0.83300290  1
  O  O92  1  0.80656672  0.90328336  0.83300290  1
  O  O93  1  0.09671664  0.90328336  0.83300290  1
  O  O94  1  0.80656672  0.90328336  0.66699710  1
  O  O95  1  0.09671664  0.19343328  0.66699710  1
  O  O96  1  0.09671664  0.90328336  0.66699710  1
  O  O97  1  0.19343328  0.09671664  0.16699710  1
  O  O98  1  0.90328336  0.80656672  0.16699710  1
  O  O99  1  0.90328336  0.09671664  0.16699710  1
  O  O100  1  0.80373316  0.82875683  0.25000000  1
  O  O101  1  0.17124317  0.97497632  0.25000000  1
  O  O102  1  0.02502368  0.19626684  0.25000000  1
  O  O103  1  0.19626684  0.17124317  0.75000000  1
  O  O104  1  0.82875683  0.02502368  0.75000000  1
  O  O105  1  0.97497632  0.80373316  0.75000000  1
  O  O106  1  0.82875683  0.80373316  0.75000000  1
  O  O107  1  0.97497632  0.17124317  0.75000000  1
  O  O108  1  0.19626684  0.02502368  0.75000000  1
  O  O109  1  0.17124317  0.19626684  0.25000000  1
  O  O110  1  0.02502368  0.82875683  0.25000000  1
  O  O111  1  0.80373316  0.97497632  0.25000000  1
  Sn  Sn112  1  0.00000000  0.00000000  0.05330912  1
  Sn  Sn113  1  0.00000000  0.00000000  0.55330912  1
  Sn  Sn114  1  0.00000000  0.00000000  0.94669088  1
  Sn  Sn115  1  0.00000000  0.00000000  0.44669088  1
  Sn  Sn116  1  0.61092507  0.00000000  -0.00000000  1
  Sn  Sn117  1  0.00000000  0.61092507  0.00000000  1
  Sn  Sn118  1  0.38907493  0.38907493  -0.00000000  1
  Sn  Sn119  1  0.38907493  0.00000000  0.50000000  1
  Sn  Sn120  1  0.00000000  0.38907493  0.50000000  1
  Sn  Sn121  1  0.61092507  0.61092507  0.50000000  1
  Sn  Sn122  1  0.38907493  0.00000000  -0.00000000  1
  Sn  Sn123  1  0.00000000  0.38907493  0.00000000  1
  Sn  Sn124  1  0.61092507  0.61092507  0.00000000  1
  Sn  Sn125  1  0.61092507  0.00000000  0.50000000  1
  Sn  Sn126  1  0.00000000  0.61092507  0.50000000  1
  Sn  Sn127  1  0.38907493  0.38907493  0.50000000  1
  Sr  Sr128  1  0.33333333  0.66666667  0.25000000  1
  Sr  Sr129  1  0.66666667  0.33333333  0.75000000  1
  Sr  Sr130  1  0.52613067  0.05226133  0.25000000  1
  Sr  Sr131  1  0.94773867  0.47386933  0.25000000  1
  Sr  Sr132  1  0.52613067  0.47386933  0.25000000  1
  Sr  Sr133  1  0.47386933  0.94773867  0.75000000  1
  Sr  Sr134  1  0.05226133  0.52613067  0.75000000  1
  Sr  Sr135  1  0.47386933  0.52613067  0.75000000  1
  Sr  Sr136  1  0.33333333  0.66666667  0.79330133  1
  Sr  Sr137  1  0.66666667  0.33333333  0.29330133  1
  Sr  Sr138  1  0.66666667  0.33333333  0.20669867  1
  Sr  Sr139  1  0.33333333  0.66666667  0.70669867  1
  Te  Te140  1  0.33333333  0.66666667  0.96548028  1
  Te  Te141  1  0.66666667  0.33333333  0.46548028  1
  Te  Te142  1  0.66666667  0.33333333  0.03451972  1
  Te  Te143  1  0.33333333  0.66666667  0.53451972  1
  Ti  Ti144  1  0.00000000  0.00000000  0.70773264  1
  Ti  Ti145  1  0.00000000  0.00000000  0.20773264  1
  Ti  Ti146  1  0.00000000  0.00000000  0.29226736  1
  Ti  Ti147  1  0.00000000  0.00000000  0.79226736  1
  Ti  Ti148  1  0.00000000  0.00000000  0.00000000  1
  Ti  Ti149  1  0.00000000  0.00000000  0.50000000  1
  Ti  Ti150  1  0.33333333  0.66666667  0.60358053  1
  Ti  Ti151  1  0.66666667  0.33333333  0.10358053  1
  Ti  Ti152  1  0.66666667  0.33333333  0.39641947  1
  Ti  Ti153  1  0.33333333  0.66666667  0.89641947  1
  Ti  Ti154  1  0.00000000  0.00000000  0.25000000  1
  Ti  Ti155  1  0.00000000  0.00000000  0.75000000  1
  Ti  Ti156  1  0.33333333  0.66666667  0.75000000  1
  Ti  Ti157  1  0.66666667  0.33333333  0.25000000  1
  Ti  Ti158  1  0.86479038  0.72958077  0.25000000  1
  Ti  Ti159  1  0.27041923  0.13520962  0.25000000  1
  Ti  Ti160  1  0.86479038  0.13520962  0.25000000  1
  Ti  Ti161  1  0.13520962  0.27041923  0.75000000  1
  Ti  Ti162  1  0.72958077  0.86479038  0.75000000  1
  Ti  Ti163  1  0.13520962  0.86479038  0.75000000  1
  Ti  Ti164  1  0.33333333  0.66666667  0.06835948  1
  Ti  Ti165  1  0.66666667  0.33333333  0.56835948  1
  Ti  Ti166  1  0.66666667  0.33333333  0.93164052  1
  Ti  Ti167  1  0.33333333  0.66666667  0.43164052  1
