# generated using pymatgen
data_SrLi2Br3F
_symmetry_space_group_name_H-M   'P 1'
_cell_length_a   10.26075953
_cell_length_b   10.26075953
_cell_length_c   11.04514324
_cell_angle_alpha   90.00000000
_cell_angle_beta   90.00000000
_cell_angle_gamma   120.00000000
_symmetry_Int_Tables_number   1
_chemical_formula_structural   SrLi2Br3F
_chemical_formula_sum   'Sr6 Li12 Br18 F6'
_cell_volume   1007.07311804
_cell_formula_units_Z   6
loop_
 _symmetry_equiv_pos_site_id
 _symmetry_equiv_pos_as_xyz
  1  'x, y, z'
loop_
 _atom_site_type_symbol
 _atom_site_label
 _atom_site_symmetry_multiplicity
 _atom_site_fract_x
 _atom_site_fract_y
 _atom_site_fract_z
 _atom_site_occupancy
  Br  Br0  1  0.60459449  0.00000000  0.50000000  1
  Br  Br1  1  0.00000000  0.60459449  0.50000000  1
  Br  Br2  1  -0.60459449  -0.60459449  0.50000000  1
  Br  Br3  1  -0.60459449  0.00000000  0.50000000  1
  Br  Br4  1  0.00000000  -0.60459449  0.50000000  1
  Br  Br5  1  0.60459449  0.60459449  0.50000000  1
  Br  Br6  1  1.27126116  0.33333333  0.83333333  1
  Br  Br7  1  0.66666667  0.93792783  0.83333333  1
  Br  Br8  1  0.06207217  -0.27126116  0.83333333  1
  Br  Br9  1  0.06207217  0.33333333  0.83333333  1
  Br  Br10  1  0.66666667  -0.27126116  0.83333333  1
  Br  Br11  1  1.27126116  0.93792783  0.83333333  1
  Br  Br12  1  0.93792783  0.66666667  1.16666667  1
  Br  Br13  1  0.33333333  1.27126116  1.16666667  1
  Br  Br14  1  -0.27126116  0.06207217  1.16666667  1
  Br  Br15  1  -0.27126116  0.66666667  1.16666667  1
  Br  Br16  1  0.33333333  0.06207217  1.16666667  1
  Br  Br17  1  0.93792783  1.27126116  1.16666667  1
  F  F18  1  0.00000000  0.00000000  0.29425338  1
  F  F19  1  0.00000000  0.00000000  0.70574662  1
  F  F20  1  0.66666667  0.33333333  0.62758671  1
  F  F21  1  0.66666667  0.33333333  0.03907995  1
  F  F22  1  0.33333333  0.66666667  0.96092005  1
  F  F23  1  0.33333333  0.66666667  0.37241329  1
  Li  Li24  1  0.00000000  0.00000000  0.00000000  1
  Li  Li25  1  0.66666667  0.33333333  0.33333333  1
  Li  Li26  1  0.33333333  0.66666667  0.66666667  1
  Li  Li27  1  0.50000000  -0.00000000  0.00000000  1
  Li  Li28  1  0.00000000  0.50000000  0.00000000  1
  Li  Li29  1  0.50000000  0.50000000  0.00000000  1
  Li  Li30  1  0.16666667  0.33333333  0.33333333  1
  Li  Li31  1  0.66666667  0.83333333  0.33333333  1
  Li  Li32  1  0.16666667  0.83333333  0.33333333  1
  Li  Li33  1  0.83333333  0.66666667  0.66666667  1
  Li  Li34  1  0.33333333  0.16666667  0.66666667  1
  Li  Li35  1  0.83333333  0.16666667  0.66666667  1
  Sr  Sr36  1  0.00000000  0.00000000  0.16801183  1
  Sr  Sr37  1  0.00000000  0.00000000  0.83198817  1
  Sr  Sr38  1  0.66666667  0.33333333  0.50134517  1
  Sr  Sr39  1  0.66666667  0.33333333  0.16532150  1
  Sr  Sr40  1  0.33333333  0.66666667  0.83467850  1
  Sr  Sr41  1  0.33333333  0.66666667  0.49865483  1
