# generated using pymatgen
data_Li4TaN2O7
_symmetry_space_group_name_H-M   'P 1'
_cell_length_a   8.97913569
_cell_length_b   8.55344181
_cell_length_c   8.86599276
_cell_angle_alpha   90.00000000
_cell_angle_beta   90.00000000
_cell_angle_gamma   90.00000000
_symmetry_Int_Tables_number   1
_chemical_formula_structural   Li4TaN2O7
_chemical_formula_sum   'Li4 Ta1 N2 O7'
_cell_volume   680.93053858
_cell_formula_units_Z   1
loop_
 _symmetry_equiv_pos_site_id
 _symmetry_equiv_pos_as_xyz
  1  'x, y, z'
loop_
 _atom_site_type_symbol
 _atom_site_label
 _atom_site_symmetry_multiplicity
 _atom_site_fract_x
 _atom_site_fract_y
 _atom_site_fract_z
 _atom_site_occupancy
  Li  Li0  1  0.00000000  0.00000000  0.00000000  1
  Li  Li1  1  0.50000000  0.50000000  0.50000000  1
  Li  Li2  1  0.25000000  0.25000000  0.25000000  1
  Li  Li3  1  0.75000000  0.25000000  0.00000000  1
  Ta  Ta4  1  0.25000000  0.75000000  0.50000000  1
  N  N5  1  0.81281039  0.56341972  0.57504724  1
  N  N6  1  0.62412781  0.01713893  0.84485871  1
  O  O7  1  0.60055841  0.04470166  0.94453080  1
  O  O8  1  0.83117854  0.27475412  0.36922846  1
  O  O9  1  0.97798019  0.58857320  0.08313594  1
  O  O10  1  0.86422516  0.77648129  0.97748085  1
  O  O11  1  0.09847273  0.97238859  0.31507475  1
  O  O12  1  0.59123270  0.29863537  0.62605667  1
  O  O13  1  0.86248860  0.06372296  0.82413395  1
