# generated using pymatgen
data_Li2Hf4S9
_symmetry_space_group_name_H-M   'P 1'
_cell_length_a   7.72000333
_cell_length_b   7.72000333
_cell_length_c   7.22570452
_cell_angle_alpha   90.00000000
_cell_angle_beta   90.00000000
_cell_angle_gamma   120.00000000
_symmetry_Int_Tables_number   1
_chemical_formula_structural   Li2Hf4S9
_chemical_formula_sum   'Li2 Hf4 S9'
_cell_volume   372.94587254
_cell_formula_units_Z   1
loop_
 _symmetry_equiv_pos_site_id
 _symmetry_equiv_pos_as_xyz
  1  'x, y, z'
loop_
 _atom_site_type_symbol
 _atom_site_label
 _atom_site_symmetry_multiplicity
 _atom_site_fract_x
 _atom_site_fract_y
 _atom_site_fract_z
 _atom_site_occupancy
  Hf  Hf0  1  0.66666667  0.33333333  0.00000000  1
  Hf  Hf1  1  0.86163897  0.13836103  0.50000000  1
  Hf  Hf2  1  0.86163897  0.72327793  0.50000000  1
  Hf  Hf3  1  0.27672207  0.13836103  0.50000000  1
  Li  Li4  1  0.66666667  0.33333333  0.59865864  1
  Li  Li5  1  0.66666667  0.33333333  0.40134136  1
  S  S6  1  0.64596854  0.98612164  0.70605443  1
  S  S7  1  -0.98612164  -0.34015310  0.70605443  1
  S  S8  1  0.34015310  -0.64596854  0.70605443  1
  S  S9  1  -0.98612164  -0.64596854  -0.70605443  1
  S  S10  1  0.34015310  0.98612164  -0.70605443  1
  S  S11  1  0.64596854  -0.34015310  -0.70605443  1
  S  S12  1  0.00000000  0.00000000  0.50000000  1
  S  S13  1  0.00000000  0.00000000  0.29946239  1
  S  S14  1  0.00000000  0.00000000  0.70053761  1
