# generated using pymatgen
data_Li2Sn(BrF)3
_symmetry_space_group_name_H-M   'P 1'
_cell_length_a   9.67503324
_cell_length_b   9.67503324
_cell_length_c   9.94047876
_cell_angle_alpha   90.00000000
_cell_angle_beta   90.00000000
_cell_angle_gamma   120.00000000
_symmetry_Int_Tables_number   1
_chemical_formula_structural   Li2Sn(BrF)3
_chemical_formula_sum   'Li12 Sn6 Br18 F18'
_cell_volume   805.82894875
_cell_formula_units_Z   6
loop_
 _symmetry_equiv_pos_site_id
 _symmetry_equiv_pos_as_xyz
  1  'x, y, z'
loop_
 _atom_site_type_symbol
 _atom_site_label
 _atom_site_symmetry_multiplicity
 _atom_site_fract_x
 _atom_site_fract_y
 _atom_site_fract_z
 _atom_site_occupancy
  Br  Br0  1  0.74849848  -0.74849848  0.60067004  1
  Br  Br1  1  0.74849848  1.49699697  0.60067004  1
  Br  Br2  1  -1.49699697  -0.74849848  0.60067004  1
  Br  Br3  1  -0.74849848  0.74849848  -0.60067004  1
  Br  Br4  1  1.49699697  0.74849848  -0.60067004  1
  Br  Br5  1  -0.74849848  -1.49699697  -0.60067004  1
  Br  Br6  1  1.41516515  -0.41516515  0.93400338  1
  Br  Br7  1  1.41516515  1.83033030  0.93400338  1
  Br  Br8  1  -0.83033030  -0.41516515  0.93400338  1
  Br  Br9  1  -0.08183182  1.08183182  -0.26733671  1
  Br  Br10  1  2.16366364  1.08183182  -0.26733671  1
  Br  Br11  1  -0.08183182  -1.16366364  -0.26733671  1
  Br  Br12  1  1.08183182  -0.08183182  1.26733671  1
  Br  Br13  1  1.08183182  2.16366364  1.26733671  1
  Br  Br14  1  -1.16366364  -0.08183182  1.26733671  1
  Br  Br15  1  -0.41516515  1.41516515  0.06599662  1
  Br  Br16  1  1.83033030  1.41516515  0.06599662  1
  Br  Br17  1  -0.41516515  -0.83033030  0.06599662  1
  F  F18  1  0.75975160  0.00000000  0.50000000  1
  F  F19  1  0.00000000  0.75975160  0.50000000  1
  F  F20  1  0.24024840  0.24024840  0.50000000  1
  F  F21  1  0.24024840  -0.00000000  0.50000000  1
  F  F22  1  0.00000000  0.24024840  0.50000000  1
  F  F23  1  0.75975160  0.75975160  0.50000000  1
  F  F24  1  0.42641827  0.33333333  0.83333333  1
  F  F25  1  0.66666667  0.09308494  0.83333333  1
  F  F26  1  0.90691506  0.57358173  0.83333333  1
  F  F27  1  0.90691506  0.33333333  0.83333333  1
  F  F28  1  0.66666667  0.57358173  0.83333333  1
  F  F29  1  0.42641827  0.09308494  0.83333333  1
  F  F30  1  0.09308494  0.66666667  0.16666667  1
  F  F31  1  0.33333333  0.42641827  0.16666667  1
  F  F32  1  0.57358173  0.90691506  0.16666667  1
  F  F33  1  0.57358173  0.66666667  0.16666667  1
  F  F34  1  0.33333333  0.90691506  0.16666667  1
  F  F35  1  0.09308494  0.42641827  0.16666667  1
  Li  Li36  1  0.00000000  0.00000000  0.00000000  1
  Li  Li37  1  0.66666667  0.33333333  0.33333333  1
  Li  Li38  1  0.33333333  0.66666667  0.66666667  1
  Li  Li39  1  0.50000000  0.00000000  -0.00000000  1
  Li  Li40  1  0.00000000  0.50000000  0.00000000  1
  Li  Li41  1  0.50000000  0.50000000  -0.00000000  1
  Li  Li42  1  0.16666667  0.33333333  0.33333333  1
  Li  Li43  1  0.66666667  0.83333333  0.33333333  1
  Li  Li44  1  0.16666667  0.83333333  0.33333333  1
  Li  Li45  1  0.83333333  0.66666667  0.66666667  1
  Li  Li46  1  0.33333333  0.16666667  0.66666667  1
  Li  Li47  1  0.83333333  0.16666667  0.66666667  1
  Sn  Sn48  1  0.00000000  0.00000000  0.28816850  1
  Sn  Sn49  1  0.00000000  0.00000000  0.71183150  1
  Sn  Sn50  1  0.66666667  0.33333333  0.62150183  1
  Sn  Sn51  1  0.66666667  0.33333333  0.04516483  1
  Sn  Sn52  1  0.33333333  0.66666667  0.95483517  1
  Sn  Sn53  1  0.33333333  0.66666667  0.37849817  1
