# generated using pymatgen
data_K3LiSn(Br3Cl)2
_symmetry_space_group_name_H-M   'P 1'
_cell_length_a   16.79957274
_cell_length_b   16.79957274
_cell_length_c   16.79957274
_cell_angle_alpha   90.00000000
_cell_angle_beta   90.00000000
_cell_angle_gamma   90.00000000
_symmetry_Int_Tables_number   1
_chemical_formula_structural   K3LiSn(Br3Cl)2
_chemical_formula_sum   'K48 Li16 Sn16 Br96 Cl32'
_cell_volume   4741.27024328
_cell_formula_units_Z   16
loop_
 _symmetry_equiv_pos_site_id
 _symmetry_equiv_pos_as_xyz
  1  'x, y, z'
loop_
 _atom_site_type_symbol
 _atom_site_label
 _atom_site_symmetry_multiplicity
 _atom_site_fract_x
 _atom_site_fract_y
 _atom_site_fract_z
 _atom_site_occupancy
  Br  Br0  1  0.41560955  0.41560955  0.41560955  1
  Br  Br1  1  0.58439045  0.58439045  0.41560955  1
  Br  Br2  1  0.58439045  0.41560955  0.58439045  1
  Br  Br3  1  0.41560955  0.58439045  0.58439045  1
  Br  Br4  1  0.41560955  0.91560955  0.91560955  1
  Br  Br5  1  0.58439045  0.08439045  0.91560955  1
  Br  Br6  1  0.58439045  0.91560955  0.08439045  1
  Br  Br7  1  0.41560955  0.08439045  0.08439045  1
  Br  Br8  1  0.91560955  0.41560955  0.91560955  1
  Br  Br9  1  0.08439045  0.58439045  0.91560955  1
  Br  Br10  1  0.08439045  0.41560955  0.08439045  1
  Br  Br11  1  0.91560955  0.58439045  0.08439045  1
  Br  Br12  1  0.91560955  0.91560955  0.41560955  1
  Br  Br13  1  0.08439045  0.08439045  0.41560955  1
  Br  Br14  1  0.08439045  0.91560955  0.58439045  1
  Br  Br15  1  0.91560955  0.08439045  0.58439045  1
  Br  Br16  1  0.78153993  0.78153993  0.35147695  1
  Br  Br17  1  -0.78153993  -0.78153993  0.35147695  1
  Br  Br18  1  -0.78153993  0.78153993  -0.35147695  1
  Br  Br19  1  0.78153993  -0.78153993  -0.35147695  1
  Br  Br20  1  0.35147695  0.78153993  0.78153993  1
  Br  Br21  1  0.35147695  -0.78153993  -0.78153993  1
  Br  Br22  1  -0.35147695  -0.78153993  0.78153993  1
  Br  Br23  1  -0.35147695  0.78153993  -0.78153993  1
  Br  Br24  1  0.78153993  0.35147695  0.78153993  1
  Br  Br25  1  -0.78153993  0.35147695  -0.78153993  1
  Br  Br26  1  0.78153993  -0.35147695  -0.78153993  1
  Br  Br27  1  -0.78153993  -0.35147695  0.78153993  1
  Br  Br28  1  0.78153993  1.28153993  0.85147695  1
  Br  Br29  1  -0.78153993  -0.28153993  0.85147695  1
  Br  Br30  1  -0.78153993  1.28153993  0.14852305  1
  Br  Br31  1  0.78153993  -0.28153993  0.14852305  1
  Br  Br32  1  0.35147695  1.28153993  1.28153993  1
  Br  Br33  1  0.35147695  -0.28153993  -0.28153993  1
  Br  Br34  1  -0.35147695  -0.28153993  1.28153993  1
  Br  Br35  1  -0.35147695  1.28153993  -0.28153993  1
  Br  Br36  1  0.78153993  0.85147695  1.28153993  1
  Br  Br37  1  -0.78153993  0.85147695  -0.28153993  1
  Br  Br38  1  0.78153993  0.14852305  -0.28153993  1
  Br  Br39  1  -0.78153993  0.14852305  1.28153993  1
  Br  Br40  1  1.28153993  0.78153993  0.85147695  1
  Br  Br41  1  -0.28153993  -0.78153993  0.85147695  1
  Br  Br42  1  -0.28153993  0.78153993  0.14852305  1
  Br  Br43  1  1.28153993  -0.78153993  0.14852305  1
  Br  Br44  1  0.85147695  0.78153993  1.28153993  1
  Br  Br45  1  0.85147695  -0.78153993  -0.28153993  1
  Br  Br46  1  0.14852305  -0.78153993  1.28153993  1
  Br  Br47  1  0.14852305  0.78153993  -0.28153993  1
  Br  Br48  1  1.28153993  0.35147695  1.28153993  1
  Br  Br49  1  -0.28153993  0.35147695  -0.28153993  1
  Br  Br50  1  1.28153993  -0.35147695  -0.28153993  1
  Br  Br51  1  -0.28153993  -0.35147695  1.28153993  1
  Br  Br52  1  1.28153993  1.28153993  0.35147695  1
  Br  Br53  1  -0.28153993  -0.28153993  0.35147695  1
  Br  Br54  1  -0.28153993  1.28153993  -0.35147695  1
  Br  Br55  1  1.28153993  -0.28153993  -0.35147695  1
  Br  Br56  1  0.85147695  1.28153993  0.78153993  1
  Br  Br57  1  0.85147695  -0.28153993  -0.78153993  1
  Br  Br58  1  0.14852305  -0.28153993  0.78153993  1
  Br  Br59  1  0.14852305  1.28153993  -0.78153993  1
  Br  Br60  1  1.28153993  0.85147695  0.78153993  1
  Br  Br61  1  -0.28153993  0.85147695  -0.78153993  1
  Br  Br62  1  1.28153993  0.14852305  -0.78153993  1
  Br  Br63  1  -0.28153993  0.14852305  0.78153993  1
  Br  Br64  1  0.08516595  0.25000000  0.25000000  1
  Br  Br65  1  0.91483405  0.75000000  0.25000000  1
  Br  Br66  1  0.25000000  0.08516595  0.25000000  1
  Br  Br67  1  0.25000000  0.91483405  0.75000000  1
  Br  Br68  1  0.25000000  0.25000000  0.08516595  1
  Br  Br69  1  0.75000000  0.25000000  0.91483405  1
  Br  Br70  1  0.08516595  0.75000000  0.75000000  1
  Br  Br71  1  0.91483405  0.25000000  0.75000000  1
  Br  Br72  1  0.25000000  0.58516595  0.75000000  1
  Br  Br73  1  0.25000000  0.41483405  0.25000000  1
  Br  Br74  1  0.25000000  0.75000000  0.58516595  1
  Br  Br75  1  0.75000000  0.75000000  0.41483405  1
  Br  Br76  1  0.58516595  0.25000000  0.75000000  1
  Br  Br77  1  0.41483405  0.75000000  0.75000000  1
  Br  Br78  1  0.75000000  0.08516595  0.75000000  1
  Br  Br79  1  0.75000000  0.91483405  0.25000000  1
  Br  Br80  1  0.75000000  0.25000000  0.58516595  1
  Br  Br81  1  0.25000000  0.25000000  0.41483405  1
  Br  Br82  1  0.58516595  0.75000000  0.25000000  1
  Br  Br83  1  0.41483405  0.25000000  0.25000000  1
  Br  Br84  1  0.75000000  0.58516595  0.25000000  1
  Br  Br85  1  0.75000000  0.41483405  0.75000000  1
  Br  Br86  1  0.75000000  0.75000000  0.08516595  1
  Br  Br87  1  0.25000000  0.75000000  0.91483405  1
  Br  Br88  1  0.25000000  0.25000000  0.25000000  1
  Br  Br89  1  0.25000000  0.75000000  0.75000000  1
  Br  Br90  1  0.75000000  0.25000000  0.75000000  1
  Br  Br91  1  0.75000000  0.75000000  0.25000000  1
  Br  Br92  1  0.50000000  0.50000000  0.50000000  1
  Br  Br93  1  0.50000000  0.00000000  0.00000000  1
  Br  Br94  1  0.00000000  0.50000000  0.00000000  1
  Br  Br95  1  0.00000000  0.00000000  0.50000000  1
  Cl  Cl96  1  0.48793009  0.25000000  0.25000000  1
  Cl  Cl97  1  0.51206991  0.75000000  0.25000000  1
  Cl  Cl98  1  0.25000000  0.48793009  0.25000000  1
  Cl  Cl99  1  0.25000000  0.51206991  0.75000000  1
  Cl  Cl100  1  0.25000000  0.25000000  0.48793009  1
  Cl  Cl101  1  0.75000000  0.25000000  0.51206991  1
  Cl  Cl102  1  0.48793009  0.75000000  0.75000000  1
  Cl  Cl103  1  0.51206991  0.25000000  0.75000000  1
  Cl  Cl104  1  0.25000000  0.98793009  0.75000000  1
  Cl  Cl105  1  0.25000000  0.01206991  0.25000000  1
  Cl  Cl106  1  0.25000000  0.75000000  0.98793009  1
  Cl  Cl107  1  0.75000000  0.75000000  0.01206991  1
  Cl  Cl108  1  0.98793009  0.25000000  0.75000000  1
  Cl  Cl109  1  0.01206991  0.75000000  0.75000000  1
  Cl  Cl110  1  0.75000000  0.48793009  0.75000000  1
  Cl  Cl111  1  0.75000000  0.51206991  0.25000000  1
  Cl  Cl112  1  0.75000000  0.25000000  0.98793009  1
  Cl  Cl113  1  0.25000000  0.25000000  0.01206991  1
  Cl  Cl114  1  0.98793009  0.75000000  0.25000000  1
  Cl  Cl115  1  0.01206991  0.25000000  0.25000000  1
  Cl  Cl116  1  0.75000000  0.98793009  0.25000000  1
  Cl  Cl117  1  0.75000000  0.01206991  0.75000000  1
  Cl  Cl118  1  0.75000000  0.75000000  0.48793009  1
  Cl  Cl119  1  0.25000000  0.75000000  0.51206991  1
  Cl  Cl120  1  0.00000000  0.00000000  0.00000000  1
  Cl  Cl121  1  0.00000000  0.50000000  0.50000000  1
  Cl  Cl122  1  0.50000000  0.00000000  0.50000000  1
  Cl  Cl123  1  0.50000000  0.50000000  0.00000000  1
  Cl  Cl124  1  0.75000000  0.75000000  0.75000000  1
  Cl  Cl125  1  0.75000000  0.25000000  0.25000000  1
  Cl  Cl126  1  0.25000000  0.75000000  0.25000000  1
  Cl  Cl127  1  0.25000000  0.25000000  0.75000000  1
  K  K128  1  0.30811999  0.30811999  0.56170985  1
  K  K129  1  0.69188001  0.69188001  0.56170985  1
  K  K130  1  0.69188001  0.30811999  0.43829015  1
  K  K131  1  0.30811999  0.69188001  0.43829015  1
  K  K132  1  0.56170985  0.30811999  0.30811999  1
  K  K133  1  0.56170985  0.69188001  0.69188001  1
  K  K134  1  0.43829015  0.69188001  0.30811999  1
  K  K135  1  0.43829015  0.30811999  0.69188001  1
  K  K136  1  0.30811999  0.56170985  0.30811999  1
  K  K137  1  0.69188001  0.56170985  0.69188001  1
  K  K138  1  0.30811999  0.43829015  0.69188001  1
  K  K139  1  0.69188001  0.43829015  0.30811999  1
  K  K140  1  0.30811999  0.80811999  0.06170985  1
  K  K141  1  0.69188001  0.19188001  0.06170985  1
  K  K142  1  0.69188001  0.80811999  0.93829015  1
  K  K143  1  0.30811999  0.19188001  0.93829015  1
  K  K144  1  0.56170985  0.80811999  0.80811999  1
  K  K145  1  0.56170985  0.19188001  0.19188001  1
  K  K146  1  0.43829015  0.19188001  0.80811999  1
  K  K147  1  0.43829015  0.80811999  0.19188001  1
  K  K148  1  0.30811999  0.06170985  0.80811999  1
  K  K149  1  0.69188001  0.06170985  0.19188001  1
  K  K150  1  0.30811999  0.93829015  0.19188001  1
  K  K151  1  0.69188001  0.93829015  0.80811999  1
  K  K152  1  0.80811999  0.30811999  0.06170985  1
  K  K153  1  0.19188001  0.69188001  0.06170985  1
  K  K154  1  0.19188001  0.30811999  0.93829015  1
  K  K155  1  0.80811999  0.69188001  0.93829015  1
  K  K156  1  0.06170985  0.30811999  0.80811999  1
  K  K157  1  0.06170985  0.69188001  0.19188001  1
  K  K158  1  0.93829015  0.69188001  0.80811999  1
  K  K159  1  0.93829015  0.30811999  0.19188001  1
  K  K160  1  0.80811999  0.56170985  0.80811999  1
  K  K161  1  0.19188001  0.56170985  0.19188001  1
  K  K162  1  0.80811999  0.43829015  0.19188001  1
  K  K163  1  0.19188001  0.43829015  0.80811999  1
  K  K164  1  0.80811999  0.80811999  0.56170985  1
  K  K165  1  0.19188001  0.19188001  0.56170985  1
  K  K166  1  0.19188001  0.80811999  0.43829015  1
  K  K167  1  0.80811999  0.19188001  0.43829015  1
  K  K168  1  0.06170985  0.80811999  0.30811999  1
  K  K169  1  0.06170985  0.19188001  0.69188001  1
  K  K170  1  0.93829015  0.19188001  0.30811999  1
  K  K171  1  0.93829015  0.80811999  0.69188001  1
  K  K172  1  0.80811999  0.06170985  0.30811999  1
  K  K173  1  0.19188001  0.06170985  0.69188001  1
  K  K174  1  0.80811999  0.93829015  0.69188001  1
  K  K175  1  0.19188001  0.93829015  0.30811999  1
  Li  Li176  1  0.08851677  0.08851677  0.08851677  1
  Li  Li177  1  0.91148323  0.91148323  0.08851677  1
  Li  Li178  1  0.91148323  0.08851677  0.91148323  1
  Li  Li179  1  0.08851677  0.91148323  0.91148323  1
  Li  Li180  1  0.08851677  0.58851677  0.58851677  1
  Li  Li181  1  0.91148323  0.41148323  0.58851677  1
  Li  Li182  1  0.91148323  0.58851677  0.41148323  1
  Li  Li183  1  0.08851677  0.41148323  0.41148323  1
  Li  Li184  1  0.58851677  0.08851677  0.58851677  1
  Li  Li185  1  0.41148323  0.91148323  0.58851677  1
  Li  Li186  1  0.41148323  0.08851677  0.41148323  1
  Li  Li187  1  0.58851677  0.91148323  0.41148323  1
  Li  Li188  1  0.58851677  0.58851677  0.08851677  1
  Li  Li189  1  0.41148323  0.41148323  0.08851677  1
  Li  Li190  1  0.41148323  0.58851677  0.91148323  1
  Li  Li191  1  0.58851677  0.41148323  0.91148323  1
  Sn  Sn192  1  0.57015235  0.57015235  0.57015235  1
  Sn  Sn193  1  0.42984765  0.42984765  0.57015235  1
  Sn  Sn194  1  0.42984765  0.57015235  0.42984765  1
  Sn  Sn195  1  0.57015235  0.42984765  0.42984765  1
  Sn  Sn196  1  0.57015235  0.07015235  0.07015235  1
  Sn  Sn197  1  0.42984765  0.92984765  0.07015235  1
  Sn  Sn198  1  0.42984765  0.07015235  0.92984765  1
  Sn  Sn199  1  0.57015235  0.92984765  0.92984765  1
  Sn  Sn200  1  0.07015235  0.57015235  0.07015235  1
  Sn  Sn201  1  0.92984765  0.42984765  0.07015235  1
  Sn  Sn202  1  0.92984765  0.57015235  0.92984765  1
  Sn  Sn203  1  0.07015235  0.42984765  0.92984765  1
  Sn  Sn204  1  0.07015235  0.07015235  0.57015235  1
  Sn  Sn205  1  0.92984765  0.92984765  0.57015235  1
  Sn  Sn206  1  0.92984765  0.07015235  0.42984765  1
  Sn  Sn207  1  0.07015235  0.92984765  0.42984765  1
