# generated using pymatgen
data_Li2S
_symmetry_space_group_name_H-M   'P 1'
_cell_length_a   18.59873973
_cell_length_b   18.59873973
_cell_length_c   18.59873973
_cell_angle_alpha   90.00000000
_cell_angle_beta   90.00000000
_cell_angle_gamma   90.00000000
_symmetry_Int_Tables_number   1
_chemical_formula_structural   Li2S
_chemical_formula_sum   'Li192 S96'
_cell_volume   6433.54808133
_cell_formula_units_Z   96
loop_
 _symmetry_equiv_pos_site_id
 _symmetry_equiv_pos_as_xyz
  1  'x, y, z'
loop_
 _atom_site_type_symbol
 _atom_site_label
 _atom_site_symmetry_multiplicity
 _atom_site_fract_x
 _atom_site_fract_y
 _atom_site_fract_z
 _atom_site_occupancy
  Li  Li0  1  0.88717064  0.73826866  0.20485731  1
  Li  Li1  1  -0.38717064  -0.73826866  0.70485731  1
  Li  Li2  1  -0.88717064  1.23826866  0.29514269  1
  Li  Li3  1  1.38717064  -0.23826866  -0.20485731  1
  Li  Li4  1  0.20485731  0.88717064  0.73826866  1
  Li  Li5  1  0.70485731  -0.38717064  -0.73826866  1
  Li  Li6  1  0.29514269  -0.88717064  1.23826866  1
  Li  Li7  1  -0.20485731  1.38717064  -0.23826866  1
  Li  Li8  1  0.73826866  0.20485731  0.88717064  1
  Li  Li9  1  -0.73826866  0.70485731  -0.38717064  1
  Li  Li10  1  1.23826866  0.29514269  -0.88717064  1
  Li  Li11  1  -0.23826866  -0.20485731  1.38717064  1
  Li  Li12  1  1.48826866  1.13717064  0.04514269  1
  Li  Li13  1  0.01173134  -0.13717064  0.54514269  1
  Li  Li14  1  0.98826866  -0.63717064  0.95485731  1
  Li  Li15  1  -0.48826866  1.63717064  0.45485731  1
  Li  Li16  1  1.63717064  0.45485731  -0.48826866  1
  Li  Li17  1  -0.63717064  0.95485731  0.98826866  1
  Li  Li18  1  -0.13717064  0.54514269  0.01173134  1
  Li  Li19  1  1.13717064  0.04514269  1.48826866  1
  Li  Li20  1  0.95485731  0.98826866  -0.63717064  1
  Li  Li21  1  0.45485731  -0.48826866  1.63717064  1
  Li  Li22  1  0.04514269  1.48826866  1.13717064  1
  Li  Li23  1  0.54514269  0.01173134  -0.13717064  1
  Li  Li24  1  -0.88717064  -0.73826866  -0.20485731  1
  Li  Li25  1  1.38717064  0.73826866  0.29514269  1
  Li  Li26  1  0.88717064  -0.23826866  0.70485731  1
  Li  Li27  1  -0.38717064  1.23826866  0.20485731  1
  Li  Li28  1  -0.20485731  -0.88717064  -0.73826866  1
  Li  Li29  1  0.29514269  1.38717064  0.73826866  1
  Li  Li30  1  0.70485731  0.88717064  -0.23826866  1
  Li  Li31  1  0.20485731  -0.38717064  1.23826866  1
  Li  Li32  1  -0.73826866  -0.20485731  -0.88717064  1
  Li  Li33  1  0.73826866  0.29514269  1.38717064  1
  Li  Li34  1  -0.23826866  0.70485731  0.88717064  1
  Li  Li35  1  1.23826866  0.20485731  -0.38717064  1
  Li  Li36  1  -0.48826866  -0.13717064  0.95485731  1
  Li  Li37  1  0.98826866  1.13717064  0.45485731  1
  Li  Li38  1  0.01173134  1.63717064  0.04514269  1
  Li  Li39  1  1.48826866  -0.63717064  0.54514269  1
  Li  Li40  1  -0.63717064  0.54514269  1.48826866  1
  Li  Li41  1  1.63717064  0.04514269  0.01173134  1
  Li  Li42  1  1.13717064  0.45485731  0.98826866  1
  Li  Li43  1  -0.13717064  0.95485731  -0.48826866  1
  Li  Li44  1  0.04514269  0.01173134  1.63717064  1
  Li  Li45  1  0.54514269  1.48826866  -0.63717064  1
  Li  Li46  1  0.95485731  -0.48826866  -0.13717064  1
  Li  Li47  1  0.45485731  0.98826866  1.13717064  1
  Li  Li48  1  1.38717064  1.23826866  0.70485731  1
  Li  Li49  1  0.11282936  -0.23826866  1.20485731  1
  Li  Li50  1  -0.38717064  1.73826866  0.79514269  1
  Li  Li51  1  1.88717064  0.26173134  0.29514269  1
  Li  Li52  1  0.70485731  1.38717064  1.23826866  1
  Li  Li53  1  1.20485731  0.11282936  -0.23826866  1
  Li  Li54  1  0.79514269  -0.38717064  1.73826866  1
  Li  Li55  1  0.29514269  1.88717064  0.26173134  1
  Li  Li56  1  1.23826866  0.70485731  1.38717064  1
  Li  Li57  1  -0.23826866  1.20485731  0.11282936  1
  Li  Li58  1  1.73826866  0.79514269  -0.38717064  1
  Li  Li59  1  0.26173134  0.29514269  1.88717064  1
  Li  Li60  1  1.98826866  1.63717064  0.54514269  1
  Li  Li61  1  0.51173134  0.36282936  1.04514269  1
  Li  Li62  1  1.48826866  -0.13717064  1.45485731  1
  Li  Li63  1  0.01173134  2.13717064  0.95485731  1
  Li  Li64  1  2.13717064  0.95485731  0.01173134  1
  Li  Li65  1  -0.13717064  1.45485731  1.48826866  1
  Li  Li66  1  0.36282936  1.04514269  0.51173134  1
  Li  Li67  1  1.63717064  0.54514269  1.98826866  1
  Li  Li68  1  1.45485731  1.48826866  -0.13717064  1
  Li  Li69  1  0.95485731  0.01173134  2.13717064  1
  Li  Li70  1  0.54514269  1.98826866  1.63717064  1
  Li  Li71  1  1.04514269  0.51173134  0.36282936  1
  Li  Li72  1  -0.38717064  -0.23826866  0.29514269  1
  Li  Li73  1  1.88717064  1.23826866  0.79514269  1
  Li  Li74  1  1.38717064  0.26173134  1.20485731  1
  Li  Li75  1  0.11282936  1.73826866  0.70485731  1
  Li  Li76  1  0.29514269  -0.38717064  -0.23826866  1
  Li  Li77  1  0.79514269  1.88717064  1.23826866  1
  Li  Li78  1  1.20485731  1.38717064  0.26173134  1
  Li  Li79  1  0.70485731  0.11282936  1.73826866  1
  Li  Li80  1  -0.23826866  0.29514269  -0.38717064  1
  Li  Li81  1  1.23826866  0.79514269  1.88717064  1
  Li  Li82  1  0.26173134  1.20485731  1.38717064  1
  Li  Li83  1  1.73826866  0.70485731  0.11282936  1
  Li  Li84  1  0.01173134  0.36282936  1.45485731  1
  Li  Li85  1  1.48826866  1.63717064  0.95485731  1
  Li  Li86  1  0.51173134  2.13717064  0.54514269  1
  Li  Li87  1  1.98826866  -0.13717064  1.04514269  1
  Li  Li88  1  -0.13717064  1.04514269  1.98826866  1
  Li  Li89  1  2.13717064  0.54514269  0.51173134  1
  Li  Li90  1  1.63717064  0.95485731  1.48826866  1
  Li  Li91  1  0.36282936  1.45485731  0.01173134  1
  Li  Li92  1  0.54514269  0.51173134  2.13717064  1
  Li  Li93  1  1.04514269  1.98826866  -0.13717064  1
  Li  Li94  1  1.45485731  0.01173134  0.36282936  1
  Li  Li95  1  0.95485731  1.48826866  1.63717064  1
  Li  Li96  1  0.62532931  0.07584390  0.94246401  1
  Li  Li97  1  0.87467069  0.92415610  0.44246401  1
  Li  Li98  1  0.37467069  0.57584390  0.55753599  1
  Li  Li99  1  0.12532931  0.42415610  0.05753599  1
  Li  Li100  1  0.94246401  0.62532931  0.07584390  1
  Li  Li101  1  0.44246401  0.87467069  0.92415610  1
  Li  Li102  1  0.55753599  0.37467069  0.57584390  1
  Li  Li103  1  0.05753599  0.12532931  0.42415610  1
  Li  Li104  1  0.07584390  0.94246401  0.62532931  1
  Li  Li105  1  0.92415610  0.44246401  0.87467069  1
  Li  Li106  1  0.57584390  0.55753599  0.37467069  1
  Li  Li107  1  0.42415610  0.05753599  0.12532931  1
  Li  Li108  1  0.82584390  0.87532931  0.30753599  1
  Li  Li109  1  0.67415610  0.12467069  0.80753599  1
  Li  Li110  1  0.32584390  0.62467069  0.69246401  1
  Li  Li111  1  0.17415610  0.37532931  0.19246401  1
  Li  Li112  1  0.37532931  0.19246401  0.17415610  1
  Li  Li113  1  0.62467069  0.69246401  0.32584390  1
  Li  Li114  1  0.12467069  0.80753599  0.67415610  1
  Li  Li115  1  0.87532931  0.30753599  0.82584390  1
  Li  Li116  1  0.69246401  0.32584390  0.62467069  1
  Li  Li117  1  0.19246401  0.17415610  0.37532931  1
  Li  Li118  1  0.30753599  0.82584390  0.87532931  1
  Li  Li119  1  0.80753599  0.67415610  0.12467069  1
  Li  Li120  1  0.37467069  0.92415610  0.05753599  1
  Li  Li121  1  0.12532931  0.07584390  0.55753599  1
  Li  Li122  1  0.62532931  0.42415610  0.44246401  1
  Li  Li123  1  0.87467069  0.57584390  0.94246401  1
  Li  Li124  1  0.05753599  0.37467069  0.92415610  1
  Li  Li125  1  0.55753599  0.12532931  0.07584390  1
  Li  Li126  1  0.44246401  0.62532931  0.42415610  1
  Li  Li127  1  0.94246401  0.87467069  0.57584390  1
  Li  Li128  1  0.92415610  0.05753599  0.37467069  1
  Li  Li129  1  0.07584390  0.55753599  0.12532931  1
  Li  Li130  1  0.42415610  0.44246401  0.62532931  1
  Li  Li131  1  0.57584390  0.94246401  0.87467069  1
  Li  Li132  1  0.17415610  0.12467069  0.69246401  1
  Li  Li133  1  0.32584390  0.87532931  0.19246401  1
  Li  Li134  1  0.67415610  0.37532931  0.30753599  1
  Li  Li135  1  0.82584390  0.62467069  0.80753599  1
  Li  Li136  1  0.62467069  0.80753599  0.82584390  1
  Li  Li137  1  0.37532931  0.30753599  0.67415610  1
  Li  Li138  1  0.87532931  0.19246401  0.32584390  1
  Li  Li139  1  0.12467069  0.69246401  0.17415610  1
  Li  Li140  1  0.30753599  0.67415610  0.37532931  1
  Li  Li141  1  0.80753599  0.82584390  0.62467069  1
  Li  Li142  1  0.69246401  0.17415610  0.12467069  1
  Li  Li143  1  0.19246401  0.32584390  0.87532931  1
  Li  Li144  1  0.12532931  0.57584390  0.44246401  1
  Li  Li145  1  0.37467069  0.42415610  0.94246401  1
  Li  Li146  1  0.87467069  0.07584390  0.05753599  1
  Li  Li147  1  0.62532931  0.92415610  0.55753599  1
  Li  Li148  1  0.44246401  0.12532931  0.57584390  1
  Li  Li149  1  0.94246401  0.37467069  0.42415610  1
  Li  Li150  1  0.05753599  0.87467069  0.07584390  1
  Li  Li151  1  0.55753599  0.62532931  0.92415610  1
  Li  Li152  1  0.57584390  0.44246401  0.12532931  1
  Li  Li153  1  0.42415610  0.94246401  0.37467069  1
  Li  Li154  1  0.07584390  0.05753599  0.87467069  1
  Li  Li155  1  0.92415610  0.55753599  0.62532931  1
  Li  Li156  1  0.32584390  0.37532931  0.80753599  1
  Li  Li157  1  0.17415610  0.62467069  0.30753599  1
  Li  Li158  1  0.82584390  0.12467069  0.19246401  1
  Li  Li159  1  0.67415610  0.87532931  0.69246401  1
  Li  Li160  1  0.87532931  0.69246401  0.67415610  1
  Li  Li161  1  0.12467069  0.19246401  0.82584390  1
  Li  Li162  1  0.62467069  0.30753599  0.17415610  1
  Li  Li163  1  0.37532931  0.80753599  0.32584390  1
  Li  Li164  1  0.19246401  0.82584390  0.12467069  1
  Li  Li165  1  0.69246401  0.67415610  0.87532931  1
  Li  Li166  1  0.80753599  0.32584390  0.37532931  1
  Li  Li167  1  0.30753599  0.17415610  0.62467069  1
  Li  Li168  1  0.87467069  0.42415610  0.55753599  1
  Li  Li169  1  0.62532931  0.57584390  0.05753599  1
  Li  Li170  1  0.12532931  0.92415610  0.94246401  1
  Li  Li171  1  0.37467069  0.07584390  0.44246401  1
  Li  Li172  1  0.55753599  0.87467069  0.42415610  1
  Li  Li173  1  0.05753599  0.62532931  0.57584390  1
  Li  Li174  1  0.94246401  0.12532931  0.92415610  1
  Li  Li175  1  0.44246401  0.37467069  0.07584390  1
  Li  Li176  1  0.42415610  0.55753599  0.87467069  1
  Li  Li177  1  0.57584390  0.05753599  0.62532931  1
  Li  Li178  1  0.92415610  0.94246401  0.12532931  1
  Li  Li179  1  0.07584390  0.44246401  0.37467069  1
  Li  Li180  1  0.67415610  0.62467069  0.19246401  1
  Li  Li181  1  0.82584390  0.37532931  0.69246401  1
  Li  Li182  1  0.17415610  0.87532931  0.80753599  1
  Li  Li183  1  0.32584390  0.12467069  0.30753599  1
  Li  Li184  1  0.12467069  0.30753599  0.32584390  1
  Li  Li185  1  0.87532931  0.80753599  0.17415610  1
  Li  Li186  1  0.37532931  0.69246401  0.82584390  1
  Li  Li187  1  0.62467069  0.19246401  0.67415610  1
  Li  Li188  1  0.80753599  0.17415610  0.87532931  1
  Li  Li189  1  0.30753599  0.32584390  0.12467069  1
  Li  Li190  1  0.19246401  0.67415610  0.62467069  1
  Li  Li191  1  0.69246401  0.82584390  0.37532931  1
  S  S192  1  0.44500545  0.44500545  0.44500545  1
  S  S193  1  0.05499455  0.55499455  0.94500545  1
  S  S194  1  0.55499455  0.94500545  0.05499455  1
  S  S195  1  0.94500545  0.05499455  0.55499455  1
  S  S196  1  0.19500545  0.69500545  0.80499455  1
  S  S197  1  0.30499455  0.30499455  0.30499455  1
  S  S198  1  0.69500545  0.80499455  0.19500545  1
  S  S199  1  0.80499455  0.19500545  0.69500545  1
  S  S200  1  0.55499455  0.55499455  0.55499455  1
  S  S201  1  0.94500545  0.44500545  0.05499455  1
  S  S202  1  0.44500545  0.05499455  0.94500545  1
  S  S203  1  0.05499455  0.94500545  0.44500545  1
  S  S204  1  0.80499455  0.30499455  0.19500545  1
  S  S205  1  0.69500545  0.69500545  0.69500545  1
  S  S206  1  0.30499455  0.19500545  0.80499455  1
  S  S207  1  0.19500545  0.80499455  0.30499455  1
  S  S208  1  0.94500545  0.94500545  0.94500545  1
  S  S209  1  0.55499455  0.05499455  0.44500545  1
  S  S210  1  0.05499455  0.44500545  0.55499455  1
  S  S211  1  0.44500545  0.55499455  0.05499455  1
  S  S212  1  0.69500545  0.19500545  0.30499455  1
  S  S213  1  0.80499455  0.80499455  0.80499455  1
  S  S214  1  0.19500545  0.30499455  0.69500545  1
  S  S215  1  0.30499455  0.69500545  0.19500545  1
  S  S216  1  0.05499455  0.05499455  0.05499455  1
  S  S217  1  0.44500545  0.94500545  0.55499455  1
  S  S218  1  0.94500545  0.55499455  0.44500545  1
  S  S219  1  0.55499455  0.44500545  0.94500545  1
  S  S220  1  0.30499455  0.80499455  0.69500545  1
  S  S221  1  0.19500545  0.19500545  0.19500545  1
  S  S222  1  0.80499455  0.69500545  0.30499455  1
  S  S223  1  0.69500545  0.30499455  0.80499455  1
  S  S224  1  0.12500000  0.57303906  0.67696094  1
  S  S225  1  0.37500000  0.42696094  0.17696094  1
  S  S226  1  0.87500000  0.07303906  0.82303906  1
  S  S227  1  0.62500000  0.92696094  0.32303906  1
  S  S228  1  0.67696094  0.12500000  0.57303906  1
  S  S229  1  0.17696094  0.37500000  0.42696094  1
  S  S230  1  0.82303906  0.87500000  0.07303906  1
  S  S231  1  0.32303906  0.62500000  0.92696094  1
  S  S232  1  0.57303906  0.67696094  0.12500000  1
  S  S233  1  0.42696094  0.17696094  0.37500000  1
  S  S234  1  0.07303906  0.82303906  0.87500000  1
  S  S235  1  0.92696094  0.32303906  0.62500000  1
  S  S236  1  0.87500000  0.42696094  0.32303906  1
  S  S237  1  0.62500000  0.57303906  0.82303906  1
  S  S238  1  0.12500000  0.92696094  0.17696094  1
  S  S239  1  0.37500000  0.07303906  0.67696094  1
  S  S240  1  0.32303906  0.87500000  0.42696094  1
  S  S241  1  0.82303906  0.62500000  0.57303906  1
  S  S242  1  0.17696094  0.12500000  0.92696094  1
  S  S243  1  0.67696094  0.37500000  0.07303906  1
  S  S244  1  0.42696094  0.32303906  0.87500000  1
  S  S245  1  0.57303906  0.82303906  0.62500000  1
  S  S246  1  0.92696094  0.17696094  0.12500000  1
  S  S247  1  0.07303906  0.67696094  0.37500000  1
  S  S248  1  0.62500000  0.07303906  0.17696094  1
  S  S249  1  0.87500000  0.92696094  0.67696094  1
  S  S250  1  0.37500000  0.57303906  0.32303906  1
  S  S251  1  0.12500000  0.42696094  0.82303906  1
  S  S252  1  0.17696094  0.62500000  0.07303906  1
  S  S253  1  0.67696094  0.87500000  0.92696094  1
  S  S254  1  0.32303906  0.37500000  0.57303906  1
  S  S255  1  0.82303906  0.12500000  0.42696094  1
  S  S256  1  0.07303906  0.17696094  0.62500000  1
  S  S257  1  0.92696094  0.67696094  0.87500000  1
  S  S258  1  0.57303906  0.32303906  0.37500000  1
  S  S259  1  0.42696094  0.82303906  0.12500000  1
  S  S260  1  0.37500000  0.92696094  0.82303906  1
  S  S261  1  0.12500000  0.07303906  0.32303906  1
  S  S262  1  0.62500000  0.42696094  0.67696094  1
  S  S263  1  0.87500000  0.57303906  0.17696094  1
  S  S264  1  0.82303906  0.37500000  0.92696094  1
  S  S265  1  0.32303906  0.12500000  0.07303906  1
  S  S266  1  0.67696094  0.62500000  0.42696094  1
  S  S267  1  0.17696094  0.87500000  0.57303906  1
  S  S268  1  0.92696094  0.82303906  0.37500000  1
  S  S269  1  0.07303906  0.32303906  0.12500000  1
  S  S270  1  0.42696094  0.67696094  0.62500000  1
  S  S271  1  0.57303906  0.17696094  0.87500000  1
  S  S272  1  0.00000000  0.00000000  0.00000000  1
  S  S273  1  0.50000000  0.00000000  0.50000000  1
  S  S274  1  0.00000000  0.50000000  0.50000000  1
  S  S275  1  0.50000000  0.50000000  0.00000000  1
  S  S276  1  0.75000000  0.25000000  0.25000000  1
  S  S277  1  0.75000000  0.75000000  0.75000000  1
  S  S278  1  0.25000000  0.25000000  0.75000000  1
  S  S279  1  0.25000000  0.75000000  0.25000000  1
  S  S280  1  0.50000000  0.50000000  0.50000000  1
  S  S281  1  0.00000000  0.50000000  0.00000000  1
  S  S282  1  0.50000000  0.00000000  0.00000000  1
  S  S283  1  0.00000000  0.00000000  0.50000000  1
  S  S284  1  0.25000000  0.75000000  0.75000000  1
  S  S285  1  0.25000000  0.25000000  0.25000000  1
  S  S286  1  0.75000000  0.75000000  0.25000000  1
  S  S287  1  0.75000000  0.25000000  0.75000000  1
