# generated using pymatgen
data_Li6Mg2Sn(Te2I3)2
_symmetry_space_group_name_H-M   'P 1'
_cell_length_a   13.72241250
_cell_length_b   13.72241250
_cell_length_c   34.62266606
_cell_angle_alpha   90.00000000
_cell_angle_beta   90.00000000
_cell_angle_gamma   120.00000000
_symmetry_Int_Tables_number   1
_chemical_formula_structural   Li6Mg2Sn(Te2I3)2
_chemical_formula_sum   'Li72 Mg24 Sn12 Te48 I72'
_cell_volume   5646.14567170
_cell_formula_units_Z   12
loop_
 _symmetry_equiv_pos_site_id
 _symmetry_equiv_pos_as_xyz
  1  'x, y, z'
loop_
 _atom_site_type_symbol
 _atom_site_label
 _atom_site_symmetry_multiplicity
 _atom_site_fract_x
 _atom_site_fract_y
 _atom_site_fract_z
 _atom_site_occupancy
  I  I0  1  0.27605105  0.03670368  0.88016475  1
  I  I1  1  0.96329632  0.23934738  0.88016475  1
  I  I2  1  0.76065262  0.72394895  0.88016475  1
  I  I3  1  0.72394895  0.96329632  0.38016475  1
  I  I4  1  0.03670368  0.76065262  0.38016475  1
  I  I5  1  0.23934738  0.27605105  0.38016475  1
  I  I6  1  0.03670368  0.27605105  0.11983525  1
  I  I7  1  0.23934738  0.96329632  0.11983525  1
  I  I8  1  0.72394895  0.76065262  0.11983525  1
  I  I9  1  0.96329632  0.72394895  0.61983525  1
  I  I10  1  0.76065262  0.03670368  0.61983525  1
  I  I11  1  0.27605105  0.23934738  0.61983525  1
  I  I12  1  0.72394895  0.96329632  0.11983525  1
  I  I13  1  0.03670368  0.76065262  0.11983525  1
  I  I14  1  0.23934738  0.27605105  0.11983525  1
  I  I15  1  0.27605105  0.03670368  0.61983525  1
  I  I16  1  0.96329632  0.23934738  0.61983525  1
  I  I17  1  0.76065262  0.72394895  0.61983525  1
  I  I18  1  0.96329632  0.72394895  0.88016475  1
  I  I19  1  0.76065262  0.03670368  0.88016475  1
  I  I20  1  0.27605105  0.23934738  0.88016475  1
  I  I21  1  0.03670368  0.27605105  0.38016475  1
  I  I22  1  0.23934738  0.96329632  0.38016475  1
  I  I23  1  0.72394895  0.76065262  0.38016475  1
  I  I24  1  0.26334258  0.52668516  0.37440104  1
  I  I25  1  0.47331484  0.73665742  0.37440104  1
  I  I26  1  0.26334258  0.73665742  0.37440104  1
  I  I27  1  0.73665742  0.47331484  0.87440104  1
  I  I28  1  0.52668516  0.26334258  0.87440104  1
  I  I29  1  0.73665742  0.26334258  0.87440104  1
  I  I30  1  0.52668516  0.26334258  0.62559896  1
  I  I31  1  0.73665742  0.47331484  0.62559896  1
  I  I32  1  0.73665742  0.26334258  0.62559896  1
  I  I33  1  0.47331484  0.73665742  0.12559896  1
  I  I34  1  0.26334258  0.52668516  0.12559896  1
  I  I35  1  0.26334258  0.73665742  0.12559896  1
  I  I36  1  0.17893309  0.97531901  0.34392619  1
  I  I37  1  0.02468099  0.20361408  0.34392619  1
  I  I38  1  0.79638592  0.82106691  0.34392619  1
  I  I39  1  0.82106691  0.02468099  0.84392619  1
  I  I40  1  0.97531901  0.79638592  0.84392619  1
  I  I41  1  0.20361408  0.17893309  0.84392619  1
  I  I42  1  0.97531901  0.17893309  0.65607381  1
  I  I43  1  0.20361408  0.02468099  0.65607381  1
  I  I44  1  0.82106691  0.79638592  0.65607381  1
  I  I45  1  0.02468099  0.82106691  0.15607381  1
  I  I46  1  0.79638592  0.97531901  0.15607381  1
  I  I47  1  0.17893309  0.20361408  0.15607381  1
  I  I48  1  0.82106691  0.02468099  0.65607381  1
  I  I49  1  0.97531901  0.79638592  0.65607381  1
  I  I50  1  0.20361408  0.17893309  0.65607381  1
  I  I51  1  0.17893309  0.97531901  0.15607381  1
  I  I52  1  0.02468099  0.20361408  0.15607381  1
  I  I53  1  0.79638592  0.82106691  0.15607381  1
  I  I54  1  0.02468099  0.82106691  0.34392619  1
  I  I55  1  0.79638592  0.97531901  0.34392619  1
  I  I56  1  0.17893309  0.20361408  0.34392619  1
  I  I57  1  0.97531901  0.17893309  0.84392619  1
  I  I58  1  0.20361408  0.02468099  0.84392619  1
  I  I59  1  0.82106691  0.79638592  0.84392619  1
  I  I60  1  0.05780329  0.43541905  0.25000000  1
  I  I61  1  0.56458095  0.62238424  0.25000000  1
  I  I62  1  0.37761576  0.94219671  0.25000000  1
  I  I63  1  0.94219671  0.56458095  0.75000000  1
  I  I64  1  0.43541905  0.37761576  0.75000000  1
  I  I65  1  0.62238424  0.05780329  0.75000000  1
  I  I66  1  0.43541905  0.05780329  0.75000000  1
  I  I67  1  0.62238424  0.56458095  0.75000000  1
  I  I68  1  0.94219671  0.37761576  0.75000000  1
  I  I69  1  0.56458095  0.94219671  0.25000000  1
  I  I70  1  0.37761576  0.43541905  0.25000000  1
  I  I71  1  0.05780329  0.62238424  0.25000000  1
  Li  Li72  1  0.42495116  0.06519347  0.25000000  1
  Li  Li73  1  0.93480653  0.35975769  0.25000000  1
  Li  Li74  1  0.64024231  0.57504884  0.25000000  1
  Li  Li75  1  0.57504884  0.93480653  0.75000000  1
  Li  Li76  1  0.06519347  0.64024231  0.75000000  1
  Li  Li77  1  0.35975769  0.42495116  0.75000000  1
  Li  Li78  1  0.06519347  0.42495116  0.75000000  1
  Li  Li79  1  0.35975769  0.93480653  0.75000000  1
  Li  Li80  1  0.57504884  0.64024231  0.75000000  1
  Li  Li81  1  0.93480653  0.57504884  0.25000000  1
  Li  Li82  1  0.64024231  0.06519347  0.25000000  1
  Li  Li83  1  0.42495116  0.35975769  0.25000000  1
  Li  Li84  1  0.58906300  0.00322617  0.69107246  1
  Li  Li85  1  0.99677383  0.58583683  0.69107246  1
  Li  Li86  1  0.41416317  0.41093700  0.69107246  1
  Li  Li87  1  0.41093700  0.99677383  0.19107246  1
  Li  Li88  1  0.00322617  0.41416317  0.19107246  1
  Li  Li89  1  0.58583683  0.58906300  0.19107246  1
  Li  Li90  1  0.00322617  0.58906300  0.30892754  1
  Li  Li91  1  0.58583683  0.99677383  0.30892754  1
  Li  Li92  1  0.41093700  0.41416317  0.30892754  1
  Li  Li93  1  0.99677383  0.41093700  0.80892754  1
  Li  Li94  1  0.41416317  0.00322617  0.80892754  1
  Li  Li95  1  0.58906300  0.58583683  0.80892754  1
  Li  Li96  1  0.41093700  0.99677383  0.30892754  1
  Li  Li97  1  0.00322617  0.41416317  0.30892754  1
  Li  Li98  1  0.58583683  0.58906300  0.30892754  1
  Li  Li99  1  0.58906300  0.00322617  0.80892754  1
  Li  Li100  1  0.99677383  0.58583683  0.80892754  1
  Li  Li101  1  0.41416317  0.41093700  0.80892754  1
  Li  Li102  1  0.99677383  0.41093700  0.69107246  1
  Li  Li103  1  0.41416317  0.00322617  0.69107246  1
  Li  Li104  1  0.58906300  0.58583683  0.69107246  1
  Li  Li105  1  0.00322617  0.58906300  0.19107246  1
  Li  Li106  1  0.58583683  0.99677383  0.19107246  1
  Li  Li107  1  0.41093700  0.41416317  0.19107246  1
  Li  Li108  1  0.04892149  0.09784297  0.09709215  1
  Li  Li109  1  0.90215703  0.95107851  0.09709215  1
  Li  Li110  1  0.04892149  0.95107851  0.09709215  1
  Li  Li111  1  0.95107851  0.90215703  0.59709215  1
  Li  Li112  1  0.09784297  0.04892149  0.59709215  1
  Li  Li113  1  0.95107851  0.04892149  0.59709215  1
  Li  Li114  1  0.09784297  0.04892149  0.90290785  1
  Li  Li115  1  0.95107851  0.90215703  0.90290785  1
  Li  Li116  1  0.95107851  0.04892149  0.90290785  1
  Li  Li117  1  0.90215703  0.95107851  0.40290785  1
  Li  Li118  1  0.04892149  0.09784297  0.40290785  1
  Li  Li119  1  0.04892149  0.95107851  0.40290785  1
  Li  Li120  1  0.74318193  0.81077990  0.25000000  1
  Li  Li121  1  0.18922010  0.93240202  0.25000000  1
  Li  Li122  1  0.06759798  0.25681807  0.25000000  1
  Li  Li123  1  0.25681807  0.18922010  0.75000000  1
  Li  Li124  1  0.81077990  0.06759798  0.75000000  1
  Li  Li125  1  0.93240202  0.74318193  0.75000000  1
  Li  Li126  1  0.81077990  0.74318193  0.75000000  1
  Li  Li127  1  0.93240202  0.18922010  0.75000000  1
  Li  Li128  1  0.25681807  0.06759798  0.75000000  1
  Li  Li129  1  0.18922010  0.25681807  0.25000000  1
  Li  Li130  1  0.06759798  0.81077990  0.25000000  1
  Li  Li131  1  0.74318193  0.93240202  0.25000000  1
  Li  Li132  1  0.66771857  0.00000000  0.00000000  1
  Li  Li133  1  0.00000000  0.66771857  -0.00000000  1
  Li  Li134  1  0.33228143  0.33228143  0.00000000  1
  Li  Li135  1  0.33228143  0.00000000  0.50000000  1
  Li  Li136  1  0.00000000  0.33228143  0.50000000  1
  Li  Li137  1  0.66771857  0.66771857  0.50000000  1
  Li  Li138  1  0.33228143  0.00000000  0.00000000  1
  Li  Li139  1  0.00000000  0.33228143  0.00000000  1
  Li  Li140  1  0.66771857  0.66771857  -0.00000000  1
  Li  Li141  1  0.66771857  0.00000000  0.50000000  1
  Li  Li142  1  0.00000000  0.66771857  0.50000000  1
  Li  Li143  1  0.33228143  0.33228143  0.50000000  1
  Mg  Mg144  1  0.22450586  0.44901172  0.53840459  1
  Mg  Mg145  1  0.55098828  0.77549414  0.53840459  1
  Mg  Mg146  1  0.22450586  0.77549414  0.53840459  1
  Mg  Mg147  1  0.77549414  0.55098828  0.03840459  1
  Mg  Mg148  1  0.44901172  0.22450586  0.03840459  1
  Mg  Mg149  1  0.77549414  0.22450586  0.03840459  1
  Mg  Mg150  1  0.44901172  0.22450586  0.46159541  1
  Mg  Mg151  1  0.77549414  0.55098828  0.46159541  1
  Mg  Mg152  1  0.77549414  0.22450586  0.46159541  1
  Mg  Mg153  1  0.55098828  0.77549414  0.96159541  1
  Mg  Mg154  1  0.22450586  0.44901172  0.96159541  1
  Mg  Mg155  1  0.22450586  0.77549414  0.96159541  1
  Mg  Mg156  1  0.81092013  0.00000000  0.00000000  1
  Mg  Mg157  1  0.00000000  0.81092013  0.00000000  1
  Mg  Mg158  1  0.18907987  0.18907987  0.00000000  1
  Mg  Mg159  1  0.18907987  0.00000000  0.50000000  1
  Mg  Mg160  1  0.00000000  0.18907987  0.50000000  1
  Mg  Mg161  1  0.81092013  0.81092013  0.50000000  1
  Mg  Mg162  1  0.18907987  0.00000000  0.00000000  1
  Mg  Mg163  1  0.00000000  0.18907987  -0.00000000  1
  Mg  Mg164  1  0.81092013  0.81092013  0.00000000  1
  Mg  Mg165  1  0.81092013  0.00000000  0.50000000  1
  Mg  Mg166  1  0.00000000  0.81092013  0.50000000  1
  Mg  Mg167  1  0.18907987  0.18907987  0.50000000  1
  Sn  Sn168  1  0.37102945  0.74205890  0.72456770  1
  Sn  Sn169  1  0.25794110  0.62897055  0.72456770  1
  Sn  Sn170  1  0.37102945  0.62897055  0.72456770  1
  Sn  Sn171  1  0.62897055  0.25794110  0.22456770  1
  Sn  Sn172  1  0.74205890  0.37102945  0.22456770  1
  Sn  Sn173  1  0.62897055  0.37102945  0.22456770  1
  Sn  Sn174  1  0.74205890  0.37102945  0.27543230  1
  Sn  Sn175  1  0.62897055  0.25794110  0.27543230  1
  Sn  Sn176  1  0.62897055  0.37102945  0.27543230  1
  Sn  Sn177  1  0.25794110  0.62897055  0.77543230  1
  Sn  Sn178  1  0.37102945  0.74205890  0.77543230  1
  Sn  Sn179  1  0.37102945  0.62897055  0.77543230  1
  Te  Te180  1  0.33333333  0.66666667  0.25000000  1
  Te  Te181  1  0.66666667  0.33333333  0.75000000  1
  Te  Te182  1  0.03907944  0.64471040  0.53783786  1
  Te  Te183  1  -0.64471040  -0.60563095  0.53783786  1
  Te  Te184  1  0.60563095  -0.03907944  0.53783786  1
  Te  Te185  1  -0.03907944  -0.64471040  1.03783786  1
  Te  Te186  1  0.64471040  0.60563095  1.03783786  1
  Te  Te187  1  -0.60563095  0.03907944  1.03783786  1
  Te  Te188  1  0.64471040  0.03907944  -0.53783786  1
  Te  Te189  1  -0.60563095  -0.64471040  -0.53783786  1
  Te  Te190  1  -0.03907944  0.60563095  -0.53783786  1
  Te  Te191  1  -0.64471040  -0.03907944  -0.03783786  1
  Te  Te192  1  0.60563095  0.64471040  -0.03783786  1
  Te  Te193  1  0.03907944  -0.60563095  -0.03783786  1
  Te  Te194  1  -0.03907944  -0.64471040  -0.53783786  1
  Te  Te195  1  0.64471040  0.60563095  -0.53783786  1
  Te  Te196  1  -0.60563095  0.03907944  -0.53783786  1
  Te  Te197  1  0.03907944  0.64471040  -0.03783786  1
  Te  Te198  1  -0.64471040  -0.60563095  -0.03783786  1
  Te  Te199  1  0.60563095  -0.03907944  -0.03783786  1
  Te  Te200  1  -0.64471040  -0.03907944  0.53783786  1
  Te  Te201  1  0.60563095  0.64471040  0.53783786  1
  Te  Te202  1  0.03907944  -0.60563095  0.53783786  1
  Te  Te203  1  0.64471040  0.03907944  1.03783786  1
  Te  Te204  1  -0.60563095  -0.64471040  1.03783786  1
  Te  Te205  1  -0.03907944  0.60563095  1.03783786  1
  Te  Te206  1  0.10385986  0.20771971  0.38998570  1
  Te  Te207  1  0.79228029  0.89614014  0.38998570  1
  Te  Te208  1  0.10385986  0.89614014  0.38998570  1
  Te  Te209  1  0.89614014  0.79228029  0.88998570  1
  Te  Te210  1  0.20771971  0.10385986  0.88998570  1
  Te  Te211  1  0.89614014  0.10385986  0.88998570  1
  Te  Te212  1  0.20771971  0.10385986  0.61001430  1
  Te  Te213  1  0.89614014  0.79228029  0.61001430  1
  Te  Te214  1  0.89614014  0.10385986  0.61001430  1
  Te  Te215  1  0.79228029  0.89614014  0.11001430  1
  Te  Te216  1  0.10385986  0.20771971  0.11001430  1
  Te  Te217  1  0.10385986  0.89614014  0.11001430  1
  Te  Te218  1  0.50000000  0.00000000  0.00000000  1
  Te  Te219  1  0.00000000  0.50000000  0.00000000  1
  Te  Te220  1  0.50000000  0.50000000  0.00000000  1
  Te  Te221  1  0.50000000  0.00000000  0.50000000  1
  Te  Te222  1  0.00000000  0.50000000  0.50000000  1
  Te  Te223  1  0.50000000  0.50000000  0.50000000  1
  Te  Te224  1  0.00000000  0.00000000  0.96715234  1
  Te  Te225  1  0.00000000  0.00000000  0.46715234  1
  Te  Te226  1  0.00000000  0.00000000  0.03284766  1
  Te  Te227  1  0.00000000  0.00000000  0.53284766  1
