# generated using pymatgen
data_RbLi4LaY2NiO
_symmetry_space_group_name_H-M   'P 1'
_cell_length_a   12.67515742
_cell_length_b   14.33266958
_cell_length_c   13.78850641
_cell_angle_alpha   90.00000000
_cell_angle_beta   90.00000000
_cell_angle_gamma   90.00000000
_symmetry_Int_Tables_number   1
_chemical_formula_structural   RbLi4LaY2NiO
_chemical_formula_sum   'Rb1 Li4 La1 Y2 Ni1 O1'
_cell_volume   2504.94201033
_cell_formula_units_Z   1
loop_
 _symmetry_equiv_pos_site_id
 _symmetry_equiv_pos_as_xyz
  1  'x, y, z'
loop_
 _atom_site_type_symbol
 _atom_site_label
 _atom_site_symmetry_multiplicity
 _atom_site_fract_x
 _atom_site_fract_y
 _atom_site_fract_z
 _atom_site_occupancy
  Li  Li0  1  0.12500000  0.00000000  0.25000000  1
  Li  Li1  1  0.00000000  0.00000000  0.00000000  1
  Li  Li2  1  0.37500000  0.00000000  0.25000000  1
  Li  Li3  1  0.25000000  0.25000000  0.25000000  1
  Ni  Ni4  1  0.00000000  0.25000000  0.12500000  1
  La  La5  1  0.97099367  0.01326832  0.48653472  1
  Y  Y6  1  0.40505767  0.87097464  0.31303800  1
  Y  Y7  1  0.32060812  0.01008818  0.95150823  1
  Rb  Rb8  1  0.15167919  0.02291847  0.59544262  1
  O  O9  1  0.21808262  0.75796181  0.39444484  1
