# generated using pymatgen
data_Sb2Te3
_symmetry_space_group_name_H-M   'P 1'
_cell_length_a   15.46267204
_cell_length_b   15.46267204
_cell_length_c   15.46267204
_cell_angle_alpha   90.00000000
_cell_angle_beta   90.00000000
_cell_angle_gamma   90.00000000
_symmetry_Int_Tables_number   1
_chemical_formula_structural   Sb2Te3
_chemical_formula_sum   'Sb64 Te96'
_cell_volume   3697.03561637
_cell_formula_units_Z   32
loop_
 _symmetry_equiv_pos_site_id
 _symmetry_equiv_pos_as_xyz
  1  'x, y, z'
loop_
 _atom_site_type_symbol
 _atom_site_label
 _atom_site_symmetry_multiplicity
 _atom_site_fract_x
 _atom_site_fract_y
 _atom_site_fract_z
 _atom_site_occupancy
  Sb  Sb0  1  0.37500000  0.00000000  0.25000000  1
  Sb  Sb1  1  0.12500000  0.00000000  0.75000000  1
  Sb  Sb2  1  0.25000000  0.37500000  0.00000000  1
  Sb  Sb3  1  0.75000000  0.12500000  0.00000000  1
  Sb  Sb4  1  0.00000000  0.25000000  0.37500000  1
  Sb  Sb5  1  0.00000000  0.75000000  0.12500000  1
  Sb  Sb6  1  0.75000000  0.62500000  0.00000000  1
  Sb  Sb7  1  0.75000000  0.37500000  0.50000000  1
  Sb  Sb8  1  0.12500000  0.50000000  0.25000000  1
  Sb  Sb9  1  0.87500000  0.00000000  0.25000000  1
  Sb  Sb10  1  0.00000000  0.25000000  0.87500000  1
  Sb  Sb11  1  0.50000000  0.25000000  0.12500000  1
  Sb  Sb12  1  0.87500000  0.50000000  0.75000000  1
  Sb  Sb13  1  0.62500000  0.50000000  0.25000000  1
  Sb  Sb14  1  0.75000000  0.87500000  0.50000000  1
  Sb  Sb15  1  0.25000000  0.62500000  0.50000000  1
  Sb  Sb16  1  0.50000000  0.75000000  0.87500000  1
  Sb  Sb17  1  0.50000000  0.25000000  0.62500000  1
  Sb  Sb18  1  0.25000000  0.12500000  0.50000000  1
  Sb  Sb19  1  0.25000000  0.87500000  0.00000000  1
  Sb  Sb20  1  0.62500000  0.00000000  0.75000000  1
  Sb  Sb21  1  0.37500000  0.50000000  0.75000000  1
  Sb  Sb22  1  0.50000000  0.75000000  0.37500000  1
  Sb  Sb23  1  0.00000000  0.75000000  0.62500000  1
  Sb  Sb24  1  0.00000000  0.00000000  0.00000000  1
  Sb  Sb25  1  0.50000000  0.00000000  0.50000000  1
  Sb  Sb26  1  0.00000000  0.50000000  0.50000000  1
  Sb  Sb27  1  0.50000000  0.50000000  0.00000000  1
  Sb  Sb28  1  0.75000000  0.25000000  0.25000000  1
  Sb  Sb29  1  0.75000000  0.75000000  0.75000000  1
  Sb  Sb30  1  0.25000000  0.25000000  0.75000000  1
  Sb  Sb31  1  0.25000000  0.75000000  0.25000000  1
  Sb  Sb32  1  0.50000000  0.50000000  0.50000000  1
  Sb  Sb33  1  0.00000000  0.50000000  0.00000000  1
  Sb  Sb34  1  0.50000000  0.00000000  0.00000000  1
  Sb  Sb35  1  0.00000000  0.00000000  0.50000000  1
  Sb  Sb36  1  0.25000000  0.75000000  0.75000000  1
  Sb  Sb37  1  0.25000000  0.25000000  0.25000000  1
  Sb  Sb38  1  0.75000000  0.75000000  0.25000000  1
  Sb  Sb39  1  0.75000000  0.25000000  0.75000000  1
  Sb  Sb40  1  0.12500000  0.00000000  0.25000000  1
  Sb  Sb41  1  0.37500000  0.00000000  0.75000000  1
  Sb  Sb42  1  0.25000000  0.12500000  0.00000000  1
  Sb  Sb43  1  0.75000000  0.37500000  0.00000000  1
  Sb  Sb44  1  0.00000000  0.25000000  0.12500000  1
  Sb  Sb45  1  0.00000000  0.75000000  0.37500000  1
  Sb  Sb46  1  0.87500000  0.00000000  0.75000000  1
  Sb  Sb47  1  0.62500000  0.00000000  0.25000000  1
  Sb  Sb48  1  0.75000000  0.87500000  -0.00000000  1
  Sb  Sb49  1  0.25000000  0.62500000  0.00000000  1
  Sb  Sb50  1  0.00000000  0.75000000  0.87500000  1
  Sb  Sb51  1  0.00000000  0.25000000  0.62500000  1
  Sb  Sb52  1  0.62500000  0.50000000  0.75000000  1
  Sb  Sb53  1  0.87500000  0.50000000  0.25000000  1
  Sb  Sb54  1  0.75000000  0.62500000  0.50000000  1
  Sb  Sb55  1  0.25000000  0.87500000  0.50000000  1
  Sb  Sb56  1  0.50000000  0.75000000  0.62500000  1
  Sb  Sb57  1  0.50000000  0.25000000  0.87500000  1
  Sb  Sb58  1  0.37500000  0.50000000  0.25000000  1
  Sb  Sb59  1  0.12500000  0.50000000  0.75000000  1
  Sb  Sb60  1  0.25000000  0.37500000  0.50000000  1
  Sb  Sb61  1  0.75000000  0.12500000  0.50000000  1
  Sb  Sb62  1  0.50000000  0.25000000  0.37500000  1
  Sb  Sb63  1  0.50000000  0.75000000  0.12500000  1
  Te  Te64  1  0.12500000  0.12500000  0.12500000  1
  Te  Te65  1  0.37500000  0.87500000  0.62500000  1
  Te  Te66  1  0.87500000  0.62500000  0.37500000  1
  Te  Te67  1  0.62500000  0.37500000  0.87500000  1
  Te  Te68  1  0.87500000  0.87500000  0.87500000  1
  Te  Te69  1  0.62500000  0.12500000  0.37500000  1
  Te  Te70  1  0.12500000  0.37500000  0.62500000  1
  Te  Te71  1  0.37500000  0.62500000  0.12500000  1
  Te  Te72  1  0.62500000  0.62500000  0.62500000  1
  Te  Te73  1  0.87500000  0.37500000  0.12500000  1
  Te  Te74  1  0.37500000  0.12500000  0.87500000  1
  Te  Te75  1  0.12500000  0.87500000  0.37500000  1
  Te  Te76  1  0.37500000  0.37500000  0.37500000  1
  Te  Te77  1  0.12500000  0.62500000  0.87500000  1
  Te  Te78  1  0.62500000  0.87500000  0.12500000  1
  Te  Te79  1  0.87500000  0.12500000  0.62500000  1
  Te  Te80  1  0.12500000  0.26404283  -0.01404283  1
  Te  Te81  1  0.37500000  -0.26404283  0.48595717  1
  Te  Te82  1  0.87500000  0.76404283  0.51404283  1
  Te  Te83  1  0.62500000  0.23595717  1.01404283  1
  Te  Te84  1  -0.01404283  0.12500000  0.26404283  1
  Te  Te85  1  0.48595717  0.37500000  -0.26404283  1
  Te  Te86  1  0.51404283  0.87500000  0.76404283  1
  Te  Te87  1  1.01404283  0.62500000  0.23595717  1
  Te  Te88  1  0.26404283  -0.01404283  0.12500000  1
  Te  Te89  1  -0.26404283  0.48595717  0.37500000  1
  Te  Te90  1  0.76404283  0.51404283  0.87500000  1
  Te  Te91  1  0.23595717  1.01404283  0.62500000  1
  Te  Te92  1  0.87500000  -0.26404283  1.01404283  1
  Te  Te93  1  0.62500000  0.26404283  0.51404283  1
  Te  Te94  1  0.12500000  0.23595717  0.48595717  1
  Te  Te95  1  0.37500000  0.76404283  -0.01404283  1
  Te  Te96  1  1.01404283  0.87500000  -0.26404283  1
  Te  Te97  1  0.51404283  0.62500000  0.26404283  1
  Te  Te98  1  0.48595717  0.12500000  0.23595717  1
  Te  Te99  1  -0.01404283  0.37500000  0.76404283  1
  Te  Te100  1  -0.26404283  1.01404283  0.87500000  1
  Te  Te101  1  0.26404283  0.51404283  0.62500000  1
  Te  Te102  1  0.23595717  0.48595717  0.12500000  1
  Te  Te103  1  0.76404283  -0.01404283  0.37500000  1
  Te  Te104  1  0.62500000  0.76404283  0.48595717  1
  Te  Te105  1  0.87500000  0.23595717  0.98595717  1
  Te  Te106  1  1.37500000  1.26404283  1.01404283  1
  Te  Te107  1  1.12500000  0.73595717  1.51404283  1
  Te  Te108  1  0.48595717  0.62500000  0.76404283  1
  Te  Te109  1  0.98595717  0.87500000  0.23595717  1
  Te  Te110  1  1.01404283  1.37500000  1.26404283  1
  Te  Te111  1  1.51404283  1.12500000  0.73595717  1
  Te  Te112  1  0.76404283  0.48595717  0.62500000  1
  Te  Te113  1  0.23595717  0.98595717  0.87500000  1
  Te  Te114  1  1.26404283  1.01404283  1.37500000  1
  Te  Te115  1  0.73595717  1.51404283  1.12500000  1
  Te  Te116  1  1.37500000  0.23595717  1.51404283  1
  Te  Te117  1  1.12500000  0.76404283  1.01404283  1
  Te  Te118  1  0.62500000  0.73595717  0.98595717  1
  Te  Te119  1  0.87500000  1.26404283  0.48595717  1
  Te  Te120  1  1.51404283  1.37500000  0.23595717  1
  Te  Te121  1  1.01404283  1.12500000  0.76404283  1
  Te  Te122  1  0.98595717  0.62500000  0.73595717  1
  Te  Te123  1  0.48595717  0.87500000  1.26404283  1
  Te  Te124  1  0.23595717  1.51404283  1.37500000  1
  Te  Te125  1  0.76404283  1.01404283  1.12500000  1
  Te  Te126  1  0.73595717  0.98595717  0.62500000  1
  Te  Te127  1  1.26404283  0.48595717  0.87500000  1
  Te  Te128  1  0.44177651  0.44177651  0.44177651  1
  Te  Te129  1  0.05822349  0.55822349  0.94177651  1
  Te  Te130  1  0.55822349  0.94177651  0.05822349  1
  Te  Te131  1  0.94177651  0.05822349  0.55822349  1
  Te  Te132  1  0.19177651  0.69177651  0.80822349  1
  Te  Te133  1  0.30822349  0.30822349  0.30822349  1
  Te  Te134  1  0.69177651  0.80822349  0.19177651  1
  Te  Te135  1  0.80822349  0.19177651  0.69177651  1
  Te  Te136  1  0.55822349  0.55822349  0.55822349  1
  Te  Te137  1  0.94177651  0.44177651  0.05822349  1
  Te  Te138  1  0.44177651  0.05822349  0.94177651  1
  Te  Te139  1  0.05822349  0.94177651  0.44177651  1
  Te  Te140  1  0.80822349  0.30822349  0.19177651  1
  Te  Te141  1  0.69177651  0.69177651  0.69177651  1
  Te  Te142  1  0.30822349  0.19177651  0.80822349  1
  Te  Te143  1  0.19177651  0.80822349  0.30822349  1
  Te  Te144  1  0.94177651  0.94177651  0.94177651  1
  Te  Te145  1  0.55822349  0.05822349  0.44177651  1
  Te  Te146  1  0.05822349  0.44177651  0.55822349  1
  Te  Te147  1  0.44177651  0.55822349  0.05822349  1
  Te  Te148  1  0.69177651  0.19177651  0.30822349  1
  Te  Te149  1  0.80822349  0.80822349  0.80822349  1
  Te  Te150  1  0.19177651  0.30822349  0.69177651  1
  Te  Te151  1  0.30822349  0.69177651  0.19177651  1
  Te  Te152  1  0.05822349  0.05822349  0.05822349  1
  Te  Te153  1  0.44177651  0.94177651  0.55822349  1
  Te  Te154  1  0.94177651  0.55822349  0.44177651  1
  Te  Te155  1  0.55822349  0.44177651  0.94177651  1
  Te  Te156  1  0.30822349  0.80822349  0.69177651  1
  Te  Te157  1  0.19177651  0.19177651  0.19177651  1
  Te  Te158  1  0.80822349  0.69177651  0.30822349  1
  Te  Te159  1  0.69177651  0.30822349  0.80822349  1
