# generated using pymatgen
data_Li2Se
_symmetry_space_group_name_H-M   'P 1'
_cell_length_a   9.17733282
_cell_length_b   9.17733282
_cell_length_c   25.58017333
_cell_angle_alpha   90.00000000
_cell_angle_beta   90.00000000
_cell_angle_gamma   90.00000000
_symmetry_Int_Tables_number   1
_chemical_formula_structural   Li2Se
_chemical_formula_sum   'Li96 Se48'
_cell_volume   2154.45013235
_cell_formula_units_Z   48
loop_
 _symmetry_equiv_pos_site_id
 _symmetry_equiv_pos_as_xyz
  1  'x, y, z'
loop_
 _atom_site_type_symbol
 _atom_site_label
 _atom_site_symmetry_multiplicity
 _atom_site_fract_x
 _atom_site_fract_y
 _atom_site_fract_z
 _atom_site_occupancy
  Li  Li0  1  0.89985543  0.61469693  0.56256807  1
  Li  Li1  1  0.60014457  0.38530307  0.06256807  1
  Li  Li2  1  0.63530307  0.64985543  0.81256807  1
  Li  Li3  1  0.86469693  0.35014457  0.31256807  1
  Li  Li4  1  0.60014457  0.61469693  0.93743193  1
  Li  Li5  1  0.89985543  0.38530307  0.43743193  1
  Li  Li6  1  0.86469693  0.64985543  0.68743193  1
  Li  Li7  1  0.63530307  0.35014457  0.18743193  1
  Li  Li8  1  0.10014457  0.38530307  0.43743193  1
  Li  Li9  1  0.39985543  0.61469693  0.93743193  1
  Li  Li10  1  0.36469693  0.35014457  0.18743193  1
  Li  Li11  1  0.13530307  0.64985543  0.68743193  1
  Li  Li12  1  0.39985543  0.38530307  0.06256807  1
  Li  Li13  1  0.10014457  0.61469693  0.56256807  1
  Li  Li14  1  0.13530307  0.35014457  0.31256807  1
  Li  Li15  1  0.36469693  0.64985543  0.81256807  1
  Li  Li16  1  0.39985543  0.11469693  0.06256807  1
  Li  Li17  1  0.10014457  0.88530307  0.56256807  1
  Li  Li18  1  0.13530307  0.14985543  0.31256807  1
  Li  Li19  1  0.36469693  0.85014457  0.81256807  1
  Li  Li20  1  0.10014457  0.11469693  0.43743193  1
  Li  Li21  1  0.39985543  0.88530307  0.93743193  1
  Li  Li22  1  0.36469693  0.14985543  0.18743193  1
  Li  Li23  1  0.13530307  0.85014457  0.68743193  1
  Li  Li24  1  0.60014457  0.88530307  0.93743193  1
  Li  Li25  1  0.89985543  0.11469693  0.43743193  1
  Li  Li26  1  0.86469693  0.85014457  0.68743193  1
  Li  Li27  1  0.63530307  0.14985543  0.18743193  1
  Li  Li28  1  0.89985543  0.88530307  0.56256807  1
  Li  Li29  1  0.60014457  0.11469693  0.06256807  1
  Li  Li30  1  0.63530307  0.85014457  0.81256807  1
  Li  Li31  1  0.86469693  0.14985543  0.31256807  1
  Li  Li32  1  0.00000000  0.00000000  0.50000000  1
  Li  Li33  1  0.50000000  0.00000000  0.00000000  1
  Li  Li34  1  0.25000000  0.75000000  0.75000000  1
  Li  Li35  1  0.25000000  0.25000000  0.25000000  1
  Li  Li36  1  0.50000000  0.50000000  0.00000000  1
  Li  Li37  1  0.00000000  0.50000000  0.50000000  1
  Li  Li38  1  0.75000000  0.25000000  0.25000000  1
  Li  Li39  1  0.75000000  0.75000000  0.75000000  1
  Li  Li40  1  0.00000000  0.75000000  0.12500000  1
  Li  Li41  1  0.50000000  0.75000000  0.37500000  1
  Li  Li42  1  0.50000000  0.25000000  0.62500000  1
  Li  Li43  1  0.00000000  0.25000000  0.87500000  1
  Li  Li44  1  0.09119151  0.86580380  0.99349634  1
  Li  Li45  1  0.40880849  0.13419620  0.49349634  1
  Li  Li46  1  0.38419620  0.84119151  0.24349634  1
  Li  Li47  1  0.11580380  0.15880849  0.74349634  1
  Li  Li48  1  0.40880849  0.86580380  0.50650366  1
  Li  Li49  1  0.09119151  0.13419620  0.00650366  1
  Li  Li50  1  0.11580380  0.84119151  0.25650366  1
  Li  Li51  1  0.38419620  0.15880849  0.75650366  1
  Li  Li52  1  0.90880849  0.13419620  0.00650366  1
  Li  Li53  1  0.59119151  0.86580380  0.50650366  1
  Li  Li54  1  0.61580380  0.15880849  0.75650366  1
  Li  Li55  1  0.88419620  0.84119151  0.25650366  1
  Li  Li56  1  0.59119151  0.13419620  0.49349634  1
  Li  Li57  1  0.90880849  0.86580380  0.99349634  1
  Li  Li58  1  0.88419620  0.15880849  0.74349634  1
  Li  Li59  1  0.61580380  0.84119151  0.24349634  1
  Li  Li60  1  0.59119151  0.36580380  0.49349634  1
  Li  Li61  1  0.90880849  0.63419620  0.99349634  1
  Li  Li62  1  0.88419620  0.34119151  0.74349634  1
  Li  Li63  1  0.61580380  0.65880849  0.24349634  1
  Li  Li64  1  0.90880849  0.36580380  0.00650366  1
  Li  Li65  1  0.59119151  0.63419620  0.50650366  1
  Li  Li66  1  0.61580380  0.34119151  0.75650366  1
  Li  Li67  1  0.88419620  0.65880849  0.25650366  1
  Li  Li68  1  0.40880849  0.63419620  0.50650366  1
  Li  Li69  1  0.09119151  0.36580380  0.00650366  1
  Li  Li70  1  0.11580380  0.65880849  0.25650366  1
  Li  Li71  1  0.38419620  0.34119151  0.75650366  1
  Li  Li72  1  0.09119151  0.63419620  0.99349634  1
  Li  Li73  1  0.40880849  0.36580380  0.49349634  1
  Li  Li74  1  0.38419620  0.65880849  0.24349634  1
  Li  Li75  1  0.11580380  0.34119151  0.74349634  1
  Li  Li76  1  0.71281002  0.00000000  0.00000000  1
  Li  Li77  1  0.78718998  -0.00000000  0.50000000  1
  Li  Li78  1  0.25000000  0.46281002  0.25000000  1
  Li  Li79  1  0.25000000  0.53718998  0.75000000  1
  Li  Li80  1  0.28718998  -0.00000000  -0.00000000  1
  Li  Li81  1  0.21281002  -0.00000000  0.50000000  1
  Li  Li82  1  0.75000000  0.53718998  0.75000000  1
  Li  Li83  1  0.75000000  0.46281002  0.25000000  1
  Li  Li84  1  0.21281002  0.50000000  0.50000000  1
  Li  Li85  1  0.28718998  0.50000000  0.00000000  1
  Li  Li86  1  0.75000000  0.96281002  0.75000000  1
  Li  Li87  1  0.75000000  0.03718998  0.25000000  1
  Li  Li88  1  0.78718998  0.50000000  0.50000000  1
  Li  Li89  1  0.71281002  0.50000000  -0.00000000  1
  Li  Li90  1  0.25000000  0.03718998  0.25000000  1
  Li  Li91  1  0.25000000  0.96281002  0.75000000  1
  Li  Li92  1  0.00000000  0.25000000  0.37500000  1
  Li  Li93  1  0.00000000  0.75000000  0.62500000  1
  Li  Li94  1  0.50000000  0.75000000  0.87500000  1
  Li  Li95  1  0.50000000  0.25000000  0.12500000  1
  Se  Se96  1  0.10113616  0.00000000  0.00000000  1
  Se  Se97  1  0.39886384  -0.00000000  0.50000000  1
  Se  Se98  1  0.25000000  0.85113616  0.25000000  1
  Se  Se99  1  0.25000000  0.14886384  0.75000000  1
  Se  Se100  1  0.89886384  -0.00000000  0.00000000  1
  Se  Se101  1  0.60113616  -0.00000000  0.50000000  1
  Se  Se102  1  0.75000000  0.14886384  0.75000000  1
  Se  Se103  1  0.75000000  0.85113616  0.25000000  1
  Se  Se104  1  0.60113616  0.50000000  0.50000000  1
  Se  Se105  1  0.89886384  0.50000000  0.00000000  1
  Se  Se106  1  0.75000000  0.35113616  0.75000000  1
  Se  Se107  1  0.75000000  0.64886384  0.25000000  1
  Se  Se108  1  0.39886384  0.50000000  0.50000000  1
  Se  Se109  1  0.10113616  0.50000000  0.00000000  1
  Se  Se110  1  0.25000000  0.64886384  0.25000000  1
  Se  Se111  1  0.25000000  0.35113616  0.75000000  1
  Se  Se112  1  0.69844665  0.56131885  0.46623531  1
  Se  Se113  1  -0.19844665  -0.56131885  0.96623531  1
  Se  Se114  1  -0.31131885  1.44844665  0.71623531  1
  Se  Se115  1  0.81131885  -0.44844665  1.21623531  1
  Se  Se116  1  -0.19844665  0.56131885  0.03376469  1
  Se  Se117  1  0.69844665  -0.56131885  -0.46623531  1
  Se  Se118  1  0.81131885  1.44844665  -0.21623531  1
  Se  Se119  1  -0.31131885  -0.44844665  0.28376469  1
  Se  Se120  1  -0.69844665  -0.56131885  -0.46623531  1
  Se  Se121  1  1.19844665  0.56131885  0.03376469  1
  Se  Se122  1  1.31131885  -0.44844665  0.28376469  1
  Se  Se123  1  0.18868115  1.44844665  -0.21623531  1
  Se  Se124  1  1.19844665  -0.56131885  0.96623531  1
  Se  Se125  1  -0.69844665  0.56131885  0.46623531  1
  Se  Se126  1  0.18868115  -0.44844665  1.21623531  1
  Se  Se127  1  1.31131885  1.44844665  0.71623531  1
  Se  Se128  1  1.19844665  1.06131885  0.96623531  1
  Se  Se129  1  0.30155335  -0.06131885  1.46623531  1
  Se  Se130  1  0.18868115  1.94844665  1.21623531  1
  Se  Se131  1  1.31131885  0.05155335  1.71623531  1
  Se  Se132  1  0.30155335  1.06131885  0.53376469  1
  Se  Se133  1  1.19844665  -0.06131885  0.03376469  1
  Se  Se134  1  1.31131885  1.94844665  0.28376469  1
  Se  Se135  1  0.18868115  0.05155335  0.78376469  1
  Se  Se136  1  -0.19844665  -0.06131885  0.03376469  1
  Se  Se137  1  1.69844665  1.06131885  0.53376469  1
  Se  Se138  1  1.81131885  0.05155335  0.78376469  1
  Se  Se139  1  0.68868115  1.94844665  0.28376469  1
  Se  Se140  1  1.69844665  -0.06131885  1.46623531  1
  Se  Se141  1  -0.19844665  1.06131885  0.96623531  1
  Se  Se142  1  0.68868115  0.05155335  1.71623531  1
  Se  Se143  1  1.81131885  1.94844665  1.21623531  1
