# generated using pymatgen
data_K2Li4Sn(SBr3)2
_symmetry_space_group_name_H-M   'P 1'
_cell_length_a   17.03724768
_cell_length_b   17.03724768
_cell_length_c   8.62895675
_cell_angle_alpha   90.00000000
_cell_angle_beta   90.00000000
_cell_angle_gamma   90.00000000
_symmetry_Int_Tables_number   1
_chemical_formula_structural   K2Li4Sn(SBr3)2
_chemical_formula_sum   'K16 Li32 Sn8 S16 Br48'
_cell_volume   2504.70836732
_cell_formula_units_Z   8
loop_
 _symmetry_equiv_pos_site_id
 _symmetry_equiv_pos_as_xyz
  1  'x, y, z'
loop_
 _atom_site_type_symbol
 _atom_site_label
 _atom_site_symmetry_multiplicity
 _atom_site_fract_x
 _atom_site_fract_y
 _atom_site_fract_z
 _atom_site_occupancy
  Br  Br0  1  0.97193172  0.84676738  0.70439561  1
  Br  Br1  1  0.52806828  0.15323262  0.20439561  1
  Br  Br2  1  0.40323262  0.72193172  0.95439561  1
  Br  Br3  1  0.09676738  0.27806828  0.45439561  1
  Br  Br4  1  0.52806828  0.84676738  0.29560439  1
  Br  Br5  1  0.97193172  0.15323262  0.79560439  1
  Br  Br6  1  0.09676738  0.72193172  0.04560439  1
  Br  Br7  1  0.40323262  0.27806828  0.54560439  1
  Br  Br8  1  0.02806828  0.15323262  0.29560439  1
  Br  Br9  1  0.47193172  0.84676738  0.79560439  1
  Br  Br10  1  0.59676738  0.27806828  0.04560439  1
  Br  Br11  1  0.90323262  0.72193172  0.54560439  1
  Br  Br12  1  0.47193172  0.15323262  0.70439561  1
  Br  Br13  1  0.02806828  0.84676738  0.20439561  1
  Br  Br14  1  0.90323262  0.27806828  0.95439561  1
  Br  Br15  1  0.59676738  0.72193172  0.45439561  1
  Br  Br16  1  0.47193172  0.34676738  0.20439561  1
  Br  Br17  1  0.02806828  0.65323262  0.70439561  1
  Br  Br18  1  0.90323262  0.22193172  0.45439561  1
  Br  Br19  1  0.59676738  0.77806828  0.95439561  1
  Br  Br20  1  0.02806828  0.34676738  0.79560439  1
  Br  Br21  1  0.47193172  0.65323262  0.29560439  1
  Br  Br22  1  0.59676738  0.22193172  0.54560439  1
  Br  Br23  1  0.90323262  0.77806828  0.04560439  1
  Br  Br24  1  0.52806828  0.65323262  0.79560439  1
  Br  Br25  1  0.97193172  0.34676738  0.29560439  1
  Br  Br26  1  0.09676738  0.77806828  0.54560439  1
  Br  Br27  1  0.40323262  0.22193172  0.04560439  1
  Br  Br28  1  0.97193172  0.65323262  0.20439561  1
  Br  Br29  1  0.52806828  0.34676738  0.70439561  1
  Br  Br30  1  0.40323262  0.77806828  0.45439561  1
  Br  Br31  1  0.09676738  0.22193172  0.95439561  1
  Br  Br32  1  0.06696899  0.00000000  0.25000000  1
  Br  Br33  1  0.43303101  0.00000000  0.75000000  1
  Br  Br34  1  0.25000000  0.81696899  0.50000000  1
  Br  Br35  1  0.25000000  0.18303101  -0.00000000  1
  Br  Br36  1  0.93303101  0.00000000  0.75000000  1
  Br  Br37  1  0.56696899  0.00000000  0.25000000  1
  Br  Br38  1  0.75000000  0.18303101  0.50000000  1
  Br  Br39  1  0.75000000  0.81696899  -0.00000000  1
  Br  Br40  1  0.56696899  0.50000000  0.75000000  1
  Br  Br41  1  0.93303101  0.50000000  0.25000000  1
  Br  Br42  1  0.75000000  0.31696899  -0.00000000  1
  Br  Br43  1  0.75000000  0.68303101  0.50000000  1
  Br  Br44  1  0.43303101  0.50000000  0.25000000  1
  Br  Br45  1  0.06696899  0.50000000  0.75000000  1
  Br  Br46  1  0.25000000  0.68303101  0.00000000  1
  Br  Br47  1  0.25000000  0.31696899  0.50000000  1
  K  K48  1  0.41611232  -0.00000000  0.25000000  1
  K  K49  1  0.08388768  0.00000000  0.75000000  1
  K  K50  1  0.25000000  0.16611232  0.50000000  1
  K  K51  1  0.25000000  0.83388768  0.00000000  1
  K  K52  1  0.58388768  0.00000000  0.75000000  1
  K  K53  1  0.91611232  0.00000000  0.25000000  1
  K  K54  1  0.75000000  0.83388768  0.50000000  1
  K  K55  1  0.75000000  0.16611232  -0.00000000  1
  K  K56  1  0.91611232  0.50000000  0.75000000  1
  K  K57  1  0.58388768  0.50000000  0.25000000  1
  K  K58  1  0.75000000  0.66611232  0.00000000  1
  K  K59  1  0.75000000  0.33388768  0.50000000  1
  K  K60  1  0.08388768  0.50000000  0.25000000  1
  K  K61  1  0.41611232  0.50000000  0.75000000  1
  K  K62  1  0.25000000  0.33388768  0.00000000  1
  K  K63  1  0.25000000  0.66611232  0.50000000  1
  Li  Li64  1  0.28095517  0.95232305  0.55190572  1
  Li  Li65  1  0.21904483  -0.95232305  1.05190572  1
  Li  Li66  1  -0.70232305  1.03095517  0.80190572  1
  Li  Li67  1  1.20232305  -0.03095517  1.30190572  1
  Li  Li68  1  0.21904483  0.95232305  -0.55190572  1
  Li  Li69  1  0.28095517  -0.95232305  -0.05190572  1
  Li  Li70  1  1.20232305  1.03095517  0.19809428  1
  Li  Li71  1  -0.70232305  -0.03095517  -0.30190572  1
  Li  Li72  1  -0.28095517  -0.95232305  -0.55190572  1
  Li  Li73  1  0.78095517  0.95232305  -0.05190572  1
  Li  Li74  1  1.70232305  -0.03095517  0.19809428  1
  Li  Li75  1  -0.20232305  1.03095517  -0.30190572  1
  Li  Li76  1  0.78095517  -0.95232305  0.55190572  1
  Li  Li77  1  -0.28095517  0.95232305  1.05190572  1
  Li  Li78  1  -0.20232305  -0.03095517  0.80190572  1
  Li  Li79  1  1.70232305  1.03095517  1.30190572  1
  Li  Li80  1  0.78095517  1.45232305  1.05190572  1
  Li  Li81  1  0.71904483  -0.45232305  1.55190572  1
  Li  Li82  1  -0.20232305  1.53095517  1.30190572  1
  Li  Li83  1  1.70232305  0.46904483  1.80190572  1
  Li  Li84  1  0.71904483  1.45232305  -0.05190572  1
  Li  Li85  1  0.78095517  -0.45232305  0.44809428  1
  Li  Li86  1  1.70232305  1.53095517  0.69809428  1
  Li  Li87  1  -0.20232305  0.46904483  0.19809428  1
  Li  Li88  1  0.21904483  -0.45232305  -0.05190572  1
  Li  Li89  1  1.28095517  1.45232305  0.44809428  1
  Li  Li90  1  2.20232305  0.46904483  0.69809428  1
  Li  Li91  1  0.29767695  1.53095517  0.19809428  1
  Li  Li92  1  1.28095517  -0.45232305  1.05190572  1
  Li  Li93  1  0.21904483  1.45232305  1.55190572  1
  Li  Li94  1  0.29767695  0.46904483  1.30190572  1
  Li  Li95  1  2.20232305  1.53095517  1.80190572  1
  S  S96  1  0.00000000  0.00000000  0.00000000  1
  S  S97  1  0.50000000  0.00000000  0.50000000  1
  S  S98  1  0.25000000  0.75000000  0.25000000  1
  S  S99  1  0.25000000  0.25000000  0.75000000  1
  S  S100  1  0.50000000  0.00000000  0.00000000  1
  S  S101  1  0.00000000  0.00000000  0.50000000  1
  S  S102  1  0.25000000  0.75000000  0.75000000  1
  S  S103  1  0.25000000  0.25000000  0.25000000  1
  S  S104  1  0.50000000  0.50000000  0.50000000  1
  S  S105  1  0.00000000  0.50000000  0.00000000  1
  S  S106  1  0.75000000  0.25000000  0.75000000  1
  S  S107  1  0.75000000  0.75000000  0.25000000  1
  S  S108  1  0.00000000  0.50000000  0.50000000  1
  S  S109  1  0.50000000  0.50000000  0.00000000  1
  S  S110  1  0.75000000  0.25000000  0.25000000  1
  S  S111  1  0.75000000  0.75000000  0.75000000  1
  Sn  Sn112  1  0.00000000  0.25000000  0.37500000  1
  Sn  Sn113  1  0.00000000  0.75000000  0.62500000  1
  Sn  Sn114  1  0.50000000  0.25000000  0.62500000  1
  Sn  Sn115  1  0.50000000  0.75000000  0.37500000  1
  Sn  Sn116  1  0.50000000  0.75000000  0.87500000  1
  Sn  Sn117  1  0.50000000  0.25000000  0.12500000  1
  Sn  Sn118  1  0.00000000  0.75000000  0.12500000  1
  Sn  Sn119  1  0.00000000  0.25000000  0.87500000  1
