# generated using pymatgen
data_LiCl
_symmetry_space_group_name_H-M   'P 1'
_cell_length_a   7.82003041
_cell_length_b   5.56906321
_cell_length_c   7.19883595
_cell_angle_alpha   90.00000000
_cell_angle_beta   90.00000000
_cell_angle_gamma   90.00000000
_symmetry_Int_Tables_number   1
_chemical_formula_structural   LiCl
_chemical_formula_sum   'Li8 Cl8'
_cell_volume   313.51105986
_cell_formula_units_Z   8
loop_
 _symmetry_equiv_pos_site_id
 _symmetry_equiv_pos_as_xyz
  1  'x, y, z'
loop_
 _atom_site_type_symbol
 _atom_site_label
 _atom_site_symmetry_multiplicity
 _atom_site_fract_x
 _atom_site_fract_y
 _atom_site_fract_z
 _atom_site_occupancy
  Cl  Cl0  1  0.00000000  0.00000000  0.50000000  1
  Cl  Cl1  1  0.50000000  -0.00000000  -0.00000000  1
  Cl  Cl2  1  0.00000000  0.50000000  0.50000000  1
  Cl  Cl3  1  0.50000000  0.50000000  -0.00000000  1
  Cl  Cl4  1  0.07397981  0.25000000  0.20679793  1
  Cl  Cl5  1  0.42602019  0.75000000  0.70679793  1
  Cl  Cl6  1  0.92602019  0.75000000  0.79320207  1
  Cl  Cl7  1  0.57397981  0.25000000  0.29320207  1
  Li  Li8  1  0.76536659  0.25000000  0.40653405  1
  Li  Li9  1  0.73463341  0.75000000  0.90653405  1
  Li  Li10  1  0.23463341  0.75000000  0.59346595  1
  Li  Li11  1  0.26536659  0.25000000  0.09346595  1
  Li  Li12  1  0.00000000  0.00000000  0.00000000  1
  Li  Li13  1  0.50000000  -0.00000000  0.50000000  1
  Li  Li14  1  0.00000000  0.50000000  0.00000000  1
  Li  Li15  1  0.50000000  0.50000000  0.50000000  1
