# generated using pymatgen
data_LiTiBr3O
_symmetry_space_group_name_H-M   'P 1'
_cell_length_a   7.39452382
_cell_length_b   7.39452382
_cell_length_c   24.95632969
_cell_angle_alpha   90.00000000
_cell_angle_beta   90.00000000
_cell_angle_gamma   90.00000000
_symmetry_Int_Tables_number   1
_chemical_formula_structural   LiTiBr3O
_chemical_formula_sum   'Li16 Ti16 Br48 O16'
_cell_volume   1364.58671405
_cell_formula_units_Z   16
loop_
 _symmetry_equiv_pos_site_id
 _symmetry_equiv_pos_as_xyz
  1  'x, y, z'
loop_
 _atom_site_type_symbol
 _atom_site_label
 _atom_site_symmetry_multiplicity
 _atom_site_fract_x
 _atom_site_fract_y
 _atom_site_fract_z
 _atom_site_occupancy
  Br  Br0  1  0.29258576  0.50000000  0.94500973  1
  Br  Br1  1  0.70741424  0.50000000  0.94500973  1
  Br  Br2  1  0.50000000  0.29258576  0.94500973  1
  Br  Br3  1  0.50000000  0.70741424  0.94500973  1
  Br  Br4  1  0.70741424  0.50000000  0.05499027  1
  Br  Br5  1  0.29258576  0.50000000  0.05499027  1
  Br  Br6  1  0.50000000  0.29258576  0.05499027  1
  Br  Br7  1  0.50000000  0.70741424  0.05499027  1
  Br  Br8  1  0.68634520  0.68634520  0.16418160  1
  Br  Br9  1  0.31365480  0.31365480  0.16418160  1
  Br  Br10  1  0.31365480  0.68634520  0.16418160  1
  Br  Br11  1  0.68634520  0.31365480  0.16418160  1
  Br  Br12  1  0.31365480  0.68634520  0.83581840  1
  Br  Br13  1  0.68634520  0.31365480  0.83581840  1
  Br  Br14  1  0.68634520  0.68634520  0.83581840  1
  Br  Br15  1  0.31365480  0.31365480  0.83581840  1
  Br  Br16  1  0.72272666  0.72272666  0.61726649  1
  Br  Br17  1  0.27727334  0.27727334  0.61726649  1
  Br  Br18  1  0.27727334  0.72272666  0.61726649  1
  Br  Br19  1  0.72272666  0.27727334  0.61726649  1
  Br  Br20  1  0.27727334  0.72272666  0.38273351  1
  Br  Br21  1  0.72272666  0.27727334  0.38273351  1
  Br  Br22  1  0.72272666  0.72272666  0.38273351  1
  Br  Br23  1  0.27727334  0.27727334  0.38273351  1
  Br  Br24  1  0.63397872  0.00000000  0.00000000  1
  Br  Br25  1  0.36602128  -0.00000000  -0.00000000  1
  Br  Br26  1  0.00000000  0.63397872  0.00000000  1
  Br  Br27  1  0.00000000  0.36602128  -0.00000000  1
  Br  Br28  1  0.84279028  -0.00000000  0.00000000  1
  Br  Br29  1  0.15720972  0.00000000  0.00000000  1
  Br  Br30  1  0.00000000  0.84279028  0.00000000  1
  Br  Br31  1  0.00000000  0.15720972  0.00000000  1
  Br  Br32  1  0.75923800  -0.00000000  0.54028176  1
  Br  Br33  1  0.24076200  0.00000000  0.54028176  1
  Br  Br34  1  0.00000000  0.75923800  0.54028176  1
  Br  Br35  1  0.00000000  0.24076200  0.54028176  1
  Br  Br36  1  0.24076200  0.00000000  0.45971824  1
  Br  Br37  1  0.75923800  -0.00000000  0.45971824  1
  Br  Br38  1  0.00000000  0.75923800  0.45971824  1
  Br  Br39  1  0.00000000  0.24076200  0.45971824  1
  Br  Br40  1  0.66971327  0.50000000  0.42229874  1
  Br  Br41  1  0.33028673  0.50000000  0.42229874  1
  Br  Br42  1  0.50000000  0.66971327  0.42229874  1
  Br  Br43  1  0.50000000  0.33028673  0.42229874  1
  Br  Br44  1  0.33028673  0.50000000  0.57770126  1
  Br  Br45  1  0.66971327  0.50000000  0.57770126  1
  Br  Br46  1  0.50000000  0.66971327  0.57770126  1
  Br  Br47  1  0.50000000  0.33028673  0.57770126  1
  Li  Li48  1  0.09376162  0.09376162  0.95636875  1
  Li  Li49  1  0.90623838  0.90623838  0.95636875  1
  Li  Li50  1  0.90623838  0.09376162  0.95636875  1
  Li  Li51  1  0.09376162  0.90623838  0.95636875  1
  Li  Li52  1  0.90623838  0.09376162  0.04363125  1
  Li  Li53  1  0.09376162  0.90623838  0.04363125  1
  Li  Li54  1  0.09376162  0.09376162  0.04363125  1
  Li  Li55  1  0.90623838  0.90623838  0.04363125  1
  Li  Li56  1  0.17208573  0.17208573  0.50000000  1
  Li  Li57  1  0.82791427  0.82791427  0.50000000  1
  Li  Li58  1  0.82791427  0.17208573  0.50000000  1
  Li  Li59  1  0.17208573  0.82791427  0.50000000  1
  Li  Li60  1  0.00000000  0.50000000  0.50000000  1
  Li  Li61  1  0.50000000  0.00000000  0.50000000  1
  Li  Li62  1  0.50000000  0.50000000  0.21056007  1
  Li  Li63  1  0.50000000  0.50000000  0.78943993  1
  O  O64  1  0.08329845  0.50000000  0.68790033  1
  O  O65  1  -0.08329845  0.50000000  0.68790033  1
  O  O66  1  0.50000000  0.08329845  0.68790033  1
  O  O67  1  0.50000000  -0.08329845  0.68790033  1
  O  O68  1  -0.08329845  0.50000000  -0.68790033  1
  O  O69  1  0.08329845  0.50000000  -0.68790033  1
  O  O70  1  0.50000000  0.08329845  -0.68790033  1
  O  O71  1  0.50000000  -0.08329845  -0.68790033  1
  O  O72  1  0.00000000  0.50000000  0.00000000  1
  O  O73  1  0.50000000  0.00000000  0.00000000  1
  O  O74  1  0.36855341  0.50000000  0.50000000  1
  O  O75  1  0.63144659  0.50000000  0.50000000  1
  O  O76  1  0.50000000  0.36855341  0.50000000  1
  O  O77  1  0.50000000  0.63144659  0.50000000  1
  O  O78  1  0.00000000  0.00000000  0.00000000  1
  O  O79  1  0.50000000  0.50000000  0.50000000  1
  Ti  Ti80  1  0.00000000  0.00000000  0.50000000  1
  Ti  Ti81  1  0.00000000  0.50000000  0.62553808  1
  Ti  Ti82  1  0.50000000  0.00000000  0.62553808  1
  Ti  Ti83  1  0.00000000  0.50000000  0.37446192  1
  Ti  Ti84  1  0.50000000  0.00000000  0.37446192  1
  Ti  Ti85  1  0.00000000  0.00000000  0.30961590  1
  Ti  Ti86  1  0.00000000  0.00000000  0.69038410  1
  Ti  Ti87  1  0.76236770  0.50000000  0.66930195  1
  Ti  Ti88  1  0.23763230  0.50000000  0.66930195  1
  Ti  Ti89  1  0.50000000  0.76236770  0.66930195  1
  Ti  Ti90  1  0.50000000  0.23763230  0.66930195  1
  Ti  Ti91  1  0.23763230  0.50000000  0.33069805  1
  Ti  Ti92  1  0.76236770  0.50000000  0.33069805  1
  Ti  Ti93  1  0.50000000  0.76236770  0.33069805  1
  Ti  Ti94  1  0.50000000  0.23763230  0.33069805  1
  Ti  Ti95  1  0.50000000  0.50000000  0.00000000  1
