# generated using pymatgen
data_LiTi3Te2Br3(OF2)2
_symmetry_space_group_name_H-M   'P 1'
_cell_length_a   3.98618752
_cell_length_b   4.35251905
_cell_length_c   4.22746066
_cell_angle_alpha   91.32030454
_cell_angle_beta   85.05650181
_cell_angle_gamma   91.54145986
_symmetry_Int_Tables_number   1
_chemical_formula_structural   LiTi3Te2Br3(OF2)2
_chemical_formula_sum   'Li1 Ti3 Te2 Br3 O2 F4'
_cell_volume   73.03116511
_cell_formula_units_Z   1
loop_
 _symmetry_equiv_pos_site_id
 _symmetry_equiv_pos_as_xyz
  1  'x, y, z'
loop_
 _atom_site_type_symbol
 _atom_site_label
 _atom_site_symmetry_multiplicity
 _atom_site_fract_x
 _atom_site_fract_y
 _atom_site_fract_z
 _atom_site_occupancy
  Li  Li0  1  0.00000000  0.00000000  0.00000000  1
  Ti  Ti1  1  0.50000000  0.50000000  0.50000000  1
  Ti  Ti2  1  0.50000000  0.50000000  0.00000000  1
  Ti  Ti3  1  0.50000000  0.00000000  0.50000000  1
  F  F4  1  0.00000000  0.50000000  0.50000000  1
  F  F5  1  0.80304956  0.68333311  0.16738433  1
  F  F6  1  0.79358988  0.34522572  0.78487930  1
  F  F7  1  0.56155374  0.12548808  0.56659728  1
  Br  Br8  1  0.21431135  0.08215903  0.44997025  1
  Br  Br9  1  0.69405545  0.10711800  0.35809880  1
  Br  Br10  1  0.38524665  0.88053325  0.64602654  1
  O  O11  1  0.95371782  0.49616665  0.18084540  1
  O  O12  1  0.07425956  0.29879806  0.65752989  1
  Te  Te13  1  0.96773495  0.67352560  0.11050216  1
  Te  Te14  1  0.37482999  0.83097333  0.32056758  1
