# generated using pymatgen
data_Li4AlTeN3O2
_symmetry_space_group_name_H-M   'P 1'
_cell_length_a   8.08938625
_cell_length_b   9.22631158
_cell_length_c   8.80435225
_cell_angle_alpha   90.00000000
_cell_angle_beta   90.00000000
_cell_angle_gamma   90.00000000
_symmetry_Int_Tables_number   1
_chemical_formula_structural   Li4AlTeN3O2
_chemical_formula_sum   'Li4 Al1 Te1 N3 O2'
_cell_volume   657.11457370
_cell_formula_units_Z   1
loop_
 _symmetry_equiv_pos_site_id
 _symmetry_equiv_pos_as_xyz
  1  'x, y, z'
loop_
 _atom_site_type_symbol
 _atom_site_label
 _atom_site_symmetry_multiplicity
 _atom_site_fract_x
 _atom_site_fract_y
 _atom_site_fract_z
 _atom_site_occupancy
  Li  Li0  1  0.12500000  0.12500000  0.12500000  1
  Li  Li1  1  0.50000000  0.50000000  0.50000000  1
  Li  Li2  1  0.25000000  0.25000000  0.25000000  1
  Li  Li3  1  0.75000000  0.75000000  0.75000000  1
  Al  Al4  1  0.77320450  0.97396057  0.06499712  1
  O  O5  1  0.33901770  0.97608874  0.45766826  1
  O  O6  1  0.41720378  0.10630179  0.94729503  1
  N  N7  1  0.71750364  0.61046565  0.31317987  1
  N  N8  1  0.02625332  0.52084974  0.00770922  1
  N  N9  1  0.49180291  0.63770091  0.27270018  1
  Te  Te10  1  0.14178427  0.68373846  0.91707658  1
