# generated using pymatgen
data_LiBr
_symmetry_space_group_name_H-M   'P 1'
_cell_length_a   10.08115491
_cell_length_b   10.08115491
_cell_length_c   17.24185352
_cell_angle_alpha   90.00000000
_cell_angle_beta   90.00000000
_cell_angle_gamma   120.00000000
_symmetry_Int_Tables_number   1
_chemical_formula_structural   LiBr
_chemical_formula_sum   'Li36 Br36'
_cell_volume   1517.52257065
_cell_formula_units_Z   36
loop_
 _symmetry_equiv_pos_site_id
 _symmetry_equiv_pos_as_xyz
  1  'x, y, z'
loop_
 _atom_site_type_symbol
 _atom_site_label
 _atom_site_symmetry_multiplicity
 _atom_site_fract_x
 _atom_site_fract_y
 _atom_site_fract_z
 _atom_site_occupancy
  Br  Br0  1  0.79306069  0.41558344  0.34725016  1
  Br  Br1  1  -0.41558344  0.37747725  0.34725016  1
  Br  Br2  1  -0.37747725  -0.79306069  0.34725016  1
  Br  Br3  1  0.41558344  0.79306069  0.15274984  1
  Br  Br4  1  0.37747725  -0.41558344  0.15274984  1
  Br  Br5  1  -0.79306069  -0.37747725  0.15274984  1
  Br  Br6  1  -0.79306069  -0.41558344  -0.34725016  1
  Br  Br7  1  0.41558344  -0.37747725  -0.34725016  1
  Br  Br8  1  0.37747725  0.79306069  -0.34725016  1
  Br  Br9  1  -0.41558344  -0.79306069  0.84725016  1
  Br  Br10  1  -0.37747725  0.41558344  0.84725016  1
  Br  Br11  1  0.79306069  0.37747725  0.84725016  1
  Br  Br12  1  1.45972735  0.74891677  0.68058350  1
  Br  Br13  1  0.25108323  0.71081058  0.68058350  1
  Br  Br14  1  0.28918942  -0.45972735  0.68058350  1
  Br  Br15  1  1.08225011  1.12639402  0.48608317  1
  Br  Br16  1  1.04414391  -0.08225011  0.48608317  1
  Br  Br17  1  -0.12639402  -0.04414391  0.48608317  1
  Br  Br18  1  -0.12639402  -0.08225011  -0.01391683  1
  Br  Br19  1  1.08225011  -0.04414391  -0.01391683  1
  Br  Br20  1  1.04414391  1.12639402  -0.01391683  1
  Br  Br21  1  0.25108323  -0.45972735  1.18058350  1
  Br  Br22  1  0.28918942  0.74891677  1.18058350  1
  Br  Br23  1  1.45972735  0.71081058  1.18058350  1
  Br  Br24  1  1.12639402  1.08225011  1.01391683  1
  Br  Br25  1  -0.08225011  1.04414391  1.01391683  1
  Br  Br26  1  -0.04414391  -0.12639402  1.01391683  1
  Br  Br27  1  0.74891677  1.45972735  0.81941650  1
  Br  Br28  1  0.71081058  0.25108323  0.81941650  1
  Br  Br29  1  -0.45972735  0.28918942  0.81941650  1
  Br  Br30  1  -0.45972735  0.25108323  0.31941650  1
  Br  Br31  1  0.74891677  0.28918942  0.31941650  1
  Br  Br32  1  0.71081058  1.45972735  0.31941650  1
  Br  Br33  1  -0.08225011  -0.12639402  1.51391683  1
  Br  Br34  1  -0.04414391  1.08225011  1.51391683  1
  Br  Br35  1  1.12639402  1.04414391  1.51391683  1
  Li  Li36  1  0.00000000  0.00000000  0.44929969  1
  Li  Li37  1  0.00000000  0.00000000  0.05070031  1
  Li  Li38  1  0.00000000  0.00000000  0.55070031  1
  Li  Li39  1  0.00000000  0.00000000  0.94929969  1
  Li  Li40  1  0.66666667  0.33333333  0.78263303  1
  Li  Li41  1  0.66666667  0.33333333  0.38403364  1
  Li  Li42  1  0.66666667  0.33333333  0.88403364  1
  Li  Li43  1  0.66666667  0.33333333  0.28263303  1
  Li  Li44  1  0.33333333  0.66666667  0.11596636  1
  Li  Li45  1  0.33333333  0.66666667  0.71736697  1
  Li  Li46  1  0.33333333  0.66666667  0.21736697  1
  Li  Li47  1  0.33333333  0.66666667  0.61596636  1
  Li  Li48  1  0.70838446  0.00000000  0.25000000  1
  Li  Li49  1  0.00000000  0.70838446  0.25000000  1
  Li  Li50  1  0.29161554  0.29161554  0.25000000  1
  Li  Li51  1  0.29161554  -0.00000000  0.75000000  1
  Li  Li52  1  0.00000000  0.29161554  0.75000000  1
  Li  Li53  1  0.70838446  0.70838446  0.75000000  1
  Li  Li54  1  0.37505113  0.33333333  0.58333333  1
  Li  Li55  1  0.66666667  0.04171779  0.58333333  1
  Li  Li56  1  0.95828221  0.62494887  0.58333333  1
  Li  Li57  1  0.95828221  0.33333333  0.08333333  1
  Li  Li58  1  0.66666667  0.62494887  0.08333333  1
  Li  Li59  1  0.37505113  0.04171779  0.08333333  1
  Li  Li60  1  0.04171779  0.66666667  0.91666667  1
  Li  Li61  1  0.33333333  0.37505113  0.91666667  1
  Li  Li62  1  0.62494887  0.95828221  0.91666667  1
  Li  Li63  1  0.62494887  0.66666667  0.41666667  1
  Li  Li64  1  0.33333333  0.95828221  0.41666667  1
  Li  Li65  1  0.04171779  0.37505113  0.41666667  1
  Li  Li66  1  0.00000000  0.00000000  0.25000000  1
  Li  Li67  1  0.00000000  0.00000000  0.75000000  1
  Li  Li68  1  0.66666667  0.33333333  0.58333333  1
  Li  Li69  1  0.66666667  0.33333333  0.08333333  1
  Li  Li70  1  0.33333333  0.66666667  0.91666667  1
  Li  Li71  1  0.33333333  0.66666667  0.41666667  1
