# generated using pymatgen
data_KLi6Sb(TeBr3)2
_symmetry_space_group_name_H-M   'P 1'
_cell_length_a   20.96618949
_cell_length_b   20.96618949
_cell_length_c   13.40497888
_cell_angle_alpha   90.00000000
_cell_angle_beta   90.00000000
_cell_angle_gamma   90.00000000
_symmetry_Int_Tables_number   1
_chemical_formula_structural   KLi6Sb(TeBr3)2
_chemical_formula_sum   'K16 Li96 Sb16 Te32 Br96'
_cell_volume   5892.57538047
_cell_formula_units_Z   16
loop_
 _symmetry_equiv_pos_site_id
 _symmetry_equiv_pos_as_xyz
  1  'x, y, z'
loop_
 _atom_site_type_symbol
 _atom_site_label
 _atom_site_symmetry_multiplicity
 _atom_site_fract_x
 _atom_site_fract_y
 _atom_site_fract_z
 _atom_site_occupancy
  Br  Br0  1  0.43853914  0.35950249  0.14902798  1
  Br  Br1  1  0.06146086  0.64049751  0.64902798  1
  Br  Br2  1  0.89049751  0.18853914  0.39902798  1
  Br  Br3  1  0.60950249  0.81146086  0.89902798  1
  Br  Br4  1  0.06146086  0.35950249  0.85097202  1
  Br  Br5  1  0.43853914  0.64049751  0.35097202  1
  Br  Br6  1  0.60950249  0.18853914  0.60097202  1
  Br  Br7  1  0.89049751  0.81146086  0.10097202  1
  Br  Br8  1  0.56146086  0.64049751  0.85097202  1
  Br  Br9  1  0.93853914  0.35950249  0.35097202  1
  Br  Br10  1  0.10950249  0.81146086  0.60097202  1
  Br  Br11  1  0.39049751  0.18853914  0.10097202  1
  Br  Br12  1  0.93853914  0.64049751  0.14902798  1
  Br  Br13  1  0.56146086  0.35950249  0.64902798  1
  Br  Br14  1  0.39049751  0.81146086  0.39902798  1
  Br  Br15  1  0.10950249  0.18853914  0.89902798  1
  Br  Br16  1  0.93853914  0.85950249  0.64902798  1
  Br  Br17  1  0.56146086  0.14049751  0.14902798  1
  Br  Br18  1  0.39049751  0.68853914  0.89902798  1
  Br  Br19  1  0.10950249  0.31146086  0.39902798  1
  Br  Br20  1  0.56146086  0.85950249  0.35097202  1
  Br  Br21  1  0.93853914  0.14049751  0.85097202  1
  Br  Br22  1  0.10950249  0.68853914  0.10097202  1
  Br  Br23  1  0.39049751  0.31146086  0.60097202  1
  Br  Br24  1  0.06146086  0.14049751  0.35097202  1
  Br  Br25  1  0.43853914  0.85950249  0.85097202  1
  Br  Br26  1  0.60950249  0.31146086  0.10097202  1
  Br  Br27  1  0.89049751  0.68853914  0.60097202  1
  Br  Br28  1  0.43853914  0.14049751  0.64902798  1
  Br  Br29  1  0.06146086  0.85950249  0.14902798  1
  Br  Br30  1  0.89049751  0.31146086  0.89902798  1
  Br  Br31  1  0.60950249  0.68853914  0.39902798  1
  Br  Br32  1  0.97365672  -0.00000000  0.25000000  1
  Br  Br33  1  0.52634328  -0.00000000  0.75000000  1
  Br  Br34  1  0.25000000  0.72365672  0.50000000  1
  Br  Br35  1  0.25000000  0.27634328  -0.00000000  1
  Br  Br36  1  0.02634328  -0.00000000  0.75000000  1
  Br  Br37  1  0.47365672  -0.00000000  0.25000000  1
  Br  Br38  1  0.75000000  0.27634328  0.50000000  1
  Br  Br39  1  0.75000000  0.72365672  -0.00000000  1
  Br  Br40  1  0.47365672  0.50000000  0.75000000  1
  Br  Br41  1  0.02634328  0.50000000  0.25000000  1
  Br  Br42  1  0.75000000  0.22365672  -0.00000000  1
  Br  Br43  1  0.75000000  0.77634328  0.50000000  1
  Br  Br44  1  0.52634328  0.50000000  0.25000000  1
  Br  Br45  1  0.97365672  0.50000000  0.75000000  1
  Br  Br46  1  0.25000000  0.77634328  -0.00000000  1
  Br  Br47  1  0.25000000  0.22365672  0.50000000  1
  Br  Br48  1  0.93724593  0.32568606  0.78180763  1
  Br  Br49  1  0.56275407  0.67431394  0.28180763  1
  Br  Br50  1  0.92431394  0.68724593  0.03180763  1
  Br  Br51  1  0.57568606  0.31275407  0.53180763  1
  Br  Br52  1  0.56275407  0.32568606  0.21819237  1
  Br  Br53  1  0.93724593  0.67431394  0.71819237  1
  Br  Br54  1  0.57568606  0.68724593  0.96819237  1
  Br  Br55  1  0.92431394  0.31275407  0.46819237  1
  Br  Br56  1  0.06275407  0.67431394  0.21819237  1
  Br  Br57  1  0.43724593  0.32568606  0.71819237  1
  Br  Br58  1  0.07568606  0.31275407  0.96819237  1
  Br  Br59  1  0.42431394  0.68724593  0.46819237  1
  Br  Br60  1  0.43724593  0.67431394  0.78180763  1
  Br  Br61  1  0.06275407  0.32568606  0.28180763  1
  Br  Br62  1  0.42431394  0.31275407  0.03180763  1
  Br  Br63  1  0.07568606  0.68724593  0.53180763  1
  Br  Br64  1  0.43724593  0.82568606  0.28180763  1
  Br  Br65  1  0.06275407  0.17431394  0.78180763  1
  Br  Br66  1  0.42431394  0.18724593  0.53180763  1
  Br  Br67  1  0.07568606  0.81275407  0.03180763  1
  Br  Br68  1  0.06275407  0.82568606  0.71819237  1
  Br  Br69  1  0.43724593  0.17431394  0.21819237  1
  Br  Br70  1  0.07568606  0.18724593  0.46819237  1
  Br  Br71  1  0.42431394  0.81275407  0.96819237  1
  Br  Br72  1  0.56275407  0.17431394  0.71819237  1
  Br  Br73  1  0.93724593  0.82568606  0.21819237  1
  Br  Br74  1  0.57568606  0.81275407  0.46819237  1
  Br  Br75  1  0.92431394  0.18724593  0.96819237  1
  Br  Br76  1  0.93724593  0.17431394  0.28180763  1
  Br  Br77  1  0.56275407  0.82568606  0.78180763  1
  Br  Br78  1  0.92431394  0.81275407  0.53180763  1
  Br  Br79  1  0.57568606  0.18724593  0.03180763  1
  Br  Br80  1  0.62329967  -0.00000000  0.25000000  1
  Br  Br81  1  0.87670033  -0.00000000  0.75000000  1
  Br  Br82  1  0.25000000  0.37329967  0.50000000  1
  Br  Br83  1  0.25000000  0.62670033  -0.00000000  1
  Br  Br84  1  0.37670033  -0.00000000  0.75000000  1
  Br  Br85  1  0.12329967  -0.00000000  0.25000000  1
  Br  Br86  1  0.75000000  0.62670033  0.50000000  1
  Br  Br87  1  0.75000000  0.37329967  -0.00000000  1
  Br  Br88  1  0.12329967  0.50000000  0.75000000  1
  Br  Br89  1  0.37670033  0.50000000  0.25000000  1
  Br  Br90  1  0.75000000  0.87329967  -0.00000000  1
  Br  Br91  1  0.75000000  0.12670033  0.50000000  1
  Br  Br92  1  0.87670033  0.50000000  0.25000000  1
  Br  Br93  1  0.62329967  0.50000000  0.75000000  1
  Br  Br94  1  0.25000000  0.12670033  -0.00000000  1
  Br  Br95  1  0.25000000  0.87329967  0.50000000  1
  K  K96  1  0.00000000  0.00000000  0.00000000  1
  K  K97  1  0.50000000  -0.00000000  0.50000000  1
  K  K98  1  0.25000000  0.75000000  0.25000000  1
  K  K99  1  0.25000000  0.25000000  0.75000000  1
  K  K100  1  0.50000000  -0.00000000  -0.00000000  1
  K  K101  1  0.00000000  0.00000000  0.50000000  1
  K  K102  1  0.25000000  0.75000000  0.75000000  1
  K  K103  1  0.25000000  0.25000000  0.25000000  1
  K  K104  1  0.50000000  0.50000000  0.50000000  1
  K  K105  1  0.00000000  0.50000000  -0.00000000  1
  K  K106  1  0.75000000  0.25000000  0.75000000  1
  K  K107  1  0.75000000  0.75000000  0.25000000  1
  K  K108  1  0.00000000  0.50000000  0.50000000  1
  K  K109  1  0.50000000  0.50000000  -0.00000000  1
  K  K110  1  0.75000000  0.25000000  0.25000000  1
  K  K111  1  0.75000000  0.75000000  0.75000000  1
  Li  Li112  1  0.00000000  0.25000000  0.37500000  1
  Li  Li113  1  0.00000000  0.75000000  0.62500000  1
  Li  Li114  1  0.50000000  0.25000000  0.62500000  1
  Li  Li115  1  0.50000000  0.75000000  0.37500000  1
  Li  Li116  1  0.50000000  0.75000000  0.87500000  1
  Li  Li117  1  0.50000000  0.25000000  0.12500000  1
  Li  Li118  1  0.00000000  0.75000000  0.12500000  1
  Li  Li119  1  0.00000000  0.25000000  0.87500000  1
  Li  Li120  1  0.58859264  0.11275718  0.73199512  1
  Li  Li121  1  -0.08859264  -0.11275718  1.23199512  1
  Li  Li122  1  0.13724282  1.33859264  0.98199512  1
  Li  Li123  1  0.36275718  -0.33859264  1.48199512  1
  Li  Li124  1  -0.08859264  0.11275718  -0.73199512  1
  Li  Li125  1  0.58859264  -0.11275718  -0.23199512  1
  Li  Li126  1  0.36275718  1.33859264  0.01800488  1
  Li  Li127  1  0.13724282  -0.33859264  -0.48199512  1
  Li  Li128  1  -0.58859264  -0.11275718  -0.73199512  1
  Li  Li129  1  1.08859264  0.11275718  -0.23199512  1
  Li  Li130  1  0.86275718  -0.33859264  0.01800488  1
  Li  Li131  1  0.63724282  1.33859264  -0.48199512  1
  Li  Li132  1  1.08859264  -0.11275718  0.73199512  1
  Li  Li133  1  -0.58859264  0.11275718  1.23199512  1
  Li  Li134  1  0.63724282  -0.33859264  0.98199512  1
  Li  Li135  1  0.86275718  1.33859264  1.48199512  1
  Li  Li136  1  1.08859264  0.61275718  1.23199512  1
  Li  Li137  1  0.41140736  0.38724282  1.73199512  1
  Li  Li138  1  0.63724282  1.83859264  1.48199512  1
  Li  Li139  1  0.86275718  0.16140736  1.98199512  1
  Li  Li140  1  0.41140736  0.61275718  -0.23199512  1
  Li  Li141  1  1.08859264  0.38724282  0.26800488  1
  Li  Li142  1  0.86275718  1.83859264  0.51800488  1
  Li  Li143  1  0.63724282  0.16140736  0.01800488  1
  Li  Li144  1  -0.08859264  0.38724282  -0.23199512  1
  Li  Li145  1  1.58859264  0.61275718  0.26800488  1
  Li  Li146  1  1.36275718  0.16140736  0.51800488  1
  Li  Li147  1  1.13724282  1.83859264  0.01800488  1
  Li  Li148  1  1.58859264  0.38724282  1.23199512  1
  Li  Li149  1  -0.08859264  0.61275718  1.73199512  1
  Li  Li150  1  1.13724282  0.16140736  1.48199512  1
  Li  Li151  1  1.36275718  1.83859264  1.98199512  1
  Li  Li152  1  0.84656702  0.44053336  0.04596295  1
  Li  Li153  1  0.65343298  0.55946664  0.54596295  1
  Li  Li154  1  0.80946664  0.59656702  0.29596295  1
  Li  Li155  1  0.69053336  0.40343298  0.79596295  1
  Li  Li156  1  0.65343298  0.44053336  0.95403705  1
  Li  Li157  1  0.84656702  0.55946664  0.45403705  1
  Li  Li158  1  0.69053336  0.59656702  0.70403705  1
  Li  Li159  1  0.80946664  0.40343298  0.20403705  1
  Li  Li160  1  0.15343298  0.55946664  0.95403705  1
  Li  Li161  1  0.34656702  0.44053336  0.45403705  1
  Li  Li162  1  0.19053336  0.40343298  0.70403705  1
  Li  Li163  1  0.30946664  0.59656702  0.20403705  1
  Li  Li164  1  0.34656702  0.55946664  0.04596295  1
  Li  Li165  1  0.15343298  0.44053336  0.54596295  1
  Li  Li166  1  0.30946664  0.40343298  0.29596295  1
  Li  Li167  1  0.19053336  0.59656702  0.79596295  1
  Li  Li168  1  0.34656702  0.94053336  0.54596295  1
  Li  Li169  1  0.15343298  0.05946664  0.04596295  1
  Li  Li170  1  0.30946664  0.09656702  0.79596295  1
  Li  Li171  1  0.19053336  0.90343298  0.29596295  1
  Li  Li172  1  0.15343298  0.94053336  0.45403705  1
  Li  Li173  1  0.34656702  0.05946664  0.95403705  1
  Li  Li174  1  0.19053336  0.09656702  0.20403705  1
  Li  Li175  1  0.30946664  0.90343298  0.70403705  1
  Li  Li176  1  0.65343298  0.05946664  0.45403705  1
  Li  Li177  1  0.84656702  0.94053336  0.95403705  1
  Li  Li178  1  0.69053336  0.90343298  0.20403705  1
  Li  Li179  1  0.80946664  0.09656702  0.70403705  1
  Li  Li180  1  0.84656702  0.05946664  0.54596295  1
  Li  Li181  1  0.65343298  0.94053336  0.04596295  1
  Li  Li182  1  0.80946664  0.90343298  0.79596295  1
  Li  Li183  1  0.69053336  0.09656702  0.29596295  1
  Li  Li184  1  0.00000000  0.25000000  0.48657423  1
  Li  Li185  1  0.00000000  0.75000000  0.73657423  1
  Li  Li186  1  0.50000000  0.25000000  0.51342577  1
  Li  Li187  1  0.50000000  0.75000000  0.26342577  1
  Li  Li188  1  0.00000000  0.75000000  0.51342577  1
  Li  Li189  1  0.00000000  0.25000000  0.26342577  1
  Li  Li190  1  0.50000000  0.75000000  0.48657423  1
  Li  Li191  1  0.50000000  0.25000000  0.73657423  1
  Li  Li192  1  0.50000000  0.75000000  0.98657423  1
  Li  Li193  1  0.50000000  0.25000000  0.23657423  1
  Li  Li194  1  0.00000000  0.75000000  0.01342577  1
  Li  Li195  1  0.00000000  0.25000000  0.76342577  1
  Li  Li196  1  0.50000000  0.25000000  0.01342577  1
  Li  Li197  1  0.50000000  0.75000000  0.76342577  1
  Li  Li198  1  0.00000000  0.25000000  0.98657423  1
  Li  Li199  1  0.00000000  0.75000000  0.23657423  1
  Li  Li200  1  0.00000000  0.25000000  0.12500000  1
  Li  Li201  1  0.00000000  0.75000000  0.37500000  1
  Li  Li202  1  0.00000000  0.75000000  0.87500000  1
  Li  Li203  1  0.00000000  0.25000000  0.62500000  1
  Li  Li204  1  0.50000000  0.75000000  0.62500000  1
  Li  Li205  1  0.50000000  0.25000000  0.87500000  1
  Li  Li206  1  0.50000000  0.25000000  0.37500000  1
  Li  Li207  1  0.50000000  0.75000000  0.12500000  1
  Sb  Sb208  1  0.74590332  -0.00000000  0.25000000  1
  Sb  Sb209  1  0.75409668  -0.00000000  0.75000000  1
  Sb  Sb210  1  0.25000000  0.49590332  0.50000000  1
  Sb  Sb211  1  0.25000000  0.50409668  -0.00000000  1
  Sb  Sb212  1  0.25409668  0.00000000  0.75000000  1
  Sb  Sb213  1  0.24590332  -0.00000000  0.25000000  1
  Sb  Sb214  1  0.75000000  0.50409668  0.50000000  1
  Sb  Sb215  1  0.75000000  0.49590332  -0.00000000  1
  Sb  Sb216  1  0.24590332  0.50000000  0.75000000  1
  Sb  Sb217  1  0.25409668  0.50000000  0.25000000  1
  Sb  Sb218  1  0.75000000  0.99590332  0.00000000  1
  Sb  Sb219  1  0.75000000  0.00409668  0.50000000  1
  Sb  Sb220  1  0.75409668  0.50000000  0.25000000  1
  Sb  Sb221  1  0.74590332  0.50000000  0.75000000  1
  Sb  Sb222  1  0.25000000  0.00409668  -0.00000000  1
  Sb  Sb223  1  0.25000000  0.99590332  0.50000000  1
  Te  Te224  1  0.83155766  -0.00000000  0.25000000  1
  Te  Te225  1  0.66844234  -0.00000000  0.75000000  1
  Te  Te226  1  0.25000000  0.58155766  0.50000000  1
  Te  Te227  1  0.25000000  0.41844234  0.00000000  1
  Te  Te228  1  0.16844234  0.00000000  0.75000000  1
  Te  Te229  1  0.33155766  -0.00000000  0.25000000  1
  Te  Te230  1  0.75000000  0.41844234  0.50000000  1
  Te  Te231  1  0.75000000  0.58155766  -0.00000000  1
  Te  Te232  1  0.33155766  0.50000000  0.75000000  1
  Te  Te233  1  0.16844234  0.50000000  0.25000000  1
  Te  Te234  1  0.75000000  0.08155766  -0.00000000  1
  Te  Te235  1  0.75000000  0.91844234  0.50000000  1
  Te  Te236  1  0.66844234  0.50000000  0.25000000  1
  Te  Te237  1  0.83155766  0.50000000  0.75000000  1
  Te  Te238  1  0.25000000  0.91844234  -0.00000000  1
  Te  Te239  1  0.25000000  0.08155766  0.50000000  1
  Te  Te240  1  0.27970880  0.52970880  0.12500000  1
  Te  Te241  1  0.22029120  0.47029120  0.62500000  1
  Te  Te242  1  0.72029120  0.02970880  0.37500000  1
  Te  Te243  1  0.77970880  0.97029120  0.87500000  1
  Te  Te244  1  0.72029120  0.47029120  0.87500000  1
  Te  Te245  1  0.77970880  0.52970880  0.37500000  1
  Te  Te246  1  0.27970880  0.97029120  0.62500000  1
  Te  Te247  1  0.22029120  0.02970880  0.12500000  1
  Te  Te248  1  0.77970880  0.02970880  0.62500000  1
  Te  Te249  1  0.72029120  0.97029120  0.12500000  1
  Te  Te250  1  0.22029120  0.52970880  0.87500000  1
  Te  Te251  1  0.27970880  0.47029120  0.37500000  1
  Te  Te252  1  0.22029120  0.97029120  0.37500000  1
  Te  Te253  1  0.27970880  0.02970880  0.87500000  1
  Te  Te254  1  0.77970880  0.47029120  0.12500000  1
  Te  Te255  1  0.72029120  0.52970880  0.62500000  1
