# generated using pymatgen
data_LiAl3(SeCl3)2
_symmetry_space_group_name_H-M   'P 1'
_cell_length_a   13.42527391
_cell_length_b   13.42527391
_cell_length_c   6.07570538
_cell_angle_alpha   90.00000000
_cell_angle_beta   90.00000000
_cell_angle_gamma   120.00000000
_symmetry_Int_Tables_number   1
_chemical_formula_structural   LiAl3(SeCl3)2
_chemical_formula_sum   'Li4 Al12 Se8 Cl24'
_cell_volume   948.36091800
_cell_formula_units_Z   4
loop_
 _symmetry_equiv_pos_site_id
 _symmetry_equiv_pos_as_xyz
  1  'x, y, z'
loop_
 _atom_site_type_symbol
 _atom_site_label
 _atom_site_symmetry_multiplicity
 _atom_site_fract_x
 _atom_site_fract_y
 _atom_site_fract_z
 _atom_site_occupancy
  Al  Al0  1  0.00000000  0.00000000  0.00000000  1
  Al  Al1  1  0.00000000  0.00000000  0.50000000  1
  Al  Al2  1  0.55329254  0.10658508  0.25000000  1
  Al  Al3  1  0.89341492  0.44670746  0.25000000  1
  Al  Al4  1  0.55329254  0.44670746  0.25000000  1
  Al  Al5  1  0.44670746  0.89341492  0.75000000  1
  Al  Al6  1  0.10658508  0.55329254  0.75000000  1
  Al  Al7  1  0.44670746  0.55329254  0.75000000  1
  Al  Al8  1  0.00000000  0.00000000  0.25000000  1
  Al  Al9  1  0.00000000  0.00000000  0.75000000  1
  Al  Al10  1  0.33333333  0.66666667  0.75000000  1
  Al  Al11  1  0.66666667  0.33333333  0.25000000  1
  Cl  Cl12  1  0.09137837  0.59006651  0.15859920  1
  Cl  Cl13  1  -0.59006651  -0.49868814  0.15859920  1
  Cl  Cl14  1  0.49868814  -0.09137837  0.15859920  1
  Cl  Cl15  1  -0.09137837  -0.59006651  0.65859920  1
  Cl  Cl16  1  0.59006651  0.49868814  0.65859920  1
  Cl  Cl17  1  -0.49868814  0.09137837  0.65859920  1
  Cl  Cl18  1  0.59006651  0.09137837  -0.15859920  1
  Cl  Cl19  1  -0.49868814  -0.59006651  -0.15859920  1
  Cl  Cl20  1  -0.09137837  0.49868814  -0.15859920  1
  Cl  Cl21  1  -0.59006651  -0.09137837  0.34140080  1
  Cl  Cl22  1  0.49868814  0.59006651  0.34140080  1
  Cl  Cl23  1  0.09137837  -0.49868814  0.34140080  1
  Cl  Cl24  1  -0.09137837  -0.59006651  -0.15859920  1
  Cl  Cl25  1  0.59006651  0.49868814  -0.15859920  1
  Cl  Cl26  1  -0.49868814  0.09137837  -0.15859920  1
  Cl  Cl27  1  0.09137837  0.59006651  0.34140080  1
  Cl  Cl28  1  -0.59006651  -0.49868814  0.34140080  1
  Cl  Cl29  1  0.49868814  -0.09137837  0.34140080  1
  Cl  Cl30  1  -0.59006651  -0.09137837  0.15859920  1
  Cl  Cl31  1  0.49868814  0.59006651  0.15859920  1
  Cl  Cl32  1  0.09137837  -0.49868814  0.15859920  1
  Cl  Cl33  1  0.59006651  0.09137837  0.65859920  1
  Cl  Cl34  1  -0.49868814  -0.59006651  0.65859920  1
  Cl  Cl35  1  -0.09137837  0.49868814  0.65859920  1
  Li  Li36  1  0.33333333  0.66666667  0.53790368  1
  Li  Li37  1  0.66666667  0.33333333  0.03790368  1
  Li  Li38  1  0.66666667  0.33333333  0.46209632  1
  Li  Li39  1  0.33333333  0.66666667  0.96209632  1
  Se  Se40  1  0.50000000  -0.00000000  0.00000000  1
  Se  Se41  1  0.00000000  0.50000000  0.00000000  1
  Se  Se42  1  0.50000000  0.50000000  0.00000000  1
  Se  Se43  1  0.50000000  -0.00000000  0.50000000  1
  Se  Se44  1  0.00000000  0.50000000  0.50000000  1
  Se  Se45  1  0.50000000  0.50000000  0.50000000  1
  Se  Se46  1  0.33333333  0.66666667  0.25000000  1
  Se  Se47  1  0.66666667  0.33333333  0.75000000  1
