# generated using pymatgen
data_Li5TiO
_symmetry_space_group_name_H-M   'P 1'
_cell_length_a   3.26578367
_cell_length_b   3.88344630
_cell_length_c   6.35804502
_cell_angle_alpha   99.10434582
_cell_angle_beta   112.56616204
_cell_angle_gamma   105.26356725
_symmetry_Int_Tables_number   1
_chemical_formula_structural   Li5TiO
_chemical_formula_sum   'Li5 Ti1 O1'
_cell_volume   68.72624478
_cell_formula_units_Z   1
loop_
 _symmetry_equiv_pos_site_id
 _symmetry_equiv_pos_as_xyz
  1  'x, y, z'
loop_
 _atom_site_type_symbol
 _atom_site_label
 _atom_site_symmetry_multiplicity
 _atom_site_fract_x
 _atom_site_fract_y
 _atom_site_fract_z
 _atom_site_occupancy
  Li  Li0  1  0.00000000  0.00000000  0.00000000  1
  Li  Li1  1  0.33300000  0.66700000  0.25000000  1
  Li  Li2  1  0.66700000  0.33300000  0.50000000  1
  Li  Li3  1  0.00000000  0.00000000  0.75000000  1
  Li  Li4  1  0.03260099  0.84275340  0.22653760  1
  Ti  Ti5  1  0.07719945  0.23874801  0.94795840  1
  O  O6  1  0.20892062  0.48520196  0.14863919  1
