# generated using pymatgen
data_SiF4
_symmetry_space_group_name_H-M   'P 1'
_cell_length_a   11.54116759
_cell_length_b   11.54116759
_cell_length_c   5.82833323
_cell_angle_alpha   90.00000000
_cell_angle_beta   90.00000000
_cell_angle_gamma   90.00000000
_symmetry_Int_Tables_number   1
_chemical_formula_structural   SiF4
_chemical_formula_sum   'Si16 F64'
_cell_volume   776.32553026
_cell_formula_units_Z   16
loop_
 _symmetry_equiv_pos_site_id
 _symmetry_equiv_pos_as_xyz
  1  'x, y, z'
loop_
 _atom_site_type_symbol
 _atom_site_label
 _atom_site_symmetry_multiplicity
 _atom_site_fract_x
 _atom_site_fract_y
 _atom_site_fract_z
 _atom_site_occupancy
  F  F0  1  0.00000000  0.47825822  0.76177279  1
  F  F1  1  0.50000000  0.52174178  0.26177279  1
  F  F2  1  0.77174178  0.75000000  0.01177279  1
  F  F3  1  0.72825822  0.25000000  0.51177279  1
  F  F4  1  0.50000000  0.47825822  0.73822721  1
  F  F5  1  0.00000000  0.52174178  0.23822721  1
  F  F6  1  0.72825822  0.75000000  0.48822721  1
  F  F7  1  0.77174178  0.25000000  0.98822721  1
  F  F8  1  0.50000000  0.97825822  0.26177279  1
  F  F9  1  0.00000000  0.02174178  0.76177279  1
  F  F10  1  0.27174178  0.25000000  0.51177279  1
  F  F11  1  0.22825822  0.75000000  0.01177279  1
  F  F12  1  0.00000000  0.97825822  0.23822721  1
  F  F13  1  0.50000000  0.02174178  0.73822721  1
  F  F14  1  0.22825822  0.25000000  0.98822721  1
  F  F15  1  0.27174178  0.75000000  0.48822721  1
  F  F16  1  0.47323714  0.53369866  0.18286118  1
  F  F17  1  0.02676286  -0.53369866  0.68286118  1
  F  F18  1  -0.28369866  1.22323714  0.43286118  1
  F  F19  1  0.78369866  -0.22323714  0.93286118  1
  F  F20  1  0.02676286  0.53369866  0.31713882  1
  F  F21  1  0.47323714  -0.53369866  -0.18286118  1
  F  F22  1  0.78369866  1.22323714  0.06713882  1
  F  F23  1  -0.28369866  -0.22323714  0.56713882  1
  F  F24  1  -0.47323714  -0.53369866  -0.18286118  1
  F  F25  1  0.97323714  0.53369866  0.31713882  1
  F  F26  1  1.28369866  -0.22323714  0.56713882  1
  F  F27  1  0.21630134  1.22323714  0.06713882  1
  F  F28  1  0.97323714  -0.53369866  0.68286118  1
  F  F29  1  -0.47323714  0.53369866  0.18286118  1
  F  F30  1  0.21630134  -0.22323714  0.93286118  1
  F  F31  1  1.28369866  1.22323714  0.43286118  1
  F  F32  1  0.97323714  1.03369866  0.68286118  1
  F  F33  1  0.52676286  -0.03369866  1.18286118  1
  F  F34  1  0.21630134  1.72323714  0.93286118  1
  F  F35  1  1.28369866  0.27676286  1.43286118  1
  F  F36  1  0.52676286  1.03369866  0.81713882  1
  F  F37  1  0.97323714  -0.03369866  0.31713882  1
  F  F38  1  1.28369866  1.72323714  0.56713882  1
  F  F39  1  0.21630134  0.27676286  1.06713882  1
  F  F40  1  0.02676286  -0.03369866  0.31713882  1
  F  F41  1  1.47323714  1.03369866  0.81713882  1
  F  F42  1  1.78369866  0.27676286  1.06713882  1
  F  F43  1  0.71630134  1.72323714  0.56713882  1
  F  F44  1  1.47323714  -0.03369866  1.18286118  1
  F  F45  1  0.02676286  1.03369866  0.68286118  1
  F  F46  1  0.71630134  0.27676286  1.43286118  1
  F  F47  1  1.78369866  1.72323714  0.93286118  1
  F  F48  1  0.64857145  -0.00000000  0.00000000  1
  F  F49  1  0.85142855  -0.00000000  0.50000000  1
  F  F50  1  0.25000000  0.39857145  0.25000000  1
  F  F51  1  0.25000000  0.60142855  0.75000000  1
  F  F52  1  0.35142855  0.00000000  0.00000000  1
  F  F53  1  0.14857145  -0.00000000  0.50000000  1
  F  F54  1  0.75000000  0.60142855  0.75000000  1
  F  F55  1  0.75000000  0.39857145  0.25000000  1
  F  F56  1  0.14857145  0.50000000  0.50000000  1
  F  F57  1  0.35142855  0.50000000  0.00000000  1
  F  F58  1  0.75000000  0.89857145  0.75000000  1
  F  F59  1  0.75000000  0.10142855  0.25000000  1
  F  F60  1  0.85142855  0.50000000  0.50000000  1
  F  F61  1  0.64857145  0.50000000  0.00000000  1
  F  F62  1  0.25000000  0.10142855  0.25000000  1
  F  F63  1  0.25000000  0.89857145  0.75000000  1
  Si  Si64  1  0.00000000  0.00000000  0.50000000  1
  Si  Si65  1  0.50000000  0.00000000  0.00000000  1
  Si  Si66  1  0.25000000  0.75000000  0.75000000  1
  Si  Si67  1  0.25000000  0.25000000  0.25000000  1
  Si  Si68  1  0.50000000  0.50000000  0.00000000  1
  Si  Si69  1  0.00000000  0.50000000  0.50000000  1
  Si  Si70  1  0.75000000  0.25000000  0.25000000  1
  Si  Si71  1  0.75000000  0.75000000  0.75000000  1
  Si  Si72  1  0.00000000  0.75000000  0.12500000  1
  Si  Si73  1  0.50000000  0.75000000  0.37500000  1
  Si  Si74  1  0.50000000  0.25000000  0.62500000  1
  Si  Si75  1  0.00000000  0.25000000  0.87500000  1
  Si  Si76  1  0.00000000  0.25000000  0.37500000  1
  Si  Si77  1  0.00000000  0.75000000  0.62500000  1
  Si  Si78  1  0.50000000  0.75000000  0.87500000  1
  Si  Si79  1  0.50000000  0.25000000  0.12500000  1
