# generated using pymatgen
data_Li6Zn2Cr2Te2MoS4(IF)4
_symmetry_space_group_name_H-M   'P 1'
_cell_length_a   3.77850933
_cell_length_b   3.41229655
_cell_length_c   4.00349881
_cell_angle_alpha   91.71834890
_cell_angle_beta   90.41531082
_cell_angle_gamma   92.26778876
_symmetry_Int_Tables_number   1
_chemical_formula_structural   Li6Zn2Cr2Te2MoS4(IF)4
_chemical_formula_sum   'Li6 Zn2 Cr2 Te2 Mo1 S4 I4 F4'
_cell_volume   51.55322826
_cell_formula_units_Z   1
loop_
 _symmetry_equiv_pos_site_id
 _symmetry_equiv_pos_as_xyz
  1  'x, y, z'
loop_
 _atom_site_type_symbol
 _atom_site_label
 _atom_site_symmetry_multiplicity
 _atom_site_fract_x
 _atom_site_fract_y
 _atom_site_fract_z
 _atom_site_occupancy
  Li  Li0  1  0.00000000  0.00000000  0.00000000  1
  Li  Li1  1  0.50000000  0.50000000  0.50000000  1
  Li  Li2  1  0.50000000  0.50000000  0.00000000  1
  Li  Li3  1  0.50000000  0.00000000  0.50000000  1
  Li  Li4  1  0.00000000  0.50000000  0.50000000  1
  Li  Li5  1  0.08651227  0.32061694  0.51556920  1
  Cr  Cr6  1  0.65101301  0.55445359  0.54313685  1
  Cr  Cr7  1  0.13887251  0.71449454  0.19395667  1
  Zn  Zn8  1  0.40000683  0.99383660  0.77194952  1
  Zn  Zn9  1  0.69625998  0.76603434  0.90021625  1
  F  F10  1  0.49215297  0.12577611  0.42595863  1
  F  F11  1  0.99221628  0.73362978  0.58406968  1
  F  F12  1  0.83728919  0.87979958  0.36779623  1
  F  F13  1  0.34599164  0.95690405  0.58832687  1
  I  I14  1  0.05095209  0.83843547  0.16648532  1
  I  I15  1  0.69507882  0.02605073  0.93911763  1
  I  I16  1  0.74982608  0.19749968  0.91678075  1
  I  I17  1  0.65643690  0.68326819  0.53059599  1
  Te  Te18  1  0.90039708  0.59447707  0.85666015  1
  Te  Te19  1  0.95945802  0.27921394  0.23061805  1
  S  S20  1  0.53780319  0.19409131  0.68818128  1
  S  S21  1  0.17881749  0.48778887  0.88858631  1
  S  S22  1  0.05141634  0.32608573  0.31995300  1
  S  S23  1  0.46375647  0.74742143  0.45363855  1
  Mo  Mo24  1  0.48628761  0.37727364  0.92360113  1
