# generated using pymatgen
data_Mg4TeSe2ICl
_symmetry_space_group_name_H-M   'P 1'
_cell_length_a   19.12813782
_cell_length_b   19.12813782
_cell_length_c   15.37094967
_cell_angle_alpha   90.00000000
_cell_angle_beta   90.00000000
_cell_angle_gamma   90.00000000
_symmetry_Int_Tables_number   1
_chemical_formula_structural   Mg4TeSe2ICl
_chemical_formula_sum   'Mg128 Te32 Se64 I32 Cl32'
_cell_volume   5624.01001020
_cell_formula_units_Z   32
loop_
 _symmetry_equiv_pos_site_id
 _symmetry_equiv_pos_as_xyz
  1  'x, y, z'
loop_
 _atom_site_type_symbol
 _atom_site_label
 _atom_site_symmetry_multiplicity
 _atom_site_fract_x
 _atom_site_fract_y
 _atom_site_fract_z
 _atom_site_occupancy
  Cl  Cl0  1  0.00000000  0.00000000  0.00000000  1
  Cl  Cl1  1  0.50000000  0.00000000  0.50000000  1
  Cl  Cl2  1  0.25000000  0.75000000  0.25000000  1
  Cl  Cl3  1  0.25000000  0.25000000  0.75000000  1
  Cl  Cl4  1  0.50000000  0.00000000  0.00000000  1
  Cl  Cl5  1  0.00000000  0.00000000  0.50000000  1
  Cl  Cl6  1  0.25000000  0.75000000  0.75000000  1
  Cl  Cl7  1  0.25000000  0.25000000  0.25000000  1
  Cl  Cl8  1  0.50000000  0.50000000  0.50000000  1
  Cl  Cl9  1  0.00000000  0.50000000  0.00000000  1
  Cl  Cl10  1  0.75000000  0.25000000  0.75000000  1
  Cl  Cl11  1  0.75000000  0.75000000  0.25000000  1
  Cl  Cl12  1  0.00000000  0.50000000  0.50000000  1
  Cl  Cl13  1  0.50000000  0.50000000  0.00000000  1
  Cl  Cl14  1  0.75000000  0.25000000  0.25000000  1
  Cl  Cl15  1  0.75000000  0.75000000  0.75000000  1
  Cl  Cl16  1  0.74517728  0.00000000  0.25000000  1
  Cl  Cl17  1  0.75482272  0.00000000  0.75000000  1
  Cl  Cl18  1  0.25000000  0.49517728  0.50000000  1
  Cl  Cl19  1  0.25000000  0.50482272  0.00000000  1
  Cl  Cl20  1  0.25482272  0.00000000  0.75000000  1
  Cl  Cl21  1  0.24517728  0.00000000  0.25000000  1
  Cl  Cl22  1  0.75000000  0.50482272  0.50000000  1
  Cl  Cl23  1  0.75000000  0.49517728  -0.00000000  1
  Cl  Cl24  1  0.24517728  0.50000000  0.75000000  1
  Cl  Cl25  1  0.25482272  0.50000000  0.25000000  1
  Cl  Cl26  1  0.75000000  0.99517728  0.00000000  1
  Cl  Cl27  1  0.75000000  0.00482272  0.50000000  1
  Cl  Cl28  1  0.75482272  0.50000000  0.25000000  1
  Cl  Cl29  1  0.74517728  0.50000000  0.75000000  1
  Cl  Cl30  1  0.25000000  0.00482272  0.00000000  1
  Cl  Cl31  1  0.25000000  0.99517728  0.50000000  1
  I  I32  1  0.00000000  0.25000000  0.73541460  1
  I  I33  1  0.00000000  0.75000000  0.98541460  1
  I  I34  1  0.50000000  0.25000000  0.26458540  1
  I  I35  1  0.50000000  0.75000000  0.01458540  1
  I  I36  1  0.00000000  0.75000000  0.26458540  1
  I  I37  1  0.00000000  0.25000000  0.01458540  1
  I  I38  1  0.50000000  0.75000000  0.73541460  1
  I  I39  1  0.50000000  0.25000000  0.98541460  1
  I  I40  1  0.50000000  0.75000000  0.23541460  1
  I  I41  1  0.50000000  0.25000000  0.48541460  1
  I  I42  1  0.00000000  0.75000000  0.76458540  1
  I  I43  1  0.00000000  0.25000000  0.51458540  1
  I  I44  1  0.50000000  0.25000000  0.76458540  1
  I  I45  1  0.50000000  0.75000000  0.51458540  1
  I  I46  1  0.00000000  0.25000000  0.23541460  1
  I  I47  1  0.00000000  0.75000000  0.48541460  1
  I  I48  1  0.37863401  0.00000000  0.25000000  1
  I  I49  1  0.12136599  0.00000000  0.75000000  1
  I  I50  1  0.25000000  0.12863401  0.50000000  1
  I  I51  1  0.25000000  0.87136599  0.00000000  1
  I  I52  1  0.62136599  0.00000000  0.75000000  1
  I  I53  1  0.87863401  0.00000000  0.25000000  1
  I  I54  1  0.75000000  0.87136599  0.50000000  1
  I  I55  1  0.75000000  0.12863401  -0.00000000  1
  I  I56  1  0.87863401  0.50000000  0.75000000  1
  I  I57  1  0.62136599  0.50000000  0.25000000  1
  I  I58  1  0.75000000  0.62863401  0.00000000  1
  I  I59  1  0.75000000  0.37136599  0.50000000  1
  I  I60  1  0.12136599  0.50000000  0.25000000  1
  I  I61  1  0.37863401  0.50000000  0.75000000  1
  I  I62  1  0.25000000  0.37136599  0.00000000  1
  I  I63  1  0.25000000  0.62863401  0.50000000  1
  Mg  Mg64  1  0.43618402  0.37833828  0.99434005  1
  Mg  Mg65  1  0.06381598  0.62166172  0.49434005  1
  Mg  Mg66  1  0.87166172  0.18618402  0.24434005  1
  Mg  Mg67  1  0.62833828  0.81381598  0.74434005  1
  Mg  Mg68  1  0.06381598  0.37833828  0.00565995  1
  Mg  Mg69  1  0.43618402  0.62166172  0.50565995  1
  Mg  Mg70  1  0.62833828  0.18618402  0.75565995  1
  Mg  Mg71  1  0.87166172  0.81381598  0.25565995  1
  Mg  Mg72  1  0.56381598  0.62166172  0.00565995  1
  Mg  Mg73  1  0.93618402  0.37833828  0.50565995  1
  Mg  Mg74  1  0.12833828  0.81381598  0.75565995  1
  Mg  Mg75  1  0.37166172  0.18618402  0.25565995  1
  Mg  Mg76  1  0.93618402  0.62166172  0.99434005  1
  Mg  Mg77  1  0.56381598  0.37833828  0.49434005  1
  Mg  Mg78  1  0.37166172  0.81381598  0.24434005  1
  Mg  Mg79  1  0.12833828  0.18618402  0.74434005  1
  Mg  Mg80  1  0.93618402  0.87833828  0.49434005  1
  Mg  Mg81  1  0.56381598  0.12166172  0.99434005  1
  Mg  Mg82  1  0.37166172  0.68618402  0.74434005  1
  Mg  Mg83  1  0.12833828  0.31381598  0.24434005  1
  Mg  Mg84  1  0.56381598  0.87833828  0.50565995  1
  Mg  Mg85  1  0.93618402  0.12166172  0.00565995  1
  Mg  Mg86  1  0.12833828  0.68618402  0.25565995  1
  Mg  Mg87  1  0.37166172  0.31381598  0.75565995  1
  Mg  Mg88  1  0.06381598  0.12166172  0.50565995  1
  Mg  Mg89  1  0.43618402  0.87833828  0.00565995  1
  Mg  Mg90  1  0.62833828  0.31381598  0.25565995  1
  Mg  Mg91  1  0.87166172  0.68618402  0.75565995  1
  Mg  Mg92  1  0.43618402  0.12166172  0.49434005  1
  Mg  Mg93  1  0.06381598  0.87833828  0.99434005  1
  Mg  Mg94  1  0.87166172  0.31381598  0.74434005  1
  Mg  Mg95  1  0.62833828  0.68618402  0.24434005  1
  Mg  Mg96  1  0.27882159  0.81551478  0.04765182  1
  Mg  Mg97  1  0.22117841  0.18448522  0.54765182  1
  Mg  Mg98  1  0.43448522  0.02882159  0.29765182  1
  Mg  Mg99  1  0.06551478  0.97117841  0.79765182  1
  Mg  Mg100  1  0.22117841  0.81551478  0.95234818  1
  Mg  Mg101  1  0.27882159  0.18448522  0.45234818  1
  Mg  Mg102  1  0.06551478  0.02882159  0.70234818  1
  Mg  Mg103  1  0.43448522  0.97117841  0.20234818  1
  Mg  Mg104  1  0.72117841  0.18448522  0.95234818  1
  Mg  Mg105  1  0.77882159  0.81551478  0.45234818  1
  Mg  Mg106  1  0.56551478  0.97117841  0.70234818  1
  Mg  Mg107  1  0.93448522  0.02882159  0.20234818  1
  Mg  Mg108  1  0.77882159  0.18448522  0.04765182  1
  Mg  Mg109  1  0.72117841  0.81551478  0.54765182  1
  Mg  Mg110  1  0.93448522  0.97117841  0.29765182  1
  Mg  Mg111  1  0.56551478  0.02882159  0.79765182  1
  Mg  Mg112  1  0.77882159  0.31551478  0.54765182  1
  Mg  Mg113  1  0.72117841  0.68448522  0.04765182  1
  Mg  Mg114  1  0.93448522  0.52882159  0.79765182  1
  Mg  Mg115  1  0.56551478  0.47117841  0.29765182  1
  Mg  Mg116  1  0.72117841  0.31551478  0.45234818  1
  Mg  Mg117  1  0.77882159  0.68448522  0.95234818  1
  Mg  Mg118  1  0.56551478  0.52882159  0.20234818  1
  Mg  Mg119  1  0.93448522  0.47117841  0.70234818  1
  Mg  Mg120  1  0.22117841  0.68448522  0.45234818  1
  Mg  Mg121  1  0.27882159  0.31551478  0.95234818  1
  Mg  Mg122  1  0.06551478  0.47117841  0.20234818  1
  Mg  Mg123  1  0.43448522  0.52882159  0.70234818  1
  Mg  Mg124  1  0.27882159  0.68448522  0.54765182  1
  Mg  Mg125  1  0.22117841  0.31551478  0.04765182  1
  Mg  Mg126  1  0.43448522  0.47117841  0.79765182  1
  Mg  Mg127  1  0.06551478  0.52882159  0.29765182  1
  Mg  Mg128  1  0.41968515  0.38278133  0.70863144  1
  Mg  Mg129  1  0.08031485  0.61721867  0.20863144  1
  Mg  Mg130  1  0.86721867  0.16968515  0.95863144  1
  Mg  Mg131  1  0.63278133  0.83031485  0.45863144  1
  Mg  Mg132  1  0.08031485  0.38278133  0.29136856  1
  Mg  Mg133  1  0.41968515  0.61721867  0.79136856  1
  Mg  Mg134  1  0.63278133  0.16968515  0.04136856  1
  Mg  Mg135  1  0.86721867  0.83031485  0.54136856  1
  Mg  Mg136  1  0.58031485  0.61721867  0.29136856  1
  Mg  Mg137  1  0.91968515  0.38278133  0.79136856  1
  Mg  Mg138  1  0.13278133  0.83031485  0.04136856  1
  Mg  Mg139  1  0.36721867  0.16968515  0.54136856  1
  Mg  Mg140  1  0.91968515  0.61721867  0.70863144  1
  Mg  Mg141  1  0.58031485  0.38278133  0.20863144  1
  Mg  Mg142  1  0.36721867  0.83031485  0.95863144  1
  Mg  Mg143  1  0.13278133  0.16968515  0.45863144  1
  Mg  Mg144  1  0.91968515  0.88278133  0.20863144  1
  Mg  Mg145  1  0.58031485  0.11721867  0.70863144  1
  Mg  Mg146  1  0.36721867  0.66968515  0.45863144  1
  Mg  Mg147  1  0.13278133  0.33031485  0.95863144  1
  Mg  Mg148  1  0.58031485  0.88278133  0.79136856  1
  Mg  Mg149  1  0.91968515  0.11721867  0.29136856  1
  Mg  Mg150  1  0.13278133  0.66968515  0.54136856  1
  Mg  Mg151  1  0.36721867  0.33031485  0.04136856  1
  Mg  Mg152  1  0.08031485  0.11721867  0.79136856  1
  Mg  Mg153  1  0.41968515  0.88278133  0.29136856  1
  Mg  Mg154  1  0.63278133  0.33031485  0.54136856  1
  Mg  Mg155  1  0.86721867  0.66968515  0.04136856  1
  Mg  Mg156  1  0.41968515  0.11721867  0.20863144  1
  Mg  Mg157  1  0.08031485  0.88278133  0.70863144  1
  Mg  Mg158  1  0.86721867  0.33031485  0.45863144  1
  Mg  Mg159  1  0.63278133  0.66968515  0.95863144  1
  Mg  Mg160  1  0.37314663  0.52020714  0.02401121  1
  Mg  Mg161  1  0.12685337  0.47979286  0.52401121  1
  Mg  Mg162  1  0.72979286  0.12314663  0.27401121  1
  Mg  Mg163  1  0.77020714  0.87685337  0.77401121  1
  Mg  Mg164  1  0.12685337  0.52020714  0.97598879  1
  Mg  Mg165  1  0.37314663  0.47979286  0.47598879  1
  Mg  Mg166  1  0.77020714  0.12314663  0.72598879  1
  Mg  Mg167  1  0.72979286  0.87685337  0.22598879  1
  Mg  Mg168  1  0.62685337  0.47979286  0.97598879  1
  Mg  Mg169  1  0.87314663  0.52020714  0.47598879  1
  Mg  Mg170  1  0.27020714  0.87685337  0.72598879  1
  Mg  Mg171  1  0.22979286  0.12314663  0.22598879  1
  Mg  Mg172  1  0.87314663  0.47979286  0.02401121  1
  Mg  Mg173  1  0.62685337  0.52020714  0.52401121  1
  Mg  Mg174  1  0.22979286  0.87685337  0.27401121  1
  Mg  Mg175  1  0.27020714  0.12314663  0.77401121  1
  Mg  Mg176  1  0.87314663  0.02020714  0.52401121  1
  Mg  Mg177  1  0.62685337  0.97979286  0.02401121  1
  Mg  Mg178  1  0.22979286  0.62314663  0.77401121  1
  Mg  Mg179  1  0.27020714  0.37685337  0.27401121  1
  Mg  Mg180  1  0.62685337  0.02020714  0.47598879  1
  Mg  Mg181  1  0.87314663  0.97979286  0.97598879  1
  Mg  Mg182  1  0.27020714  0.62314663  0.22598879  1
  Mg  Mg183  1  0.22979286  0.37685337  0.72598879  1
  Mg  Mg184  1  0.12685337  0.97979286  0.47598879  1
  Mg  Mg185  1  0.37314663  0.02020714  0.97598879  1
  Mg  Mg186  1  0.77020714  0.37685337  0.22598879  1
  Mg  Mg187  1  0.72979286  0.62314663  0.72598879  1
  Mg  Mg188  1  0.37314663  0.97979286  0.52401121  1
  Mg  Mg189  1  0.12685337  0.02020714  0.02401121  1
  Mg  Mg190  1  0.72979286  0.37685337  0.77401121  1
  Mg  Mg191  1  0.77020714  0.62314663  0.27401121  1
  Se  Se192  1  0.39551539  0.81255032  0.55640088  1
  Se  Se193  1  0.10448461  -0.81255032  1.05640088  1
  Se  Se194  1  -0.56255032  1.14551539  0.80640088  1
  Se  Se195  1  1.06255032  -0.14551539  1.30640088  1
  Se  Se196  1  0.10448461  0.81255032  -0.55640088  1
  Se  Se197  1  0.39551539  -0.81255032  -0.05640088  1
  Se  Se198  1  1.06255032  1.14551539  0.19359912  1
  Se  Se199  1  -0.56255032  -0.14551539  -0.30640088  1
  Se  Se200  1  -0.39551539  -0.81255032  -0.55640088  1
  Se  Se201  1  0.89551539  0.81255032  -0.05640088  1
  Se  Se202  1  1.56255032  -0.14551539  0.19359912  1
  Se  Se203  1  -0.06255032  1.14551539  -0.30640088  1
  Se  Se204  1  0.89551539  -0.81255032  0.55640088  1
  Se  Se205  1  -0.39551539  0.81255032  1.05640088  1
  Se  Se206  1  -0.06255032  -0.14551539  0.80640088  1
  Se  Se207  1  1.56255032  1.14551539  1.30640088  1
  Se  Se208  1  0.89551539  1.31255032  1.05640088  1
  Se  Se209  1  0.60448461  -0.31255032  1.55640088  1
  Se  Se210  1  -0.06255032  1.64551539  1.30640088  1
  Se  Se211  1  1.56255032  0.35448461  1.80640088  1
  Se  Se212  1  0.60448461  1.31255032  -0.05640088  1
  Se  Se213  1  0.89551539  -0.31255032  0.44359912  1
  Se  Se214  1  1.56255032  1.64551539  0.69359912  1
  Se  Se215  1  -0.06255032  0.35448461  0.19359912  1
  Se  Se216  1  0.10448461  -0.31255032  -0.05640088  1
  Se  Se217  1  1.39551539  1.31255032  0.44359912  1
  Se  Se218  1  2.06255032  0.35448461  0.69359912  1
  Se  Se219  1  0.43744968  1.64551539  0.19359912  1
  Se  Se220  1  1.39551539  -0.31255032  1.05640088  1
  Se  Se221  1  0.10448461  1.31255032  1.55640088  1
  Se  Se222  1  0.43744968  0.35448461  1.30640088  1
  Se  Se223  1  2.06255032  1.64551539  1.80640088  1
  Se  Se224  1  0.52294465  0.55824159  0.88022978  1
  Se  Se225  1  0.97705535  0.44175841  0.38022978  1
  Se  Se226  1  0.69175841  0.27294465  0.13022978  1
  Se  Se227  1  0.80824159  0.72705535  0.63022978  1
  Se  Se228  1  0.97705535  0.55824159  0.11977022  1
  Se  Se229  1  0.52294465  0.44175841  0.61977022  1
  Se  Se230  1  0.80824159  0.27294465  0.86977022  1
  Se  Se231  1  0.69175841  0.72705535  0.36977022  1
  Se  Se232  1  0.47705535  0.44175841  0.11977022  1
  Se  Se233  1  0.02294465  0.55824159  0.61977022  1
  Se  Se234  1  0.30824159  0.72705535  0.86977022  1
  Se  Se235  1  0.19175841  0.27294465  0.36977022  1
  Se  Se236  1  0.02294465  0.44175841  0.88022978  1
  Se  Se237  1  0.47705535  0.55824159  0.38022978  1
  Se  Se238  1  0.19175841  0.72705535  0.13022978  1
  Se  Se239  1  0.30824159  0.27294465  0.63022978  1
  Se  Se240  1  0.02294465  0.05824159  0.38022978  1
  Se  Se241  1  0.47705535  0.94175841  0.88022978  1
  Se  Se242  1  0.19175841  0.77294465  0.63022978  1
  Se  Se243  1  0.30824159  0.22705535  0.13022978  1
  Se  Se244  1  0.47705535  0.05824159  0.61977022  1
  Se  Se245  1  0.02294465  0.94175841  0.11977022  1
  Se  Se246  1  0.30824159  0.77294465  0.36977022  1
  Se  Se247  1  0.19175841  0.22705535  0.86977022  1
  Se  Se248  1  0.97705535  0.94175841  0.61977022  1
  Se  Se249  1  0.52294465  0.05824159  0.11977022  1
  Se  Se250  1  0.80824159  0.22705535  0.36977022  1
  Se  Se251  1  0.69175841  0.77294465  0.86977022  1
  Se  Se252  1  0.52294465  0.94175841  0.38022978  1
  Se  Se253  1  0.97705535  0.05824159  0.88022978  1
  Se  Se254  1  0.69175841  0.22705535  0.63022978  1
  Se  Se255  1  0.80824159  0.77294465  0.13022978  1
  Te  Te256  1  0.00000000  0.25000000  0.12500000  1
  Te  Te257  1  0.00000000  0.75000000  0.37500000  1
  Te  Te258  1  0.00000000  0.75000000  0.87500000  1
  Te  Te259  1  0.00000000  0.25000000  0.62500000  1
  Te  Te260  1  0.50000000  0.75000000  0.62500000  1
  Te  Te261  1  0.50000000  0.25000000  0.87500000  1
  Te  Te262  1  0.50000000  0.25000000  0.37500000  1
  Te  Te263  1  0.50000000  0.75000000  0.12500000  1
  Te  Te264  1  0.61797290  0.00000000  0.25000000  1
  Te  Te265  1  0.88202710  -0.00000000  0.75000000  1
  Te  Te266  1  0.25000000  0.36797290  0.50000000  1
  Te  Te267  1  0.25000000  0.63202710  0.00000000  1
  Te  Te268  1  0.38202710  -0.00000000  0.75000000  1
  Te  Te269  1  0.11797290  0.00000000  0.25000000  1
  Te  Te270  1  0.75000000  0.63202710  0.50000000  1
  Te  Te271  1  0.75000000  0.36797290  0.00000000  1
  Te  Te272  1  0.11797290  0.50000000  0.75000000  1
  Te  Te273  1  0.38202710  0.50000000  0.25000000  1
  Te  Te274  1  0.75000000  0.86797290  0.00000000  1
  Te  Te275  1  0.75000000  0.13202710  0.50000000  1
  Te  Te276  1  0.88202710  0.50000000  0.25000000  1
  Te  Te277  1  0.61797290  0.50000000  0.75000000  1
  Te  Te278  1  0.25000000  0.13202710  0.00000000  1
  Te  Te279  1  0.25000000  0.86797290  0.50000000  1
  Te  Te280  1  0.00000000  0.25000000  0.37500000  1
  Te  Te281  1  0.00000000  0.75000000  0.62500000  1
  Te  Te282  1  0.50000000  0.25000000  0.62500000  1
  Te  Te283  1  0.50000000  0.75000000  0.37500000  1
  Te  Te284  1  0.50000000  0.75000000  0.87500000  1
  Te  Te285  1  0.50000000  0.25000000  0.12500000  1
  Te  Te286  1  0.00000000  0.75000000  0.12500000  1
  Te  Te287  1  0.00000000  0.25000000  0.87500000  1
