# generated using pymatgen
data_Li2BI4Br
_symmetry_space_group_name_H-M   'P 1'
_cell_length_a   14.50851953
_cell_length_b   14.50851953
_cell_length_c   12.78189752
_cell_angle_alpha   90.00000000
_cell_angle_beta   90.00000000
_cell_angle_gamma   120.00000000
_symmetry_Int_Tables_number   1
_chemical_formula_structural   Li2BI4Br
_chemical_formula_sum   'Li24 B12 I48 Br12'
_cell_volume   2330.08712441
_cell_formula_units_Z   12
loop_
 _symmetry_equiv_pos_site_id
 _symmetry_equiv_pos_as_xyz
  1  'x, y, z'
loop_
 _atom_site_type_symbol
 _atom_site_label
 _atom_site_symmetry_multiplicity
 _atom_site_fract_x
 _atom_site_fract_y
 _atom_site_fract_z
 _atom_site_occupancy
  B  B0  1  0.33333333  0.66666667  0.75000000  1
  B  B1  1  0.66666667  0.33333333  0.25000000  1
  B  B2  1  0.33333333  0.66666667  0.43725825  1
  B  B3  1  0.66666667  0.33333333  0.93725825  1
  B  B4  1  0.66666667  0.33333333  0.56274175  1
  B  B5  1  0.33333333  0.66666667  0.06274175  1
  B  B6  1  0.50000000  -0.00000000  0.00000000  1
  B  B7  1  0.00000000  0.50000000  -0.00000000  1
  B  B8  1  0.50000000  0.50000000  0.00000000  1
  B  B9  1  0.50000000  -0.00000000  0.50000000  1
  B  B10  1  0.00000000  0.50000000  0.50000000  1
  B  B11  1  0.50000000  0.50000000  0.50000000  1
  Br  Br12  1  0.42113251  0.84226501  0.17078990  1
  Br  Br13  1  0.15773499  0.57886749  0.17078990  1
  Br  Br14  1  0.42113251  0.57886749  0.17078990  1
  Br  Br15  1  0.57886749  0.15773499  0.67078990  1
  Br  Br16  1  0.84226501  0.42113251  0.67078990  1
  Br  Br17  1  0.57886749  0.42113251  0.67078990  1
  Br  Br18  1  0.84226501  0.42113251  0.82921010  1
  Br  Br19  1  0.57886749  0.15773499  0.82921010  1
  Br  Br20  1  0.57886749  0.42113251  0.82921010  1
  Br  Br21  1  0.15773499  0.57886749  0.32921010  1
  Br  Br22  1  0.42113251  0.84226501  0.32921010  1
  Br  Br23  1  0.42113251  0.57886749  0.32921010  1
  I  I24  1  0.09210951  0.66763168  0.97709429  1
  I  I25  1  -0.66763168  -0.57552217  0.97709429  1
  I  I26  1  0.57552217  -0.09210951  0.97709429  1
  I  I27  1  -0.09210951  -0.66763168  1.47709429  1
  I  I28  1  0.66763168  0.57552217  1.47709429  1
  I  I29  1  -0.57552217  0.09210951  1.47709429  1
  I  I30  1  0.66763168  0.09210951  -0.97709429  1
  I  I31  1  -0.57552217  -0.66763168  -0.97709429  1
  I  I32  1  -0.09210951  0.57552217  -0.97709429  1
  I  I33  1  -0.66763168  -0.09210951  -0.47709429  1
  I  I34  1  0.57552217  0.66763168  -0.47709429  1
  I  I35  1  0.09210951  -0.57552217  -0.47709429  1
  I  I36  1  -0.09210951  -0.66763168  -0.97709429  1
  I  I37  1  0.66763168  0.57552217  -0.97709429  1
  I  I38  1  -0.57552217  0.09210951  -0.97709429  1
  I  I39  1  0.09210951  0.66763168  -0.47709429  1
  I  I40  1  -0.66763168  -0.57552217  -0.47709429  1
  I  I41  1  0.57552217  -0.09210951  -0.47709429  1
  I  I42  1  -0.66763168  -0.09210951  0.97709429  1
  I  I43  1  0.57552217  0.66763168  0.97709429  1
  I  I44  1  0.09210951  -0.57552217  0.97709429  1
  I  I45  1  0.66763168  0.09210951  1.47709429  1
  I  I46  1  -0.57552217  -0.66763168  1.47709429  1
  I  I47  1  -0.09210951  0.57552217  1.47709429  1
  I  I48  1  0.00000000  0.00000000  0.00000000  1
  I  I49  1  0.00000000  0.00000000  0.50000000  1
  I  I50  1  0.33333333  0.66666667  0.89417369  1
  I  I51  1  0.66666667  0.33333333  0.39417369  1
  I  I52  1  0.66666667  0.33333333  0.10582631  1
  I  I53  1  0.33333333  0.66666667  0.60582631  1
  I  I54  1  0.70246354  0.40492708  0.86641876  1
  I  I55  1  0.59507292  0.29753646  0.86641876  1
  I  I56  1  0.70246354  0.29753646  0.86641876  1
  I  I57  1  0.29753646  0.59507292  0.36641876  1
  I  I58  1  0.40492708  0.70246354  0.36641876  1
  I  I59  1  0.29753646  0.70246354  0.36641876  1
  I  I60  1  0.40492708  0.70246354  0.13358124  1
  I  I61  1  0.29753646  0.59507292  0.13358124  1
  I  I62  1  0.29753646  0.70246354  0.13358124  1
  I  I63  1  0.59507292  0.29753646  0.63358124  1
  I  I64  1  0.70246354  0.40492708  0.63358124  1
  I  I65  1  0.70246354  0.29753646  0.63358124  1
  I  I66  1  0.58762990  0.17525979  0.25000000  1
  I  I67  1  0.82474021  0.41237010  0.25000000  1
  I  I68  1  0.58762990  0.41237010  0.25000000  1
  I  I69  1  0.41237010  0.82474021  0.75000000  1
  I  I70  1  0.17525979  0.58762990  0.75000000  1
  I  I71  1  0.41237010  0.58762990  0.75000000  1
  Li  Li72  1  0.04111121  0.08222242  0.25000000  1
  Li  Li73  1  0.91777758  0.95888879  0.25000000  1
  Li  Li74  1  0.04111121  0.95888879  0.25000000  1
  Li  Li75  1  0.95888879  0.91777758  0.75000000  1
  Li  Li76  1  0.08222242  0.04111121  0.75000000  1
  Li  Li77  1  0.95888879  0.04111121  0.75000000  1
  Li  Li78  1  0.57541693  -0.00000000  0.00000000  1
  Li  Li79  1  0.00000000  0.57541693  -0.00000000  1
  Li  Li80  1  0.42458307  0.42458307  0.00000000  1
  Li  Li81  1  0.42458307  -0.00000000  0.50000000  1
  Li  Li82  1  0.00000000  0.42458307  0.50000000  1
  Li  Li83  1  0.57541693  0.57541693  0.50000000  1
  Li  Li84  1  0.42458307  -0.00000000  0.00000000  1
  Li  Li85  1  0.00000000  0.42458307  -0.00000000  1
  Li  Li86  1  0.57541693  0.57541693  0.00000000  1
  Li  Li87  1  0.57541693  -0.00000000  0.50000000  1
  Li  Li88  1  0.00000000  0.57541693  0.50000000  1
  Li  Li89  1  0.42458307  0.42458307  0.50000000  1
  Li  Li90  1  0.33333333  0.66666667  0.25000000  1
  Li  Li91  1  0.66666667  0.33333333  0.75000000  1
  Li  Li92  1  0.00000000  0.00000000  0.61824849  1
  Li  Li93  1  0.00000000  0.00000000  0.11824849  1
  Li  Li94  1  0.00000000  0.00000000  0.38175151  1
  Li  Li95  1  0.00000000  0.00000000  0.88175151  1
