# generated using pymatgen
data_Na3LiS2
_symmetry_space_group_name_H-M   'P 1'
_cell_length_a   16.19882267
_cell_length_b   19.56469286
_cell_length_c   9.90262069
_cell_angle_alpha   90.00000000
_cell_angle_beta   90.00000000
_cell_angle_gamma   90.00000000
_symmetry_Int_Tables_number   1
_chemical_formula_structural   Na3LiS2
_chemical_formula_sum   'Na48 Li16 S32'
_cell_volume   3138.38796626
_cell_formula_units_Z   16
loop_
 _symmetry_equiv_pos_site_id
 _symmetry_equiv_pos_as_xyz
  1  'x, y, z'
loop_
 _atom_site_type_symbol
 _atom_site_label
 _atom_site_symmetry_multiplicity
 _atom_site_fract_x
 _atom_site_fract_y
 _atom_site_fract_z
 _atom_site_occupancy
  Li  Li0  1  0.12500000  0.12500000  0.62500000  1
  Li  Li1  1  0.87500000  0.87500000  0.37500000  1
  Li  Li2  1  0.12500000  0.62500000  0.12500000  1
  Li  Li3  1  0.87500000  0.37500000  0.87500000  1
  Li  Li4  1  0.62500000  0.12500000  0.12500000  1
  Li  Li5  1  0.37500000  0.87500000  0.87500000  1
  Li  Li6  1  0.62500000  0.62500000  0.62500000  1
  Li  Li7  1  0.37500000  0.37500000  0.37500000  1
  Li  Li8  1  0.12500000  0.12500000  0.12500000  1
  Li  Li9  1  0.87500000  0.87500000  0.87500000  1
  Li  Li10  1  0.12500000  0.62500000  0.62500000  1
  Li  Li11  1  0.87500000  0.37500000  0.37500000  1
  Li  Li12  1  0.62500000  0.12500000  0.62500000  1
  Li  Li13  1  0.37500000  0.87500000  0.37500000  1
  Li  Li14  1  0.62500000  0.62500000  0.12500000  1
  Li  Li15  1  0.37500000  0.37500000  0.87500000  1
  Na  Na16  1  0.43112486  0.53969393  0.24707208  1
  Na  Na17  1  0.31887514  0.21030607  0.24707208  1
  Na  Na18  1  0.31887514  0.53969393  0.50292792  1
  Na  Na19  1  0.43112486  0.21030607  0.50292792  1
  Na  Na20  1  0.56887514  0.46030607  0.75292792  1
  Na  Na21  1  0.68112486  0.78969393  0.75292792  1
  Na  Na22  1  0.68112486  0.46030607  0.49707208  1
  Na  Na23  1  0.56887514  0.78969393  0.49707208  1
  Na  Na24  1  0.43112486  0.03969393  0.74707208  1
  Na  Na25  1  0.31887514  0.71030607  0.74707208  1
  Na  Na26  1  0.31887514  0.03969393  0.00292792  1
  Na  Na27  1  0.43112486  0.71030607  0.00292792  1
  Na  Na28  1  0.56887514  0.96030607  0.25292792  1
  Na  Na29  1  0.68112486  0.28969393  0.25292792  1
  Na  Na30  1  0.68112486  0.96030607  0.99707208  1
  Na  Na31  1  0.56887514  0.28969393  0.99707208  1
  Na  Na32  1  0.93112486  0.53969393  0.74707208  1
  Na  Na33  1  0.81887514  0.21030607  0.74707208  1
  Na  Na34  1  0.81887514  0.53969393  0.00292792  1
  Na  Na35  1  0.93112486  0.21030607  0.00292792  1
  Na  Na36  1  0.06887514  0.46030607  0.25292792  1
  Na  Na37  1  0.18112486  0.78969393  0.25292792  1
  Na  Na38  1  0.18112486  0.46030607  0.99707208  1
  Na  Na39  1  0.06887514  0.78969393  0.99707208  1
  Na  Na40  1  0.93112486  0.03969393  0.24707208  1
  Na  Na41  1  0.81887514  0.71030607  0.24707208  1
  Na  Na42  1  0.81887514  0.03969393  0.50292792  1
  Na  Na43  1  0.93112486  0.71030607  0.50292792  1
  Na  Na44  1  0.06887514  0.96030607  0.75292792  1
  Na  Na45  1  0.18112486  0.28969393  0.75292792  1
  Na  Na46  1  0.18112486  0.96030607  0.49707208  1
  Na  Na47  1  0.06887514  0.28969393  0.49707208  1
  Na  Na48  1  0.50000000  0.50000000  0.50000000  1
  Na  Na49  1  0.25000000  0.25000000  0.50000000  1
  Na  Na50  1  0.25000000  0.50000000  0.25000000  1
  Na  Na51  1  0.50000000  0.25000000  0.25000000  1
  Na  Na52  1  0.50000000  0.00000000  0.00000000  1
  Na  Na53  1  0.25000000  0.75000000  0.00000000  1
  Na  Na54  1  0.25000000  0.00000000  0.75000000  1
  Na  Na55  1  0.50000000  0.75000000  0.75000000  1
  Na  Na56  1  0.00000000  0.50000000  0.00000000  1
  Na  Na57  1  0.75000000  0.25000000  -0.00000000  1
  Na  Na58  1  0.75000000  0.50000000  0.75000000  1
  Na  Na59  1  0.00000000  0.25000000  0.75000000  1
  Na  Na60  1  0.00000000  0.00000000  0.50000000  1
  Na  Na61  1  0.75000000  0.75000000  0.50000000  1
  Na  Na62  1  0.75000000  -0.00000000  0.25000000  1
  Na  Na63  1  0.00000000  0.75000000  0.25000000  1
  S  S64  1  0.70849844  0.33887547  0.38310957  1
  S  S65  1  0.04150156  0.41112453  0.38310957  1
  S  S66  1  0.04150156  0.33887547  0.36689043  1
  S  S67  1  0.70849844  0.41112453  0.36689043  1
  S  S68  1  -0.70849844  -0.33887547  -0.38310957  1
  S  S69  1  0.95849844  0.58887547  -0.38310957  1
  S  S70  1  0.95849844  -0.33887547  0.63310957  1
  S  S71  1  -0.70849844  0.58887547  0.63310957  1
  S  S72  1  0.70849844  0.83887547  0.88310957  1
  S  S73  1  0.04150156  0.91112453  0.88310957  1
  S  S74  1  0.04150156  0.83887547  0.86689043  1
  S  S75  1  0.70849844  0.91112453  0.86689043  1
  S  S76  1  -0.70849844  0.16112453  0.11689043  1
  S  S77  1  0.95849844  1.08887547  0.11689043  1
  S  S78  1  0.95849844  0.16112453  1.13310957  1
  S  S79  1  -0.70849844  1.08887547  1.13310957  1
  S  S80  1  1.20849844  0.33887547  0.88310957  1
  S  S81  1  0.54150156  0.41112453  0.88310957  1
  S  S82  1  0.54150156  0.33887547  0.86689043  1
  S  S83  1  1.20849844  0.41112453  0.86689043  1
  S  S84  1  -0.20849844  -0.33887547  0.11689043  1
  S  S85  1  1.45849844  0.58887547  0.11689043  1
  S  S86  1  1.45849844  -0.33887547  1.13310957  1
  S  S87  1  -0.20849844  0.58887547  1.13310957  1
  S  S88  1  1.20849844  0.83887547  0.38310957  1
  S  S89  1  0.54150156  0.91112453  0.38310957  1
  S  S90  1  0.54150156  0.83887547  0.36689043  1
  S  S91  1  1.20849844  0.91112453  0.36689043  1
  S  S92  1  -0.20849844  0.16112453  -0.38310957  1
  S  S93  1  1.45849844  1.08887547  -0.38310957  1
  S  S94  1  1.45849844  0.16112453  0.63310957  1
  S  S95  1  -0.20849844  1.08887547  0.63310957  1
