# generated using pymatgen
data_Li3AlSe3
_symmetry_space_group_name_H-M   'P 1'
_cell_length_a   8.17524579
_cell_length_b   8.17524579
_cell_length_c   2.61259192
_cell_angle_alpha   90.00000000
_cell_angle_beta   90.00000000
_cell_angle_gamma   120.00000000
_symmetry_Int_Tables_number   1
_chemical_formula_structural   Li3AlSe3
_chemical_formula_sum   'Li3 Al1 Se3'
_cell_volume   151.21812514
_cell_formula_units_Z   1
loop_
 _symmetry_equiv_pos_site_id
 _symmetry_equiv_pos_as_xyz
  1  'x, y, z'
loop_
 _atom_site_type_symbol
 _atom_site_label
 _atom_site_symmetry_multiplicity
 _atom_site_fract_x
 _atom_site_fract_y
 _atom_site_fract_z
 _atom_site_occupancy
  Al  Al0  1  0.66666667  0.33333333  0.50000000  1
  Li  Li1  1  0.00000000  0.00000000  0.00000000  1
  Li  Li2  1  0.33333333  0.66666667  0.50000000  1
  Li  Li3  1  0.66666667  0.33333333  -0.00000000  1
  Se  Se4  1  0.20388707  -0.20388707  0.00000000  1
  Se  Se5  1  0.20388707  0.40777413  0.00000000  1
  Se  Se6  1  -0.40777413  -0.20388707  0.00000000  1
