# generated using pymatgen
data_LiCl
_symmetry_space_group_name_H-M   'P 1'
_cell_length_a   7.29711280
_cell_length_b   7.29711280
_cell_length_c   11.83836634
_cell_angle_alpha   90.00000000
_cell_angle_beta   90.00000000
_cell_angle_gamma   120.00000000
_symmetry_Int_Tables_number   1
_chemical_formula_structural   LiCl
_chemical_formula_sum   'Li12 Cl12'
_cell_volume   545.91436966
_cell_formula_units_Z   12
loop_
 _symmetry_equiv_pos_site_id
 _symmetry_equiv_pos_as_xyz
  1  'x, y, z'
loop_
 _atom_site_type_symbol
 _atom_site_label
 _atom_site_symmetry_multiplicity
 _atom_site_fract_x
 _atom_site_fract_y
 _atom_site_fract_z
 _atom_site_occupancy
  Cl  Cl0  1  0.00000000  0.00000000  0.42449264  1
  Cl  Cl1  1  0.00000000  0.00000000  0.07550736  1
  Cl  Cl2  1  0.00000000  0.00000000  -0.42449264  1
  Cl  Cl3  1  0.00000000  0.00000000  0.92449264  1
  Cl  Cl4  1  0.66666667  0.33333333  0.75782597  1
  Cl  Cl5  1  0.66666667  0.33333333  0.40884070  1
  Cl  Cl6  1  0.66666667  0.33333333  -0.09115930  1
  Cl  Cl7  1  0.66666667  0.33333333  1.25782597  1
  Cl  Cl8  1  0.33333333  0.66666667  1.09115930  1
  Cl  Cl9  1  0.33333333  0.66666667  0.74217403  1
  Cl  Cl10  1  0.33333333  0.66666667  0.24217403  1
  Cl  Cl11  1  0.33333333  0.66666667  1.59115930  1
  Li  Li12  1  0.00000000  0.00000000  0.31345628  1
  Li  Li13  1  0.00000000  0.00000000  0.18654372  1
  Li  Li14  1  0.00000000  0.00000000  0.68654372  1
  Li  Li15  1  0.00000000  0.00000000  0.81345628  1
  Li  Li16  1  0.66666667  0.33333333  0.64678962  1
  Li  Li17  1  0.66666667  0.33333333  0.51987705  1
  Li  Li18  1  0.66666667  0.33333333  0.01987705  1
  Li  Li19  1  0.66666667  0.33333333  0.14678962  1
  Li  Li20  1  0.33333333  0.66666667  0.98012295  1
  Li  Li21  1  0.33333333  0.66666667  0.85321038  1
  Li  Li22  1  0.33333333  0.66666667  0.35321038  1
  Li  Li23  1  0.33333333  0.66666667  0.48012295  1
