# generated using pymatgen
data_LiBS2
_symmetry_space_group_name_H-M   'P 1'
_cell_length_a   5.15613933
_cell_length_b   7.35232677
_cell_length_c   7.56220611
_cell_angle_alpha   90.00000000
_cell_angle_beta   90.00000000
_cell_angle_gamma   90.00000000
_symmetry_Int_Tables_number   1
_chemical_formula_structural   LiBS2
_chemical_formula_sum   'Li4 B4 S8'
_cell_volume   286.68036935
_cell_formula_units_Z   4
loop_
 _symmetry_equiv_pos_site_id
 _symmetry_equiv_pos_as_xyz
  1  'x, y, z'
loop_
 _atom_site_type_symbol
 _atom_site_label
 _atom_site_symmetry_multiplicity
 _atom_site_fract_x
 _atom_site_fract_y
 _atom_site_fract_z
 _atom_site_occupancy
  B  B0  1  0.84515288  0.76777540  0.50000000  1
  B  B1  1  0.15484712  0.23222460  0.50000000  1
  B  B2  1  0.65484712  0.26777540  0.50000000  1
  B  B3  1  0.34515288  0.73222460  0.50000000  1
  Li  Li4  1  0.00000000  0.50000000  0.50000000  1
  Li  Li5  1  0.50000000  0.00000000  0.50000000  1
  Li  Li6  1  0.00000000  0.50000000  0.00000000  1
  Li  Li7  1  0.50000000  0.00000000  0.00000000  1
  S  S8  1  0.32396213  0.55650085  0.25396468  1
  S  S9  1  -0.32396213  -0.55650085  0.25396468  1
  S  S10  1  0.17603787  1.05650085  -0.25396468  1
  S  S11  1  0.82396213  -0.05650085  -0.25396468  1
  S  S12  1  -0.32396213  -0.55650085  -0.25396468  1
  S  S13  1  0.32396213  0.55650085  -0.25396468  1
  S  S14  1  0.82396213  -0.05650085  0.25396468  1
  S  S15  1  0.17603787  1.05650085  0.25396468  1
