# generated using pymatgen
data_K3Li2Sb3(Se3Cl)2
_symmetry_space_group_name_H-M   'P 1'
_cell_length_a   11.78128677
_cell_length_b   15.77772810
_cell_length_c   10.69754606
_cell_angle_alpha   90.00000000
_cell_angle_beta   90.00000000
_cell_angle_gamma   90.00000000
_symmetry_Int_Tables_number   1
_chemical_formula_structural   K3Li2Sb3(Se3Cl)2
_chemical_formula_sum   'K12 Li8 Sb12 Se24 Cl8'
_cell_volume   1988.48060790
_cell_formula_units_Z   4
loop_
 _symmetry_equiv_pos_site_id
 _symmetry_equiv_pos_as_xyz
  1  'x, y, z'
loop_
 _atom_site_type_symbol
 _atom_site_label
 _atom_site_symmetry_multiplicity
 _atom_site_fract_x
 _atom_site_fract_y
 _atom_site_fract_z
 _atom_site_occupancy
  Cl  Cl0  1  0.91553171  0.25000000  0.83312642  1
  Cl  Cl1  1  0.58446829  0.75000000  0.33312642  1
  Cl  Cl2  1  0.08446829  0.75000000  0.16687358  1
  Cl  Cl3  1  0.41553171  0.25000000  0.66687358  1
  Cl  Cl4  1  0.94143821  0.25000000  0.18856588  1
  Cl  Cl5  1  0.55856179  0.75000000  0.68856588  1
  Cl  Cl6  1  0.05856179  0.75000000  0.81143412  1
  Cl  Cl7  1  0.44143821  0.25000000  0.31143412  1
  K  K8  1  0.00000000  0.00000000  0.50000000  1
  K  K9  1  0.50000000  0.00000000  0.00000000  1
  K  K10  1  0.00000000  0.50000000  0.50000000  1
  K  K11  1  0.50000000  0.50000000  0.00000000  1
  K  K12  1  0.29273483  0.85584310  0.61340963  1
  K  K13  1  0.20726517  0.14415690  0.11340963  1
  K  K14  1  0.70726517  0.35584310  0.38659037  1
  K  K15  1  0.79273483  0.64415690  0.88659037  1
  K  K16  1  0.70726517  0.14415690  0.38659037  1
  K  K17  1  0.79273483  0.85584310  0.88659037  1
  K  K18  1  0.29273483  0.64415690  0.61340963  1
  K  K19  1  0.20726517  0.35584310  0.11340963  1
  Li  Li20  1  0.47494886  0.89284942  0.60432870  1
  Li  Li21  1  0.02505114  0.10715058  0.10432870  1
  Li  Li22  1  0.52505114  0.39284942  0.39567130  1
  Li  Li23  1  0.97494886  0.60715058  0.89567130  1
  Li  Li24  1  0.52505114  0.10715058  0.39567130  1
  Li  Li25  1  0.97494886  0.89284942  0.89567130  1
  Li  Li26  1  0.47494886  0.60715058  0.60432870  1
  Li  Li27  1  0.02505114  0.39284942  0.10432870  1
  Sb  Sb28  1  0.00000000  0.00000000  0.00000000  1
  Sb  Sb29  1  0.50000000  0.00000000  0.50000000  1
  Sb  Sb30  1  0.00000000  0.50000000  0.00000000  1
  Sb  Sb31  1  0.50000000  0.50000000  0.50000000  1
  Sb  Sb32  1  0.53028608  0.42521271  0.66469636  1
  Sb  Sb33  1  -0.03028608  -0.42521271  1.16469636  1
  Sb  Sb34  1  -0.53028608  0.92521271  -0.66469636  1
  Sb  Sb35  1  1.03028608  0.07478729  -0.16469636  1
  Sb  Sb36  1  -0.53028608  -0.42521271  -0.66469636  1
  Sb  Sb37  1  1.03028608  0.42521271  -0.16469636  1
  Sb  Sb38  1  0.53028608  0.07478729  0.66469636  1
  Sb  Sb39  1  -0.03028608  0.92521271  1.16469636  1
  Se  Se40  1  0.64561597  0.03447993  0.68089785  1
  Se  Se41  1  0.85438403  0.96552007  0.18089785  1
  Se  Se42  1  0.35438403  0.53447993  0.31910215  1
  Se  Se43  1  0.14561597  0.46552007  0.81910215  1
  Se  Se44  1  0.35438403  0.96552007  0.31910215  1
  Se  Se45  1  0.14561597  0.03447993  0.81910215  1
  Se  Se46  1  0.64561597  0.46552007  0.68089785  1
  Se  Se47  1  0.85438403  0.53447993  0.18089785  1
  Se  Se48  1  0.55615579  0.25000000  0.16778246  1
  Se  Se49  1  0.94384421  0.75000000  0.66778246  1
  Se  Se50  1  0.44384421  0.75000000  0.83221754  1
  Se  Se51  1  0.05615579  0.25000000  0.33221754  1
  Se  Se52  1  0.85945042  0.79912358  0.19484792  1
  Se  Se53  1  0.64054958  0.20087642  0.69484792  1
  Se  Se54  1  0.14054958  0.29912358  0.80515208  1
  Se  Se55  1  0.35945042  0.70087642  0.30515208  1
  Se  Se56  1  0.14054958  0.20087642  0.80515208  1
  Se  Se57  1  0.35945042  0.79912358  0.30515208  1
  Se  Se58  1  0.85945042  0.70087642  0.19484792  1
  Se  Se59  1  0.64054958  0.29912358  0.69484792  1
  Se  Se60  1  0.76631808  0.25000000  0.41066887  1
  Se  Se61  1  0.73368192  0.75000000  0.91066887  1
  Se  Se62  1  0.23368192  0.75000000  0.58933113  1
  Se  Se63  1  0.26631808  0.25000000  0.08933113  1
