# generated using pymatgen
data_LiI
_symmetry_space_group_name_H-M   'P 1'
_cell_length_a   16.76781453
_cell_length_b   16.76781453
_cell_length_c   13.42414105
_cell_angle_alpha   90.00000000
_cell_angle_beta   90.00000000
_cell_angle_gamma   90.00000000
_symmetry_Int_Tables_number   1
_chemical_formula_structural   LiI
_chemical_formula_sum   'Li96 I96'
_cell_volume   3774.32618153
_cell_formula_units_Z   96
loop_
 _symmetry_equiv_pos_site_id
 _symmetry_equiv_pos_as_xyz
  1  'x, y, z'
loop_
 _atom_site_type_symbol
 _atom_site_label
 _atom_site_symmetry_multiplicity
 _atom_site_fract_x
 _atom_site_fract_y
 _atom_site_fract_z
 _atom_site_occupancy
  I  I0  1  0.82324873  0.23467414  0.49806606  1
  I  I1  1  -0.32324873  -0.23467414  0.99806606  1
  I  I2  1  0.01532586  1.57324873  0.74806606  1
  I  I3  1  0.48467414  -0.57324873  1.24806606  1
  I  I4  1  -0.32324873  0.23467414  -0.49806606  1
  I  I5  1  0.82324873  -0.23467414  0.00193394  1
  I  I6  1  0.48467414  1.57324873  0.25193394  1
  I  I7  1  0.01532586  -0.57324873  -0.24806606  1
  I  I8  1  -0.82324873  -0.23467414  -0.49806606  1
  I  I9  1  1.32324873  0.23467414  0.00193394  1
  I  I10  1  0.98467414  -0.57324873  0.25193394  1
  I  I11  1  0.51532586  1.57324873  -0.24806606  1
  I  I12  1  1.32324873  -0.23467414  0.49806606  1
  I  I13  1  -0.82324873  0.23467414  0.99806606  1
  I  I14  1  0.51532586  -0.57324873  0.74806606  1
  I  I15  1  0.98467414  1.57324873  1.24806606  1
  I  I16  1  1.32324873  0.73467414  0.99806606  1
  I  I17  1  0.17675127  0.26532586  1.49806606  1
  I  I18  1  0.51532586  2.07324873  1.24806606  1
  I  I19  1  0.98467414  -0.07324873  1.74806606  1
  I  I20  1  0.17675127  0.73467414  0.00193394  1
  I  I21  1  1.32324873  0.26532586  0.50193394  1
  I  I22  1  0.98467414  2.07324873  0.75193394  1
  I  I23  1  0.51532586  -0.07324873  0.25193394  1
  I  I24  1  -0.32324873  0.26532586  0.00193394  1
  I  I25  1  1.82324873  0.73467414  0.50193394  1
  I  I26  1  1.48467414  -0.07324873  0.75193394  1
  I  I27  1  1.01532586  2.07324873  0.25193394  1
  I  I28  1  1.82324873  0.26532586  0.99806606  1
  I  I29  1  -0.32324873  0.73467414  1.49806606  1
  I  I30  1  1.01532586  -0.07324873  1.24806606  1
  I  I31  1  1.48467414  2.07324873  1.74806606  1
  I  I32  1  0.42636366  0.09428280  0.21342826  1
  I  I33  1  0.07363634  0.90571720  0.71342826  1
  I  I34  1  0.15571720  0.17636366  0.46342826  1
  I  I35  1  0.34428280  0.82363634  0.96342826  1
  I  I36  1  0.07363634  0.09428280  0.78657174  1
  I  I37  1  0.42636366  0.90571720  0.28657174  1
  I  I38  1  0.34428280  0.17636366  0.53657174  1
  I  I39  1  0.15571720  0.82363634  0.03657174  1
  I  I40  1  0.57363634  0.90571720  0.78657174  1
  I  I41  1  0.92636366  0.09428280  0.28657174  1
  I  I42  1  0.84428280  0.82363634  0.53657174  1
  I  I43  1  0.65571720  0.17636366  0.03657174  1
  I  I44  1  0.92636366  0.90571720  0.21342826  1
  I  I45  1  0.57363634  0.09428280  0.71342826  1
  I  I46  1  0.65571720  0.82363634  0.46342826  1
  I  I47  1  0.84428280  0.17636366  0.96342826  1
  I  I48  1  0.92636366  0.59428280  0.71342826  1
  I  I49  1  0.57363634  0.40571720  0.21342826  1
  I  I50  1  0.65571720  0.67636366  0.96342826  1
  I  I51  1  0.84428280  0.32363634  0.46342826  1
  I  I52  1  0.57363634  0.59428280  0.28657174  1
  I  I53  1  0.92636366  0.40571720  0.78657174  1
  I  I54  1  0.84428280  0.67636366  0.03657174  1
  I  I55  1  0.65571720  0.32363634  0.53657174  1
  I  I56  1  0.07363634  0.40571720  0.28657174  1
  I  I57  1  0.42636366  0.59428280  0.78657174  1
  I  I58  1  0.34428280  0.32363634  0.03657174  1
  I  I59  1  0.15571720  0.67636366  0.53657174  1
  I  I60  1  0.42636366  0.40571720  0.71342826  1
  I  I61  1  0.07363634  0.59428280  0.21342826  1
  I  I62  1  0.15571720  0.32363634  0.96342826  1
  I  I63  1  0.34428280  0.67636366  0.46342826  1
  I  I64  1  0.65356035  0.96135802  0.08465059  1
  I  I65  1  0.84643965  0.03864198  0.58465059  1
  I  I66  1  0.28864198  0.40356035  0.33465059  1
  I  I67  1  0.21135802  0.59643965  0.83465059  1
  I  I68  1  0.84643965  0.96135802  0.91534941  1
  I  I69  1  0.65356035  0.03864198  0.41534941  1
  I  I70  1  0.21135802  0.40356035  0.66534941  1
  I  I71  1  0.28864198  0.59643965  0.16534941  1
  I  I72  1  0.34643965  0.03864198  0.91534941  1
  I  I73  1  0.15356035  0.96135802  0.41534941  1
  I  I74  1  0.71135802  0.59643965  0.66534941  1
  I  I75  1  0.78864198  0.40356035  0.16534941  1
  I  I76  1  0.15356035  0.03864198  0.08465059  1
  I  I77  1  0.34643965  0.96135802  0.58465059  1
  I  I78  1  0.78864198  0.59643965  0.33465059  1
  I  I79  1  0.71135802  0.40356035  0.83465059  1
  I  I80  1  0.15356035  0.46135802  0.58465059  1
  I  I81  1  0.34643965  0.53864198  0.08465059  1
  I  I82  1  0.78864198  0.90356035  0.83465059  1
  I  I83  1  0.71135802  0.09643965  0.33465059  1
  I  I84  1  0.34643965  0.46135802  0.41534941  1
  I  I85  1  0.15356035  0.53864198  0.91534941  1
  I  I86  1  0.71135802  0.90356035  0.16534941  1
  I  I87  1  0.78864198  0.09643965  0.66534941  1
  I  I88  1  0.84643965  0.53864198  0.41534941  1
  I  I89  1  0.65356035  0.46135802  0.91534941  1
  I  I90  1  0.21135802  0.09643965  0.16534941  1
  I  I91  1  0.28864198  0.90356035  0.66534941  1
  I  I92  1  0.65356035  0.53864198  0.58465059  1
  I  I93  1  0.84643965  0.46135802  0.08465059  1
  I  I94  1  0.28864198  0.09643965  0.83465059  1
  I  I95  1  0.21135802  0.90356035  0.33465059  1
  Li  Li96  1  0.92771087  0.53227196  0.42558396  1
  Li  Li97  1  0.57228913  0.46772804  0.92558396  1
  Li  Li98  1  0.71772804  0.67771087  0.67558396  1
  Li  Li99  1  0.78227196  0.32228913  0.17558396  1
  Li  Li100  1  0.57228913  0.53227196  0.57441604  1
  Li  Li101  1  0.92771087  0.46772804  0.07441604  1
  Li  Li102  1  0.78227196  0.67771087  0.32441604  1
  Li  Li103  1  0.71772804  0.32228913  0.82441604  1
  Li  Li104  1  0.07228913  0.46772804  0.57441604  1
  Li  Li105  1  0.42771087  0.53227196  0.07441604  1
  Li  Li106  1  0.28227196  0.32228913  0.32441604  1
  Li  Li107  1  0.21772804  0.67771087  0.82441604  1
  Li  Li108  1  0.42771087  0.46772804  0.42558396  1
  Li  Li109  1  0.07228913  0.53227196  0.92558396  1
  Li  Li110  1  0.21772804  0.32228913  0.67558396  1
  Li  Li111  1  0.28227196  0.67771087  0.17558396  1
  Li  Li112  1  0.42771087  0.03227196  0.92558396  1
  Li  Li113  1  0.07228913  0.96772804  0.42558396  1
  Li  Li114  1  0.21772804  0.17771087  0.17558396  1
  Li  Li115  1  0.28227196  0.82228913  0.67558396  1
  Li  Li116  1  0.07228913  0.03227196  0.07441604  1
  Li  Li117  1  0.42771087  0.96772804  0.57441604  1
  Li  Li118  1  0.28227196  0.17771087  0.82441604  1
  Li  Li119  1  0.21772804  0.82228913  0.32441604  1
  Li  Li120  1  0.57228913  0.96772804  0.07441604  1
  Li  Li121  1  0.92771087  0.03227196  0.57441604  1
  Li  Li122  1  0.78227196  0.82228913  0.82441604  1
  Li  Li123  1  0.71772804  0.17771087  0.32441604  1
  Li  Li124  1  0.92771087  0.96772804  0.92558396  1
  Li  Li125  1  0.57228913  0.03227196  0.42558396  1
  Li  Li126  1  0.71772804  0.82228913  0.17558396  1
  Li  Li127  1  0.78227196  0.17771087  0.67558396  1
  Li  Li128  1  0.51081912  0.78670180  0.46526518  1
  Li  Li129  1  0.98918088  0.21329820  0.96526518  1
  Li  Li130  1  0.46329820  0.26081912  0.71526518  1
  Li  Li131  1  0.03670180  0.73918088  0.21526518  1
  Li  Li132  1  0.98918088  0.78670180  0.53473482  1
  Li  Li133  1  0.51081912  0.21329820  0.03473482  1
  Li  Li134  1  0.03670180  0.26081912  0.28473482  1
  Li  Li135  1  0.46329820  0.73918088  0.78473482  1
  Li  Li136  1  0.48918088  0.21329820  0.53473482  1
  Li  Li137  1  0.01081912  0.78670180  0.03473482  1
  Li  Li138  1  0.53670180  0.73918088  0.28473482  1
  Li  Li139  1  0.96329820  0.26081912  0.78473482  1
  Li  Li140  1  0.01081912  0.21329820  0.46526518  1
  Li  Li141  1  0.48918088  0.78670180  0.96526518  1
  Li  Li142  1  0.96329820  0.73918088  0.71526518  1
  Li  Li143  1  0.53670180  0.26081912  0.21526518  1
  Li  Li144  1  0.01081912  0.28670180  0.96526518  1
  Li  Li145  1  0.48918088  0.71329820  0.46526518  1
  Li  Li146  1  0.96329820  0.76081912  0.21526518  1
  Li  Li147  1  0.53670180  0.23918088  0.71526518  1
  Li  Li148  1  0.48918088  0.28670180  0.03473482  1
  Li  Li149  1  0.01081912  0.71329820  0.53473482  1
  Li  Li150  1  0.53670180  0.76081912  0.78473482  1
  Li  Li151  1  0.96329820  0.23918088  0.28473482  1
  Li  Li152  1  0.98918088  0.71329820  0.03473482  1
  Li  Li153  1  0.51081912  0.28670180  0.53473482  1
  Li  Li154  1  0.03670180  0.23918088  0.78473482  1
  Li  Li155  1  0.46329820  0.76081912  0.28473482  1
  Li  Li156  1  0.51081912  0.71329820  0.96526518  1
  Li  Li157  1  0.98918088  0.28670180  0.46526518  1
  Li  Li158  1  0.46329820  0.23918088  0.21526518  1
  Li  Li159  1  0.03670180  0.76081912  0.71526518  1
  Li  Li160  1  0.00000000  0.00000000  0.00000000  1
  Li  Li161  1  0.50000000  0.00000000  0.50000000  1
  Li  Li162  1  0.25000000  0.75000000  0.25000000  1
  Li  Li163  1  0.25000000  0.25000000  0.75000000  1
  Li  Li164  1  0.50000000  0.00000000  0.00000000  1
  Li  Li165  1  0.00000000  0.00000000  0.50000000  1
  Li  Li166  1  0.25000000  0.75000000  0.75000000  1
  Li  Li167  1  0.25000000  0.25000000  0.25000000  1
  Li  Li168  1  0.50000000  0.50000000  0.50000000  1
  Li  Li169  1  0.00000000  0.50000000  0.00000000  1
  Li  Li170  1  0.75000000  0.25000000  0.75000000  1
  Li  Li171  1  0.75000000  0.75000000  0.25000000  1
  Li  Li172  1  0.00000000  0.50000000  0.50000000  1
  Li  Li173  1  0.50000000  0.50000000  0.00000000  1
  Li  Li174  1  0.75000000  0.25000000  0.25000000  1
  Li  Li175  1  0.75000000  0.75000000  0.75000000  1
  Li  Li176  1  0.00000000  0.25000000  0.07108695  1
  Li  Li177  1  0.00000000  0.75000000  0.32108695  1
  Li  Li178  1  0.50000000  0.25000000  0.92891305  1
  Li  Li179  1  0.50000000  0.75000000  0.67891305  1
  Li  Li180  1  0.00000000  0.75000000  0.92891305  1
  Li  Li181  1  0.00000000  0.25000000  0.67891305  1
  Li  Li182  1  0.50000000  0.75000000  0.07108695  1
  Li  Li183  1  0.50000000  0.25000000  0.32108695  1
  Li  Li184  1  0.50000000  0.75000000  0.57108695  1
  Li  Li185  1  0.50000000  0.25000000  0.82108695  1
  Li  Li186  1  0.00000000  0.75000000  0.42891305  1
  Li  Li187  1  0.00000000  0.25000000  0.17891305  1
  Li  Li188  1  0.50000000  0.25000000  0.42891305  1
  Li  Li189  1  0.50000000  0.75000000  0.17891305  1
  Li  Li190  1  0.00000000  0.25000000  0.57108695  1
  Li  Li191  1  0.00000000  0.75000000  0.82108695  1
