# generated using pymatgen
data_LiBr
_symmetry_space_group_name_H-M   'P 1'
_cell_length_a   22.66565940
_cell_length_b   22.66565940
_cell_length_c   22.66565940
_cell_angle_alpha   90.00000000
_cell_angle_beta   90.00000000
_cell_angle_gamma   90.00000000
_symmetry_Int_Tables_number   1
_chemical_formula_structural   LiBr
_chemical_formula_sum   'Li288 Br288'
_cell_volume   11644.07717186
_cell_formula_units_Z   288
loop_
 _symmetry_equiv_pos_site_id
 _symmetry_equiv_pos_as_xyz
  1  'x, y, z'
loop_
 _atom_site_type_symbol
 _atom_site_label
 _atom_site_symmetry_multiplicity
 _atom_site_fract_x
 _atom_site_fract_y
 _atom_site_fract_z
 _atom_site_occupancy
  Br  Br0  1  0.50000000  0.50000000  0.50000000  1
  Br  Br1  1  0.50000000  0.00000000  0.00000000  1
  Br  Br2  1  0.00000000  0.50000000  0.00000000  1
  Br  Br3  1  0.00000000  0.00000000  0.50000000  1
  Br  Br4  1  0.34837460  0.34837460  0.34837460  1
  Br  Br5  1  0.65162540  0.65162540  0.34837460  1
  Br  Br6  1  0.65162540  0.34837460  0.65162540  1
  Br  Br7  1  0.34837460  0.65162540  0.65162540  1
  Br  Br8  1  0.34837460  0.84837460  0.84837460  1
  Br  Br9  1  0.65162540  0.15162540  0.84837460  1
  Br  Br10  1  0.65162540  0.84837460  0.15162540  1
  Br  Br11  1  0.34837460  0.15162540  0.15162540  1
  Br  Br12  1  0.84837460  0.34837460  0.84837460  1
  Br  Br13  1  0.15162540  0.65162540  0.84837460  1
  Br  Br14  1  0.15162540  0.34837460  0.15162540  1
  Br  Br15  1  0.84837460  0.65162540  0.15162540  1
  Br  Br16  1  0.84837460  0.84837460  0.34837460  1
  Br  Br17  1  0.15162540  0.15162540  0.34837460  1
  Br  Br18  1  0.15162540  0.84837460  0.65162540  1
  Br  Br19  1  0.84837460  0.15162540  0.65162540  1
  Br  Br20  1  0.79063974  0.92242444  0.46792979  1
  Br  Br21  1  -0.79063974  -0.92242444  0.46792979  1
  Br  Br22  1  -0.79063974  0.92242444  -0.46792979  1
  Br  Br23  1  0.79063974  -0.92242444  -0.46792979  1
  Br  Br24  1  0.46792979  0.79063974  0.92242444  1
  Br  Br25  1  0.46792979  -0.79063974  -0.92242444  1
  Br  Br26  1  -0.46792979  -0.79063974  0.92242444  1
  Br  Br27  1  -0.46792979  0.79063974  -0.92242444  1
  Br  Br28  1  0.92242444  0.46792979  0.79063974  1
  Br  Br29  1  -0.92242444  0.46792979  -0.79063974  1
  Br  Br30  1  0.92242444  -0.46792979  -0.79063974  1
  Br  Br31  1  -0.92242444  -0.46792979  0.79063974  1
  Br  Br32  1  0.92242444  0.79063974  0.46792979  1
  Br  Br33  1  -0.92242444  -0.79063974  0.46792979  1
  Br  Br34  1  0.92242444  -0.79063974  -0.46792979  1
  Br  Br35  1  -0.92242444  0.79063974  -0.46792979  1
  Br  Br36  1  0.79063974  0.46792979  0.92242444  1
  Br  Br37  1  -0.79063974  0.46792979  -0.92242444  1
  Br  Br38  1  -0.79063974  -0.46792979  0.92242444  1
  Br  Br39  1  0.79063974  -0.46792979  -0.92242444  1
  Br  Br40  1  0.46792979  0.92242444  0.79063974  1
  Br  Br41  1  0.46792979  -0.92242444  -0.79063974  1
  Br  Br42  1  -0.46792979  0.92242444  -0.79063974  1
  Br  Br43  1  -0.46792979  -0.92242444  0.79063974  1
  Br  Br44  1  0.79063974  1.42242444  0.96792979  1
  Br  Br45  1  -0.79063974  -0.42242444  0.96792979  1
  Br  Br46  1  -0.79063974  1.42242444  0.03207021  1
  Br  Br47  1  0.79063974  -0.42242444  0.03207021  1
  Br  Br48  1  0.46792979  1.29063974  1.42242444  1
  Br  Br49  1  0.46792979  -0.29063974  -0.42242444  1
  Br  Br50  1  -0.46792979  -0.29063974  1.42242444  1
  Br  Br51  1  -0.46792979  1.29063974  -0.42242444  1
  Br  Br52  1  0.92242444  0.96792979  1.29063974  1
  Br  Br53  1  -0.92242444  0.96792979  -0.29063974  1
  Br  Br54  1  0.92242444  0.03207021  -0.29063974  1
  Br  Br55  1  -0.92242444  0.03207021  1.29063974  1
  Br  Br56  1  0.92242444  1.29063974  0.96792979  1
  Br  Br57  1  -0.92242444  -0.29063974  0.96792979  1
  Br  Br58  1  0.92242444  -0.29063974  0.03207021  1
  Br  Br59  1  -0.92242444  1.29063974  0.03207021  1
  Br  Br60  1  0.79063974  0.96792979  1.42242444  1
  Br  Br61  1  -0.79063974  0.96792979  -0.42242444  1
  Br  Br62  1  -0.79063974  0.03207021  1.42242444  1
  Br  Br63  1  0.79063974  0.03207021  -0.42242444  1
  Br  Br64  1  0.46792979  1.42242444  1.29063974  1
  Br  Br65  1  0.46792979  -0.42242444  -0.29063974  1
  Br  Br66  1  -0.46792979  1.42242444  -0.29063974  1
  Br  Br67  1  -0.46792979  -0.42242444  1.29063974  1
  Br  Br68  1  1.29063974  0.92242444  0.96792979  1
  Br  Br69  1  -0.29063974  -0.92242444  0.96792979  1
  Br  Br70  1  -0.29063974  0.92242444  0.03207021  1
  Br  Br71  1  1.29063974  -0.92242444  0.03207021  1
  Br  Br72  1  0.96792979  0.79063974  1.42242444  1
  Br  Br73  1  0.96792979  -0.79063974  -0.42242444  1
  Br  Br74  1  0.03207021  -0.79063974  1.42242444  1
  Br  Br75  1  0.03207021  0.79063974  -0.42242444  1
  Br  Br76  1  1.42242444  0.46792979  1.29063974  1
  Br  Br77  1  -0.42242444  0.46792979  -0.29063974  1
  Br  Br78  1  1.42242444  -0.46792979  -0.29063974  1
  Br  Br79  1  -0.42242444  -0.46792979  1.29063974  1
  Br  Br80  1  1.42242444  0.79063974  0.96792979  1
  Br  Br81  1  -0.42242444  -0.79063974  0.96792979  1
  Br  Br82  1  1.42242444  -0.79063974  0.03207021  1
  Br  Br83  1  -0.42242444  0.79063974  0.03207021  1
  Br  Br84  1  1.29063974  0.46792979  1.42242444  1
  Br  Br85  1  -0.29063974  0.46792979  -0.42242444  1
  Br  Br86  1  -0.29063974  -0.46792979  1.42242444  1
  Br  Br87  1  1.29063974  -0.46792979  -0.42242444  1
  Br  Br88  1  0.96792979  0.92242444  1.29063974  1
  Br  Br89  1  0.96792979  -0.92242444  -0.29063974  1
  Br  Br90  1  0.03207021  0.92242444  -0.29063974  1
  Br  Br91  1  0.03207021  -0.92242444  1.29063974  1
  Br  Br92  1  1.29063974  1.42242444  0.46792979  1
  Br  Br93  1  -0.29063974  -0.42242444  0.46792979  1
  Br  Br94  1  -0.29063974  1.42242444  -0.46792979  1
  Br  Br95  1  1.29063974  -0.42242444  -0.46792979  1
  Br  Br96  1  0.96792979  1.29063974  0.92242444  1
  Br  Br97  1  0.96792979  -0.29063974  -0.92242444  1
  Br  Br98  1  0.03207021  -0.29063974  0.92242444  1
  Br  Br99  1  0.03207021  1.29063974  -0.92242444  1
  Br  Br100  1  1.42242444  0.96792979  0.79063974  1
  Br  Br101  1  -0.42242444  0.96792979  -0.79063974  1
  Br  Br102  1  1.42242444  0.03207021  -0.79063974  1
  Br  Br103  1  -0.42242444  0.03207021  0.79063974  1
  Br  Br104  1  1.42242444  1.29063974  0.46792979  1
  Br  Br105  1  -0.42242444  -0.29063974  0.46792979  1
  Br  Br106  1  1.42242444  -0.29063974  -0.46792979  1
  Br  Br107  1  -0.42242444  1.29063974  -0.46792979  1
  Br  Br108  1  1.29063974  0.96792979  0.92242444  1
  Br  Br109  1  -0.29063974  0.96792979  -0.92242444  1
  Br  Br110  1  -0.29063974  0.03207021  0.92242444  1
  Br  Br111  1  1.29063974  0.03207021  -0.92242444  1
  Br  Br112  1  0.96792979  1.42242444  0.79063974  1
  Br  Br113  1  0.96792979  -0.42242444  -0.79063974  1
  Br  Br114  1  0.03207021  1.42242444  -0.79063974  1
  Br  Br115  1  0.03207021  -0.42242444  0.79063974  1
  Br  Br116  1  0.93746150  0.52157355  0.73995664  1
  Br  Br117  1  0.06253850  0.47842645  0.73995664  1
  Br  Br118  1  0.06253850  0.52157355  0.26004336  1
  Br  Br119  1  0.93746150  0.47842645  0.26004336  1
  Br  Br120  1  0.73995664  0.93746150  0.52157355  1
  Br  Br121  1  0.73995664  0.06253850  0.47842645  1
  Br  Br122  1  0.26004336  0.06253850  0.52157355  1
  Br  Br123  1  0.26004336  0.93746150  0.47842645  1
  Br  Br124  1  0.52157355  0.73995664  0.93746150  1
  Br  Br125  1  0.47842645  0.73995664  0.06253850  1
  Br  Br126  1  0.52157355  0.26004336  0.06253850  1
  Br  Br127  1  0.47842645  0.26004336  0.93746150  1
  Br  Br128  1  0.52157355  0.93746150  0.73995664  1
  Br  Br129  1  0.47842645  0.06253850  0.73995664  1
  Br  Br130  1  0.52157355  0.06253850  0.26004336  1
  Br  Br131  1  0.47842645  0.93746150  0.26004336  1
  Br  Br132  1  0.93746150  0.73995664  0.52157355  1
  Br  Br133  1  0.06253850  0.73995664  0.47842645  1
  Br  Br134  1  0.06253850  0.26004336  0.52157355  1
  Br  Br135  1  0.93746150  0.26004336  0.47842645  1
  Br  Br136  1  0.73995664  0.52157355  0.93746150  1
  Br  Br137  1  0.73995664  0.47842645  0.06253850  1
  Br  Br138  1  0.26004336  0.52157355  0.06253850  1
  Br  Br139  1  0.26004336  0.47842645  0.93746150  1
  Br  Br140  1  0.93746150  0.02157355  0.23995664  1
  Br  Br141  1  0.06253850  0.97842645  0.23995664  1
  Br  Br142  1  0.06253850  0.02157355  0.76004336  1
  Br  Br143  1  0.93746150  0.97842645  0.76004336  1
  Br  Br144  1  0.73995664  0.43746150  0.02157355  1
  Br  Br145  1  0.73995664  0.56253850  0.97842645  1
  Br  Br146  1  0.26004336  0.56253850  0.02157355  1
  Br  Br147  1  0.26004336  0.43746150  0.97842645  1
  Br  Br148  1  0.52157355  0.23995664  0.43746150  1
  Br  Br149  1  0.47842645  0.23995664  0.56253850  1
  Br  Br150  1  0.52157355  0.76004336  0.56253850  1
  Br  Br151  1  0.47842645  0.76004336  0.43746150  1
  Br  Br152  1  0.52157355  0.43746150  0.23995664  1
  Br  Br153  1  0.47842645  0.56253850  0.23995664  1
  Br  Br154  1  0.52157355  0.56253850  0.76004336  1
  Br  Br155  1  0.47842645  0.43746150  0.76004336  1
  Br  Br156  1  0.93746150  0.23995664  0.02157355  1
  Br  Br157  1  0.06253850  0.23995664  0.97842645  1
  Br  Br158  1  0.06253850  0.76004336  0.02157355  1
  Br  Br159  1  0.93746150  0.76004336  0.97842645  1
  Br  Br160  1  0.73995664  0.02157355  0.43746150  1
  Br  Br161  1  0.73995664  0.97842645  0.56253850  1
  Br  Br162  1  0.26004336  0.02157355  0.56253850  1
  Br  Br163  1  0.26004336  0.97842645  0.43746150  1
  Br  Br164  1  0.43746150  0.52157355  0.23995664  1
  Br  Br165  1  0.56253850  0.47842645  0.23995664  1
  Br  Br166  1  0.56253850  0.52157355  0.76004336  1
  Br  Br167  1  0.43746150  0.47842645  0.76004336  1
  Br  Br168  1  0.23995664  0.93746150  0.02157355  1
  Br  Br169  1  0.23995664  0.06253850  0.97842645  1
  Br  Br170  1  0.76004336  0.06253850  0.02157355  1
  Br  Br171  1  0.76004336  0.93746150  0.97842645  1
  Br  Br172  1  0.02157355  0.73995664  0.43746150  1
  Br  Br173  1  0.97842645  0.73995664  0.56253850  1
  Br  Br174  1  0.02157355  0.26004336  0.56253850  1
  Br  Br175  1  0.97842645  0.26004336  0.43746150  1
  Br  Br176  1  0.02157355  0.93746150  0.23995664  1
  Br  Br177  1  0.97842645  0.06253850  0.23995664  1
  Br  Br178  1  0.02157355  0.06253850  0.76004336  1
  Br  Br179  1  0.97842645  0.93746150  0.76004336  1
  Br  Br180  1  0.43746150  0.73995664  0.02157355  1
  Br  Br181  1  0.56253850  0.73995664  0.97842645  1
  Br  Br182  1  0.56253850  0.26004336  0.02157355  1
  Br  Br183  1  0.43746150  0.26004336  0.97842645  1
  Br  Br184  1  0.23995664  0.52157355  0.43746150  1
  Br  Br185  1  0.23995664  0.47842645  0.56253850  1
  Br  Br186  1  0.76004336  0.52157355  0.56253850  1
  Br  Br187  1  0.76004336  0.47842645  0.43746150  1
  Br  Br188  1  0.43746150  0.02157355  0.73995664  1
  Br  Br189  1  0.56253850  0.97842645  0.73995664  1
  Br  Br190  1  0.56253850  0.02157355  0.26004336  1
  Br  Br191  1  0.43746150  0.97842645  0.26004336  1
  Br  Br192  1  0.23995664  0.43746150  0.52157355  1
  Br  Br193  1  0.23995664  0.56253850  0.47842645  1
  Br  Br194  1  0.76004336  0.56253850  0.52157355  1
  Br  Br195  1  0.76004336  0.43746150  0.47842645  1
  Br  Br196  1  0.02157355  0.23995664  0.93746150  1
  Br  Br197  1  0.97842645  0.23995664  0.06253850  1
  Br  Br198  1  0.02157355  0.76004336  0.06253850  1
  Br  Br199  1  0.97842645  0.76004336  0.93746150  1
  Br  Br200  1  0.02157355  0.43746150  0.73995664  1
  Br  Br201  1  0.97842645  0.56253850  0.73995664  1
  Br  Br202  1  0.02157355  0.56253850  0.26004336  1
  Br  Br203  1  0.97842645  0.43746150  0.26004336  1
  Br  Br204  1  0.43746150  0.23995664  0.52157355  1
  Br  Br205  1  0.56253850  0.23995664  0.47842645  1
  Br  Br206  1  0.56253850  0.76004336  0.52157355  1
  Br  Br207  1  0.43746150  0.76004336  0.47842645  1
  Br  Br208  1  0.23995664  0.02157355  0.93746150  1
  Br  Br209  1  0.23995664  0.97842645  0.06253850  1
  Br  Br210  1  0.76004336  0.02157355  0.06253850  1
  Br  Br211  1  0.76004336  0.97842645  0.93746150  1
  Br  Br212  1  0.37324984  0.37324984  0.01272310  1
  Br  Br213  1  0.62675016  0.62675016  0.01272310  1
  Br  Br214  1  0.62675016  0.37324984  0.98727690  1
  Br  Br215  1  0.37324984  0.62675016  0.98727690  1
  Br  Br216  1  0.01272310  0.37324984  0.37324984  1
  Br  Br217  1  0.01272310  0.62675016  0.62675016  1
  Br  Br218  1  0.98727690  0.62675016  0.37324984  1
  Br  Br219  1  0.98727690  0.37324984  0.62675016  1
  Br  Br220  1  0.37324984  0.01272310  0.37324984  1
  Br  Br221  1  0.62675016  0.01272310  0.62675016  1
  Br  Br222  1  0.37324984  0.98727690  0.62675016  1
  Br  Br223  1  0.62675016  0.98727690  0.37324984  1
  Br  Br224  1  0.37324984  0.87324984  0.51272310  1
  Br  Br225  1  0.62675016  0.12675016  0.51272310  1
  Br  Br226  1  0.62675016  0.87324984  0.48727690  1
  Br  Br227  1  0.37324984  0.12675016  0.48727690  1
  Br  Br228  1  0.01272310  0.87324984  0.87324984  1
  Br  Br229  1  0.01272310  0.12675016  0.12675016  1
  Br  Br230  1  0.98727690  0.12675016  0.87324984  1
  Br  Br231  1  0.98727690  0.87324984  0.12675016  1
  Br  Br232  1  0.37324984  0.51272310  0.87324984  1
  Br  Br233  1  0.62675016  0.51272310  0.12675016  1
  Br  Br234  1  0.37324984  0.48727690  0.12675016  1
  Br  Br235  1  0.62675016  0.48727690  0.87324984  1
  Br  Br236  1  0.87324984  0.37324984  0.51272310  1
  Br  Br237  1  0.12675016  0.62675016  0.51272310  1
  Br  Br238  1  0.12675016  0.37324984  0.48727690  1
  Br  Br239  1  0.87324984  0.62675016  0.48727690  1
  Br  Br240  1  0.51272310  0.37324984  0.87324984  1
  Br  Br241  1  0.51272310  0.62675016  0.12675016  1
  Br  Br242  1  0.48727690  0.62675016  0.87324984  1
  Br  Br243  1  0.48727690  0.37324984  0.12675016  1
  Br  Br244  1  0.87324984  0.01272310  0.87324984  1
  Br  Br245  1  0.12675016  0.01272310  0.12675016  1
  Br  Br246  1  0.87324984  0.98727690  0.12675016  1
  Br  Br247  1  0.12675016  0.98727690  0.87324984  1
  Br  Br248  1  0.87324984  0.87324984  0.01272310  1
  Br  Br249  1  0.12675016  0.12675016  0.01272310  1
  Br  Br250  1  0.12675016  0.87324984  0.98727690  1
  Br  Br251  1  0.87324984  0.12675016  0.98727690  1
  Br  Br252  1  0.51272310  0.87324984  0.37324984  1
  Br  Br253  1  0.51272310  0.12675016  0.62675016  1
  Br  Br254  1  0.48727690  0.12675016  0.37324984  1
  Br  Br255  1  0.48727690  0.87324984  0.62675016  1
  Br  Br256  1  0.87324984  0.51272310  0.37324984  1
  Br  Br257  1  0.12675016  0.51272310  0.62675016  1
  Br  Br258  1  0.87324984  0.48727690  0.62675016  1
  Br  Br259  1  0.12675016  0.48727690  0.37324984  1
  Br  Br260  1  0.83340680  0.25000000  0.25000000  1
  Br  Br261  1  0.16659320  0.75000000  0.25000000  1
  Br  Br262  1  0.25000000  0.83340680  0.25000000  1
  Br  Br263  1  0.25000000  0.16659320  0.75000000  1
  Br  Br264  1  0.25000000  0.25000000  0.83340680  1
  Br  Br265  1  0.75000000  0.25000000  0.16659320  1
  Br  Br266  1  0.83340680  0.75000000  0.75000000  1
  Br  Br267  1  0.16659320  0.25000000  0.75000000  1
  Br  Br268  1  0.25000000  0.33340680  0.75000000  1
  Br  Br269  1  0.25000000  0.66659320  0.25000000  1
  Br  Br270  1  0.25000000  0.75000000  0.33340680  1
  Br  Br271  1  0.75000000  0.75000000  0.66659320  1
  Br  Br272  1  0.33340680  0.25000000  0.75000000  1
  Br  Br273  1  0.66659320  0.75000000  0.75000000  1
  Br  Br274  1  0.75000000  0.83340680  0.75000000  1
  Br  Br275  1  0.75000000  0.16659320  0.25000000  1
  Br  Br276  1  0.75000000  0.25000000  0.33340680  1
  Br  Br277  1  0.25000000  0.25000000  0.66659320  1
  Br  Br278  1  0.33340680  0.75000000  0.25000000  1
  Br  Br279  1  0.66659320  0.25000000  0.25000000  1
  Br  Br280  1  0.75000000  0.33340680  0.25000000  1
  Br  Br281  1  0.75000000  0.66659320  0.75000000  1
  Br  Br282  1  0.75000000  0.75000000  0.83340680  1
  Br  Br283  1  0.25000000  0.75000000  0.16659320  1
  Br  Br284  1  0.25000000  0.25000000  0.25000000  1
  Br  Br285  1  0.25000000  0.75000000  0.75000000  1
  Br  Br286  1  0.75000000  0.25000000  0.75000000  1
  Br  Br287  1  0.75000000  0.75000000  0.25000000  1
  Li  Li288  1  0.89005755  0.25000000  0.25000000  1
  Li  Li289  1  0.10994245  0.75000000  0.25000000  1
  Li  Li290  1  0.25000000  0.89005755  0.25000000  1
  Li  Li291  1  0.25000000  0.10994245  0.75000000  1
  Li  Li292  1  0.25000000  0.25000000  0.89005755  1
  Li  Li293  1  0.75000000  0.25000000  0.10994245  1
  Li  Li294  1  0.89005755  0.75000000  0.75000000  1
  Li  Li295  1  0.10994245  0.25000000  0.75000000  1
  Li  Li296  1  0.25000000  0.39005755  0.75000000  1
  Li  Li297  1  0.25000000  0.60994245  0.25000000  1
  Li  Li298  1  0.25000000  0.75000000  0.39005755  1
  Li  Li299  1  0.75000000  0.75000000  0.60994245  1
  Li  Li300  1  0.39005755  0.25000000  0.75000000  1
  Li  Li301  1  0.60994245  0.75000000  0.75000000  1
  Li  Li302  1  0.75000000  0.89005755  0.75000000  1
  Li  Li303  1  0.75000000  0.10994245  0.25000000  1
  Li  Li304  1  0.75000000  0.25000000  0.39005755  1
  Li  Li305  1  0.25000000  0.25000000  0.60994245  1
  Li  Li306  1  0.39005755  0.75000000  0.25000000  1
  Li  Li307  1  0.60994245  0.25000000  0.25000000  1
  Li  Li308  1  0.75000000  0.39005755  0.25000000  1
  Li  Li309  1  0.75000000  0.60994245  0.75000000  1
  Li  Li310  1  0.75000000  0.75000000  0.89005755  1
  Li  Li311  1  0.25000000  0.75000000  0.10994245  1
  Li  Li312  1  0.56141694  0.47879348  0.10894978  1
  Li  Li313  1  0.43858306  0.52120652  0.10894978  1
  Li  Li314  1  0.43858306  0.47879348  0.89105022  1
  Li  Li315  1  0.56141694  0.52120652  0.89105022  1
  Li  Li316  1  0.10894978  0.56141694  0.47879348  1
  Li  Li317  1  0.10894978  0.43858306  0.52120652  1
  Li  Li318  1  0.89105022  0.43858306  0.47879348  1
  Li  Li319  1  0.89105022  0.56141694  0.52120652  1
  Li  Li320  1  0.47879348  0.10894978  0.56141694  1
  Li  Li321  1  0.52120652  0.10894978  0.43858306  1
  Li  Li322  1  0.47879348  0.89105022  0.43858306  1
  Li  Li323  1  0.52120652  0.89105022  0.56141694  1
  Li  Li324  1  0.47879348  0.56141694  0.10894978  1
  Li  Li325  1  0.52120652  0.43858306  0.10894978  1
  Li  Li326  1  0.47879348  0.43858306  0.89105022  1
  Li  Li327  1  0.52120652  0.56141694  0.89105022  1
  Li  Li328  1  0.56141694  0.10894978  0.47879348  1
  Li  Li329  1  0.43858306  0.10894978  0.52120652  1
  Li  Li330  1  0.43858306  0.89105022  0.47879348  1
  Li  Li331  1  0.56141694  0.89105022  0.52120652  1
  Li  Li332  1  0.10894978  0.47879348  0.56141694  1
  Li  Li333  1  0.10894978  0.52120652  0.43858306  1
  Li  Li334  1  0.89105022  0.47879348  0.43858306  1
  Li  Li335  1  0.89105022  0.52120652  0.56141694  1
  Li  Li336  1  0.56141694  0.97879348  0.60894978  1
  Li  Li337  1  0.43858306  0.02120652  0.60894978  1
  Li  Li338  1  0.43858306  0.97879348  0.39105022  1
  Li  Li339  1  0.56141694  0.02120652  0.39105022  1
  Li  Li340  1  0.10894978  0.06141694  0.97879348  1
  Li  Li341  1  0.10894978  0.93858306  0.02120652  1
  Li  Li342  1  0.89105022  0.93858306  0.97879348  1
  Li  Li343  1  0.89105022  0.06141694  0.02120652  1
  Li  Li344  1  0.47879348  0.60894978  0.06141694  1
  Li  Li345  1  0.52120652  0.60894978  0.93858306  1
  Li  Li346  1  0.47879348  0.39105022  0.93858306  1
  Li  Li347  1  0.52120652  0.39105022  0.06141694  1
  Li  Li348  1  0.47879348  0.06141694  0.60894978  1
  Li  Li349  1  0.52120652  0.93858306  0.60894978  1
  Li  Li350  1  0.47879348  0.93858306  0.39105022  1
  Li  Li351  1  0.52120652  0.06141694  0.39105022  1
  Li  Li352  1  0.56141694  0.60894978  0.97879348  1
  Li  Li353  1  0.43858306  0.60894978  0.02120652  1
  Li  Li354  1  0.43858306  0.39105022  0.97879348  1
  Li  Li355  1  0.56141694  0.39105022  0.02120652  1
  Li  Li356  1  0.10894978  0.97879348  0.06141694  1
  Li  Li357  1  0.10894978  0.02120652  0.93858306  1
  Li  Li358  1  0.89105022  0.97879348  0.93858306  1
  Li  Li359  1  0.89105022  0.02120652  0.06141694  1
  Li  Li360  1  0.06141694  0.47879348  0.60894978  1
  Li  Li361  1  0.93858306  0.52120652  0.60894978  1
  Li  Li362  1  0.93858306  0.47879348  0.39105022  1
  Li  Li363  1  0.06141694  0.52120652  0.39105022  1
  Li  Li364  1  0.60894978  0.56141694  0.97879348  1
  Li  Li365  1  0.60894978  0.43858306  0.02120652  1
  Li  Li366  1  0.39105022  0.43858306  0.97879348  1
  Li  Li367  1  0.39105022  0.56141694  0.02120652  1
  Li  Li368  1  0.97879348  0.10894978  0.06141694  1
  Li  Li369  1  0.02120652  0.10894978  0.93858306  1
  Li  Li370  1  0.97879348  0.89105022  0.93858306  1
  Li  Li371  1  0.02120652  0.89105022  0.06141694  1
  Li  Li372  1  0.97879348  0.56141694  0.60894978  1
  Li  Li373  1  0.02120652  0.43858306  0.60894978  1
  Li  Li374  1  0.97879348  0.43858306  0.39105022  1
  Li  Li375  1  0.02120652  0.56141694  0.39105022  1
  Li  Li376  1  0.06141694  0.10894978  0.97879348  1
  Li  Li377  1  0.93858306  0.10894978  0.02120652  1
  Li  Li378  1  0.93858306  0.89105022  0.97879348  1
  Li  Li379  1  0.06141694  0.89105022  0.02120652  1
  Li  Li380  1  0.60894978  0.47879348  0.06141694  1
  Li  Li381  1  0.60894978  0.52120652  0.93858306  1
  Li  Li382  1  0.39105022  0.47879348  0.93858306  1
  Li  Li383  1  0.39105022  0.52120652  0.06141694  1
  Li  Li384  1  0.06141694  0.97879348  0.10894978  1
  Li  Li385  1  0.93858306  0.02120652  0.10894978  1
  Li  Li386  1  0.93858306  0.97879348  0.89105022  1
  Li  Li387  1  0.06141694  0.02120652  0.89105022  1
  Li  Li388  1  0.60894978  0.06141694  0.47879348  1
  Li  Li389  1  0.60894978  0.93858306  0.52120652  1
  Li  Li390  1  0.39105022  0.93858306  0.47879348  1
  Li  Li391  1  0.39105022  0.06141694  0.52120652  1
  Li  Li392  1  0.97879348  0.60894978  0.56141694  1
  Li  Li393  1  0.02120652  0.60894978  0.43858306  1
  Li  Li394  1  0.97879348  0.39105022  0.43858306  1
  Li  Li395  1  0.02120652  0.39105022  0.56141694  1
  Li  Li396  1  0.97879348  0.06141694  0.10894978  1
  Li  Li397  1  0.02120652  0.93858306  0.10894978  1
  Li  Li398  1  0.97879348  0.93858306  0.89105022  1
  Li  Li399  1  0.02120652  0.06141694  0.89105022  1
  Li  Li400  1  0.06141694  0.60894978  0.47879348  1
  Li  Li401  1  0.93858306  0.60894978  0.52120652  1
  Li  Li402  1  0.93858306  0.39105022  0.47879348  1
  Li  Li403  1  0.06141694  0.39105022  0.52120652  1
  Li  Li404  1  0.60894978  0.97879348  0.56141694  1
  Li  Li405  1  0.60894978  0.02120652  0.43858306  1
  Li  Li406  1  0.39105022  0.97879348  0.43858306  1
  Li  Li407  1  0.39105022  0.02120652  0.56141694  1
  Li  Li408  1  0.34194827  0.30201402  0.95873316  1
  Li  Li409  1  0.65805173  0.69798598  0.95873316  1
  Li  Li410  1  0.65805173  0.30201402  0.04126684  1
  Li  Li411  1  0.34194827  0.69798598  0.04126684  1
  Li  Li412  1  0.95873316  0.34194827  0.30201402  1
  Li  Li413  1  0.95873316  0.65805173  0.69798598  1
  Li  Li414  1  0.04126684  0.65805173  0.30201402  1
  Li  Li415  1  0.04126684  0.34194827  0.69798598  1
  Li  Li416  1  0.30201402  0.95873316  0.34194827  1
  Li  Li417  1  0.69798598  0.95873316  0.65805173  1
  Li  Li418  1  0.30201402  0.04126684  0.65805173  1
  Li  Li419  1  0.69798598  0.04126684  0.34194827  1
  Li  Li420  1  0.30201402  0.34194827  0.95873316  1
  Li  Li421  1  0.69798598  0.65805173  0.95873316  1
  Li  Li422  1  0.30201402  0.65805173  0.04126684  1
  Li  Li423  1  0.69798598  0.34194827  0.04126684  1
  Li  Li424  1  0.34194827  0.95873316  0.30201402  1
  Li  Li425  1  0.65805173  0.95873316  0.69798598  1
  Li  Li426  1  0.65805173  0.04126684  0.30201402  1
  Li  Li427  1  0.34194827  0.04126684  0.69798598  1
  Li  Li428  1  0.95873316  0.30201402  0.34194827  1
  Li  Li429  1  0.95873316  0.69798598  0.65805173  1
  Li  Li430  1  0.04126684  0.30201402  0.65805173  1
  Li  Li431  1  0.04126684  0.69798598  0.34194827  1
  Li  Li432  1  0.34194827  0.80201402  0.45873316  1
  Li  Li433  1  0.65805173  0.19798598  0.45873316  1
  Li  Li434  1  0.65805173  0.80201402  0.54126684  1
  Li  Li435  1  0.34194827  0.19798598  0.54126684  1
  Li  Li436  1  0.95873316  0.84194827  0.80201402  1
  Li  Li437  1  0.95873316  0.15805173  0.19798598  1
  Li  Li438  1  0.04126684  0.15805173  0.80201402  1
  Li  Li439  1  0.04126684  0.84194827  0.19798598  1
  Li  Li440  1  0.30201402  0.45873316  0.84194827  1
  Li  Li441  1  0.69798598  0.45873316  0.15805173  1
  Li  Li442  1  0.30201402  0.54126684  0.15805173  1
  Li  Li443  1  0.69798598  0.54126684  0.84194827  1
  Li  Li444  1  0.30201402  0.84194827  0.45873316  1
  Li  Li445  1  0.69798598  0.15805173  0.45873316  1
  Li  Li446  1  0.30201402  0.15805173  0.54126684  1
  Li  Li447  1  0.69798598  0.84194827  0.54126684  1
  Li  Li448  1  0.34194827  0.45873316  0.80201402  1
  Li  Li449  1  0.65805173  0.45873316  0.19798598  1
  Li  Li450  1  0.65805173  0.54126684  0.80201402  1
  Li  Li451  1  0.34194827  0.54126684  0.19798598  1
  Li  Li452  1  0.95873316  0.80201402  0.84194827  1
  Li  Li453  1  0.95873316  0.19798598  0.15805173  1
  Li  Li454  1  0.04126684  0.80201402  0.15805173  1
  Li  Li455  1  0.04126684  0.19798598  0.84194827  1
  Li  Li456  1  0.84194827  0.30201402  0.45873316  1
  Li  Li457  1  0.15805173  0.69798598  0.45873316  1
  Li  Li458  1  0.15805173  0.30201402  0.54126684  1
  Li  Li459  1  0.84194827  0.69798598  0.54126684  1
  Li  Li460  1  0.45873316  0.34194827  0.80201402  1
  Li  Li461  1  0.45873316  0.65805173  0.19798598  1
  Li  Li462  1  0.54126684  0.65805173  0.80201402  1
  Li  Li463  1  0.54126684  0.34194827  0.19798598  1
  Li  Li464  1  0.80201402  0.95873316  0.84194827  1
  Li  Li465  1  0.19798598  0.95873316  0.15805173  1
  Li  Li466  1  0.80201402  0.04126684  0.15805173  1
  Li  Li467  1  0.19798598  0.04126684  0.84194827  1
  Li  Li468  1  0.80201402  0.34194827  0.45873316  1
  Li  Li469  1  0.19798598  0.65805173  0.45873316  1
  Li  Li470  1  0.80201402  0.65805173  0.54126684  1
  Li  Li471  1  0.19798598  0.34194827  0.54126684  1
  Li  Li472  1  0.84194827  0.95873316  0.80201402  1
  Li  Li473  1  0.15805173  0.95873316  0.19798598  1
  Li  Li474  1  0.15805173  0.04126684  0.80201402  1
  Li  Li475  1  0.84194827  0.04126684  0.19798598  1
  Li  Li476  1  0.45873316  0.30201402  0.84194827  1
  Li  Li477  1  0.45873316  0.69798598  0.15805173  1
  Li  Li478  1  0.54126684  0.30201402  0.15805173  1
  Li  Li479  1  0.54126684  0.69798598  0.84194827  1
  Li  Li480  1  0.84194827  0.80201402  0.95873316  1
  Li  Li481  1  0.15805173  0.19798598  0.95873316  1
  Li  Li482  1  0.15805173  0.80201402  0.04126684  1
  Li  Li483  1  0.84194827  0.19798598  0.04126684  1
  Li  Li484  1  0.45873316  0.84194827  0.30201402  1
  Li  Li485  1  0.45873316  0.15805173  0.69798598  1
  Li  Li486  1  0.54126684  0.15805173  0.30201402  1
  Li  Li487  1  0.54126684  0.84194827  0.69798598  1
  Li  Li488  1  0.80201402  0.45873316  0.34194827  1
  Li  Li489  1  0.19798598  0.45873316  0.65805173  1
  Li  Li490  1  0.80201402  0.54126684  0.65805173  1
  Li  Li491  1  0.19798598  0.54126684  0.34194827  1
  Li  Li492  1  0.80201402  0.84194827  0.95873316  1
  Li  Li493  1  0.19798598  0.15805173  0.95873316  1
  Li  Li494  1  0.80201402  0.15805173  0.04126684  1
  Li  Li495  1  0.19798598  0.84194827  0.04126684  1
  Li  Li496  1  0.84194827  0.45873316  0.30201402  1
  Li  Li497  1  0.15805173  0.45873316  0.69798598  1
  Li  Li498  1  0.15805173  0.54126684  0.30201402  1
  Li  Li499  1  0.84194827  0.54126684  0.69798598  1
  Li  Li500  1  0.45873316  0.80201402  0.34194827  1
  Li  Li501  1  0.45873316  0.19798598  0.65805173  1
  Li  Li502  1  0.54126684  0.80201402  0.65805173  1
  Li  Li503  1  0.54126684  0.19798598  0.34194827  1
  Li  Li504  1  0.90450734  0.90450734  0.81680350  1
  Li  Li505  1  0.09549266  0.09549266  0.81680350  1
  Li  Li506  1  0.09549266  0.90450734  0.18319650  1
  Li  Li507  1  0.90450734  0.09549266  0.18319650  1
  Li  Li508  1  0.81680350  0.90450734  0.90450734  1
  Li  Li509  1  0.81680350  0.09549266  0.09549266  1
  Li  Li510  1  0.18319650  0.09549266  0.90450734  1
  Li  Li511  1  0.18319650  0.90450734  0.09549266  1
  Li  Li512  1  0.90450734  0.81680350  0.90450734  1
  Li  Li513  1  0.09549266  0.81680350  0.09549266  1
  Li  Li514  1  0.90450734  0.18319650  0.09549266  1
  Li  Li515  1  0.09549266  0.18319650  0.90450734  1
  Li  Li516  1  0.90450734  0.40450734  0.31680350  1
  Li  Li517  1  0.09549266  0.59549266  0.31680350  1
  Li  Li518  1  0.09549266  0.40450734  0.68319650  1
  Li  Li519  1  0.90450734  0.59549266  0.68319650  1
  Li  Li520  1  0.81680350  0.40450734  0.40450734  1
  Li  Li521  1  0.81680350  0.59549266  0.59549266  1
  Li  Li522  1  0.18319650  0.59549266  0.40450734  1
  Li  Li523  1  0.18319650  0.40450734  0.59549266  1
  Li  Li524  1  0.90450734  0.31680350  0.40450734  1
  Li  Li525  1  0.09549266  0.31680350  0.59549266  1
  Li  Li526  1  0.90450734  0.68319650  0.59549266  1
  Li  Li527  1  0.09549266  0.68319650  0.40450734  1
  Li  Li528  1  0.40450734  0.90450734  0.31680350  1
  Li  Li529  1  0.59549266  0.09549266  0.31680350  1
  Li  Li530  1  0.59549266  0.90450734  0.68319650  1
  Li  Li531  1  0.40450734  0.09549266  0.68319650  1
  Li  Li532  1  0.31680350  0.90450734  0.40450734  1
  Li  Li533  1  0.31680350  0.09549266  0.59549266  1
  Li  Li534  1  0.68319650  0.09549266  0.40450734  1
  Li  Li535  1  0.68319650  0.90450734  0.59549266  1
  Li  Li536  1  0.40450734  0.81680350  0.40450734  1
  Li  Li537  1  0.59549266  0.81680350  0.59549266  1
  Li  Li538  1  0.40450734  0.18319650  0.59549266  1
  Li  Li539  1  0.59549266  0.18319650  0.40450734  1
  Li  Li540  1  0.40450734  0.40450734  0.81680350  1
  Li  Li541  1  0.59549266  0.59549266  0.81680350  1
  Li  Li542  1  0.59549266  0.40450734  0.18319650  1
  Li  Li543  1  0.40450734  0.59549266  0.18319650  1
  Li  Li544  1  0.31680350  0.40450734  0.90450734  1
  Li  Li545  1  0.31680350  0.59549266  0.09549266  1
  Li  Li546  1  0.68319650  0.59549266  0.90450734  1
  Li  Li547  1  0.68319650  0.40450734  0.09549266  1
  Li  Li548  1  0.40450734  0.31680350  0.90450734  1
  Li  Li549  1  0.59549266  0.31680350  0.09549266  1
  Li  Li550  1  0.40450734  0.68319650  0.09549266  1
  Li  Li551  1  0.59549266  0.68319650  0.90450734  1
  Li  Li552  1  0.73597572  -0.00000000  -0.00000000  1
  Li  Li553  1  0.26402428  -0.00000000  -0.00000000  1
  Li  Li554  1  0.00000000  0.73597572  -0.00000000  1
  Li  Li555  1  0.00000000  0.26402428  -0.00000000  1
  Li  Li556  1  0.00000000  0.00000000  0.73597572  1
  Li  Li557  1  0.00000000  0.00000000  0.26402428  1
  Li  Li558  1  0.73597572  0.50000000  0.50000000  1
  Li  Li559  1  0.26402428  0.50000000  0.50000000  1
  Li  Li560  1  0.00000000  0.23597572  0.50000000  1
  Li  Li561  1  0.00000000  0.76402428  0.50000000  1
  Li  Li562  1  0.00000000  0.50000000  0.23597572  1
  Li  Li563  1  0.00000000  0.50000000  0.76402428  1
  Li  Li564  1  0.23597572  0.00000000  0.50000000  1
  Li  Li565  1  0.76402428  0.00000000  0.50000000  1
  Li  Li566  1  0.50000000  0.73597572  0.50000000  1
  Li  Li567  1  0.50000000  0.26402428  0.50000000  1
  Li  Li568  1  0.50000000  0.00000000  0.23597572  1
  Li  Li569  1  0.50000000  0.00000000  0.76402428  1
  Li  Li570  1  0.23597572  0.50000000  -0.00000000  1
  Li  Li571  1  0.76402428  0.50000000  0.00000000  1
  Li  Li572  1  0.50000000  0.23597572  -0.00000000  1
  Li  Li573  1  0.50000000  0.76402428  0.00000000  1
  Li  Li574  1  0.50000000  0.50000000  0.73597572  1
  Li  Li575  1  0.50000000  0.50000000  0.26402428  1
