# generated using pymatgen
data_K2Li6LaCr(CuO)2
_symmetry_space_group_name_H-M   'P 1'
_cell_length_a   12.53960454
_cell_length_b   10.80302546
_cell_length_c   13.33135496
_cell_angle_alpha   90.00000000
_cell_angle_beta   90.00000000
_cell_angle_gamma   90.00000000
_symmetry_Int_Tables_number   1
_chemical_formula_structural   K2Li6LaCr(CuO)2
_chemical_formula_sum   'K2 Li6 La1 Cr1 Cu2 O2'
_cell_volume   1805.94089153
_cell_formula_units_Z   1
loop_
 _symmetry_equiv_pos_site_id
 _symmetry_equiv_pos_as_xyz
  1  'x, y, z'
loop_
 _atom_site_type_symbol
 _atom_site_label
 _atom_site_symmetry_multiplicity
 _atom_site_fract_x
 _atom_site_fract_y
 _atom_site_fract_z
 _atom_site_occupancy
  Li  Li0  1  0.12500000  0.00000000  0.25000000  1
  Li  Li1  1  0.00000000  0.00000000  0.00000000  1
  Li  Li2  1  0.37500000  0.00000000  0.25000000  1
  Li  Li3  1  0.25000000  0.25000000  0.25000000  1
  Li  Li4  1  0.00000000  0.25000000  0.12500000  1
  Li  Li5  1  0.11503584  0.96443605  0.20237251  1
  La  La6  1  0.67038888  0.19250578  0.86870084  1
  Cu  Cu7  1  0.53428286  0.35507658  0.84418534  1
  Cu  Cu8  1  0.33320558  0.25299933  0.79323842  1
  Cr  Cr9  1  0.45626949  0.67409396  0.06109307  1
  K  K10  1  0.26542836  0.21044666  0.32437775  1
  K  K11  1  0.78857719  0.08894586  0.22943909  1
  O  O12  1  0.30164424  0.95946678  0.73876748  1
  O  O13  1  0.23307541  0.01705568  0.94676080  1
