# generated using pymatgen
data_Na2Li4CaSe4
_symmetry_space_group_name_H-M   'P 1'
_cell_length_a   10.65173676
_cell_length_b   14.66305832
_cell_length_c   8.27402827
_cell_angle_alpha   90.00000000
_cell_angle_beta   90.00000000
_cell_angle_gamma   90.00000000
_symmetry_Int_Tables_number   1
_chemical_formula_structural   Na2Li4CaSe4
_chemical_formula_sum   'Na8 Li16 Ca4 Se16'
_cell_volume   1292.29596246
_cell_formula_units_Z   4
loop_
 _symmetry_equiv_pos_site_id
 _symmetry_equiv_pos_as_xyz
  1  'x, y, z'
loop_
 _atom_site_type_symbol
 _atom_site_label
 _atom_site_symmetry_multiplicity
 _atom_site_fract_x
 _atom_site_fract_y
 _atom_site_fract_z
 _atom_site_occupancy
  Ca  Ca0  1  0.35482340  0.25000000  0.18807049  1
  Ca  Ca1  1  0.14517660  0.75000000  0.68807049  1
  Ca  Ca2  1  0.64517660  0.75000000  0.81192951  1
  Ca  Ca3  1  0.85482340  0.25000000  0.31192951  1
  Li  Li4  1  0.72090288  0.52247616  0.79921318  1
  Li  Li5  1  -0.22090288  -0.52247616  1.29921318  1
  Li  Li6  1  -0.72090288  1.02247616  -0.79921318  1
  Li  Li7  1  1.22090288  -0.02247616  -0.29921318  1
  Li  Li8  1  -0.72090288  -0.52247616  -0.79921318  1
  Li  Li9  1  1.22090288  0.52247616  -0.29921318  1
  Li  Li10  1  0.72090288  -0.02247616  0.79921318  1
  Li  Li11  1  -0.22090288  1.02247616  1.29921318  1
  Li  Li12  1  0.00000000  0.00000000  0.00000000  1
  Li  Li13  1  0.50000000  -0.00000000  0.50000000  1
  Li  Li14  1  0.00000000  0.50000000  0.00000000  1
  Li  Li15  1  0.50000000  0.50000000  0.50000000  1
  Li  Li16  1  0.77309044  0.25000000  0.77526475  1
  Li  Li17  1  0.72690956  0.75000000  0.27526475  1
  Li  Li18  1  0.22690956  0.75000000  0.22473525  1
  Li  Li19  1  0.27309044  0.25000000  0.72473525  1
  Na  Na20  1  0.55797845  0.25000000  0.89125727  1
  Na  Na21  1  0.94202155  0.75000000  0.39125727  1
  Na  Na22  1  0.44202155  0.75000000  0.10874273  1
  Na  Na23  1  0.05797845  0.25000000  0.60874273  1
  Na  Na24  1  0.10001281  0.25000000  0.84874380  1
  Na  Na25  1  0.39998719  0.75000000  0.34874380  1
  Na  Na26  1  0.89998719  0.75000000  0.15125620  1
  Na  Na27  1  0.60001281  0.25000000  0.65125620  1
  Se  Se28  1  0.37639140  0.86334299  0.89378275  1
  Se  Se29  1  0.12360860  0.13665701  0.39378275  1
  Se  Se30  1  0.62360860  0.36334299  0.10621725  1
  Se  Se31  1  0.87639140  0.63665701  0.60621725  1
  Se  Se32  1  0.62360860  0.13665701  0.10621725  1
  Se  Se33  1  0.87639140  0.86334299  0.60621725  1
  Se  Se34  1  0.37639140  0.63665701  0.89378275  1
  Se  Se35  1  0.12360860  0.36334299  0.39378275  1
  Se  Se36  1  0.94181700  0.17891344  0.06676006  1
  Se  Se37  1  0.55818300  0.82108656  0.56676006  1
  Se  Se38  1  0.05818300  0.67891344  0.93323994  1
  Se  Se39  1  0.44181700  0.32108656  0.43323994  1
  Se  Se40  1  0.05818300  0.82108656  0.93323994  1
  Se  Se41  1  0.44181700  0.17891344  0.43323994  1
  Se  Se42  1  0.94181700  0.32108656  0.06676006  1
  Se  Se43  1  0.55818300  0.67891344  0.56676006  1
