# generated using pymatgen
data_Li2TiS
_symmetry_space_group_name_H-M   'P 1'
_cell_length_a   3.57287740
_cell_length_b   3.11354316
_cell_length_c   6.77987346
_cell_angle_alpha   102.73061182
_cell_angle_beta   119.99876380
_cell_angle_gamma   118.21914252
_symmetry_Int_Tables_number   1
_chemical_formula_structural   Li2TiS
_chemical_formula_sum   'Li2 Ti1 S1'
_cell_volume   46.10453999
_cell_formula_units_Z   1
loop_
 _symmetry_equiv_pos_site_id
 _symmetry_equiv_pos_as_xyz
  1  'x, y, z'
loop_
 _atom_site_type_symbol
 _atom_site_label
 _atom_site_symmetry_multiplicity
 _atom_site_fract_x
 _atom_site_fract_y
 _atom_site_fract_z
 _atom_site_occupancy
  Li  Li0  1  0.00000000  0.00000000  0.00000000  1
  Li  Li1  1  0.33300000  0.66700000  0.25000000  1
  Ti  Ti2  1  0.66700000  0.33300000  0.50000000  1
  S  S3  1  0.00000000  0.00000000  0.75000000  1
