# generated using pymatgen
data_LiMgZr2I3Cl8
_symmetry_space_group_name_H-M   'P 1'
_cell_length_a   17.46791720
_cell_length_b   17.46791720
_cell_length_c   8.14339615
_cell_angle_alpha   90.00000000
_cell_angle_beta   90.00000000
_cell_angle_gamma   90.00000000
_symmetry_Int_Tables_number   1
_chemical_formula_structural   LiMgZr2I3Cl8
_chemical_formula_sum   'Li8 Mg8 Zr16 I24 Cl64'
_cell_volume   2484.77925012
_cell_formula_units_Z   8
loop_
 _symmetry_equiv_pos_site_id
 _symmetry_equiv_pos_as_xyz
  1  'x, y, z'
loop_
 _atom_site_type_symbol
 _atom_site_label
 _atom_site_symmetry_multiplicity
 _atom_site_fract_x
 _atom_site_fract_y
 _atom_site_fract_z
 _atom_site_occupancy
  Cl  Cl0  1  0.69978884  0.85978954  0.20012876  1
  Cl  Cl1  1  -0.19978884  -0.85978954  0.70012876  1
  Cl  Cl2  1  -0.60978954  1.44978884  0.45012876  1
  Cl  Cl3  1  1.10978954  -0.44978884  0.95012876  1
  Cl  Cl4  1  -0.19978884  0.85978954  0.29987124  1
  Cl  Cl5  1  0.69978884  -0.85978954  -0.20012876  1
  Cl  Cl6  1  1.10978954  1.44978884  0.04987124  1
  Cl  Cl7  1  -0.60978954  -0.44978884  0.54987124  1
  Cl  Cl8  1  -0.69978884  -0.85978954  -0.20012876  1
  Cl  Cl9  1  1.19978884  0.85978954  0.29987124  1
  Cl  Cl10  1  1.60978954  -0.44978884  0.54987124  1
  Cl  Cl11  1  -0.10978954  1.44978884  0.04987124  1
  Cl  Cl12  1  1.19978884  -0.85978954  0.70012876  1
  Cl  Cl13  1  -0.69978884  0.85978954  0.20012876  1
  Cl  Cl14  1  -0.10978954  -0.44978884  0.95012876  1
  Cl  Cl15  1  1.60978954  1.44978884  0.45012876  1
  Cl  Cl16  1  1.19978884  1.35978954  0.70012876  1
  Cl  Cl17  1  0.30021116  -0.35978954  1.20012876  1
  Cl  Cl18  1  -0.10978954  1.94978884  0.95012876  1
  Cl  Cl19  1  1.60978954  0.05021116  1.45012876  1
  Cl  Cl20  1  0.30021116  1.35978954  0.79987124  1
  Cl  Cl21  1  1.19978884  -0.35978954  0.29987124  1
  Cl  Cl22  1  1.60978954  1.94978884  0.54987124  1
  Cl  Cl23  1  -0.10978954  0.05021116  1.04987124  1
  Cl  Cl24  1  -0.19978884  -0.35978954  0.29987124  1
  Cl  Cl25  1  1.69978884  1.35978954  0.79987124  1
  Cl  Cl26  1  2.10978954  0.05021116  1.04987124  1
  Cl  Cl27  1  0.39021046  1.94978884  0.54987124  1
  Cl  Cl28  1  1.69978884  -0.35978954  1.20012876  1
  Cl  Cl29  1  -0.19978884  1.35978954  0.70012876  1
  Cl  Cl30  1  0.39021046  0.05021116  1.45012876  1
  Cl  Cl31  1  2.10978954  1.94978884  0.95012876  1
  Cl  Cl32  1  0.00000000  0.31538977  0.52212258  1
  Cl  Cl33  1  0.50000000  0.68461023  0.02212258  1
  Cl  Cl34  1  0.93461023  0.75000000  0.77212258  1
  Cl  Cl35  1  0.56538977  0.25000000  0.27212258  1
  Cl  Cl36  1  0.50000000  0.31538977  0.97787742  1
  Cl  Cl37  1  0.00000000  0.68461023  0.47787742  1
  Cl  Cl38  1  0.56538977  0.75000000  0.72787742  1
  Cl  Cl39  1  0.93461023  0.25000000  0.22787742  1
  Cl  Cl40  1  0.50000000  0.81538977  0.02212258  1
  Cl  Cl41  1  0.00000000  0.18461023  0.52212258  1
  Cl  Cl42  1  0.43461023  0.25000000  0.27212258  1
  Cl  Cl43  1  0.06538977  0.75000000  0.77212258  1
  Cl  Cl44  1  0.00000000  0.81538977  0.47787742  1
  Cl  Cl45  1  0.50000000  0.18461023  0.97787742  1
  Cl  Cl46  1  0.06538977  0.25000000  0.22787742  1
  Cl  Cl47  1  0.43461023  0.75000000  0.72787742  1
  Cl  Cl48  1  0.00000000  0.10145092  0.98683493  1
  Cl  Cl49  1  0.50000000  0.89854908  0.48683493  1
  Cl  Cl50  1  0.14854908  0.75000000  0.23683493  1
  Cl  Cl51  1  0.35145092  0.25000000  0.73683493  1
  Cl  Cl52  1  0.50000000  0.10145092  0.51316507  1
  Cl  Cl53  1  0.00000000  0.89854908  0.01316507  1
  Cl  Cl54  1  0.35145092  0.75000000  0.26316507  1
  Cl  Cl55  1  0.14854908  0.25000000  0.76316507  1
  Cl  Cl56  1  0.50000000  0.60145092  0.48683493  1
  Cl  Cl57  1  0.00000000  0.39854908  0.98683493  1
  Cl  Cl58  1  0.64854908  0.25000000  0.73683493  1
  Cl  Cl59  1  0.85145092  0.75000000  0.23683493  1
  Cl  Cl60  1  0.00000000  0.60145092  0.01316507  1
  Cl  Cl61  1  0.50000000  0.39854908  0.51316507  1
  Cl  Cl62  1  0.85145092  0.25000000  0.76316507  1
  Cl  Cl63  1  0.64854908  0.75000000  0.26316507  1
  I  I64  1  0.00000000  0.00565967  0.26851831  1
  I  I65  1  0.50000000  0.99434033  0.76851831  1
  I  I66  1  0.24434033  0.75000000  0.51851831  1
  I  I67  1  0.25565967  0.25000000  0.01851831  1
  I  I68  1  0.50000000  0.00565967  0.23148169  1
  I  I69  1  0.00000000  0.99434033  0.73148169  1
  I  I70  1  0.25565967  0.75000000  0.98148169  1
  I  I71  1  0.24434033  0.25000000  0.48148169  1
  I  I72  1  0.50000000  0.50565967  0.76851831  1
  I  I73  1  0.00000000  0.49434033  0.26851831  1
  I  I74  1  0.74434033  0.25000000  0.01851831  1
  I  I75  1  0.75565967  0.75000000  0.51851831  1
  I  I76  1  0.00000000  0.50565967  0.73148169  1
  I  I77  1  0.50000000  0.49434033  0.23148169  1
  I  I78  1  0.75565967  0.25000000  0.48148169  1
  I  I79  1  0.74434033  0.75000000  0.98148169  1
  I  I80  1  0.00000000  0.25000000  0.37500000  1
  I  I81  1  0.00000000  0.75000000  0.62500000  1
  I  I82  1  0.50000000  0.75000000  0.87500000  1
  I  I83  1  0.50000000  0.25000000  0.12500000  1
  I  I84  1  0.00000000  0.75000000  0.12500000  1
  I  I85  1  0.50000000  0.75000000  0.37500000  1
  I  I86  1  0.50000000  0.25000000  0.62500000  1
  I  I87  1  0.00000000  0.25000000  0.87500000  1
  Li  Li88  1  0.00000000  0.00000000  0.50000000  1
  Li  Li89  1  0.50000000  0.00000000  0.00000000  1
  Li  Li90  1  0.25000000  0.75000000  0.75000000  1
  Li  Li91  1  0.25000000  0.25000000  0.25000000  1
  Li  Li92  1  0.50000000  0.50000000  0.00000000  1
  Li  Li93  1  0.00000000  0.50000000  0.50000000  1
  Li  Li94  1  0.75000000  0.25000000  0.25000000  1
  Li  Li95  1  0.75000000  0.75000000  0.75000000  1
  Mg  Mg96  1  0.00000000  0.00000000  0.00000000  1
  Mg  Mg97  1  0.50000000  0.00000000  0.50000000  1
  Mg  Mg98  1  0.25000000  0.75000000  0.25000000  1
  Mg  Mg99  1  0.25000000  0.25000000  0.75000000  1
  Mg  Mg100  1  0.50000000  0.50000000  0.50000000  1
  Mg  Mg101  1  0.00000000  0.50000000  0.00000000  1
  Mg  Mg102  1  0.75000000  0.25000000  0.75000000  1
  Mg  Mg103  1  0.75000000  0.75000000  0.25000000  1
  Zr  Zr104  1  0.30193045  0.00000000  0.00000000  1
  Zr  Zr105  1  0.19806955  0.00000000  0.50000000  1
  Zr  Zr106  1  0.25000000  0.05193045  0.25000000  1
  Zr  Zr107  1  0.25000000  0.94806955  0.75000000  1
  Zr  Zr108  1  0.69806955  0.00000000  0.00000000  1
  Zr  Zr109  1  0.80193045  0.00000000  0.50000000  1
  Zr  Zr110  1  0.75000000  0.94806955  0.75000000  1
  Zr  Zr111  1  0.75000000  0.05193045  0.25000000  1
  Zr  Zr112  1  0.80193045  0.50000000  0.50000000  1
  Zr  Zr113  1  0.69806955  0.50000000  0.00000000  1
  Zr  Zr114  1  0.75000000  0.55193045  0.75000000  1
  Zr  Zr115  1  0.75000000  0.44806955  0.25000000  1
  Zr  Zr116  1  0.19806955  0.50000000  0.50000000  1
  Zr  Zr117  1  0.30193045  0.50000000  0.00000000  1
  Zr  Zr118  1  0.25000000  0.44806955  0.25000000  1
  Zr  Zr119  1  0.25000000  0.55193045  0.75000000  1
