# generated using pymatgen
data_Li6Ti3Sb4BrO3
_symmetry_space_group_name_H-M   'P 1'
_cell_length_a   8.01792248
_cell_length_b   8.06668720
_cell_length_c   6.53916059
_cell_angle_alpha   90.00000000
_cell_angle_beta   90.00000000
_cell_angle_gamma   90.00000000
_symmetry_Int_Tables_number   1
_chemical_formula_structural   Li6Ti3Sb4BrO3
_chemical_formula_sum   'Li6 Ti3 Sb4 Br1 O3'
_cell_volume   422.94030411
_cell_formula_units_Z   1
loop_
 _symmetry_equiv_pos_site_id
 _symmetry_equiv_pos_as_xyz
  1  'x, y, z'
loop_
 _atom_site_type_symbol
 _atom_site_label
 _atom_site_symmetry_multiplicity
 _atom_site_fract_x
 _atom_site_fract_y
 _atom_site_fract_z
 _atom_site_occupancy
  Li  Li0  1  0.12500000  0.12500000  0.12500000  1
  Li  Li1  1  0.50000000  0.50000000  0.50000000  1
  Li  Li2  1  0.25000000  0.25000000  0.25000000  1
  Li  Li3  1  0.75000000  0.75000000  0.75000000  1
  Li  Li4  1  0.84083205  0.76371887  0.55284102  1
  Li  Li5  1  0.28806340  0.25872553  0.19075632  1
  Ti  Ti6  1  0.28910940  0.85143084  0.23061997  1
  Ti  Ti7  1  0.50834491  0.10436261  0.98341426  1
  Ti  Ti8  1  0.94449440  0.94504975  0.53370950  1
  O  O9  1  0.91639105  0.10106691  0.15909271  1
  O  O10  1  0.80836620  0.03676388  0.34002550  1
  O  O11  1  0.51806469  0.33006429  0.33369989  1
  Sb  Sb12  1  0.13146612  0.02824475  0.83919638  1
  Sb  Sb13  1  0.74971046  0.73696259  0.14215007  1
  Sb  Sb14  1  0.48593824  0.52508820  0.62093935  1
  Sb  Sb15  1  0.04739081  0.68566444  0.26226134  1
  Br  Br16  1  0.26487442  0.20257666  0.48744885  1
