# generated using pymatgen
data_Li2O
_symmetry_space_group_name_H-M   'P 1'
_cell_length_a   9.30690675
_cell_length_b   9.30690675
_cell_length_c   4.61641843
_cell_angle_alpha   90.00000000
_cell_angle_beta   90.00000000
_cell_angle_gamma   120.00000000
_symmetry_Int_Tables_number   1
_chemical_formula_structural   Li2O
_chemical_formula_sum   'Li18 O9'
_cell_volume   346.29524098
_cell_formula_units_Z   9
loop_
 _symmetry_equiv_pos_site_id
 _symmetry_equiv_pos_as_xyz
  1  'x, y, z'
loop_
 _atom_site_type_symbol
 _atom_site_label
 _atom_site_symmetry_multiplicity
 _atom_site_fract_x
 _atom_site_fract_y
 _atom_site_fract_z
 _atom_site_occupancy
  Li  Li0  1  0.61439005  0.00000000  0.00000000  1
  Li  Li1  1  0.00000000  0.61439005  -0.00000000  1
  Li  Li2  1  0.38560995  0.38560995  -0.00000000  1
  Li  Li3  1  0.29031534  0.00000000  0.78351922  1
  Li  Li4  1  0.00000000  0.29031534  0.78351922  1
  Li  Li5  1  0.70968466  0.70968466  0.78351922  1
  Li  Li6  1  0.29031534  0.00000000  0.21648078  1
  Li  Li7  1  0.00000000  0.29031534  0.21648078  1
  Li  Li8  1  0.70968466  0.70968466  0.21648078  1
  Li  Li9  1  0.83010533  0.00000000  0.50000000  1
  Li  Li10  1  0.00000000  0.83010533  0.50000000  1
  Li  Li11  1  0.16989467  0.16989467  0.50000000  1
  Li  Li12  1  0.20687875  0.39161527  -0.00000000  1
  Li  Li13  1  0.60838473  0.81526348  -0.00000000  1
  Li  Li14  1  0.18473652  0.79312125  -0.00000000  1
  Li  Li15  1  0.39161527  0.20687875  -0.00000000  1
  Li  Li16  1  0.81526348  0.60838473  -0.00000000  1
  Li  Li17  1  0.79312125  0.18473652  -0.00000000  1
  O  O18  1  0.33333333  0.66666667  0.00000000  1
  O  O19  1  0.66666667  0.33333333  0.00000000  1
  O  O20  1  0.23503538  0.31478125  0.50000000  1
  O  O21  1  -0.31478125  -0.07974587  0.50000000  1
  O  O22  1  0.07974587  -0.23503538  0.50000000  1
  O  O23  1  0.31478125  0.23503538  0.50000000  1
  O  O24  1  -0.07974587  -0.31478125  0.50000000  1
  O  O25  1  -0.23503538  0.07974587  0.50000000  1
  O  O26  1  0.00000000  0.00000000  0.00000000  1
