# generated using pymatgen
data_K3Sr2Li3I4O3
_symmetry_space_group_name_H-M   'P 1'
_cell_length_a   15.79130745
_cell_length_b   15.79130745
_cell_length_c   15.79130745
_cell_angle_alpha   90.00000000
_cell_angle_beta   90.00000000
_cell_angle_gamma   90.00000000
_symmetry_Int_Tables_number   1
_chemical_formula_structural   K3Sr2Li3I4O3
_chemical_formula_sum   'K24 Sr16 Li24 I32 O24'
_cell_volume   3937.80555385
_cell_formula_units_Z   8
loop_
 _symmetry_equiv_pos_site_id
 _symmetry_equiv_pos_as_xyz
  1  'x, y, z'
loop_
 _atom_site_type_symbol
 _atom_site_label
 _atom_site_symmetry_multiplicity
 _atom_site_fract_x
 _atom_site_fract_y
 _atom_site_fract_z
 _atom_site_occupancy
  I  I0  1  0.98363418  0.00000000  0.25000000  1
  I  I1  1  0.51636582  0.00000000  0.75000000  1
  I  I2  1  0.25000000  0.98363418  0.00000000  1
  I  I3  1  0.75000000  0.51636582  0.00000000  1
  I  I4  1  0.00000000  0.25000000  0.98363418  1
  I  I5  1  0.00000000  0.75000000  0.51636582  1
  I  I6  1  0.75000000  0.23363418  0.00000000  1
  I  I7  1  0.75000000  0.76636582  0.50000000  1
  I  I8  1  0.73363418  0.50000000  0.25000000  1
  I  I9  1  0.26636582  0.00000000  0.25000000  1
  I  I10  1  0.00000000  0.25000000  0.26636582  1
  I  I11  1  0.50000000  0.25000000  0.73363418  1
  I  I12  1  0.48363418  0.50000000  0.75000000  1
  I  I13  1  0.01636582  0.50000000  0.25000000  1
  I  I14  1  0.75000000  0.48363418  0.50000000  1
  I  I15  1  0.25000000  0.01636582  0.50000000  1
  I  I16  1  0.50000000  0.75000000  0.48363418  1
  I  I17  1  0.50000000  0.25000000  0.01636582  1
  I  I18  1  0.25000000  0.73363418  0.50000000  1
  I  I19  1  0.25000000  0.26636582  0.00000000  1
  I  I20  1  0.23363418  0.00000000  0.75000000  1
  I  I21  1  0.76636582  0.50000000  0.75000000  1
  I  I22  1  0.50000000  0.75000000  0.76636582  1
  I  I23  1  0.00000000  0.75000000  0.23363418  1
  I  I24  1  0.12500000  0.12500000  0.12500000  1
  I  I25  1  0.37500000  0.87500000  0.62500000  1
  I  I26  1  0.87500000  0.62500000  0.37500000  1
  I  I27  1  0.62500000  0.37500000  0.87500000  1
  I  I28  1  0.62500000  0.62500000  0.62500000  1
  I  I29  1  0.87500000  0.37500000  0.12500000  1
  I  I30  1  0.37500000  0.12500000  0.87500000  1
  I  I31  1  0.12500000  0.87500000  0.37500000  1
  K  K32  1  0.12500000  0.45242071  0.70242071  1
  K  K33  1  0.37500000  0.54757929  0.20242071  1
  K  K34  1  0.87500000  0.95242071  0.79757929  1
  K  K35  1  0.62500000  0.04757929  0.29757929  1
  K  K36  1  0.70242071  0.12500000  0.45242071  1
  K  K37  1  0.20242071  0.37500000  0.54757929  1
  K  K38  1  0.79757929  0.87500000  0.95242071  1
  K  K39  1  0.29757929  0.62500000  0.04757929  1
  K  K40  1  0.45242071  0.70242071  0.12500000  1
  K  K41  1  0.54757929  0.20242071  0.37500000  1
  K  K42  1  0.95242071  0.79757929  0.87500000  1
  K  K43  1  0.04757929  0.29757929  0.62500000  1
  K  K44  1  0.62500000  0.95242071  0.20242071  1
  K  K45  1  0.87500000  0.04757929  0.70242071  1
  K  K46  1  0.37500000  0.45242071  0.29757929  1
  K  K47  1  0.12500000  0.54757929  0.79757929  1
  K  K48  1  0.20242071  0.62500000  0.95242071  1
  K  K49  1  0.70242071  0.87500000  0.04757929  1
  K  K50  1  0.29757929  0.37500000  0.45242071  1
  K  K51  1  0.79757929  0.12500000  0.54757929  1
  K  K52  1  0.95242071  0.20242071  0.62500000  1
  K  K53  1  0.04757929  0.70242071  0.87500000  1
  K  K54  1  0.45242071  0.29757929  0.37500000  1
  K  K55  1  0.54757929  0.79757929  0.12500000  1
  Li  Li56  1  0.28879102  0.28879102  0.28879102  1
  Li  Li57  1  0.21120898  0.71120898  0.78879102  1
  Li  Li58  1  0.71120898  0.78879102  0.21120898  1
  Li  Li59  1  0.78879102  0.21120898  0.71120898  1
  Li  Li60  1  0.03879102  0.53879102  0.96120898  1
  Li  Li61  1  0.46120898  0.46120898  0.46120898  1
  Li  Li62  1  0.53879102  0.96120898  0.03879102  1
  Li  Li63  1  0.96120898  0.03879102  0.53879102  1
  Li  Li64  1  0.78879102  0.78879102  0.78879102  1
  Li  Li65  1  0.71120898  0.21120898  0.28879102  1
  Li  Li66  1  0.21120898  0.28879102  0.71120898  1
  Li  Li67  1  0.28879102  0.71120898  0.21120898  1
  Li  Li68  1  0.53879102  0.03879102  0.46120898  1
  Li  Li69  1  0.96120898  0.96120898  0.96120898  1
  Li  Li70  1  0.03879102  0.46120898  0.53879102  1
  Li  Li71  1  0.46120898  0.53879102  0.03879102  1
  Li  Li72  1  0.87500000  0.87500000  0.87500000  1
  Li  Li73  1  0.62500000  0.12500000  0.37500000  1
  Li  Li74  1  0.12500000  0.37500000  0.62500000  1
  Li  Li75  1  0.37500000  0.62500000  0.12500000  1
  Li  Li76  1  0.37500000  0.37500000  0.37500000  1
  Li  Li77  1  0.12500000  0.62500000  0.87500000  1
  Li  Li78  1  0.62500000  0.87500000  0.12500000  1
  Li  Li79  1  0.87500000  0.12500000  0.62500000  1
  O  O80  1  0.12500000  0.04156004  0.20843996  1
  O  O81  1  0.37500000  -0.04156004  0.70843996  1
  O  O82  1  0.87500000  0.54156004  0.29156004  1
  O  O83  1  0.62500000  0.45843996  0.79156004  1
  O  O84  1  0.20843996  0.12500000  0.04156004  1
  O  O85  1  0.70843996  0.37500000  -0.04156004  1
  O  O86  1  0.29156004  0.87500000  0.54156004  1
  O  O87  1  0.79156004  0.62500000  0.45843996  1
  O  O88  1  0.04156004  0.20843996  0.12500000  1
  O  O89  1  -0.04156004  0.70843996  0.37500000  1
  O  O90  1  0.54156004  0.29156004  0.87500000  1
  O  O91  1  0.45843996  0.79156004  0.62500000  1
  O  O92  1  0.62500000  0.54156004  0.70843996  1
  O  O93  1  0.87500000  0.45843996  1.20843996  1
  O  O94  1  1.37500000  1.04156004  0.79156004  1
  O  O95  1  1.12500000  0.95843996  1.29156004  1
  O  O96  1  0.70843996  0.62500000  0.54156004  1
  O  O97  1  1.20843996  0.87500000  0.45843996  1
  O  O98  1  0.79156004  1.37500000  1.04156004  1
  O  O99  1  1.29156004  1.12500000  0.95843996  1
  O  O100  1  0.54156004  0.70843996  0.62500000  1
  O  O101  1  0.45843996  1.20843996  0.87500000  1
  O  O102  1  1.04156004  0.79156004  1.37500000  1
  O  O103  1  0.95843996  1.29156004  1.12500000  1
  Sr  Sr104  1  0.21123892  0.21123892  0.21123892  1
  Sr  Sr105  1  0.28876108  0.78876108  0.71123892  1
  Sr  Sr106  1  0.78876108  0.71123892  0.28876108  1
  Sr  Sr107  1  0.71123892  0.28876108  0.78876108  1
  Sr  Sr108  1  0.96123892  0.46123892  0.03876108  1
  Sr  Sr109  1  0.53876108  0.53876108  0.53876108  1
  Sr  Sr110  1  0.46123892  0.03876108  0.96123892  1
  Sr  Sr111  1  0.03876108  0.96123892  0.46123892  1
  Sr  Sr112  1  0.71123892  0.71123892  0.71123892  1
  Sr  Sr113  1  0.78876108  0.28876108  0.21123892  1
  Sr  Sr114  1  0.28876108  0.21123892  0.78876108  1
  Sr  Sr115  1  0.21123892  0.78876108  0.28876108  1
  Sr  Sr116  1  0.46123892  0.96123892  0.53876108  1
  Sr  Sr117  1  0.03876108  0.03876108  0.03876108  1
  Sr  Sr118  1  0.96123892  0.53876108  0.46123892  1
  Sr  Sr119  1  0.53876108  0.46123892  0.96123892  1
