# generated using pymatgen
data_Li4TiSnBrO
_symmetry_space_group_name_H-M   'P 1'
_cell_length_a   8.18681810
_cell_length_b   7.48234886
_cell_length_c   7.57747022
_cell_angle_alpha   90.00000000
_cell_angle_beta   90.00000000
_cell_angle_gamma   90.00000000
_symmetry_Int_Tables_number   1
_chemical_formula_structural   Li4TiSnBrO
_chemical_formula_sum   'Li4 Ti1 Sn1 Br1 O1'
_cell_volume   464.17028282
_cell_formula_units_Z   1
loop_
 _symmetry_equiv_pos_site_id
 _symmetry_equiv_pos_as_xyz
  1  'x, y, z'
loop_
 _atom_site_type_symbol
 _atom_site_label
 _atom_site_symmetry_multiplicity
 _atom_site_fract_x
 _atom_site_fract_y
 _atom_site_fract_z
 _atom_site_occupancy
  Li  Li0  1  0.00000000  0.00000000  0.00000000  1
  Li  Li1  1  0.50000000  0.50000000  0.50000000  1
  Li  Li2  1  0.25000000  0.25000000  0.25000000  1
  Li  Li3  1  0.75000000  0.25000000  0.00000000  1
  Ti  Ti4  1  0.25000000  0.75000000  0.50000000  1
  Sn  Sn5  1  0.25825225  0.88106340  0.77561652  1
  O  O6  1  0.97908538  0.45172924  0.99638952  1
  Br  Br7  1  0.40100318  0.64198035  0.32870840  1
