# generated using pymatgen
data_LiAl2S2F3
_symmetry_space_group_name_H-M   'P 1'
_cell_length_a   10.20352192
_cell_length_b   10.20352192
_cell_length_c   15.36127350
_cell_angle_alpha   90.00000000
_cell_angle_beta   90.00000000
_cell_angle_gamma   90.00000000
_symmetry_Int_Tables_number   1
_chemical_formula_structural   LiAl2S2F3
_chemical_formula_sum   'Li16 Al32 S32 F48'
_cell_volume   1599.29074855
_cell_formula_units_Z   16
loop_
 _symmetry_equiv_pos_site_id
 _symmetry_equiv_pos_as_xyz
  1  'x, y, z'
loop_
 _atom_site_type_symbol
 _atom_site_label
 _atom_site_symmetry_multiplicity
 _atom_site_fract_x
 _atom_site_fract_y
 _atom_site_fract_z
 _atom_site_occupancy
  Al  Al0  1  0.00000000  0.25000000  0.37500000  1
  Al  Al1  1  0.00000000  0.75000000  0.62500000  1
  Al  Al2  1  0.50000000  0.25000000  0.62500000  1
  Al  Al3  1  0.50000000  0.75000000  0.37500000  1
  Al  Al4  1  0.50000000  0.75000000  0.87500000  1
  Al  Al5  1  0.50000000  0.25000000  0.12500000  1
  Al  Al6  1  0.00000000  0.75000000  0.12500000  1
  Al  Al7  1  0.00000000  0.25000000  0.87500000  1
  Al  Al8  1  0.35791378  -0.00000000  0.25000000  1
  Al  Al9  1  0.14208622  -0.00000000  0.75000000  1
  Al  Al10  1  0.25000000  0.10791378  0.50000000  1
  Al  Al11  1  0.25000000  0.89208622  -0.00000000  1
  Al  Al12  1  0.64208622  -0.00000000  0.75000000  1
  Al  Al13  1  0.85791378  -0.00000000  0.25000000  1
  Al  Al14  1  0.75000000  0.89208622  0.50000000  1
  Al  Al15  1  0.75000000  0.10791378  -0.00000000  1
  Al  Al16  1  0.85791378  0.50000000  0.75000000  1
  Al  Al17  1  0.64208622  0.50000000  0.25000000  1
  Al  Al18  1  0.75000000  0.60791378  -0.00000000  1
  Al  Al19  1  0.75000000  0.39208622  0.50000000  1
  Al  Al20  1  0.14208622  0.50000000  0.25000000  1
  Al  Al21  1  0.35791378  0.50000000  0.75000000  1
  Al  Al22  1  0.25000000  0.39208622  -0.00000000  1
  Al  Al23  1  0.25000000  0.60791378  0.50000000  1
  Al  Al24  1  0.00000000  0.25000000  0.12500000  1
  Al  Al25  1  0.00000000  0.75000000  0.37500000  1
  Al  Al26  1  0.00000000  0.75000000  0.87500000  1
  Al  Al27  1  0.00000000  0.25000000  0.62500000  1
  Al  Al28  1  0.50000000  0.75000000  0.62500000  1
  Al  Al29  1  0.50000000  0.25000000  0.87500000  1
  Al  Al30  1  0.50000000  0.25000000  0.37500000  1
  Al  Al31  1  0.50000000  0.75000000  0.12500000  1
  F  F32  1  0.70346964  0.40497815  0.34159135  1
  F  F33  1  -0.20346964  -0.40497815  0.84159135  1
  F  F34  1  -0.15497815  1.45346964  0.59159135  1
  F  F35  1  0.65497815  -0.45346964  1.09159135  1
  F  F36  1  -0.20346964  0.40497815  -0.34159135  1
  F  F37  1  0.70346964  -0.40497815  0.15840865  1
  F  F38  1  0.65497815  1.45346964  0.40840865  1
  F  F39  1  -0.15497815  -0.45346964  -0.09159135  1
  F  F40  1  -0.70346964  -0.40497815  -0.34159135  1
  F  F41  1  1.20346964  0.40497815  0.15840865  1
  F  F42  1  1.15497815  -0.45346964  0.40840865  1
  F  F43  1  0.34502185  1.45346964  -0.09159135  1
  F  F44  1  1.20346964  -0.40497815  0.34159135  1
  F  F45  1  -0.70346964  0.40497815  0.84159135  1
  F  F46  1  0.34502185  -0.45346964  0.59159135  1
  F  F47  1  1.15497815  1.45346964  1.09159135  1
  F  F48  1  1.20346964  0.90497815  0.84159135  1
  F  F49  1  0.29653036  0.09502185  1.34159135  1
  F  F50  1  0.34502185  1.95346964  1.09159135  1
  F  F51  1  1.15497815  0.04653036  1.59159135  1
  F  F52  1  0.29653036  0.90497815  0.15840865  1
  F  F53  1  1.20346964  0.09502185  0.65840865  1
  F  F54  1  1.15497815  1.95346964  0.90840865  1
  F  F55  1  0.34502185  0.04653036  0.40840865  1
  F  F56  1  -0.20346964  0.09502185  0.15840865  1
  F  F57  1  1.70346964  0.90497815  0.65840865  1
  F  F58  1  1.65497815  0.04653036  0.90840865  1
  F  F59  1  0.84502185  1.95346964  0.40840865  1
  F  F60  1  1.70346964  0.09502185  0.84159135  1
  F  F61  1  -0.20346964  0.90497815  1.34159135  1
  F  F62  1  0.84502185  0.04653036  1.09159135  1
  F  F63  1  1.65497815  1.95346964  1.59159135  1
  F  F64  1  0.31190725  0.56190725  0.12500000  1
  F  F65  1  0.18809275  0.43809275  0.62500000  1
  F  F66  1  0.68809275  0.06190725  0.37500000  1
  F  F67  1  0.81190725  0.93809275  0.87500000  1
  F  F68  1  0.68809275  0.43809275  0.87500000  1
  F  F69  1  0.81190725  0.56190725  0.37500000  1
  F  F70  1  0.31190725  0.93809275  0.62500000  1
  F  F71  1  0.18809275  0.06190725  0.12500000  1
  F  F72  1  0.81190725  0.06190725  0.62500000  1
  F  F73  1  0.68809275  0.93809275  0.12500000  1
  F  F74  1  0.18809275  0.56190725  0.87500000  1
  F  F75  1  0.31190725  0.43809275  0.37500000  1
  F  F76  1  0.18809275  0.93809275  0.37500000  1
  F  F77  1  0.31190725  0.06190725  0.87500000  1
  F  F78  1  0.81190725  0.43809275  0.12500000  1
  F  F79  1  0.68809275  0.56190725  0.62500000  1
  Li  Li80  1  0.00000000  0.00000000  0.00000000  1
  Li  Li81  1  0.50000000  0.00000000  0.50000000  1
  Li  Li82  1  0.25000000  0.75000000  0.25000000  1
  Li  Li83  1  0.25000000  0.25000000  0.75000000  1
  Li  Li84  1  0.50000000  0.00000000  -0.00000000  1
  Li  Li85  1  0.00000000  0.00000000  0.50000000  1
  Li  Li86  1  0.25000000  0.75000000  0.75000000  1
  Li  Li87  1  0.25000000  0.25000000  0.25000000  1
  Li  Li88  1  0.50000000  0.50000000  0.50000000  1
  Li  Li89  1  0.00000000  0.50000000  -0.00000000  1
  Li  Li90  1  0.75000000  0.25000000  0.75000000  1
  Li  Li91  1  0.75000000  0.75000000  0.25000000  1
  Li  Li92  1  0.00000000  0.50000000  0.50000000  1
  Li  Li93  1  0.50000000  0.50000000  -0.00000000  1
  Li  Li94  1  0.75000000  0.25000000  0.25000000  1
  Li  Li95  1  0.75000000  0.75000000  0.75000000  1
  S  S96  1  0.13207399  0.85038748  0.46369650  1
  S  S97  1  0.36792601  0.14961252  0.96369650  1
  S  S98  1  0.39961252  0.88207399  0.71369650  1
  S  S99  1  0.10038748  0.11792601  0.21369650  1
  S  S100  1  0.36792601  0.85038748  0.53630350  1
  S  S101  1  0.13207399  0.14961252  0.03630350  1
  S  S102  1  0.10038748  0.88207399  0.28630350  1
  S  S103  1  0.39961252  0.11792601  0.78630350  1
  S  S104  1  0.86792601  0.14961252  0.53630350  1
  S  S105  1  0.63207399  0.85038748  0.03630350  1
  S  S106  1  0.60038748  0.11792601  0.28630350  1
  S  S107  1  0.89961252  0.88207399  0.78630350  1
  S  S108  1  0.63207399  0.14961252  0.46369650  1
  S  S109  1  0.86792601  0.85038748  0.96369650  1
  S  S110  1  0.89961252  0.11792601  0.71369650  1
  S  S111  1  0.60038748  0.88207399  0.21369650  1
  S  S112  1  0.63207399  0.35038748  0.96369650  1
  S  S113  1  0.86792601  0.64961252  0.46369650  1
  S  S114  1  0.89961252  0.38207399  0.21369650  1
  S  S115  1  0.60038748  0.61792601  0.71369650  1
  S  S116  1  0.86792601  0.35038748  0.03630350  1
  S  S117  1  0.63207399  0.64961252  0.53630350  1
  S  S118  1  0.60038748  0.38207399  0.78630350  1
  S  S119  1  0.89961252  0.61792601  0.28630350  1
  S  S120  1  0.36792601  0.64961252  0.03630350  1
  S  S121  1  0.13207399  0.35038748  0.53630350  1
  S  S122  1  0.10038748  0.61792601  0.78630350  1
  S  S123  1  0.39961252  0.38207399  0.28630350  1
  S  S124  1  0.13207399  0.64961252  0.96369650  1
  S  S125  1  0.36792601  0.35038748  0.46369650  1
  S  S126  1  0.39961252  0.61792601  0.21369650  1
  S  S127  1  0.10038748  0.38207399  0.71369650  1
