# generated using pymatgen
data_LiSbSI2
_symmetry_space_group_name_H-M   'P 1'
_cell_length_a   7.09270178
_cell_length_b   14.63997840
_cell_length_c   8.76901840
_cell_angle_alpha   90.00000000
_cell_angle_beta   90.00000000
_cell_angle_gamma   90.00000000
_symmetry_Int_Tables_number   1
_chemical_formula_structural   LiSbSI2
_chemical_formula_sum   'Li8 Sb8 S8 I16'
_cell_volume   910.54857120
_cell_formula_units_Z   8
loop_
 _symmetry_equiv_pos_site_id
 _symmetry_equiv_pos_as_xyz
  1  'x, y, z'
loop_
 _atom_site_type_symbol
 _atom_site_label
 _atom_site_symmetry_multiplicity
 _atom_site_fract_x
 _atom_site_fract_y
 _atom_site_fract_z
 _atom_site_occupancy
  I  I0  1  0.00000000  0.00000000  0.00000000  1
  I  I1  1  0.50000000  0.00000000  0.50000000  1
  I  I2  1  0.00000000  0.50000000  0.00000000  1
  I  I3  1  0.50000000  0.50000000  0.50000000  1
  I  I4  1  0.00000000  0.00000000  0.50000000  1
  I  I5  1  0.50000000  0.00000000  0.00000000  1
  I  I6  1  0.00000000  0.50000000  0.50000000  1
  I  I7  1  0.50000000  0.50000000  0.00000000  1
  I  I8  1  0.83672848  0.61961062  0.47170213  1
  I  I9  1  -0.33672848  -0.61961062  0.97170213  1
  I  I10  1  -0.83672848  1.11961062  -0.47170213  1
  I  I11  1  1.33672848  -0.11961062  0.02829787  1
  I  I12  1  -0.83672848  -0.61961062  -0.47170213  1
  I  I13  1  1.33672848  0.61961062  0.02829787  1
  I  I14  1  0.83672848  -0.11961062  0.47170213  1
  I  I15  1  -0.33672848  1.11961062  0.97170213  1
  Li  Li16  1  0.47695324  0.25000000  0.39027892  1
  Li  Li17  1  0.02304676  0.75000000  0.89027892  1
  Li  Li18  1  0.52304676  0.75000000  0.60972108  1
  Li  Li19  1  0.97695324  0.25000000  0.10972108  1
  Li  Li20  1  0.28392295  0.25000000  0.22737082  1
  Li  Li21  1  0.21607705  0.75000000  0.72737082  1
  Li  Li22  1  0.71607705  0.75000000  0.77262918  1
  Li  Li23  1  0.78392295  0.25000000  0.27262918  1
  S  S24  1  0.70483171  0.25000000  0.83797715  1
  S  S25  1  0.79516829  0.75000000  0.33797715  1
  S  S26  1  0.29516829  0.75000000  0.16202285  1
  S  S27  1  0.20483171  0.25000000  0.66202285  1
  S  S28  1  0.33593095  0.25000000  0.87849620  1
  S  S29  1  0.16406905  0.75000000  0.37849620  1
  S  S30  1  0.66406905  0.75000000  0.12150380  1
  S  S31  1  0.83593095  0.25000000  0.62150380  1
  Sb  Sb32  1  0.13944879  0.38902182  0.25962696  1
  Sb  Sb33  1  0.36055121  0.61097818  0.75962696  1
  Sb  Sb34  1  0.86055121  0.88902182  0.74037304  1
  Sb  Sb35  1  0.63944879  0.11097818  0.24037304  1
  Sb  Sb36  1  0.86055121  0.61097818  0.74037304  1
  Sb  Sb37  1  0.63944879  0.38902182  0.24037304  1
  Sb  Sb38  1  0.13944879  0.11097818  0.25962696  1
  Sb  Sb39  1  0.36055121  0.88902182  0.75962696  1
