# generated using pymatgen
data_Li2Si4Te3F12
_symmetry_space_group_name_H-M   'P 1'
_cell_length_a   8.98553154
_cell_length_b   8.98553154
_cell_length_c   11.83050831
_cell_angle_alpha   90.00000000
_cell_angle_beta   90.00000000
_cell_angle_gamma   90.00000000
_symmetry_Int_Tables_number   1
_chemical_formula_structural   Li2Si4Te3F12
_chemical_formula_sum   'Li8 Si16 Te12 F48'
_cell_volume   955.19260250
_cell_formula_units_Z   4
loop_
 _symmetry_equiv_pos_site_id
 _symmetry_equiv_pos_as_xyz
  1  'x, y, z'
loop_
 _atom_site_type_symbol
 _atom_site_label
 _atom_site_symmetry_multiplicity
 _atom_site_fract_x
 _atom_site_fract_y
 _atom_site_fract_z
 _atom_site_occupancy
  F  F0  1  0.91630958  0.95408076  0.80087920  1
  F  F1  1  -0.41630958  -0.95408076  1.30087920  1
  F  F2  1  -0.70408076  1.66630958  1.05087920  1
  F  F3  1  1.20408076  -0.66630958  1.55087920  1
  F  F4  1  -0.41630958  0.95408076  -0.30087920  1
  F  F5  1  0.91630958  -0.95408076  -0.80087920  1
  F  F6  1  1.20408076  1.66630958  -0.55087920  1
  F  F7  1  -0.70408076  -0.66630958  -0.05087920  1
  F  F8  1  -0.91630958  -0.95408076  -0.80087920  1
  F  F9  1  1.41630958  0.95408076  -0.30087920  1
  F  F10  1  1.70408076  -0.66630958  -0.05087920  1
  F  F11  1  -0.20408076  1.66630958  -0.55087920  1
  F  F12  1  1.41630958  -0.95408076  1.30087920  1
  F  F13  1  -0.91630958  0.95408076  0.80087920  1
  F  F14  1  -0.20408076  -0.66630958  1.55087920  1
  F  F15  1  1.70408076  1.66630958  1.05087920  1
  F  F16  1  1.41630958  1.45408076  1.30087920  1
  F  F17  1  0.08369042  -0.45408076  1.80087920  1
  F  F18  1  -0.20408076  2.16630958  1.55087920  1
  F  F19  1  1.70408076  -0.16630958  2.05087920  1
  F  F20  1  0.08369042  1.45408076  0.19912080  1
  F  F21  1  1.41630958  -0.45408076  -0.30087920  1
  F  F22  1  1.70408076  2.16630958  -0.05087920  1
  F  F23  1  -0.20408076  -0.16630958  0.44912080  1
  F  F24  1  -0.41630958  -0.45408076  -0.30087920  1
  F  F25  1  1.91630958  1.45408076  0.19912080  1
  F  F26  1  2.20408076  -0.16630958  0.44912080  1
  F  F27  1  0.29591924  2.16630958  -0.05087920  1
  F  F28  1  1.91630958  -0.45408076  1.80087920  1
  F  F29  1  -0.41630958  1.45408076  1.30087920  1
  F  F30  1  0.29591924  -0.16630958  2.05087920  1
  F  F31  1  2.20408076  2.16630958  1.55087920  1
  F  F32  1  0.00000000  0.13866195  0.17701552  1
  F  F33  1  0.50000000  0.86133805  0.67701552  1
  F  F34  1  0.11133805  0.75000000  0.42701552  1
  F  F35  1  0.38866195  0.25000000  0.92701552  1
  F  F36  1  0.50000000  0.13866195  0.32298448  1
  F  F37  1  0.00000000  0.86133805  0.82298448  1
  F  F38  1  0.38866195  0.75000000  0.07298448  1
  F  F39  1  0.11133805  0.25000000  0.57298448  1
  F  F40  1  0.50000000  0.63866195  0.67701552  1
  F  F41  1  0.00000000  0.36133805  0.17701552  1
  F  F42  1  0.61133805  0.25000000  0.92701552  1
  F  F43  1  0.88866195  0.75000000  0.42701552  1
  F  F44  1  0.00000000  0.63866195  0.82298448  1
  F  F45  1  0.50000000  0.36133805  0.32298448  1
  F  F46  1  0.88866195  0.25000000  0.57298448  1
  F  F47  1  0.61133805  0.75000000  0.07298448  1
  Li  Li48  1  0.00000000  0.25000000  0.01423491  1
  Li  Li49  1  0.00000000  0.75000000  0.26423491  1
  Li  Li50  1  0.50000000  0.25000000  0.48576509  1
  Li  Li51  1  0.50000000  0.75000000  0.23576509  1
  Li  Li52  1  0.50000000  0.75000000  0.51423491  1
  Li  Li53  1  0.50000000  0.25000000  0.76423491  1
  Li  Li54  1  0.00000000  0.75000000  0.98576509  1
  Li  Li55  1  0.00000000  0.25000000  0.73576509  1
  Si  Si56  1  0.27171886  0.52171886  0.87500000  1
  Si  Si57  1  0.22828114  0.47828114  0.37500000  1
  Si  Si58  1  0.72828114  0.02171886  0.12500000  1
  Si  Si59  1  0.77171886  0.97828114  0.62500000  1
  Si  Si60  1  0.72828114  0.47828114  0.12500000  1
  Si  Si61  1  0.77171886  0.52171886  0.62500000  1
  Si  Si62  1  0.27171886  0.97828114  0.87500000  1
  Si  Si63  1  0.22828114  0.02171886  0.37500000  1
  Si  Si64  1  0.77171886  0.02171886  0.37500000  1
  Si  Si65  1  0.72828114  0.97828114  0.87500000  1
  Si  Si66  1  0.22828114  0.52171886  0.62500000  1
  Si  Si67  1  0.27171886  0.47828114  0.12500000  1
  Si  Si68  1  0.22828114  0.97828114  0.62500000  1
  Si  Si69  1  0.27171886  0.02171886  0.12500000  1
  Si  Si70  1  0.77171886  0.47828114  0.37500000  1
  Si  Si71  1  0.72828114  0.52171886  0.87500000  1
  Te  Te72  1  0.00000000  0.25000000  0.49337113  1
  Te  Te73  1  0.00000000  0.75000000  0.74337113  1
  Te  Te74  1  0.50000000  0.25000000  0.00662887  1
  Te  Te75  1  0.50000000  0.75000000  0.75662887  1
  Te  Te76  1  0.50000000  0.75000000  0.99337113  1
  Te  Te77  1  0.50000000  0.25000000  0.24337113  1
  Te  Te78  1  0.00000000  0.75000000  0.50662887  1
  Te  Te79  1  0.00000000  0.25000000  0.25662887  1
  Te  Te80  1  0.00000000  0.75000000  0.12500000  1
  Te  Te81  1  0.50000000  0.75000000  0.37500000  1
  Te  Te82  1  0.50000000  0.25000000  0.62500000  1
  Te  Te83  1  0.00000000  0.25000000  0.87500000  1
