# generated using pymatgen
data_Li2Ca3Mg3Se4S3
_symmetry_space_group_name_H-M   'P 1'
_cell_length_a   16.41107582
_cell_length_b   16.41107582
_cell_length_c   3.13797310
_cell_angle_alpha   90.00000000
_cell_angle_beta   90.00000000
_cell_angle_gamma   120.00000000
_symmetry_Int_Tables_number   1
_chemical_formula_structural   Li2Ca3Mg3Se4S3
_chemical_formula_sum   'Li4 Ca6 Mg6 Se8 S6'
_cell_volume   731.90371479
_cell_formula_units_Z   2
loop_
 _symmetry_equiv_pos_site_id
 _symmetry_equiv_pos_as_xyz
  1  'x, y, z'
loop_
 _atom_site_type_symbol
 _atom_site_label
 _atom_site_symmetry_multiplicity
 _atom_site_fract_x
 _atom_site_fract_y
 _atom_site_fract_z
 _atom_site_occupancy
  Ca  Ca0  1  0.87921489  0.92049758  0.25000000  1
  Ca  Ca1  1  0.07950242  0.95871731  0.25000000  1
  Ca  Ca2  1  0.04128269  0.12078511  0.25000000  1
  Ca  Ca3  1  0.12078511  0.07950242  0.75000000  1
  Ca  Ca4  1  0.92049758  0.04128269  0.75000000  1
  Ca  Ca5  1  0.95871731  0.87921489  0.75000000  1
  Li  Li6  1  0.66666667  0.33333333  0.25000000  1
  Li  Li7  1  0.33333333  0.66666667  0.75000000  1
  Li  Li8  1  0.33333333  0.66666667  0.25000000  1
  Li  Li9  1  0.66666667  0.33333333  0.75000000  1
  Mg  Mg10  1  0.22665284  0.08721202  0.25000000  1
  Mg  Mg11  1  0.91278798  0.13944082  0.25000000  1
  Mg  Mg12  1  0.86055918  0.77334716  0.25000000  1
  Mg  Mg13  1  0.77334716  0.91278798  0.75000000  1
  Mg  Mg14  1  0.08721202  0.86055918  0.75000000  1
  Mg  Mg15  1  0.13944082  0.22665284  0.75000000  1
  S  S16  1  0.28901572  0.71672654  0.25000000  1
  S  S17  1  0.28327346  0.57228918  0.25000000  1
  S  S18  1  0.42771082  0.71098428  0.25000000  1
  S  S19  1  0.71098428  0.28327346  0.75000000  1
  S  S20  1  0.71672654  0.42771082  0.75000000  1
  S  S21  1  0.57228918  0.28901572  0.75000000  1
  Se  Se22  1  0.50000000  0.00000000  0.00000000  1
  Se  Se23  1  0.00000000  0.50000000  0.00000000  1
  Se  Se24  1  0.50000000  0.50000000  0.00000000  1
  Se  Se25  1  0.50000000  0.00000000  0.50000000  1
  Se  Se26  1  0.00000000  0.50000000  0.50000000  1
  Se  Se27  1  0.50000000  0.50000000  0.50000000  1
  Se  Se28  1  0.00000000  0.00000000  0.00000000  1
  Se  Se29  1  0.00000000  0.00000000  0.50000000  1
