# generated using pymatgen
data_LiCl
_symmetry_space_group_name_H-M   'P 1'
_cell_length_a   16.44129670
_cell_length_b   16.44129670
_cell_length_c   16.44129670
_cell_angle_alpha   90.00000000
_cell_angle_beta   90.00000000
_cell_angle_gamma   90.00000000
_symmetry_Int_Tables_number   1
_chemical_formula_structural   LiCl
_chemical_formula_sum   'Li96 Cl96'
_cell_volume   4444.34945893
_cell_formula_units_Z   96
loop_
 _symmetry_equiv_pos_site_id
 _symmetry_equiv_pos_as_xyz
  1  'x, y, z'
loop_
 _atom_site_type_symbol
 _atom_site_label
 _atom_site_symmetry_multiplicity
 _atom_site_fract_x
 _atom_site_fract_y
 _atom_site_fract_z
 _atom_site_occupancy
  Cl  Cl0  1  0.25000000  0.25000000  0.25000000  1
  Cl  Cl1  1  0.25000000  0.75000000  0.75000000  1
  Cl  Cl2  1  0.75000000  0.25000000  0.75000000  1
  Cl  Cl3  1  0.75000000  0.75000000  0.25000000  1
  Cl  Cl4  1  0.04497500  0.04497500  0.04497500  1
  Cl  Cl5  1  0.95502500  0.95502500  0.04497500  1
  Cl  Cl6  1  0.95502500  0.04497500  0.95502500  1
  Cl  Cl7  1  0.04497500  0.95502500  0.95502500  1
  Cl  Cl8  1  0.04497500  0.54497500  0.54497500  1
  Cl  Cl9  1  0.95502500  0.45502500  0.54497500  1
  Cl  Cl10  1  0.95502500  0.54497500  0.45502500  1
  Cl  Cl11  1  0.04497500  0.45502500  0.45502500  1
  Cl  Cl12  1  0.54497500  0.04497500  0.54497500  1
  Cl  Cl13  1  0.45502500  0.95502500  0.54497500  1
  Cl  Cl14  1  0.45502500  0.04497500  0.45502500  1
  Cl  Cl15  1  0.54497500  0.95502500  0.45502500  1
  Cl  Cl16  1  0.54497500  0.54497500  0.04497500  1
  Cl  Cl17  1  0.45502500  0.45502500  0.04497500  1
  Cl  Cl18  1  0.45502500  0.54497500  0.95502500  1
  Cl  Cl19  1  0.54497500  0.45502500  0.95502500  1
  Cl  Cl20  1  0.00000000  0.00000000  0.00000000  1
  Cl  Cl21  1  0.00000000  0.50000000  0.50000000  1
  Cl  Cl22  1  0.50000000  0.00000000  0.50000000  1
  Cl  Cl23  1  0.50000000  0.50000000  0.00000000  1
  Cl  Cl24  1  0.50000000  0.50000000  0.50000000  1
  Cl  Cl25  1  0.50000000  0.00000000  0.00000000  1
  Cl  Cl26  1  0.00000000  0.50000000  0.00000000  1
  Cl  Cl27  1  0.00000000  0.00000000  0.50000000  1
  Cl  Cl28  1  0.88194900  0.88194900  0.46433219  1
  Cl  Cl29  1  0.11805100  0.11805100  0.46433219  1
  Cl  Cl30  1  0.11805100  0.88194900  0.53566781  1
  Cl  Cl31  1  0.88194900  0.11805100  0.53566781  1
  Cl  Cl32  1  0.46433219  0.88194900  0.88194900  1
  Cl  Cl33  1  0.46433219  0.11805100  0.11805100  1
  Cl  Cl34  1  0.53566781  0.11805100  0.88194900  1
  Cl  Cl35  1  0.53566781  0.88194900  0.11805100  1
  Cl  Cl36  1  0.88194900  0.46433219  0.88194900  1
  Cl  Cl37  1  0.11805100  0.46433219  0.11805100  1
  Cl  Cl38  1  0.88194900  0.53566781  0.11805100  1
  Cl  Cl39  1  0.11805100  0.53566781  0.88194900  1
  Cl  Cl40  1  0.88194900  0.38194900  0.96433219  1
  Cl  Cl41  1  0.11805100  0.61805100  0.96433219  1
  Cl  Cl42  1  0.11805100  0.38194900  0.03566781  1
  Cl  Cl43  1  0.88194900  0.61805100  0.03566781  1
  Cl  Cl44  1  0.46433219  0.38194900  0.38194900  1
  Cl  Cl45  1  0.46433219  0.61805100  0.61805100  1
  Cl  Cl46  1  0.53566781  0.61805100  0.38194900  1
  Cl  Cl47  1  0.53566781  0.38194900  0.61805100  1
  Cl  Cl48  1  0.88194900  0.96433219  0.38194900  1
  Cl  Cl49  1  0.11805100  0.96433219  0.61805100  1
  Cl  Cl50  1  0.88194900  0.03566781  0.61805100  1
  Cl  Cl51  1  0.11805100  0.03566781  0.38194900  1
  Cl  Cl52  1  0.38194900  0.88194900  0.96433219  1
  Cl  Cl53  1  0.61805100  0.11805100  0.96433219  1
  Cl  Cl54  1  0.61805100  0.88194900  0.03566781  1
  Cl  Cl55  1  0.38194900  0.11805100  0.03566781  1
  Cl  Cl56  1  0.96433219  0.88194900  0.38194900  1
  Cl  Cl57  1  0.96433219  0.11805100  0.61805100  1
  Cl  Cl58  1  0.03566781  0.11805100  0.38194900  1
  Cl  Cl59  1  0.03566781  0.88194900  0.61805100  1
  Cl  Cl60  1  0.38194900  0.46433219  0.38194900  1
  Cl  Cl61  1  0.61805100  0.46433219  0.61805100  1
  Cl  Cl62  1  0.38194900  0.53566781  0.61805100  1
  Cl  Cl63  1  0.61805100  0.53566781  0.38194900  1
  Cl  Cl64  1  0.38194900  0.38194900  0.46433219  1
  Cl  Cl65  1  0.61805100  0.61805100  0.46433219  1
  Cl  Cl66  1  0.61805100  0.38194900  0.53566781  1
  Cl  Cl67  1  0.38194900  0.61805100  0.53566781  1
  Cl  Cl68  1  0.96433219  0.38194900  0.88194900  1
  Cl  Cl69  1  0.96433219  0.61805100  0.11805100  1
  Cl  Cl70  1  0.03566781  0.61805100  0.88194900  1
  Cl  Cl71  1  0.03566781  0.38194900  0.11805100  1
  Cl  Cl72  1  0.38194900  0.96433219  0.88194900  1
  Cl  Cl73  1  0.61805100  0.96433219  0.11805100  1
  Cl  Cl74  1  0.38194900  0.03566781  0.11805100  1
  Cl  Cl75  1  0.61805100  0.03566781  0.88194900  1
  Cl  Cl76  1  0.44001290  0.44001290  0.44001290  1
  Cl  Cl77  1  0.55998710  0.55998710  0.44001290  1
  Cl  Cl78  1  0.55998710  0.44001290  0.55998710  1
  Cl  Cl79  1  0.44001290  0.55998710  0.55998710  1
  Cl  Cl80  1  0.44001290  0.94001290  0.94001290  1
  Cl  Cl81  1  0.55998710  0.05998710  0.94001290  1
  Cl  Cl82  1  0.55998710  0.94001290  0.05998710  1
  Cl  Cl83  1  0.44001290  0.05998710  0.05998710  1
  Cl  Cl84  1  0.94001290  0.44001290  0.94001290  1
  Cl  Cl85  1  0.05998710  0.55998710  0.94001290  1
  Cl  Cl86  1  0.05998710  0.44001290  0.05998710  1
  Cl  Cl87  1  0.94001290  0.55998710  0.05998710  1
  Cl  Cl88  1  0.94001290  0.94001290  0.44001290  1
  Cl  Cl89  1  0.05998710  0.05998710  0.44001290  1
  Cl  Cl90  1  0.05998710  0.94001290  0.55998710  1
  Cl  Cl91  1  0.94001290  0.05998710  0.55998710  1
  Cl  Cl92  1  0.75000000  0.75000000  0.75000000  1
  Cl  Cl93  1  0.75000000  0.25000000  0.25000000  1
  Cl  Cl94  1  0.25000000  0.75000000  0.25000000  1
  Cl  Cl95  1  0.25000000  0.25000000  0.75000000  1
  Li  Li96  1  0.94216468  0.72631775  0.61656309  1
  Li  Li97  1  -0.94216468  -0.72631775  0.61656309  1
  Li  Li98  1  -0.94216468  0.72631775  -0.61656309  1
  Li  Li99  1  0.94216468  -0.72631775  -0.61656309  1
  Li  Li100  1  0.61656309  0.94216468  0.72631775  1
  Li  Li101  1  0.61656309  -0.94216468  -0.72631775  1
  Li  Li102  1  -0.61656309  -0.94216468  0.72631775  1
  Li  Li103  1  -0.61656309  0.94216468  -0.72631775  1
  Li  Li104  1  0.72631775  0.61656309  0.94216468  1
  Li  Li105  1  -0.72631775  0.61656309  -0.94216468  1
  Li  Li106  1  0.72631775  -0.61656309  -0.94216468  1
  Li  Li107  1  -0.72631775  -0.61656309  0.94216468  1
  Li  Li108  1  0.72631775  0.94216468  0.61656309  1
  Li  Li109  1  -0.72631775  -0.94216468  0.61656309  1
  Li  Li110  1  0.72631775  -0.94216468  -0.61656309  1
  Li  Li111  1  -0.72631775  0.94216468  -0.61656309  1
  Li  Li112  1  0.94216468  0.61656309  0.72631775  1
  Li  Li113  1  -0.94216468  0.61656309  -0.72631775  1
  Li  Li114  1  -0.94216468  -0.61656309  0.72631775  1
  Li  Li115  1  0.94216468  -0.61656309  -0.72631775  1
  Li  Li116  1  0.61656309  0.72631775  0.94216468  1
  Li  Li117  1  0.61656309  -0.72631775  -0.94216468  1
  Li  Li118  1  -0.61656309  0.72631775  -0.94216468  1
  Li  Li119  1  -0.61656309  -0.72631775  0.94216468  1
  Li  Li120  1  0.94216468  1.22631775  1.11656309  1
  Li  Li121  1  -0.94216468  -0.22631775  1.11656309  1
  Li  Li122  1  -0.94216468  1.22631775  -0.11656309  1
  Li  Li123  1  0.94216468  -0.22631775  -0.11656309  1
  Li  Li124  1  0.61656309  1.44216468  1.22631775  1
  Li  Li125  1  0.61656309  -0.44216468  -0.22631775  1
  Li  Li126  1  -0.61656309  -0.44216468  1.22631775  1
  Li  Li127  1  -0.61656309  1.44216468  -0.22631775  1
  Li  Li128  1  0.72631775  1.11656309  1.44216468  1
  Li  Li129  1  -0.72631775  1.11656309  -0.44216468  1
  Li  Li130  1  0.72631775  -0.11656309  -0.44216468  1
  Li  Li131  1  -0.72631775  -0.11656309  1.44216468  1
  Li  Li132  1  0.72631775  1.44216468  1.11656309  1
  Li  Li133  1  -0.72631775  -0.44216468  1.11656309  1
  Li  Li134  1  0.72631775  -0.44216468  -0.11656309  1
  Li  Li135  1  -0.72631775  1.44216468  -0.11656309  1
  Li  Li136  1  0.94216468  1.11656309  1.22631775  1
  Li  Li137  1  -0.94216468  1.11656309  -0.22631775  1
  Li  Li138  1  -0.94216468  -0.11656309  1.22631775  1
  Li  Li139  1  0.94216468  -0.11656309  -0.22631775  1
  Li  Li140  1  0.61656309  1.22631775  1.44216468  1
  Li  Li141  1  0.61656309  -0.22631775  -0.44216468  1
  Li  Li142  1  -0.61656309  1.22631775  -0.44216468  1
  Li  Li143  1  -0.61656309  -0.22631775  1.44216468  1
  Li  Li144  1  1.44216468  0.72631775  1.11656309  1
  Li  Li145  1  -0.44216468  -0.72631775  1.11656309  1
  Li  Li146  1  -0.44216468  0.72631775  -0.11656309  1
  Li  Li147  1  1.44216468  -0.72631775  -0.11656309  1
  Li  Li148  1  1.11656309  0.94216468  1.22631775  1
  Li  Li149  1  1.11656309  -0.94216468  -0.22631775  1
  Li  Li150  1  -0.11656309  -0.94216468  1.22631775  1
  Li  Li151  1  -0.11656309  0.94216468  -0.22631775  1
  Li  Li152  1  1.22631775  0.61656309  1.44216468  1
  Li  Li153  1  -0.22631775  0.61656309  -0.44216468  1
  Li  Li154  1  1.22631775  -0.61656309  -0.44216468  1
  Li  Li155  1  -0.22631775  -0.61656309  1.44216468  1
  Li  Li156  1  1.22631775  0.94216468  1.11656309  1
  Li  Li157  1  -0.22631775  -0.94216468  1.11656309  1
  Li  Li158  1  1.22631775  -0.94216468  -0.11656309  1
  Li  Li159  1  -0.22631775  0.94216468  -0.11656309  1
  Li  Li160  1  1.44216468  0.61656309  1.22631775  1
  Li  Li161  1  -0.44216468  0.61656309  -0.22631775  1
  Li  Li162  1  -0.44216468  -0.61656309  1.22631775  1
  Li  Li163  1  1.44216468  -0.61656309  -0.22631775  1
  Li  Li164  1  1.11656309  0.72631775  1.44216468  1
  Li  Li165  1  1.11656309  -0.72631775  -0.44216468  1
  Li  Li166  1  -0.11656309  0.72631775  -0.44216468  1
  Li  Li167  1  -0.11656309  -0.72631775  1.44216468  1
  Li  Li168  1  1.44216468  1.22631775  0.61656309  1
  Li  Li169  1  -0.44216468  -0.22631775  0.61656309  1
  Li  Li170  1  -0.44216468  1.22631775  -0.61656309  1
  Li  Li171  1  1.44216468  -0.22631775  -0.61656309  1
  Li  Li172  1  1.11656309  1.44216468  0.72631775  1
  Li  Li173  1  1.11656309  -0.44216468  -0.72631775  1
  Li  Li174  1  -0.11656309  -0.44216468  0.72631775  1
  Li  Li175  1  -0.11656309  1.44216468  -0.72631775  1
  Li  Li176  1  1.22631775  1.11656309  0.94216468  1
  Li  Li177  1  -0.22631775  1.11656309  -0.94216468  1
  Li  Li178  1  1.22631775  -0.11656309  -0.94216468  1
  Li  Li179  1  -0.22631775  -0.11656309  0.94216468  1
  Li  Li180  1  1.22631775  1.44216468  0.61656309  1
  Li  Li181  1  -0.22631775  -0.44216468  0.61656309  1
  Li  Li182  1  1.22631775  -0.44216468  -0.61656309  1
  Li  Li183  1  -0.22631775  1.44216468  -0.61656309  1
  Li  Li184  1  1.44216468  1.11656309  0.72631775  1
  Li  Li185  1  -0.44216468  1.11656309  -0.72631775  1
  Li  Li186  1  -0.44216468  -0.11656309  0.72631775  1
  Li  Li187  1  1.44216468  -0.11656309  -0.72631775  1
  Li  Li188  1  1.11656309  1.22631775  0.94216468  1
  Li  Li189  1  1.11656309  -0.22631775  -0.94216468  1
  Li  Li190  1  -0.11656309  1.22631775  -0.94216468  1
  Li  Li191  1  -0.11656309  -0.22631775  0.94216468  1
