# generated using pymatgen
data_K16S3(Br2Cl3)2
_symmetry_space_group_name_H-M   'P 1'
_cell_length_a   12.09207956
_cell_length_b   30.34924546
_cell_length_c   25.29965570
_cell_angle_alpha   90.00000000
_cell_angle_beta   90.00000000
_cell_angle_gamma   90.00000000
_symmetry_Int_Tables_number   1
_chemical_formula_structural   K16S3(Br2Cl3)2
_chemical_formula_sum   'K128 S24 Br32 Cl48'
_cell_volume   9284.60656302
_cell_formula_units_Z   8
loop_
 _symmetry_equiv_pos_site_id
 _symmetry_equiv_pos_as_xyz
  1  'x, y, z'
loop_
 _atom_site_type_symbol
 _atom_site_label
 _atom_site_symmetry_multiplicity
 _atom_site_fract_x
 _atom_site_fract_y
 _atom_site_fract_z
 _atom_site_occupancy
  Br  Br0  1  0.32778912  0.86808464  0.71134750  1
  Br  Br1  1  0.42221088  0.88191536  0.71134750  1
  Br  Br2  1  0.42221088  0.86808464  0.03865250  1
  Br  Br3  1  0.32778912  0.88191536  0.03865250  1
  Br  Br4  1  0.67221088  0.13191536  0.28865250  1
  Br  Br5  1  0.57778912  0.11808464  0.28865250  1
  Br  Br6  1  0.57778912  0.13191536  0.96134750  1
  Br  Br7  1  0.67221088  0.11808464  0.96134750  1
  Br  Br8  1  0.32778912  0.36808464  0.21134750  1
  Br  Br9  1  0.42221088  0.38191536  0.21134750  1
  Br  Br10  1  0.42221088  0.36808464  0.53865250  1
  Br  Br11  1  0.32778912  0.38191536  0.53865250  1
  Br  Br12  1  0.67221088  0.63191536  0.78865250  1
  Br  Br13  1  0.57778912  0.61808464  0.78865250  1
  Br  Br14  1  0.57778912  0.63191536  0.46134750  1
  Br  Br15  1  0.67221088  0.61808464  0.46134750  1
  Br  Br16  1  0.82778912  0.86808464  0.21134750  1
  Br  Br17  1  0.92221088  0.88191536  0.21134750  1
  Br  Br18  1  0.92221088  0.86808464  0.53865250  1
  Br  Br19  1  0.82778912  0.88191536  0.53865250  1
  Br  Br20  1  0.17221088  0.13191536  0.78865250  1
  Br  Br21  1  0.07778912  0.11808464  0.78865250  1
  Br  Br22  1  0.07778912  0.13191536  0.46134750  1
  Br  Br23  1  0.17221088  0.11808464  0.46134750  1
  Br  Br24  1  0.82778912  0.36808464  0.71134750  1
  Br  Br25  1  0.92221088  0.38191536  0.71134750  1
  Br  Br26  1  0.92221088  0.36808464  0.03865250  1
  Br  Br27  1  0.82778912  0.38191536  0.03865250  1
  Br  Br28  1  0.17221088  0.63191536  0.28865250  1
  Br  Br29  1  0.07778912  0.61808464  0.28865250  1
  Br  Br30  1  0.07778912  0.63191536  0.96134750  1
  Br  Br31  1  0.17221088  0.61808464  0.96134750  1
  Cl  Cl32  1  0.02847028  0.59656796  0.23078591  1
  Cl  Cl33  1  0.72152972  0.15343204  0.23078591  1
  Cl  Cl34  1  0.72152972  0.59656796  0.51921409  1
  Cl  Cl35  1  0.02847028  0.15343204  0.51921409  1
  Cl  Cl36  1  0.97152972  0.40343204  0.76921409  1
  Cl  Cl37  1  0.27847028  0.84656796  0.76921409  1
  Cl  Cl38  1  0.27847028  0.40343204  0.48078591  1
  Cl  Cl39  1  0.97152972  0.84656796  0.48078591  1
  Cl  Cl40  1  0.02847028  0.09656796  0.73078591  1
  Cl  Cl41  1  0.72152972  0.65343204  0.73078591  1
  Cl  Cl42  1  0.72152972  0.09656796  0.01921409  1
  Cl  Cl43  1  0.02847028  0.65343204  0.01921409  1
  Cl  Cl44  1  0.97152972  0.90343204  0.26921409  1
  Cl  Cl45  1  0.27847028  0.34656796  0.26921409  1
  Cl  Cl46  1  0.27847028  0.90343204  0.98078591  1
  Cl  Cl47  1  0.97152972  0.34656796  0.98078591  1
  Cl  Cl48  1  0.52847028  0.59656796  0.73078591  1
  Cl  Cl49  1  0.22152972  0.15343204  0.73078591  1
  Cl  Cl50  1  0.22152972  0.59656796  0.01921409  1
  Cl  Cl51  1  0.52847028  0.15343204  0.01921409  1
  Cl  Cl52  1  0.47152972  0.40343204  0.26921409  1
  Cl  Cl53  1  0.77847028  0.84656796  0.26921409  1
  Cl  Cl54  1  0.77847028  0.40343204  0.98078591  1
  Cl  Cl55  1  0.47152972  0.84656796  0.98078591  1
  Cl  Cl56  1  0.52847028  0.09656796  0.23078591  1
  Cl  Cl57  1  0.22152972  0.65343204  0.23078591  1
  Cl  Cl58  1  0.22152972  0.09656796  0.51921409  1
  Cl  Cl59  1  0.52847028  0.65343204  0.51921409  1
  Cl  Cl60  1  0.47152972  0.90343204  0.76921409  1
  Cl  Cl61  1  0.77847028  0.34656796  0.76921409  1
  Cl  Cl62  1  0.77847028  0.90343204  0.48078591  1
  Cl  Cl63  1  0.47152972  0.34656796  0.48078591  1
  Cl  Cl64  1  0.00000000  0.00000000  0.00000000  1
  Cl  Cl65  1  0.75000000  0.75000000  -0.00000000  1
  Cl  Cl66  1  0.75000000  -0.00000000  0.75000000  1
  Cl  Cl67  1  0.00000000  0.75000000  0.75000000  1
  Cl  Cl68  1  0.00000000  0.50000000  0.50000000  1
  Cl  Cl69  1  0.75000000  0.25000000  0.50000000  1
  Cl  Cl70  1  0.75000000  0.50000000  0.25000000  1
  Cl  Cl71  1  0.00000000  0.25000000  0.25000000  1
  Cl  Cl72  1  0.50000000  0.00000000  0.50000000  1
  Cl  Cl73  1  0.25000000  0.75000000  0.50000000  1
  Cl  Cl74  1  0.25000000  0.00000000  0.25000000  1
  Cl  Cl75  1  0.50000000  0.75000000  0.25000000  1
  Cl  Cl76  1  0.50000000  0.50000000  0.00000000  1
  Cl  Cl77  1  0.25000000  0.25000000  0.00000000  1
  Cl  Cl78  1  0.25000000  0.50000000  0.75000000  1
  Cl  Cl79  1  0.50000000  0.25000000  0.75000000  1
  K  K80  1  0.49758711  0.28287122  0.29337043  1
  K  K81  1  0.25241289  0.46712878  0.29337043  1
  K  K82  1  0.25241289  0.28287122  0.45662957  1
  K  K83  1  0.49758711  0.46712878  0.45662957  1
  K  K84  1  -0.49758711  -0.28287122  -0.29337043  1
  K  K85  1  0.74758711  0.53287122  -0.29337043  1
  K  K86  1  0.74758711  -0.28287122  0.54337043  1
  K  K87  1  -0.49758711  0.53287122  0.54337043  1
  K  K88  1  0.49758711  0.78287122  0.79337043  1
  K  K89  1  0.25241289  0.96712878  0.79337043  1
  K  K90  1  0.25241289  0.78287122  0.95662957  1
  K  K91  1  0.49758711  0.96712878  0.95662957  1
  K  K92  1  -0.49758711  0.21712878  0.20662957  1
  K  K93  1  0.74758711  1.03287122  0.20662957  1
  K  K94  1  0.74758711  0.21712878  1.04337043  1
  K  K95  1  -0.49758711  1.03287122  1.04337043  1
  K  K96  1  0.99758711  0.28287122  0.79337043  1
  K  K97  1  0.75241289  0.46712878  0.79337043  1
  K  K98  1  0.75241289  0.28287122  0.95662957  1
  K  K99  1  0.99758711  0.46712878  0.95662957  1
  K  K100  1  0.00241289  -0.28287122  0.20662957  1
  K  K101  1  1.24758711  0.53287122  0.20662957  1
  K  K102  1  1.24758711  -0.28287122  1.04337043  1
  K  K103  1  0.00241289  0.53287122  1.04337043  1
  K  K104  1  0.99758711  0.78287122  0.29337043  1
  K  K105  1  0.75241289  0.96712878  0.29337043  1
  K  K106  1  0.75241289  0.78287122  0.45662957  1
  K  K107  1  0.99758711  0.96712878  0.45662957  1
  K  K108  1  0.00241289  0.21712878  -0.29337043  1
  K  K109  1  1.24758711  1.03287122  -0.29337043  1
  K  K110  1  1.24758711  0.21712878  0.54337043  1
  K  K111  1  0.00241289  1.03287122  0.54337043  1
  K  K112  1  0.01358490  0.12500000  0.12500000  1
  K  K113  1  0.73641510  0.62500000  0.12500000  1
  K  K114  1  0.98641510  0.87500000  0.87500000  1
  K  K115  1  0.26358490  0.37500000  0.87500000  1
  K  K116  1  0.01358490  0.62500000  0.62500000  1
  K  K117  1  0.73641510  0.12500000  0.62500000  1
  K  K118  1  0.98641510  0.37500000  0.37500000  1
  K  K119  1  0.26358490  0.87500000  0.37500000  1
  K  K120  1  0.51358490  0.12500000  0.62500000  1
  K  K121  1  0.23641510  0.62500000  0.62500000  1
  K  K122  1  0.48641510  0.87500000  0.37500000  1
  K  K123  1  0.76358490  0.37500000  0.37500000  1
  K  K124  1  0.51358490  0.62500000  0.12500000  1
  K  K125  1  0.23641510  0.12500000  0.12500000  1
  K  K126  1  0.48641510  0.37500000  0.87500000  1
  K  K127  1  0.76358490  0.87500000  0.87500000  1
  K  K128  1  0.12500000  0.38490900  0.12500000  1
  K  K129  1  0.62500000  0.36509100  0.12500000  1
  K  K130  1  0.87500000  0.61509100  0.87500000  1
  K  K131  1  0.37500000  0.63490900  0.87500000  1
  K  K132  1  0.12500000  0.88490900  0.62500000  1
  K  K133  1  0.62500000  0.86509100  0.62500000  1
  K  K134  1  0.87500000  0.11509100  0.37500000  1
  K  K135  1  0.37500000  0.13490900  0.37500000  1
  K  K136  1  0.62500000  0.38490900  0.62500000  1
  K  K137  1  0.12500000  0.36509100  0.62500000  1
  K  K138  1  0.37500000  0.61509100  0.37500000  1
  K  K139  1  0.87500000  0.63490900  0.37500000  1
  K  K140  1  0.62500000  0.88490900  0.12500000  1
  K  K141  1  0.12500000  0.86509100  0.12500000  1
  K  K142  1  0.37500000  0.11509100  0.87500000  1
  K  K143  1  0.87500000  0.13490900  0.87500000  1
  K  K144  1  0.45380310  0.27803560  0.91006906  1
  K  K145  1  0.29619690  0.47196440  0.91006906  1
  K  K146  1  0.29619690  0.27803560  0.83993094  1
  K  K147  1  0.45380310  0.47196440  0.83993094  1
  K  K148  1  0.54619690  0.72196440  0.08993094  1
  K  K149  1  0.70380310  0.52803560  0.08993094  1
  K  K150  1  0.70380310  0.72196440  0.16006906  1
  K  K151  1  0.54619690  0.52803560  0.16006906  1
  K  K152  1  0.45380310  0.77803560  0.41006906  1
  K  K153  1  0.29619690  0.97196440  0.41006906  1
  K  K154  1  0.29619690  0.77803560  0.33993094  1
  K  K155  1  0.45380310  0.97196440  0.33993094  1
  K  K156  1  0.54619690  0.22196440  0.58993094  1
  K  K157  1  0.70380310  0.02803560  0.58993094  1
  K  K158  1  0.70380310  0.22196440  0.66006906  1
  K  K159  1  0.54619690  0.02803560  0.66006906  1
  K  K160  1  0.95380310  0.27803560  0.41006906  1
  K  K161  1  0.79619690  0.47196440  0.41006906  1
  K  K162  1  0.79619690  0.27803560  0.33993094  1
  K  K163  1  0.95380310  0.47196440  0.33993094  1
  K  K164  1  0.04619690  0.72196440  0.58993094  1
  K  K165  1  0.20380310  0.52803560  0.58993094  1
  K  K166  1  0.20380310  0.72196440  0.66006906  1
  K  K167  1  0.04619690  0.52803560  0.66006906  1
  K  K168  1  0.95380310  0.77803560  0.91006906  1
  K  K169  1  0.79619690  0.97196440  0.91006906  1
  K  K170  1  0.79619690  0.77803560  0.83993094  1
  K  K171  1  0.95380310  0.97196440  0.83993094  1
  K  K172  1  0.04619690  0.22196440  0.08993094  1
  K  K173  1  0.20380310  0.02803560  0.08993094  1
  K  K174  1  0.20380310  0.22196440  0.16006906  1
  K  K175  1  0.04619690  0.02803560  0.16006906  1
  K  K176  1  0.42136730  0.94162903  0.47456116  1
  K  K177  1  0.32863270  0.80837097  0.47456116  1
  K  K178  1  0.32863270  0.94162903  0.27543884  1
  K  K179  1  0.42136730  0.80837097  0.27543884  1
  K  K180  1  0.57863270  0.05837097  0.52543884  1
  K  K181  1  0.67136730  0.19162903  0.52543884  1
  K  K182  1  0.67136730  0.05837097  0.72456116  1
  K  K183  1  0.57863270  0.19162903  0.72456116  1
  K  K184  1  0.42136730  0.44162903  0.97456116  1
  K  K185  1  0.32863270  0.30837097  0.97456116  1
  K  K186  1  0.32863270  0.44162903  0.77543884  1
  K  K187  1  0.42136730  0.30837097  0.77543884  1
  K  K188  1  0.57863270  0.55837097  0.02543884  1
  K  K189  1  0.67136730  0.69162903  0.02543884  1
  K  K190  1  0.67136730  0.55837097  0.22456116  1
  K  K191  1  0.57863270  0.69162903  0.22456116  1
  K  K192  1  0.92136730  0.94162903  0.97456116  1
  K  K193  1  0.82863270  0.80837097  0.97456116  1
  K  K194  1  0.82863270  0.94162903  0.77543884  1
  K  K195  1  0.92136730  0.80837097  0.77543884  1
  K  K196  1  0.07863270  0.05837097  0.02543884  1
  K  K197  1  0.17136730  0.19162903  0.02543884  1
  K  K198  1  0.17136730  0.05837097  0.22456116  1
  K  K199  1  0.07863270  0.19162903  0.22456116  1
  K  K200  1  0.92136730  0.44162903  0.47456116  1
  K  K201  1  0.82863270  0.30837097  0.47456116  1
  K  K202  1  0.82863270  0.44162903  0.27543884  1
  K  K203  1  0.92136730  0.30837097  0.27543884  1
  K  K204  1  0.07863270  0.55837097  0.52543884  1
  K  K205  1  0.17136730  0.69162903  0.52543884  1
  K  K206  1  0.17136730  0.55837097  0.72456116  1
  K  K207  1  0.07863270  0.69162903  0.72456116  1
  S  S208  1  0.12500000  0.08179661  0.12500000  1
  S  S209  1  0.62500000  0.66820339  0.12500000  1
  S  S210  1  0.87500000  0.91820339  0.87500000  1
  S  S211  1  0.37500000  0.33179661  0.87500000  1
  S  S212  1  0.12500000  0.58179661  0.62500000  1
  S  S213  1  0.62500000  0.16820339  0.62500000  1
  S  S214  1  0.87500000  0.41820339  0.37500000  1
  S  S215  1  0.37500000  0.83179661  0.37500000  1
  S  S216  1  0.62500000  0.08179661  0.62500000  1
  S  S217  1  0.12500000  0.66820339  0.62500000  1
  S  S218  1  0.37500000  0.91820339  0.37500000  1
  S  S219  1  0.87500000  0.33179661  0.37500000  1
  S  S220  1  0.62500000  0.58179661  0.12500000  1
  S  S221  1  0.12500000  0.16820339  0.12500000  1
  S  S222  1  0.37500000  0.41820339  0.87500000  1
  S  S223  1  0.87500000  0.83179661  0.87500000  1
  S  S224  1  0.12500000  0.12500000  0.62500000  1
  S  S225  1  0.87500000  0.87500000  0.37500000  1
  S  S226  1  0.12500000  0.62500000  0.12500000  1
  S  S227  1  0.87500000  0.37500000  0.87500000  1
  S  S228  1  0.62500000  0.12500000  0.12500000  1
  S  S229  1  0.37500000  0.87500000  0.87500000  1
  S  S230  1  0.62500000  0.62500000  0.62500000  1
  S  S231  1  0.37500000  0.37500000  0.37500000  1
