# generated using pymatgen
data_Li6Se2O
_symmetry_space_group_name_H-M   'P 1'
_cell_length_a   8.35018669
_cell_length_b   8.35018669
_cell_length_c   7.08500643
_cell_angle_alpha   90.00000000
_cell_angle_beta   90.00000000
_cell_angle_gamma   120.00000000
_symmetry_Int_Tables_number   1
_chemical_formula_structural   Li6Se2O
_chemical_formula_sum   'Li12 Se4 O2'
_cell_volume   427.82213558
_cell_formula_units_Z   2
loop_
 _symmetry_equiv_pos_site_id
 _symmetry_equiv_pos_as_xyz
  1  'x, y, z'
loop_
 _atom_site_type_symbol
 _atom_site_label
 _atom_site_symmetry_multiplicity
 _atom_site_fract_x
 _atom_site_fract_y
 _atom_site_fract_z
 _atom_site_occupancy
  Li  Li0  1  0.26296060  0.00000000  0.76877495  1
  Li  Li1  1  0.00000000  0.26296060  0.76877495  1
  Li  Li2  1  -0.26296060  -0.26296060  0.76877495  1
  Li  Li3  1  0.26296060  0.00000000  -0.76877495  1
  Li  Li4  1  0.00000000  0.26296060  -0.76877495  1
  Li  Li5  1  -0.26296060  -0.26296060  -0.76877495  1
  Li  Li6  1  0.62807233  0.00000000  -0.00000000  1
  Li  Li7  1  0.00000000  0.62807233  -0.00000000  1
  Li  Li8  1  0.37192767  0.37192767  0.00000000  1
  Li  Li9  1  0.00000000  0.00000000  0.00000000  1
  Li  Li10  1  0.33333333  0.66666667  0.00000000  1
  Li  Li11  1  0.66666667  0.33333333  0.00000000  1
  O  O12  1  0.00000000  0.00000000  0.21874359  1
  O  O13  1  0.00000000  0.00000000  0.78125641  1
  Se  Se14  1  0.00000000  0.00000000  0.50000000  1
  Se  Se15  1  0.50384350  0.00000000  0.50000000  1
  Se  Se16  1  0.00000000  0.50384350  0.50000000  1
  Se  Se17  1  0.49615650  0.49615650  0.50000000  1
