# generated using pymatgen
data_Li2Se
_symmetry_space_group_name_H-M   'P 1'
_cell_length_a   5.75101373
_cell_length_b   10.71475155
_cell_length_c   14.79164014
_cell_angle_alpha   90.00000000
_cell_angle_beta   90.00000000
_cell_angle_gamma   90.00000000
_symmetry_Int_Tables_number   1
_chemical_formula_structural   Li2Se
_chemical_formula_sum   'Li32 Se16'
_cell_volume   911.47097260
_cell_formula_units_Z   16
loop_
 _symmetry_equiv_pos_site_id
 _symmetry_equiv_pos_as_xyz
  1  'x, y, z'
loop_
 _atom_site_type_symbol
 _atom_site_label
 _atom_site_symmetry_multiplicity
 _atom_site_fract_x
 _atom_site_fract_y
 _atom_site_fract_z
 _atom_site_occupancy
  Li  Li0  1  0.96788698  0.94501024  0.08467975  1
  Li  Li1  1  -0.21788698  -0.19501024  0.08467975  1
  Li  Li2  1  -0.21788698  0.94501024  0.66532025  1
  Li  Li3  1  0.96788698  -0.19501024  0.66532025  1
  Li  Li4  1  -0.96788698  -0.94501024  -0.08467975  1
  Li  Li5  1  1.21788698  1.19501024  -0.08467975  1
  Li  Li6  1  1.21788698  -0.94501024  0.33467975  1
  Li  Li7  1  -0.96788698  1.19501024  0.33467975  1
  Li  Li8  1  0.96788698  1.44501024  0.58467975  1
  Li  Li9  1  -0.21788698  0.30498976  0.58467975  1
  Li  Li10  1  -0.21788698  1.44501024  1.16532025  1
  Li  Li11  1  0.96788698  0.30498976  1.16532025  1
  Li  Li12  1  -0.96788698  -0.44501024  0.41532025  1
  Li  Li13  1  1.21788698  1.69501024  0.41532025  1
  Li  Li14  1  1.21788698  -0.44501024  0.83467975  1
  Li  Li15  1  -0.96788698  1.69501024  0.83467975  1
  Li  Li16  1  1.46788698  0.94501024  0.58467975  1
  Li  Li17  1  0.28211302  -0.19501024  0.58467975  1
  Li  Li18  1  0.28211302  0.94501024  1.16532025  1
  Li  Li19  1  1.46788698  -0.19501024  1.16532025  1
  Li  Li20  1  -0.46788698  -0.94501024  0.41532025  1
  Li  Li21  1  1.71788698  1.19501024  0.41532025  1
  Li  Li22  1  1.71788698  -0.94501024  0.83467975  1
  Li  Li23  1  -0.46788698  1.19501024  0.83467975  1
  Li  Li24  1  1.46788698  1.44501024  0.08467975  1
  Li  Li25  1  0.28211302  0.30498976  0.08467975  1
  Li  Li26  1  0.28211302  1.44501024  0.66532025  1
  Li  Li27  1  1.46788698  0.30498976  0.66532025  1
  Li  Li28  1  -0.46788698  -0.44501024  -0.08467975  1
  Li  Li29  1  1.71788698  1.69501024  -0.08467975  1
  Li  Li30  1  1.71788698  -0.44501024  0.33467975  1
  Li  Li31  1  -0.46788698  1.69501024  0.33467975  1
  Se  Se32  1  0.12500000  0.12500000  0.43234247  1
  Se  Se33  1  0.62500000  0.12500000  0.31765753  1
  Se  Se34  1  0.87500000  0.87500000  0.56765753  1
  Se  Se35  1  0.37500000  0.87500000  0.68234247  1
  Se  Se36  1  0.12500000  0.62500000  0.93234247  1
  Se  Se37  1  0.62500000  0.62500000  0.81765753  1
  Se  Se38  1  0.87500000  0.37500000  0.06765753  1
  Se  Se39  1  0.37500000  0.37500000  0.18234247  1
  Se  Se40  1  0.62500000  0.12500000  0.93234247  1
  Se  Se41  1  0.12500000  0.12500000  0.81765753  1
  Se  Se42  1  0.37500000  0.87500000  0.06765753  1
  Se  Se43  1  0.87500000  0.87500000  0.18234247  1
  Se  Se44  1  0.62500000  0.62500000  0.43234247  1
  Se  Se45  1  0.12500000  0.62500000  0.31765753  1
  Se  Se46  1  0.37500000  0.37500000  0.56765753  1
  Se  Se47  1  0.87500000  0.37500000  0.68234247  1
