# generated using pymatgen
data_B2Sb4Se4S4O
_symmetry_space_group_name_H-M   'P 1'
_cell_length_a   11.20986253
_cell_length_b   6.72825868
_cell_length_c   7.05899357
_cell_angle_alpha   90.00000000
_cell_angle_beta   90.00000000
_cell_angle_gamma   90.00000000
_symmetry_Int_Tables_number   1
_chemical_formula_structural   B2Sb4Se4S4O
_chemical_formula_sum   'B4 Sb8 Se8 S8 O2'
_cell_volume   532.40944753
_cell_formula_units_Z   2
loop_
 _symmetry_equiv_pos_site_id
 _symmetry_equiv_pos_as_xyz
  1  'x, y, z'
loop_
 _atom_site_type_symbol
 _atom_site_label
 _atom_site_symmetry_multiplicity
 _atom_site_fract_x
 _atom_site_fract_y
 _atom_site_fract_z
 _atom_site_occupancy
  B  B0  1  0.00000000  0.50000000  0.21556176  1
  B  B1  1  0.50000000  0.00000000  0.28443824  1
  B  B2  1  0.00000000  0.50000000  0.78443824  1
  B  B3  1  0.50000000  0.00000000  0.71556176  1
  O  O4  1  0.00000000  0.50000000  0.50000000  1
  O  O5  1  0.50000000  0.00000000  0.00000000  1
  S  S6  1  0.11010351  0.22076809  0.25958835  1
  S  S7  1  0.88989649  0.77923191  0.25958835  1
  S  S8  1  0.38989649  0.72076809  0.24041165  1
  S  S9  1  0.61010351  0.27923191  0.24041165  1
  S  S10  1  0.88989649  0.77923191  0.74041165  1
  S  S11  1  0.11010351  0.22076809  0.74041165  1
  S  S12  1  0.61010351  0.27923191  0.75958835  1
  S  S13  1  0.38989649  0.72076809  0.75958835  1
  Sb  Sb14  1  0.46469659  0.33316527  -0.00000000  1
  Sb  Sb15  1  0.53530341  0.66683473  0.00000000  1
  Sb  Sb16  1  0.03530341  0.83316527  0.50000000  1
  Sb  Sb17  1  0.96469659  0.16683473  0.50000000  1
  Sb  Sb18  1  0.00000000  0.50000000  0.00000000  1
  Sb  Sb19  1  0.50000000  0.00000000  0.50000000  1
  Sb  Sb20  1  0.00000000  0.00000000  0.00000000  1
  Sb  Sb21  1  0.50000000  0.50000000  0.50000000  1
  Se  Se22  1  0.69358939  0.94853111  0.25628230  1
  Se  Se23  1  -0.69358939  -0.94853111  0.25628230  1
  Se  Se24  1  -0.19358939  1.44853111  0.24371770  1
  Se  Se25  1  1.19358939  -0.44853111  0.24371770  1
  Se  Se26  1  -0.69358939  -0.94853111  -0.25628230  1
  Se  Se27  1  0.69358939  0.94853111  -0.25628230  1
  Se  Se28  1  1.19358939  -0.44853111  0.75628230  1
  Se  Se29  1  -0.19358939  1.44853111  0.75628230  1
