# generated using pymatgen
data_Li2Se
_symmetry_space_group_name_H-M   'P 1'
_cell_length_a   12.81142683
_cell_length_b   12.81142683
_cell_length_c   12.05052082
_cell_angle_alpha   90.00000000
_cell_angle_beta   90.00000000
_cell_angle_gamma   90.00000000
_symmetry_Int_Tables_number   1
_chemical_formula_structural   Li2Se
_chemical_formula_sum   'Li64 Se32'
_cell_volume   1977.88400695
_cell_formula_units_Z   32
loop_
 _symmetry_equiv_pos_site_id
 _symmetry_equiv_pos_as_xyz
  1  'x, y, z'
loop_
 _atom_site_type_symbol
 _atom_site_label
 _atom_site_symmetry_multiplicity
 _atom_site_fract_x
 _atom_site_fract_y
 _atom_site_fract_z
 _atom_site_occupancy
  Li  Li0  1  0.86087202  0.08312870  0.79466345  1
  Li  Li1  1  0.63912798  0.91687130  0.29466345  1
  Li  Li2  1  0.16687130  0.61087202  0.04466345  1
  Li  Li3  1  0.33312870  0.38912798  0.54466345  1
  Li  Li4  1  0.63912798  0.08312870  0.20533655  1
  Li  Li5  1  0.86087202  0.91687130  0.70533655  1
  Li  Li6  1  0.33312870  0.61087202  0.95533655  1
  Li  Li7  1  0.16687130  0.38912798  0.45533655  1
  Li  Li8  1  0.13912798  0.91687130  0.20533655  1
  Li  Li9  1  0.36087202  0.08312870  0.70533655  1
  Li  Li10  1  0.83312870  0.38912798  0.95533655  1
  Li  Li11  1  0.66687130  0.61087202  0.45533655  1
  Li  Li12  1  0.36087202  0.91687130  0.79466345  1
  Li  Li13  1  0.13912798  0.08312870  0.29466345  1
  Li  Li14  1  0.66687130  0.38912798  0.04466345  1
  Li  Li15  1  0.83312870  0.61087202  0.54466345  1
  Li  Li16  1  0.36087202  0.58312870  0.29466345  1
  Li  Li17  1  0.13912798  0.41687130  0.79466345  1
  Li  Li18  1  0.66687130  0.11087202  0.54466345  1
  Li  Li19  1  0.83312870  0.88912798  0.04466345  1
  Li  Li20  1  0.13912798  0.58312870  0.70533655  1
  Li  Li21  1  0.36087202  0.41687130  0.20533655  1
  Li  Li22  1  0.83312870  0.11087202  0.45533655  1
  Li  Li23  1  0.66687130  0.88912798  0.95533655  1
  Li  Li24  1  0.63912798  0.41687130  0.70533655  1
  Li  Li25  1  0.86087202  0.58312870  0.20533655  1
  Li  Li26  1  0.33312870  0.88912798  0.45533655  1
  Li  Li27  1  0.16687130  0.11087202  0.95533655  1
  Li  Li28  1  0.86087202  0.41687130  0.29466345  1
  Li  Li29  1  0.63912798  0.58312870  0.79466345  1
  Li  Li30  1  0.16687130  0.88912798  0.54466345  1
  Li  Li31  1  0.33312870  0.11087202  0.04466345  1
  Li  Li32  1  0.24689305  0.79178276  0.87828699  1
  Li  Li33  1  0.25310695  0.20821724  0.37828699  1
  Li  Li34  1  0.45821724  0.99689305  0.12828699  1
  Li  Li35  1  0.04178276  0.00310695  0.62828699  1
  Li  Li36  1  0.25310695  0.79178276  0.12171301  1
  Li  Li37  1  0.24689305  0.20821724  0.62171301  1
  Li  Li38  1  0.04178276  0.99689305  0.87171301  1
  Li  Li39  1  0.45821724  0.00310695  0.37171301  1
  Li  Li40  1  0.75310695  0.20821724  0.12171301  1
  Li  Li41  1  0.74689305  0.79178276  0.62171301  1
  Li  Li42  1  0.54178276  0.00310695  0.87171301  1
  Li  Li43  1  0.95821724  0.99689305  0.37171301  1
  Li  Li44  1  0.74689305  0.20821724  0.87828699  1
  Li  Li45  1  0.75310695  0.79178276  0.37828699  1
  Li  Li46  1  0.95821724  0.00310695  0.12828699  1
  Li  Li47  1  0.54178276  0.99689305  0.62828699  1
  Li  Li48  1  0.74689305  0.29178276  0.37828699  1
  Li  Li49  1  0.75310695  0.70821724  0.87828699  1
  Li  Li50  1  0.95821724  0.49689305  0.62828699  1
  Li  Li51  1  0.54178276  0.50310695  0.12828699  1
  Li  Li52  1  0.75310695  0.29178276  0.62171301  1
  Li  Li53  1  0.74689305  0.70821724  0.12171301  1
  Li  Li54  1  0.54178276  0.49689305  0.37171301  1
  Li  Li55  1  0.95821724  0.50310695  0.87171301  1
  Li  Li56  1  0.25310695  0.70821724  0.62171301  1
  Li  Li57  1  0.24689305  0.29178276  0.12171301  1
  Li  Li58  1  0.04178276  0.50310695  0.37171301  1
  Li  Li59  1  0.45821724  0.49689305  0.87171301  1
  Li  Li60  1  0.24689305  0.70821724  0.37828699  1
  Li  Li61  1  0.25310695  0.29178276  0.87828699  1
  Li  Li62  1  0.45821724  0.50310695  0.62828699  1
  Li  Li63  1  0.04178276  0.49689305  0.12828699  1
  Se  Se64  1  0.02847318  0.65453595  0.57926078  1
  Se  Se65  1  0.47152682  -0.65453595  1.07926078  1
  Se  Se66  1  -0.40453595  0.77847318  0.82926078  1
  Se  Se67  1  0.90453595  0.22152682  1.32926078  1
  Se  Se68  1  0.47152682  0.65453595  -0.57926078  1
  Se  Se69  1  0.02847318  -0.65453595  -0.07926078  1
  Se  Se70  1  0.90453595  0.77847318  0.17073922  1
  Se  Se71  1  -0.40453595  0.22152682  -0.32926078  1
  Se  Se72  1  -0.02847318  -0.65453595  -0.57926078  1
  Se  Se73  1  0.52847318  0.65453595  -0.07926078  1
  Se  Se74  1  1.40453595  0.22152682  0.17073922  1
  Se  Se75  1  0.09546405  0.77847318  -0.32926078  1
  Se  Se76  1  0.52847318  -0.65453595  0.57926078  1
  Se  Se77  1  -0.02847318  0.65453595  1.07926078  1
  Se  Se78  1  0.09546405  0.22152682  0.82926078  1
  Se  Se79  1  1.40453595  0.77847318  1.32926078  1
  Se  Se80  1  0.52847318  1.15453595  1.07926078  1
  Se  Se81  1  0.97152682  -0.15453595  1.57926078  1
  Se  Se82  1  0.09546405  1.27847318  1.32926078  1
  Se  Se83  1  1.40453595  0.72152682  1.82926078  1
  Se  Se84  1  0.97152682  1.15453595  -0.07926078  1
  Se  Se85  1  0.52847318  -0.15453595  0.42073922  1
  Se  Se86  1  1.40453595  1.27847318  0.67073922  1
  Se  Se87  1  0.09546405  0.72152682  0.17073922  1
  Se  Se88  1  0.47152682  -0.15453595  -0.07926078  1
  Se  Se89  1  1.02847318  1.15453595  0.42073922  1
  Se  Se90  1  1.90453595  0.72152682  0.67073922  1
  Se  Se91  1  0.59546405  1.27847318  0.17073922  1
  Se  Se92  1  1.02847318  -0.15453595  1.07926078  1
  Se  Se93  1  0.47152682  1.15453595  1.57926078  1
  Se  Se94  1  0.59546405  0.72152682  1.32926078  1
  Se  Se95  1  1.90453595  1.27847318  1.82926078  1
