# generated using pymatgen
data_K2Li3Ca4Te6I
_symmetry_space_group_name_H-M   'P 1'
_cell_length_a   17.71966369
_cell_length_b   12.25141825
_cell_length_c   19.97358162
_cell_angle_alpha   90.00000000
_cell_angle_beta   90.00000000
_cell_angle_gamma   90.00000000
_symmetry_Int_Tables_number   1
_chemical_formula_structural   K2Li3Ca4Te6I
_chemical_formula_sum   'K16 Li24 Ca32 Te48 I8'
_cell_volume   4336.08502859
_cell_formula_units_Z   8
loop_
 _symmetry_equiv_pos_site_id
 _symmetry_equiv_pos_as_xyz
  1  'x, y, z'
loop_
 _atom_site_type_symbol
 _atom_site_label
 _atom_site_symmetry_multiplicity
 _atom_site_fract_x
 _atom_site_fract_y
 _atom_site_fract_z
 _atom_site_occupancy
  Ca  Ca0  1  0.56092757  0.04791581  0.08416509  1
  Ca  Ca1  1  0.18907243  0.70208419  0.08416509  1
  Ca  Ca2  1  0.18907243  0.04791581  0.66583491  1
  Ca  Ca3  1  0.56092757  0.70208419  0.66583491  1
  Ca  Ca4  1  -0.56092757  -0.04791581  -0.08416509  1
  Ca  Ca5  1  0.81092757  0.29791581  -0.08416509  1
  Ca  Ca6  1  0.81092757  -0.04791581  0.33416509  1
  Ca  Ca7  1  -0.56092757  0.29791581  0.33416509  1
  Ca  Ca8  1  0.56092757  0.54791581  0.58416509  1
  Ca  Ca9  1  0.18907243  1.20208419  0.58416509  1
  Ca  Ca10  1  0.18907243  0.54791581  1.16583491  1
  Ca  Ca11  1  0.56092757  1.20208419  1.16583491  1
  Ca  Ca12  1  -0.56092757  0.45208419  0.41583491  1
  Ca  Ca13  1  0.81092757  0.79791581  0.41583491  1
  Ca  Ca14  1  0.81092757  0.45208419  0.83416509  1
  Ca  Ca15  1  -0.56092757  0.79791581  0.83416509  1
  Ca  Ca16  1  1.06092757  0.04791581  0.58416509  1
  Ca  Ca17  1  0.68907243  0.70208419  0.58416509  1
  Ca  Ca18  1  0.68907243  0.04791581  1.16583491  1
  Ca  Ca19  1  1.06092757  0.70208419  1.16583491  1
  Ca  Ca20  1  -0.06092757  -0.04791581  0.41583491  1
  Ca  Ca21  1  1.31092757  0.29791581  0.41583491  1
  Ca  Ca22  1  1.31092757  -0.04791581  0.83416509  1
  Ca  Ca23  1  -0.06092757  0.29791581  0.83416509  1
  Ca  Ca24  1  1.06092757  0.54791581  0.08416509  1
  Ca  Ca25  1  0.68907243  1.20208419  0.08416509  1
  Ca  Ca26  1  0.68907243  0.54791581  0.66583491  1
  Ca  Ca27  1  1.06092757  1.20208419  0.66583491  1
  Ca  Ca28  1  -0.06092757  0.45208419  -0.08416509  1
  Ca  Ca29  1  1.31092757  0.79791581  -0.08416509  1
  Ca  Ca30  1  1.31092757  0.45208419  0.33416509  1
  Ca  Ca31  1  -0.06092757  0.79791581  0.33416509  1
  I  I32  1  0.12500000  0.12500000  0.62500000  1
  I  I33  1  0.87500000  0.87500000  0.37500000  1
  I  I34  1  0.12500000  0.62500000  0.12500000  1
  I  I35  1  0.87500000  0.37500000  0.87500000  1
  I  I36  1  0.62500000  0.12500000  0.12500000  1
  I  I37  1  0.37500000  0.87500000  0.87500000  1
  I  I38  1  0.62500000  0.62500000  0.62500000  1
  I  I39  1  0.37500000  0.37500000  0.37500000  1
  K  K40  1  0.12500000  0.27141084  0.12500000  1
  K  K41  1  0.62500000  0.47858916  0.12500000  1
  K  K42  1  0.87500000  0.72858916  0.87500000  1
  K  K43  1  0.37500000  0.52141084  0.87500000  1
  K  K44  1  0.12500000  0.77141084  0.62500000  1
  K  K45  1  0.62500000  0.97858916  0.62500000  1
  K  K46  1  0.87500000  0.22858916  0.37500000  1
  K  K47  1  0.37500000  0.02141084  0.37500000  1
  K  K48  1  0.62500000  0.27141084  0.62500000  1
  K  K49  1  0.12500000  0.47858916  0.62500000  1
  K  K50  1  0.37500000  0.72858916  0.37500000  1
  K  K51  1  0.87500000  0.52141084  0.37500000  1
  K  K52  1  0.62500000  0.77141084  0.12500000  1
  K  K53  1  0.12500000  0.97858916  0.12500000  1
  K  K54  1  0.37500000  0.22858916  0.87500000  1
  K  K55  1  0.87500000  0.02141084  0.87500000  1
  Li  Li56  1  0.50000000  0.50000000  0.50000000  1
  Li  Li57  1  0.25000000  0.25000000  0.50000000  1
  Li  Li58  1  0.25000000  0.50000000  0.25000000  1
  Li  Li59  1  0.50000000  0.25000000  0.25000000  1
  Li  Li60  1  0.50000000  0.00000000  0.00000000  1
  Li  Li61  1  0.25000000  0.75000000  0.00000000  1
  Li  Li62  1  0.25000000  0.00000000  0.75000000  1
  Li  Li63  1  0.50000000  0.75000000  0.75000000  1
  Li  Li64  1  0.00000000  0.50000000  0.00000000  1
  Li  Li65  1  0.75000000  0.25000000  -0.00000000  1
  Li  Li66  1  0.75000000  0.50000000  0.75000000  1
  Li  Li67  1  0.00000000  0.25000000  0.75000000  1
  Li  Li68  1  0.00000000  0.00000000  0.50000000  1
  Li  Li69  1  0.75000000  0.75000000  0.50000000  1
  Li  Li70  1  0.75000000  0.00000000  0.25000000  1
  Li  Li71  1  0.00000000  0.75000000  0.25000000  1
  Li  Li72  1  0.12500000  0.12500000  0.12500000  1
  Li  Li73  1  0.87500000  0.87500000  0.87500000  1
  Li  Li74  1  0.12500000  0.62500000  0.62500000  1
  Li  Li75  1  0.87500000  0.37500000  0.37500000  1
  Li  Li76  1  0.62500000  0.12500000  0.62500000  1
  Li  Li77  1  0.37500000  0.87500000  0.37500000  1
  Li  Li78  1  0.62500000  0.62500000  0.12500000  1
  Li  Li79  1  0.37500000  0.37500000  0.87500000  1
  Te  Te80  1  0.12500000  0.48366671  0.12500000  1
  Te  Te81  1  0.62500000  0.26633329  0.12500000  1
  Te  Te82  1  0.87500000  0.51633329  0.87500000  1
  Te  Te83  1  0.37500000  0.73366671  0.87500000  1
  Te  Te84  1  0.12500000  0.98366671  0.62500000  1
  Te  Te85  1  0.62500000  0.76633329  0.62500000  1
  Te  Te86  1  0.87500000  0.01633329  0.37500000  1
  Te  Te87  1  0.37500000  0.23366671  0.37500000  1
  Te  Te88  1  0.62500000  0.48366671  0.62500000  1
  Te  Te89  1  0.12500000  0.26633329  0.62500000  1
  Te  Te90  1  0.37500000  0.51633329  0.37500000  1
  Te  Te91  1  0.87500000  0.73366671  0.37500000  1
  Te  Te92  1  0.62500000  0.98366671  0.12500000  1
  Te  Te93  1  0.12500000  0.76633329  0.12500000  1
  Te  Te94  1  0.37500000  0.01633329  0.87500000  1
  Te  Te95  1  0.87500000  0.23366671  0.87500000  1
  Te  Te96  1  0.12500000  0.12500000  0.80573389  1
  Te  Te97  1  0.62500000  0.12500000  0.94426611  1
  Te  Te98  1  0.87500000  0.87500000  0.19426611  1
  Te  Te99  1  0.37500000  0.87500000  0.05573389  1
  Te  Te100  1  0.12500000  0.62500000  0.30573389  1
  Te  Te101  1  0.62500000  0.62500000  0.44426611  1
  Te  Te102  1  0.87500000  0.37500000  0.69426611  1
  Te  Te103  1  0.37500000  0.37500000  0.55573389  1
  Te  Te104  1  0.62500000  0.12500000  0.30573389  1
  Te  Te105  1  0.12500000  0.12500000  0.44426611  1
  Te  Te106  1  0.37500000  0.87500000  0.69426611  1
  Te  Te107  1  0.87500000  0.87500000  0.55573389  1
  Te  Te108  1  0.62500000  0.62500000  0.80573389  1
  Te  Te109  1  0.12500000  0.62500000  0.94426611  1
  Te  Te110  1  0.37500000  0.37500000  0.19426611  1
  Te  Te111  1  0.87500000  0.37500000  0.05573389  1
  Te  Te112  1  0.31313550  0.12500000  0.12500000  1
  Te  Te113  1  0.43686450  0.62500000  0.12500000  1
  Te  Te114  1  0.68686450  0.87500000  0.87500000  1
  Te  Te115  1  0.56313550  0.37500000  0.87500000  1
  Te  Te116  1  0.31313550  0.62500000  0.62500000  1
  Te  Te117  1  0.43686450  0.12500000  0.62500000  1
  Te  Te118  1  0.68686450  0.37500000  0.37500000  1
  Te  Te119  1  0.56313550  0.87500000  0.37500000  1
  Te  Te120  1  0.81313550  0.12500000  0.62500000  1
  Te  Te121  1  0.93686450  0.62500000  0.62500000  1
  Te  Te122  1  0.18686450  0.87500000  0.37500000  1
  Te  Te123  1  0.06313550  0.37500000  0.37500000  1
  Te  Te124  1  0.81313550  0.62500000  0.12500000  1
  Te  Te125  1  0.93686450  0.12500000  0.12500000  1
  Te  Te126  1  0.18686450  0.37500000  0.87500000  1
  Te  Te127  1  0.06313550  0.87500000  0.87500000  1
