# generated using pymatgen
data_LiBr
_symmetry_space_group_name_H-M   'P 1'
_cell_length_a   9.69511899
_cell_length_b   9.69511899
_cell_length_c   7.40038571
_cell_angle_alpha   90.00000000
_cell_angle_beta   90.00000000
_cell_angle_gamma   120.00000000
_symmetry_Int_Tables_number   1
_chemical_formula_structural   LiBr
_chemical_formula_sum   'Li18 Br18'
_cell_volume   602.40875519
_cell_formula_units_Z   18
loop_
 _symmetry_equiv_pos_site_id
 _symmetry_equiv_pos_as_xyz
  1  'x, y, z'
loop_
 _atom_site_type_symbol
 _atom_site_label
 _atom_site_symmetry_multiplicity
 _atom_site_fract_x
 _atom_site_fract_y
 _atom_site_fract_z
 _atom_site_occupancy
  Br  Br0  1  0.29192726  0.00000000  0.25000000  1
  Br  Br1  1  0.00000000  0.29192726  0.25000000  1
  Br  Br2  1  -0.29192726  -0.29192726  0.25000000  1
  Br  Br3  1  -0.29192726  -0.00000000  0.75000000  1
  Br  Br4  1  0.00000000  -0.29192726  0.75000000  1
  Br  Br5  1  0.29192726  0.29192726  0.75000000  1
  Br  Br6  1  0.95859393  0.33333333  0.58333333  1
  Br  Br7  1  0.66666667  0.62526060  0.58333333  1
  Br  Br8  1  0.37473940  0.04140607  0.58333333  1
  Br  Br9  1  0.37473940  0.33333333  1.08333333  1
  Br  Br10  1  0.66666667  0.04140607  1.08333333  1
  Br  Br11  1  0.95859393  0.62526060  1.08333333  1
  Br  Br12  1  0.62526060  0.66666667  0.91666667  1
  Br  Br13  1  0.33333333  0.95859393  0.91666667  1
  Br  Br14  1  0.04140607  0.37473940  0.91666667  1
  Br  Br15  1  0.04140607  0.66666667  1.41666667  1
  Br  Br16  1  0.33333333  0.37473940  1.41666667  1
  Br  Br17  1  0.62526060  0.95859393  1.41666667  1
  Li  Li18  1  0.13176827  0.00000000  0.25000000  1
  Li  Li19  1  0.00000000  0.13176827  0.25000000  1
  Li  Li20  1  0.86823173  0.86823173  0.25000000  1
  Li  Li21  1  0.86823173  0.00000000  0.75000000  1
  Li  Li22  1  0.00000000  0.86823173  0.75000000  1
  Li  Li23  1  0.13176827  0.13176827  0.75000000  1
  Li  Li24  1  0.79843493  0.33333333  0.58333333  1
  Li  Li25  1  0.66666667  0.46510160  0.58333333  1
  Li  Li26  1  0.53489840  0.20156507  0.58333333  1
  Li  Li27  1  0.53489840  0.33333333  0.08333333  1
  Li  Li28  1  0.66666667  0.20156507  0.08333333  1
  Li  Li29  1  0.79843493  0.46510160  0.08333333  1
  Li  Li30  1  0.46510160  0.66666667  0.91666667  1
  Li  Li31  1  0.33333333  0.79843493  0.91666667  1
  Li  Li32  1  0.20156507  0.53489840  0.91666667  1
  Li  Li33  1  0.20156507  0.66666667  0.41666667  1
  Li  Li34  1  0.33333333  0.53489840  0.41666667  1
  Li  Li35  1  0.46510160  0.79843493  0.41666667  1
