# generated using pymatgen
data_Li4SCl2
_symmetry_space_group_name_H-M   'P 1'
_cell_length_a   25.63118748
_cell_length_b   25.63118748
_cell_length_c   25.63118748
_cell_angle_alpha   90.00000000
_cell_angle_beta   90.00000000
_cell_angle_gamma   90.00000000
_symmetry_Int_Tables_number   1
_chemical_formula_structural   Li4SCl2
_chemical_formula_sum   'Li384 S96 Cl192'
_cell_volume   16838.60780454
_cell_formula_units_Z   96
loop_
 _symmetry_equiv_pos_site_id
 _symmetry_equiv_pos_as_xyz
  1  'x, y, z'
loop_
 _atom_site_type_symbol
 _atom_site_label
 _atom_site_symmetry_multiplicity
 _atom_site_fract_x
 _atom_site_fract_y
 _atom_site_fract_z
 _atom_site_occupancy
  Cl  Cl0  1  0.49770334  0.49770334  0.33400838  1
  Cl  Cl1  1  0.25229666  0.75229666  0.83400838  1
  Cl  Cl2  1  0.75229666  0.99770334  0.41599162  1
  Cl  Cl3  1  0.99770334  0.25229666  0.91599162  1
  Cl  Cl4  1  0.33400838  0.49770334  0.49770334  1
  Cl  Cl5  1  0.83400838  0.25229666  0.75229666  1
  Cl  Cl6  1  0.41599162  0.75229666  0.99770334  1
  Cl  Cl7  1  0.91599162  0.99770334  0.25229666  1
  Cl  Cl8  1  0.49770334  0.33400838  0.49770334  1
  Cl  Cl9  1  0.75229666  0.83400838  0.25229666  1
  Cl  Cl10  1  0.99770334  0.41599162  0.75229666  1
  Cl  Cl11  1  0.25229666  0.91599162  0.99770334  1
  Cl  Cl12  1  0.24770334  0.74770334  0.16599162  1
  Cl  Cl13  1  0.50229666  0.50229666  0.66599162  1
  Cl  Cl14  1  0.74770334  0.00229666  0.08400838  1
  Cl  Cl15  1  0.00229666  0.24770334  0.58400838  1
  Cl  Cl16  1  0.24770334  0.58400838  0.00229666  1
  Cl  Cl17  1  0.00229666  0.08400838  0.74770334  1
  Cl  Cl18  1  0.50229666  0.66599162  0.50229666  1
  Cl  Cl19  1  0.74770334  0.16599162  0.24770334  1
  Cl  Cl20  1  0.08400838  0.74770334  0.00229666  1
  Cl  Cl21  1  0.58400838  0.00229666  0.24770334  1
  Cl  Cl22  1  0.16599162  0.24770334  0.74770334  1
  Cl  Cl23  1  0.66599162  0.50229666  0.50229666  1
  Cl  Cl24  1  0.49770334  0.99770334  0.83400838  1
  Cl  Cl25  1  0.25229666  0.25229666  0.33400838  1
  Cl  Cl26  1  0.75229666  0.49770334  0.91599162  1
  Cl  Cl27  1  0.99770334  0.75229666  0.41599162  1
  Cl  Cl28  1  0.33400838  0.99770334  0.99770334  1
  Cl  Cl29  1  0.83400838  0.75229666  0.25229666  1
  Cl  Cl30  1  0.41599162  0.25229666  0.49770334  1
  Cl  Cl31  1  0.91599162  0.49770334  0.75229666  1
  Cl  Cl32  1  0.49770334  0.83400838  0.99770334  1
  Cl  Cl33  1  0.75229666  0.33400838  0.75229666  1
  Cl  Cl34  1  0.99770334  0.91599162  0.25229666  1
  Cl  Cl35  1  0.25229666  0.41599162  0.49770334  1
  Cl  Cl36  1  0.24770334  0.24770334  0.66599162  1
  Cl  Cl37  1  0.50229666  0.00229666  0.16599162  1
  Cl  Cl38  1  0.74770334  0.50229666  0.58400838  1
  Cl  Cl39  1  0.00229666  0.74770334  0.08400838  1
  Cl  Cl40  1  0.24770334  0.08400838  0.50229666  1
  Cl  Cl41  1  0.00229666  0.58400838  0.24770334  1
  Cl  Cl42  1  0.50229666  0.16599162  0.00229666  1
  Cl  Cl43  1  0.74770334  0.66599162  0.74770334  1
  Cl  Cl44  1  0.08400838  0.24770334  0.50229666  1
  Cl  Cl45  1  0.58400838  0.50229666  0.74770334  1
  Cl  Cl46  1  0.16599162  0.74770334  0.24770334  1
  Cl  Cl47  1  0.66599162  0.00229666  0.00229666  1
  Cl  Cl48  1  0.99770334  0.49770334  0.83400838  1
  Cl  Cl49  1  0.75229666  0.75229666  0.33400838  1
  Cl  Cl50  1  0.25229666  0.99770334  0.91599162  1
  Cl  Cl51  1  0.49770334  0.25229666  0.41599162  1
  Cl  Cl52  1  0.83400838  0.49770334  0.99770334  1
  Cl  Cl53  1  0.33400838  0.25229666  0.25229666  1
  Cl  Cl54  1  0.91599162  0.75229666  0.49770334  1
  Cl  Cl55  1  0.41599162  0.99770334  0.75229666  1
  Cl  Cl56  1  0.99770334  0.33400838  0.99770334  1
  Cl  Cl57  1  0.25229666  0.83400838  0.75229666  1
  Cl  Cl58  1  0.49770334  0.41599162  0.25229666  1
  Cl  Cl59  1  0.75229666  0.91599162  0.49770334  1
  Cl  Cl60  1  0.74770334  0.74770334  0.66599162  1
  Cl  Cl61  1  0.00229666  0.50229666  0.16599162  1
  Cl  Cl62  1  0.24770334  0.00229666  0.58400838  1
  Cl  Cl63  1  0.50229666  0.24770334  0.08400838  1
  Cl  Cl64  1  0.74770334  0.58400838  0.50229666  1
  Cl  Cl65  1  0.50229666  0.08400838  0.24770334  1
  Cl  Cl66  1  0.00229666  0.66599162  0.00229666  1
  Cl  Cl67  1  0.24770334  0.16599162  0.74770334  1
  Cl  Cl68  1  0.58400838  0.74770334  0.50229666  1
  Cl  Cl69  1  0.08400838  0.00229666  0.74770334  1
  Cl  Cl70  1  0.66599162  0.24770334  0.24770334  1
  Cl  Cl71  1  0.16599162  0.50229666  0.00229666  1
  Cl  Cl72  1  0.99770334  0.99770334  0.33400838  1
  Cl  Cl73  1  0.75229666  0.25229666  0.83400838  1
  Cl  Cl74  1  0.25229666  0.49770334  0.41599162  1
  Cl  Cl75  1  0.49770334  0.75229666  0.91599162  1
  Cl  Cl76  1  0.83400838  0.99770334  0.49770334  1
  Cl  Cl77  1  0.33400838  0.75229666  0.75229666  1
  Cl  Cl78  1  0.91599162  0.25229666  0.99770334  1
  Cl  Cl79  1  0.41599162  0.49770334  0.25229666  1
  Cl  Cl80  1  0.99770334  0.83400838  0.49770334  1
  Cl  Cl81  1  0.25229666  0.33400838  0.25229666  1
  Cl  Cl82  1  0.49770334  0.91599162  0.75229666  1
  Cl  Cl83  1  0.75229666  0.41599162  0.99770334  1
  Cl  Cl84  1  0.74770334  0.24770334  0.16599162  1
  Cl  Cl85  1  0.00229666  0.00229666  0.66599162  1
  Cl  Cl86  1  0.24770334  0.50229666  0.08400838  1
  Cl  Cl87  1  0.50229666  0.74770334  0.58400838  1
  Cl  Cl88  1  0.74770334  0.08400838  0.00229666  1
  Cl  Cl89  1  0.50229666  0.58400838  0.74770334  1
  Cl  Cl90  1  0.00229666  0.16599162  0.50229666  1
  Cl  Cl91  1  0.24770334  0.66599162  0.24770334  1
  Cl  Cl92  1  0.58400838  0.24770334  0.00229666  1
  Cl  Cl93  1  0.08400838  0.50229666  0.24770334  1
  Cl  Cl94  1  0.66599162  0.74770334  0.74770334  1
  Cl  Cl95  1  0.16599162  0.00229666  0.50229666  1
  Cl  Cl96  1  0.00000000  0.00000000  0.00000000  1
  Cl  Cl97  1  0.75000000  0.25000000  0.50000000  1
  Cl  Cl98  1  0.25000000  0.50000000  0.75000000  1
  Cl  Cl99  1  0.50000000  0.75000000  0.25000000  1
  Cl  Cl100  1  0.00000000  0.50000000  0.50000000  1
  Cl  Cl101  1  0.75000000  0.75000000  0.00000000  1
  Cl  Cl102  1  0.25000000  -0.00000000  0.25000000  1
  Cl  Cl103  1  0.50000000  0.25000000  0.75000000  1
  Cl  Cl104  1  0.50000000  -0.00000000  0.50000000  1
  Cl  Cl105  1  0.25000000  0.25000000  -0.00000000  1
  Cl  Cl106  1  0.75000000  0.50000000  0.25000000  1
  Cl  Cl107  1  0.00000000  0.75000000  0.75000000  1
  Cl  Cl108  1  0.50000000  0.50000000  -0.00000000  1
  Cl  Cl109  1  0.25000000  0.75000000  0.50000000  1
  Cl  Cl110  1  0.75000000  0.00000000  0.75000000  1
  Cl  Cl111  1  0.00000000  0.25000000  0.25000000  1
  Cl  Cl112  1  0.37500000  0.37500000  0.37500000  1
  Cl  Cl113  1  0.12500000  0.62500000  0.12500000  1
  Cl  Cl114  1  0.37500000  0.87500000  0.87500000  1
  Cl  Cl115  1  0.12500000  0.12500000  0.62500000  1
  Cl  Cl116  1  0.87500000  0.37500000  0.87500000  1
  Cl  Cl117  1  0.62500000  0.62500000  0.62500000  1
  Cl  Cl118  1  0.87500000  0.87500000  0.37500000  1
  Cl  Cl119  1  0.62500000  0.12500000  0.12500000  1
  Cl  Cl120  1  0.50000000  0.50000000  0.50000000  1
  Cl  Cl121  1  0.25000000  0.75000000  -0.00000000  1
  Cl  Cl122  1  0.75000000  0.00000000  0.25000000  1
  Cl  Cl123  1  0.00000000  0.25000000  0.75000000  1
  Cl  Cl124  1  0.50000000  -0.00000000  -0.00000000  1
  Cl  Cl125  1  0.25000000  0.25000000  0.50000000  1
  Cl  Cl126  1  0.75000000  0.50000000  0.75000000  1
  Cl  Cl127  1  0.00000000  0.75000000  0.25000000  1
  Cl  Cl128  1  0.00000000  0.50000000  -0.00000000  1
  Cl  Cl129  1  0.75000000  0.75000000  0.50000000  1
  Cl  Cl130  1  0.25000000  -0.00000000  0.75000000  1
  Cl  Cl131  1  0.50000000  0.25000000  0.25000000  1
  Cl  Cl132  1  0.00000000  0.00000000  0.50000000  1
  Cl  Cl133  1  0.75000000  0.25000000  -0.00000000  1
  Cl  Cl134  1  0.25000000  0.50000000  0.25000000  1
  Cl  Cl135  1  0.50000000  0.75000000  0.75000000  1
  Cl  Cl136  1  0.33175220  0.12500000  0.12500000  1
  Cl  Cl137  1  0.41824780  0.12500000  0.62500000  1
  Cl  Cl138  1  0.12500000  0.33175220  0.12500000  1
  Cl  Cl139  1  0.62500000  0.41824780  0.12500000  1
  Cl  Cl140  1  0.12500000  0.12500000  0.33175220  1
  Cl  Cl141  1  0.12500000  0.62500000  0.41824780  1
  Cl  Cl142  1  0.87500000  0.58175220  0.37500000  1
  Cl  Cl143  1  0.87500000  0.66824780  0.87500000  1
  Cl  Cl144  1  0.08175220  0.37500000  0.37500000  1
  Cl  Cl145  1  0.16824780  0.87500000  0.37500000  1
  Cl  Cl146  1  0.87500000  0.37500000  0.16824780  1
  Cl  Cl147  1  0.37500000  0.37500000  0.08175220  1
  Cl  Cl148  1  0.33175220  0.62500000  0.62500000  1
  Cl  Cl149  1  0.41824780  0.62500000  0.12500000  1
  Cl  Cl150  1  0.12500000  0.83175220  0.62500000  1
  Cl  Cl151  1  0.62500000  0.91824780  0.62500000  1
  Cl  Cl152  1  0.12500000  0.62500000  0.83175220  1
  Cl  Cl153  1  0.12500000  0.12500000  0.91824780  1
  Cl  Cl154  1  0.87500000  0.08175220  0.87500000  1
  Cl  Cl155  1  0.87500000  0.16824780  0.37500000  1
  Cl  Cl156  1  0.08175220  0.87500000  0.87500000  1
  Cl  Cl157  1  0.16824780  0.37500000  0.87500000  1
  Cl  Cl158  1  0.87500000  0.87500000  0.66824780  1
  Cl  Cl159  1  0.37500000  0.87500000  0.58175220  1
  Cl  Cl160  1  0.83175220  0.12500000  0.62500000  1
  Cl  Cl161  1  0.91824780  0.12500000  0.12500000  1
  Cl  Cl162  1  0.62500000  0.33175220  0.62500000  1
  Cl  Cl163  1  0.12500000  0.41824780  0.62500000  1
  Cl  Cl164  1  0.62500000  0.12500000  0.83175220  1
  Cl  Cl165  1  0.62500000  0.62500000  0.91824780  1
  Cl  Cl166  1  0.37500000  0.58175220  0.87500000  1
  Cl  Cl167  1  0.37500000  0.66824780  0.37500000  1
  Cl  Cl168  1  0.58175220  0.37500000  0.87500000  1
  Cl  Cl169  1  0.66824780  0.87500000  0.87500000  1
  Cl  Cl170  1  0.37500000  0.37500000  0.66824780  1
  Cl  Cl171  1  0.87500000  0.37500000  0.58175220  1
  Cl  Cl172  1  0.83175220  0.62500000  0.12500000  1
  Cl  Cl173  1  0.91824780  0.62500000  0.62500000  1
  Cl  Cl174  1  0.62500000  0.83175220  0.12500000  1
  Cl  Cl175  1  0.12500000  0.91824780  0.12500000  1
  Cl  Cl176  1  0.62500000  0.62500000  0.33175220  1
  Cl  Cl177  1  0.62500000  0.12500000  0.41824780  1
  Cl  Cl178  1  0.37500000  0.08175220  0.37500000  1
  Cl  Cl179  1  0.37500000  0.16824780  0.87500000  1
  Cl  Cl180  1  0.58175220  0.87500000  0.37500000  1
  Cl  Cl181  1  0.66824780  0.37500000  0.37500000  1
  Cl  Cl182  1  0.37500000  0.87500000  0.16824780  1
  Cl  Cl183  1  0.87500000  0.87500000  0.08175220  1
  Cl  Cl184  1  0.12500000  0.12500000  0.12500000  1
  Cl  Cl185  1  0.87500000  0.37500000  0.37500000  1
  Cl  Cl186  1  0.12500000  0.62500000  0.62500000  1
  Cl  Cl187  1  0.87500000  0.87500000  0.87500000  1
  Cl  Cl188  1  0.62500000  0.12500000  0.62500000  1
  Cl  Cl189  1  0.37500000  0.37500000  0.87500000  1
  Cl  Cl190  1  0.62500000  0.62500000  0.12500000  1
  Cl  Cl191  1  0.37500000  0.87500000  0.37500000  1
  Li  Li192  1  0.01291616  0.01291616  0.81401091  1
  Li  Li193  1  0.73708384  0.23708384  0.31401091  1
  Li  Li194  1  0.23708384  0.51291616  0.93598909  1
  Li  Li195  1  0.51291616  0.73708384  0.43598909  1
  Li  Li196  1  0.81401091  0.01291616  0.01291616  1
  Li  Li197  1  0.31401091  0.73708384  0.23708384  1
  Li  Li198  1  0.93598909  0.23708384  0.51291616  1
  Li  Li199  1  0.43598909  0.51291616  0.73708384  1
  Li  Li200  1  0.01291616  0.81401091  0.01291616  1
  Li  Li201  1  0.23708384  0.31401091  0.73708384  1
  Li  Li202  1  0.51291616  0.93598909  0.23708384  1
  Li  Li203  1  0.73708384  0.43598909  0.51291616  1
  Li  Li204  1  0.76291616  0.26291616  0.68598909  1
  Li  Li205  1  0.98708384  0.98708384  0.18598909  1
  Li  Li206  1  0.26291616  0.48708384  0.56401091  1
  Li  Li207  1  0.48708384  0.76291616  0.06401091  1
  Li  Li208  1  0.76291616  0.06401091  0.48708384  1
  Li  Li209  1  0.48708384  0.56401091  0.26291616  1
  Li  Li210  1  0.98708384  0.18598909  0.98708384  1
  Li  Li211  1  0.26291616  0.68598909  0.76291616  1
  Li  Li212  1  0.56401091  0.26291616  0.48708384  1
  Li  Li213  1  0.06401091  0.48708384  0.76291616  1
  Li  Li214  1  0.68598909  0.76291616  0.26291616  1
  Li  Li215  1  0.18598909  0.98708384  0.98708384  1
  Li  Li216  1  0.01291616  0.51291616  0.31401091  1
  Li  Li217  1  0.73708384  0.73708384  0.81401091  1
  Li  Li218  1  0.23708384  0.01291616  0.43598909  1
  Li  Li219  1  0.51291616  0.23708384  0.93598909  1
  Li  Li220  1  0.81401091  0.51291616  0.51291616  1
  Li  Li221  1  0.31401091  0.23708384  0.73708384  1
  Li  Li222  1  0.93598909  0.73708384  0.01291616  1
  Li  Li223  1  0.43598909  0.01291616  0.23708384  1
  Li  Li224  1  0.01291616  0.31401091  0.51291616  1
  Li  Li225  1  0.23708384  0.81401091  0.23708384  1
  Li  Li226  1  0.51291616  0.43598909  0.73708384  1
  Li  Li227  1  0.73708384  0.93598909  0.01291616  1
  Li  Li228  1  0.76291616  0.76291616  0.18598909  1
  Li  Li229  1  0.98708384  0.48708384  0.68598909  1
  Li  Li230  1  0.26291616  0.98708384  0.06401091  1
  Li  Li231  1  0.48708384  0.26291616  0.56401091  1
  Li  Li232  1  0.76291616  0.56401091  0.98708384  1
  Li  Li233  1  0.48708384  0.06401091  0.76291616  1
  Li  Li234  1  0.98708384  0.68598909  0.48708384  1
  Li  Li235  1  0.26291616  0.18598909  0.26291616  1
  Li  Li236  1  0.56401091  0.76291616  0.98708384  1
  Li  Li237  1  0.06401091  0.98708384  0.26291616  1
  Li  Li238  1  0.68598909  0.26291616  0.76291616  1
  Li  Li239  1  0.18598909  0.48708384  0.48708384  1
  Li  Li240  1  0.51291616  0.01291616  0.31401091  1
  Li  Li241  1  0.23708384  0.23708384  0.81401091  1
  Li  Li242  1  0.73708384  0.51291616  0.43598909  1
  Li  Li243  1  0.01291616  0.73708384  0.93598909  1
  Li  Li244  1  0.31401091  0.01291616  0.51291616  1
  Li  Li245  1  0.81401091  0.73708384  0.73708384  1
  Li  Li246  1  0.43598909  0.23708384  0.01291616  1
  Li  Li247  1  0.93598909  0.51291616  0.23708384  1
  Li  Li248  1  0.51291616  0.81401091  0.51291616  1
  Li  Li249  1  0.73708384  0.31401091  0.23708384  1
  Li  Li250  1  0.01291616  0.93598909  0.73708384  1
  Li  Li251  1  0.23708384  0.43598909  0.01291616  1
  Li  Li252  1  0.26291616  0.26291616  0.18598909  1
  Li  Li253  1  0.48708384  0.98708384  0.68598909  1
  Li  Li254  1  0.76291616  0.48708384  0.06401091  1
  Li  Li255  1  0.98708384  0.76291616  0.56401091  1
  Li  Li256  1  0.26291616  0.06401091  0.98708384  1
  Li  Li257  1  0.98708384  0.56401091  0.76291616  1
  Li  Li258  1  0.48708384  0.18598909  0.48708384  1
  Li  Li259  1  0.76291616  0.68598909  0.26291616  1
  Li  Li260  1  0.06401091  0.26291616  0.98708384  1
  Li  Li261  1  0.56401091  0.48708384  0.26291616  1
  Li  Li262  1  0.18598909  0.76291616  0.76291616  1
  Li  Li263  1  0.68598909  0.98708384  0.48708384  1
  Li  Li264  1  0.51291616  0.51291616  0.81401091  1
  Li  Li265  1  0.23708384  0.73708384  0.31401091  1
  Li  Li266  1  0.73708384  0.01291616  0.93598909  1
  Li  Li267  1  0.01291616  0.23708384  0.43598909  1
  Li  Li268  1  0.31401091  0.51291616  0.01291616  1
  Li  Li269  1  0.81401091  0.23708384  0.23708384  1
  Li  Li270  1  0.43598909  0.73708384  0.51291616  1
  Li  Li271  1  0.93598909  0.01291616  0.73708384  1
  Li  Li272  1  0.51291616  0.31401091  0.01291616  1
  Li  Li273  1  0.73708384  0.81401091  0.73708384  1
  Li  Li274  1  0.01291616  0.43598909  0.23708384  1
  Li  Li275  1  0.23708384  0.93598909  0.51291616  1
  Li  Li276  1  0.26291616  0.76291616  0.68598909  1
  Li  Li277  1  0.48708384  0.48708384  0.18598909  1
  Li  Li278  1  0.76291616  0.98708384  0.56401091  1
  Li  Li279  1  0.98708384  0.26291616  0.06401091  1
  Li  Li280  1  0.26291616  0.56401091  0.48708384  1
  Li  Li281  1  0.98708384  0.06401091  0.26291616  1
  Li  Li282  1  0.48708384  0.68598909  0.98708384  1
  Li  Li283  1  0.76291616  0.18598909  0.76291616  1
  Li  Li284  1  0.06401091  0.76291616  0.48708384  1
  Li  Li285  1  0.56401091  0.98708384  0.76291616  1
  Li  Li286  1  0.18598909  0.26291616  0.26291616  1
  Li  Li287  1  0.68598909  0.48708384  0.98708384  1
  Li  Li288  1  0.00000000  0.87251011  0.12748989  1
  Li  Li289  1  0.75000000  0.37748989  0.62748989  1
  Li  Li290  1  0.25000000  0.37251011  0.62251011  1
  Li  Li291  1  0.50000000  0.87748989  0.12251011  1
  Li  Li292  1  0.12748989  0.00000000  0.87251011  1
  Li  Li293  1  0.62748989  0.75000000  0.37748989  1
  Li  Li294  1  0.62251011  0.25000000  0.37251011  1
  Li  Li295  1  0.12251011  0.50000000  0.87748989  1
  Li  Li296  1  0.87251011  0.12748989  -0.00000000  1
  Li  Li297  1  0.37748989  0.62748989  0.75000000  1
  Li  Li298  1  0.37251011  0.62251011  0.25000000  1
  Li  Li299  1  0.87748989  0.12251011  0.50000000  1
  Li  Li300  1  0.00000000  0.12748989  0.87251011  1
  Li  Li301  1  0.25000000  0.62251011  0.37251011  1
  Li  Li302  1  0.75000000  0.62748989  0.37748989  1
  Li  Li303  1  0.50000000  0.12251011  0.87748989  1
  Li  Li304  1  0.87251011  0.00000000  0.12748989  1
  Li  Li305  1  0.37251011  0.25000000  0.62251011  1
  Li  Li306  1  0.37748989  0.75000000  0.62748989  1
  Li  Li307  1  0.87748989  0.50000000  0.12251011  1
  Li  Li308  1  0.12748989  0.87251011  0.00000000  1
  Li  Li309  1  0.62251011  0.37251011  0.25000000  1
  Li  Li310  1  0.62748989  0.37748989  0.75000000  1
  Li  Li311  1  0.12251011  0.87748989  0.50000000  1
  Li  Li312  1  0.00000000  0.37251011  0.62748989  1
  Li  Li313  1  0.75000000  0.87748989  0.12748989  1
  Li  Li314  1  0.25000000  0.87251011  0.12251011  1
  Li  Li315  1  0.50000000  0.37748989  0.62251011  1
  Li  Li316  1  0.12748989  0.50000000  0.37251011  1
  Li  Li317  1  0.62748989  0.25000000  0.87748989  1
  Li  Li318  1  0.62251011  0.75000000  0.87251011  1
  Li  Li319  1  0.12251011  0.00000000  0.37748989  1
  Li  Li320  1  0.87251011  0.62748989  0.50000000  1
  Li  Li321  1  0.37748989  0.12748989  0.25000000  1
  Li  Li322  1  0.37251011  0.12251011  0.75000000  1
  Li  Li323  1  0.87748989  0.62251011  0.00000000  1
  Li  Li324  1  0.00000000  0.62748989  0.37251011  1
  Li  Li325  1  0.25000000  0.12251011  0.87251011  1
  Li  Li326  1  0.75000000  0.12748989  0.87748989  1
  Li  Li327  1  0.50000000  0.62251011  0.37748989  1
  Li  Li328  1  0.87251011  0.50000000  0.62748989  1
  Li  Li329  1  0.37251011  0.75000000  0.12251011  1
  Li  Li330  1  0.37748989  0.25000000  0.12748989  1
  Li  Li331  1  0.87748989  -0.00000000  0.62251011  1
  Li  Li332  1  0.12748989  0.37251011  0.50000000  1
  Li  Li333  1  0.62251011  0.87251011  0.75000000  1
  Li  Li334  1  0.62748989  0.87748989  0.25000000  1
  Li  Li335  1  0.12251011  0.37748989  -0.00000000  1
  Li  Li336  1  0.50000000  0.87251011  0.62748989  1
  Li  Li337  1  0.25000000  0.37748989  0.12748989  1
  Li  Li338  1  0.75000000  0.37251011  0.12251011  1
  Li  Li339  1  0.00000000  0.87748989  0.62251011  1
  Li  Li340  1  0.62748989  0.00000000  0.37251011  1
  Li  Li341  1  0.12748989  0.75000000  0.87748989  1
  Li  Li342  1  0.12251011  0.25000000  0.87251011  1
  Li  Li343  1  0.62251011  0.50000000  0.37748989  1
  Li  Li344  1  0.37251011  0.12748989  0.50000000  1
  Li  Li345  1  0.87748989  0.62748989  0.25000000  1
  Li  Li346  1  0.87251011  0.62251011  0.75000000  1
  Li  Li347  1  0.37748989  0.12251011  -0.00000000  1
  Li  Li348  1  0.50000000  0.12748989  0.37251011  1
  Li  Li349  1  0.75000000  0.62251011  0.87251011  1
  Li  Li350  1  0.25000000  0.62748989  0.87748989  1
  Li  Li351  1  0.00000000  0.12251011  0.37748989  1
  Li  Li352  1  0.37251011  0.00000000  0.62748989  1
  Li  Li353  1  0.87251011  0.25000000  0.12251011  1
  Li  Li354  1  0.87748989  0.75000000  0.12748989  1
  Li  Li355  1  0.37748989  0.50000000  0.62251011  1
  Li  Li356  1  0.62748989  0.87251011  0.50000000  1
  Li  Li357  1  0.12251011  0.37251011  0.75000000  1
  Li  Li358  1  0.12748989  0.37748989  0.25000000  1
  Li  Li359  1  0.62251011  0.87748989  0.00000000  1
  Li  Li360  1  0.50000000  0.37251011  0.12748989  1
  Li  Li361  1  0.25000000  0.87748989  0.62748989  1
  Li  Li362  1  0.75000000  0.87251011  0.62251011  1
  Li  Li363  1  0.00000000  0.37748989  0.12251011  1
  Li  Li364  1  0.62748989  0.50000000  0.87251011  1
  Li  Li365  1  0.12748989  0.25000000  0.37748989  1
  Li  Li366  1  0.12251011  0.75000000  0.37251011  1
  Li  Li367  1  0.62251011  0.00000000  0.87748989  1
  Li  Li368  1  0.37251011  0.62748989  -0.00000000  1
  Li  Li369  1  0.87748989  0.12748989  0.75000000  1
  Li  Li370  1  0.87251011  0.12251011  0.25000000  1
  Li  Li371  1  0.37748989  0.62251011  0.50000000  1
  Li  Li372  1  0.50000000  0.62748989  0.87251011  1
  Li  Li373  1  0.75000000  0.12251011  0.37251011  1
  Li  Li374  1  0.25000000  0.12748989  0.37748989  1
  Li  Li375  1  0.00000000  0.62251011  0.87748989  1
  Li  Li376  1  0.37251011  0.50000000  0.12748989  1
  Li  Li377  1  0.87251011  0.75000000  0.62251011  1
  Li  Li378  1  0.87748989  0.25000000  0.62748989  1
  Li  Li379  1  0.37748989  0.00000000  0.12251011  1
  Li  Li380  1  0.62748989  0.37251011  -0.00000000  1
  Li  Li381  1  0.12251011  0.87251011  0.25000000  1
  Li  Li382  1  0.12748989  0.87748989  0.75000000  1
  Li  Li383  1  0.62251011  0.37748989  0.50000000  1
  Li  Li384  1  0.90618516  0.90618516  0.59850513  1
  Li  Li385  1  0.84381484  0.34381484  0.09850513  1
  Li  Li386  1  0.34381484  0.40618516  0.15149487  1
  Li  Li387  1  0.40618516  0.84381484  0.65149487  1
  Li  Li388  1  0.59850513  0.90618516  0.90618516  1
  Li  Li389  1  0.09850513  0.84381484  0.34381484  1
  Li  Li390  1  0.15149487  0.34381484  0.40618516  1
  Li  Li391  1  0.65149487  0.40618516  0.84381484  1
  Li  Li392  1  0.90618516  0.59850513  0.90618516  1
  Li  Li393  1  0.34381484  0.09850513  0.84381484  1
  Li  Li394  1  0.40618516  0.15149487  0.34381484  1
  Li  Li395  1  0.84381484  0.65149487  0.40618516  1
  Li  Li396  1  0.65618516  0.15618516  0.90149487  1
  Li  Li397  1  0.09381484  0.09381484  0.40149487  1
  Li  Li398  1  0.15618516  0.59381484  0.34850513  1
  Li  Li399  1  0.59381484  0.65618516  0.84850513  1
  Li  Li400  1  0.65618516  0.84850513  0.59381484  1
  Li  Li401  1  0.59381484  0.34850513  0.15618516  1
  Li  Li402  1  0.09381484  0.40149487  0.09381484  1
  Li  Li403  1  0.15618516  0.90149487  0.65618516  1
  Li  Li404  1  0.34850513  0.15618516  0.59381484  1
  Li  Li405  1  0.84850513  0.59381484  0.65618516  1
  Li  Li406  1  0.90149487  0.65618516  0.15618516  1
  Li  Li407  1  0.40149487  0.09381484  0.09381484  1
  Li  Li408  1  0.90618516  0.40618516  0.09850513  1
  Li  Li409  1  0.84381484  0.84381484  0.59850513  1
  Li  Li410  1  0.34381484  0.90618516  0.65149487  1
  Li  Li411  1  0.40618516  0.34381484  0.15149487  1
  Li  Li412  1  0.59850513  0.40618516  0.40618516  1
  Li  Li413  1  0.09850513  0.34381484  0.84381484  1
  Li  Li414  1  0.15149487  0.84381484  0.90618516  1
  Li  Li415  1  0.65149487  0.90618516  0.34381484  1
  Li  Li416  1  0.90618516  0.09850513  0.40618516  1
  Li  Li417  1  0.34381484  0.59850513  0.34381484  1
  Li  Li418  1  0.40618516  0.65149487  0.84381484  1
  Li  Li419  1  0.84381484  0.15149487  0.90618516  1
  Li  Li420  1  0.65618516  0.65618516  0.40149487  1
  Li  Li421  1  0.09381484  0.59381484  0.90149487  1
  Li  Li422  1  0.15618516  0.09381484  0.84850513  1
  Li  Li423  1  0.59381484  0.15618516  0.34850513  1
  Li  Li424  1  0.65618516  0.34850513  0.09381484  1
  Li  Li425  1  0.59381484  0.84850513  0.65618516  1
  Li  Li426  1  0.09381484  0.90149487  0.59381484  1
  Li  Li427  1  0.15618516  0.40149487  0.15618516  1
  Li  Li428  1  0.34850513  0.65618516  0.09381484  1
  Li  Li429  1  0.84850513  0.09381484  0.15618516  1
  Li  Li430  1  0.90149487  0.15618516  0.65618516  1
  Li  Li431  1  0.40149487  0.59381484  0.59381484  1
  Li  Li432  1  0.40618516  0.90618516  0.09850513  1
  Li  Li433  1  0.34381484  0.34381484  0.59850513  1
  Li  Li434  1  0.84381484  0.40618516  0.65149487  1
  Li  Li435  1  0.90618516  0.84381484  0.15149487  1
  Li  Li436  1  0.09850513  0.90618516  0.40618516  1
  Li  Li437  1  0.59850513  0.84381484  0.84381484  1
  Li  Li438  1  0.65149487  0.34381484  0.90618516  1
  Li  Li439  1  0.15149487  0.40618516  0.34381484  1
  Li  Li440  1  0.40618516  0.59850513  0.40618516  1
  Li  Li441  1  0.84381484  0.09850513  0.34381484  1
  Li  Li442  1  0.90618516  0.15149487  0.84381484  1
  Li  Li443  1  0.34381484  0.65149487  0.90618516  1
  Li  Li444  1  0.15618516  0.15618516  0.40149487  1
  Li  Li445  1  0.59381484  0.09381484  0.90149487  1
  Li  Li446  1  0.65618516  0.59381484  0.84850513  1
  Li  Li447  1  0.09381484  0.65618516  0.34850513  1
  Li  Li448  1  0.15618516  0.84850513  0.09381484  1
  Li  Li449  1  0.09381484  0.34850513  0.65618516  1
  Li  Li450  1  0.59381484  0.40149487  0.59381484  1
  Li  Li451  1  0.65618516  0.90149487  0.15618516  1
  Li  Li452  1  0.84850513  0.15618516  0.09381484  1
  Li  Li453  1  0.34850513  0.59381484  0.15618516  1
  Li  Li454  1  0.40149487  0.65618516  0.65618516  1
  Li  Li455  1  0.90149487  0.09381484  0.59381484  1
  Li  Li456  1  0.40618516  0.40618516  0.59850513  1
  Li  Li457  1  0.34381484  0.84381484  0.09850513  1
  Li  Li458  1  0.84381484  0.90618516  0.15149487  1
  Li  Li459  1  0.90618516  0.34381484  0.65149487  1
  Li  Li460  1  0.09850513  0.40618516  0.90618516  1
  Li  Li461  1  0.59850513  0.34381484  0.34381484  1
  Li  Li462  1  0.65149487  0.84381484  0.40618516  1
  Li  Li463  1  0.15149487  0.90618516  0.84381484  1
  Li  Li464  1  0.40618516  0.09850513  0.90618516  1
  Li  Li465  1  0.84381484  0.59850513  0.84381484  1
  Li  Li466  1  0.90618516  0.65149487  0.34381484  1
  Li  Li467  1  0.34381484  0.15149487  0.40618516  1
  Li  Li468  1  0.15618516  0.65618516  0.90149487  1
  Li  Li469  1  0.59381484  0.59381484  0.40149487  1
  Li  Li470  1  0.65618516  0.09381484  0.34850513  1
  Li  Li471  1  0.09381484  0.15618516  0.84850513  1
  Li  Li472  1  0.15618516  0.34850513  0.59381484  1
  Li  Li473  1  0.09381484  0.84850513  0.15618516  1
  Li  Li474  1  0.59381484  0.90149487  0.09381484  1
  Li  Li475  1  0.65618516  0.40149487  0.65618516  1
  Li  Li476  1  0.84850513  0.65618516  0.59381484  1
  Li  Li477  1  0.34850513  0.09381484  0.65618516  1
  Li  Li478  1  0.40149487  0.15618516  0.15618516  1
  Li  Li479  1  0.90149487  0.59381484  0.09381484  1
  Li  Li480  1  0.14470000  0.14470000  0.74775490  1
  Li  Li481  1  0.60530000  0.10530000  0.24775490  1
  Li  Li482  1  0.10530000  0.64470000  0.00224510  1
  Li  Li483  1  0.64470000  0.60530000  0.50224510  1
  Li  Li484  1  0.74775490  0.14470000  0.14470000  1
  Li  Li485  1  0.24775490  0.60530000  0.10530000  1
  Li  Li486  1  0.00224510  0.10530000  0.64470000  1
  Li  Li487  1  0.50224510  0.64470000  0.60530000  1
  Li  Li488  1  0.14470000  0.74775490  0.14470000  1
  Li  Li489  1  0.10530000  0.24775490  0.60530000  1
  Li  Li490  1  0.64470000  0.00224510  0.10530000  1
  Li  Li491  1  0.60530000  0.50224510  0.64470000  1
  Li  Li492  1  0.89470000  0.39470000  0.75224510  1
  Li  Li493  1  0.85530000  0.85530000  0.25224510  1
  Li  Li494  1  0.39470000  0.35530000  0.49775490  1
  Li  Li495  1  0.35530000  0.89470000  0.99775490  1
  Li  Li496  1  0.89470000  0.99775490  0.35530000  1
  Li  Li497  1  0.35530000  0.49775490  0.39470000  1
  Li  Li498  1  0.85530000  0.25224510  0.85530000  1
  Li  Li499  1  0.39470000  0.75224510  0.89470000  1
  Li  Li500  1  0.49775490  0.39470000  0.35530000  1
  Li  Li501  1  0.99775490  0.35530000  0.89470000  1
  Li  Li502  1  0.75224510  0.89470000  0.39470000  1
  Li  Li503  1  0.25224510  0.85530000  0.85530000  1
  Li  Li504  1  0.14470000  0.64470000  0.24775490  1
  Li  Li505  1  0.60530000  0.60530000  0.74775490  1
  Li  Li506  1  0.10530000  0.14470000  0.50224510  1
  Li  Li507  1  0.64470000  0.10530000  0.00224510  1
  Li  Li508  1  0.74775490  0.64470000  0.64470000  1
  Li  Li509  1  0.24775490  0.10530000  0.60530000  1
  Li  Li510  1  0.00224510  0.60530000  0.14470000  1
  Li  Li511  1  0.50224510  0.14470000  0.10530000  1
  Li  Li512  1  0.14470000  0.24775490  0.64470000  1
  Li  Li513  1  0.10530000  0.74775490  0.10530000  1
  Li  Li514  1  0.64470000  0.50224510  0.60530000  1
  Li  Li515  1  0.60530000  0.00224510  0.14470000  1
  Li  Li516  1  0.89470000  0.89470000  0.25224510  1
  Li  Li517  1  0.85530000  0.35530000  0.75224510  1
  Li  Li518  1  0.39470000  0.85530000  0.99775490  1
  Li  Li519  1  0.35530000  0.39470000  0.49775490  1
  Li  Li520  1  0.89470000  0.49775490  0.85530000  1
  Li  Li521  1  0.35530000  0.99775490  0.89470000  1
  Li  Li522  1  0.85530000  0.75224510  0.35530000  1
  Li  Li523  1  0.39470000  0.25224510  0.39470000  1
  Li  Li524  1  0.49775490  0.89470000  0.85530000  1
  Li  Li525  1  0.99775490  0.85530000  0.39470000  1
  Li  Li526  1  0.75224510  0.39470000  0.89470000  1
  Li  Li527  1  0.25224510  0.35530000  0.35530000  1
  Li  Li528  1  0.64470000  0.14470000  0.24775490  1
  Li  Li529  1  0.10530000  0.10530000  0.74775490  1
  Li  Li530  1  0.60530000  0.64470000  0.50224510  1
  Li  Li531  1  0.14470000  0.60530000  0.00224510  1
  Li  Li532  1  0.24775490  0.14470000  0.64470000  1
  Li  Li533  1  0.74775490  0.60530000  0.60530000  1
  Li  Li534  1  0.50224510  0.10530000  0.14470000  1
  Li  Li535  1  0.00224510  0.64470000  0.10530000  1
  Li  Li536  1  0.64470000  0.74775490  0.64470000  1
  Li  Li537  1  0.60530000  0.24775490  0.10530000  1
  Li  Li538  1  0.14470000  0.00224510  0.60530000  1
  Li  Li539  1  0.10530000  0.50224510  0.14470000  1
  Li  Li540  1  0.39470000  0.39470000  0.25224510  1
  Li  Li541  1  0.35530000  0.85530000  0.75224510  1
  Li  Li542  1  0.89470000  0.35530000  0.99775490  1
  Li  Li543  1  0.85530000  0.89470000  0.49775490  1
  Li  Li544  1  0.39470000  0.99775490  0.85530000  1
  Li  Li545  1  0.85530000  0.49775490  0.89470000  1
  Li  Li546  1  0.35530000  0.25224510  0.35530000  1
  Li  Li547  1  0.89470000  0.75224510  0.39470000  1
  Li  Li548  1  0.99775490  0.39470000  0.85530000  1
  Li  Li549  1  0.49775490  0.35530000  0.39470000  1
  Li  Li550  1  0.25224510  0.89470000  0.89470000  1
  Li  Li551  1  0.75224510  0.85530000  0.35530000  1
  Li  Li552  1  0.64470000  0.64470000  0.74775490  1
  Li  Li553  1  0.10530000  0.60530000  0.24775490  1
  Li  Li554  1  0.60530000  0.14470000  0.00224510  1
  Li  Li555  1  0.14470000  0.10530000  0.50224510  1
  Li  Li556  1  0.24775490  0.64470000  0.14470000  1
  Li  Li557  1  0.74775490  0.10530000  0.10530000  1
  Li  Li558  1  0.50224510  0.60530000  0.64470000  1
  Li  Li559  1  0.00224510  0.14470000  0.60530000  1
  Li  Li560  1  0.64470000  0.24775490  0.14470000  1
  Li  Li561  1  0.60530000  0.74775490  0.60530000  1
  Li  Li562  1  0.14470000  0.50224510  0.10530000  1
  Li  Li563  1  0.10530000  0.00224510  0.64470000  1
  Li  Li564  1  0.39470000  0.89470000  0.75224510  1
  Li  Li565  1  0.35530000  0.35530000  0.25224510  1
  Li  Li566  1  0.89470000  0.85530000  0.49775490  1
  Li  Li567  1  0.85530000  0.39470000  0.99775490  1
  Li  Li568  1  0.39470000  0.49775490  0.35530000  1
  Li  Li569  1  0.85530000  0.99775490  0.39470000  1
  Li  Li570  1  0.35530000  0.75224510  0.85530000  1
  Li  Li571  1  0.89470000  0.25224510  0.89470000  1
  Li  Li572  1  0.99775490  0.89470000  0.35530000  1
  Li  Li573  1  0.49775490  0.85530000  0.89470000  1
  Li  Li574  1  0.25224510  0.39470000  0.39470000  1
  Li  Li575  1  0.75224510  0.35530000  0.85530000  1
  S  S576  1  0.00000000  0.32637330  -0.32637330  1
  S  S577  1  0.75000000  -0.07637330  0.17362670  1
  S  S578  1  0.25000000  0.82637330  1.07637330  1
  S  S579  1  0.50000000  0.42362670  0.57637330  1
  S  S580  1  -0.32637330  0.00000000  0.32637330  1
  S  S581  1  0.17362670  0.75000000  -0.07637330  1
  S  S582  1  1.07637330  0.25000000  0.82637330  1
  S  S583  1  0.57637330  0.50000000  0.42362670  1
  S  S584  1  0.32637330  -0.32637330  0.00000000  1
  S  S585  1  -0.07637330  0.17362670  0.75000000  1
  S  S586  1  0.82637330  1.07637330  0.25000000  1
  S  S587  1  0.42362670  0.57637330  0.50000000  1
  S  S588  1  0.00000000  -0.32637330  0.32637330  1
  S  S589  1  0.25000000  1.07637330  0.82637330  1
  S  S590  1  0.75000000  0.17362670  -0.07637330  1
  S  S591  1  0.50000000  0.57637330  0.42362670  1
  S  S592  1  0.32637330  -0.00000000  -0.32637330  1
  S  S593  1  0.82637330  0.25000000  1.07637330  1
  S  S594  1  -0.07637330  0.75000000  0.17362670  1
  S  S595  1  0.42362670  0.50000000  0.57637330  1
  S  S596  1  -0.32637330  0.32637330  0.00000000  1
  S  S597  1  1.07637330  0.82637330  0.25000000  1
  S  S598  1  0.17362670  -0.07637330  0.75000000  1
  S  S599  1  0.57637330  0.42362670  0.50000000  1
  S  S600  1  0.00000000  0.82637330  0.17362670  1
  S  S601  1  0.75000000  0.42362670  0.67362670  1
  S  S602  1  0.25000000  1.32637330  1.57637330  1
  S  S603  1  0.50000000  0.92362670  1.07637330  1
  S  S604  1  -0.32637330  0.50000000  0.82637330  1
  S  S605  1  0.17362670  1.25000000  0.42362670  1
  S  S606  1  1.07637330  0.75000000  1.32637330  1
  S  S607  1  0.57637330  1.00000000  0.92362670  1
  S  S608  1  0.32637330  0.17362670  0.50000000  1
  S  S609  1  -0.07637330  0.67362670  1.25000000  1
  S  S610  1  0.82637330  1.57637330  0.75000000  1
  S  S611  1  0.42362670  1.07637330  1.00000000  1
  S  S612  1  0.00000000  0.17362670  0.82637330  1
  S  S613  1  0.25000000  1.57637330  1.32637330  1
  S  S614  1  0.75000000  0.67362670  0.42362670  1
  S  S615  1  0.50000000  1.07637330  0.92362670  1
  S  S616  1  0.32637330  0.50000000  0.17362670  1
  S  S617  1  0.82637330  0.75000000  1.57637330  1
  S  S618  1  -0.07637330  1.25000000  0.67362670  1
  S  S619  1  0.42362670  1.00000000  1.07637330  1
  S  S620  1  -0.32637330  0.82637330  0.50000000  1
  S  S621  1  1.07637330  1.32637330  0.75000000  1
  S  S622  1  0.17362670  0.42362670  1.25000000  1
  S  S623  1  0.57637330  0.92362670  1.00000000  1
  S  S624  1  0.50000000  0.32637330  0.17362670  1
  S  S625  1  1.25000000  -0.07637330  0.67362670  1
  S  S626  1  0.75000000  0.82637330  1.57637330  1
  S  S627  1  1.00000000  0.42362670  1.07637330  1
  S  S628  1  0.17362670  0.00000000  0.82637330  1
  S  S629  1  0.67362670  0.75000000  0.42362670  1
  S  S630  1  1.57637330  0.25000000  1.32637330  1
  S  S631  1  1.07637330  0.50000000  0.92362670  1
  S  S632  1  0.82637330  -0.32637330  0.50000000  1
  S  S633  1  0.42362670  0.17362670  1.25000000  1
  S  S634  1  1.32637330  1.07637330  0.75000000  1
  S  S635  1  0.92362670  0.57637330  1.00000000  1
  S  S636  1  0.50000000  -0.32637330  0.82637330  1
  S  S637  1  0.75000000  1.07637330  1.32637330  1
  S  S638  1  1.25000000  0.17362670  0.42362670  1
  S  S639  1  1.00000000  0.57637330  0.92362670  1
  S  S640  1  0.82637330  0.00000000  0.17362670  1
  S  S641  1  1.32637330  0.25000000  1.57637330  1
  S  S642  1  0.42362670  0.75000000  0.67362670  1
  S  S643  1  0.92362670  0.50000000  1.07637330  1
  S  S644  1  0.17362670  0.32637330  0.50000000  1
  S  S645  1  1.57637330  0.82637330  0.75000000  1
  S  S646  1  0.67362670  -0.07637330  1.25000000  1
  S  S647  1  1.07637330  0.42362670  1.00000000  1
  S  S648  1  0.50000000  0.82637330  -0.32637330  1
  S  S649  1  1.25000000  0.42362670  0.17362670  1
  S  S650  1  0.75000000  1.32637330  1.07637330  1
  S  S651  1  1.00000000  0.92362670  0.57637330  1
  S  S652  1  0.17362670  0.50000000  0.32637330  1
  S  S653  1  0.67362670  1.25000000  -0.07637330  1
  S  S654  1  1.57637330  0.75000000  0.82637330  1
  S  S655  1  1.07637330  1.00000000  0.42362670  1
  S  S656  1  0.82637330  0.17362670  -0.00000000  1
  S  S657  1  0.42362670  0.67362670  0.75000000  1
  S  S658  1  1.32637330  1.57637330  0.25000000  1
  S  S659  1  0.92362670  1.07637330  0.50000000  1
  S  S660  1  0.50000000  0.17362670  0.32637330  1
  S  S661  1  0.75000000  1.57637330  0.82637330  1
  S  S662  1  1.25000000  0.67362670  -0.07637330  1
  S  S663  1  1.00000000  1.07637330  0.42362670  1
  S  S664  1  0.82637330  0.50000000  -0.32637330  1
  S  S665  1  1.32637330  0.75000000  1.07637330  1
  S  S666  1  0.42362670  1.25000000  0.17362670  1
  S  S667  1  0.92362670  1.00000000  0.57637330  1
  S  S668  1  0.17362670  0.82637330  -0.00000000  1
  S  S669  1  1.57637330  1.32637330  0.25000000  1
  S  S670  1  0.67362670  0.42362670  0.75000000  1
  S  S671  1  1.07637330  0.92362670  0.50000000  1
