# generated using pymatgen
data_LiTiO3
_symmetry_space_group_name_H-M   'P 1'
_cell_length_a   4.30431998
_cell_length_b   4.12917813
_cell_length_c   4.87616630
_cell_angle_alpha   88.21713116
_cell_angle_beta   94.46031158
_cell_angle_gamma   86.24706723
_symmetry_Int_Tables_number   1
_chemical_formula_structural   LiTiO3
_chemical_formula_sum   'Li1 Ti1 O3'
_cell_volume   86.16072309
_cell_formula_units_Z   1
loop_
 _symmetry_equiv_pos_site_id
 _symmetry_equiv_pos_as_xyz
  1  'x, y, z'
loop_
 _atom_site_type_symbol
 _atom_site_label
 _atom_site_symmetry_multiplicity
 _atom_site_fract_x
 _atom_site_fract_y
 _atom_site_fract_z
 _atom_site_occupancy
  Li  Li0  1  0.00000000  0.00000000  0.00000000  1
  Ti  Ti1  1  0.50000000  0.50000000  0.50000000  1
  O  O2  1  0.50000000  0.50000000  0.00000000  1
  O  O3  1  0.50000000  0.00000000  0.50000000  1
  O  O4  1  0.00000000  0.50000000  0.50000000  1
