# generated using pymatgen
data_LiTiP2N3O
_symmetry_space_group_name_H-M   'P 1'
_cell_length_a   8.24127911
_cell_length_b   9.55984513
_cell_length_c   9.68608611
_cell_angle_alpha   90.00000000
_cell_angle_beta   90.00000000
_cell_angle_gamma   90.00000000
_symmetry_Int_Tables_number   1
_chemical_formula_structural   LiTiP2N3O
_chemical_formula_sum   'Li1 Ti1 P2 N3 O1'
_cell_volume   763.12170344
_cell_formula_units_Z   1
loop_
 _symmetry_equiv_pos_site_id
 _symmetry_equiv_pos_as_xyz
  1  'x, y, z'
loop_
 _atom_site_type_symbol
 _atom_site_label
 _atom_site_symmetry_multiplicity
 _atom_site_fract_x
 _atom_site_fract_y
 _atom_site_fract_z
 _atom_site_occupancy
  Li  Li0  1  0.00000000  0.00000000  0.00000000  1
  Ti  Ti1  1  0.50000000  0.50000000  0.50000000  1
  P  P2  1  0.25000000  0.25000000  0.25000000  1
  P  P3  1  0.75000000  0.25000000  0.00000000  1
  O  O4  1  0.25000000  0.75000000  0.50000000  1
  N  N5  1  0.55587801  0.91484931  0.08892136  1
  N  N6  1  0.03684094  0.69144470  0.25657428  1
  N  N7  1  0.29125844  0.65297583  0.68503757  1
