# generated using pymatgen
data_Na2SrLi2(BrCl2)2
_symmetry_space_group_name_H-M   'P 1'
_cell_length_a   7.65014220
_cell_length_b   7.12690930
_cell_length_c   12.78353999
_cell_angle_alpha   90.00000000
_cell_angle_beta   90.00000000
_cell_angle_gamma   90.00000000
_symmetry_Int_Tables_number   1
_chemical_formula_structural   Na2SrLi2(BrCl2)2
_chemical_formula_sum   'Na8 Sr4 Li8 Br8 Cl16'
_cell_volume   696.98250095
_cell_formula_units_Z   4
loop_
 _symmetry_equiv_pos_site_id
 _symmetry_equiv_pos_as_xyz
  1  'x, y, z'
loop_
 _atom_site_type_symbol
 _atom_site_label
 _atom_site_symmetry_multiplicity
 _atom_site_fract_x
 _atom_site_fract_y
 _atom_site_fract_z
 _atom_site_occupancy
  Br  Br0  1  0.22752175  0.30266499  0.95233481  1
  Br  Br1  1  0.77247825  0.69733501  0.95233481  1
  Br  Br2  1  0.27247825  0.80266499  0.04766519  1
  Br  Br3  1  0.72752175  0.19733501  0.04766519  1
  Br  Br4  1  0.77247825  0.69733501  0.04766519  1
  Br  Br5  1  0.22752175  0.30266499  0.04766519  1
  Br  Br6  1  0.72752175  0.19733501  0.95233481  1
  Br  Br7  1  0.27247825  0.80266499  0.95233481  1
  Cl  Cl8  1  0.08448847  0.30554070  0.75340313  1
  Cl  Cl9  1  0.91551153  0.69445930  0.75340313  1
  Cl  Cl10  1  0.41551153  0.80554070  0.24659687  1
  Cl  Cl11  1  0.58448847  0.19445930  0.24659687  1
  Cl  Cl12  1  0.91551153  0.69445930  0.24659687  1
  Cl  Cl13  1  0.08448847  0.30554070  0.24659687  1
  Cl  Cl14  1  0.58448847  0.19445930  0.75340313  1
  Cl  Cl15  1  0.41551153  0.80554070  0.75340313  1
  Cl  Cl16  1  0.83144068  0.57856210  0.57770531  1
  Cl  Cl17  1  0.16855932  0.42143790  0.57770531  1
  Cl  Cl18  1  0.66855932  0.07856210  0.42229469  1
  Cl  Cl19  1  0.33144068  0.92143790  0.42229469  1
  Cl  Cl20  1  0.16855932  0.42143790  0.42229469  1
  Cl  Cl21  1  0.83144068  0.57856210  0.42229469  1
  Cl  Cl22  1  0.33144068  0.92143790  0.57770531  1
  Cl  Cl23  1  0.66855932  0.07856210  0.57770531  1
  Li  Li24  1  0.32030623  0.75459393  0.31406481  1
  Li  Li25  1  -0.32030623  -0.75459393  0.31406481  1
  Li  Li26  1  0.17969377  1.25459393  -0.31406481  1
  Li  Li27  1  0.82030623  -0.25459393  -0.31406481  1
  Li  Li28  1  -0.32030623  -0.75459393  -0.31406481  1
  Li  Li29  1  0.32030623  0.75459393  -0.31406481  1
  Li  Li30  1  0.82030623  -0.25459393  0.31406481  1
  Li  Li31  1  0.17969377  1.25459393  0.31406481  1
  Na  Na32  1  0.00000000  0.50000000  0.00000000  1
  Na  Na33  1  0.50000000  0.00000000  -0.00000000  1
  Na  Na34  1  0.00000000  0.50000000  0.74520567  1
  Na  Na35  1  0.50000000  0.00000000  0.25479433  1
  Na  Na36  1  0.00000000  0.50000000  0.25479433  1
  Na  Na37  1  0.50000000  0.00000000  0.74520567  1
  Na  Na38  1  0.00000000  0.00000000  0.00000000  1
  Na  Na39  1  0.50000000  0.50000000  -0.00000000  1
  Sr  Sr40  1  0.00000000  0.00000000  0.50000000  1
  Sr  Sr41  1  0.50000000  0.50000000  0.50000000  1
  Sr  Sr42  1  0.00000000  0.50000000  0.50000000  1
  Sr  Sr43  1  0.50000000  0.00000000  0.50000000  1
