# generated using pymatgen
data_Li2SbS2Br
_symmetry_space_group_name_H-M   'P 1'
_cell_length_a   15.94789743
_cell_length_b   15.94789743
_cell_length_c   39.07258412
_cell_angle_alpha   90.00000000
_cell_angle_beta   90.00000000
_cell_angle_gamma   120.00000000
_symmetry_Int_Tables_number   1
_chemical_formula_structural   Li2SbS2Br
_chemical_formula_sum   'Li108 Sb54 S108 Br54'
_cell_volume   8606.16432756
_cell_formula_units_Z   54
loop_
 _symmetry_equiv_pos_site_id
 _symmetry_equiv_pos_as_xyz
  1  'x, y, z'
loop_
 _atom_site_type_symbol
 _atom_site_label
 _atom_site_symmetry_multiplicity
 _atom_site_fract_x
 _atom_site_fract_y
 _atom_site_fract_z
 _atom_site_occupancy
  Br  Br0  1  0.19737637  0.51828218  0.61211608  1
  Br  Br1  1  0.48171782  0.67909418  0.61211608  1
  Br  Br2  1  0.32090582  0.80262363  0.61211608  1
  Br  Br3  1  0.51828218  0.19737637  0.88788392  1
  Br  Br4  1  0.67909418  0.48171782  0.88788392  1
  Br  Br5  1  0.80262363  0.32090582  0.88788392  1
  Br  Br6  1  0.80262363  0.48171782  0.38788392  1
  Br  Br7  1  0.51828218  0.32090582  0.38788392  1
  Br  Br8  1  0.67909418  0.19737637  0.38788392  1
  Br  Br9  1  0.48171782  0.80262363  0.11211608  1
  Br  Br10  1  0.32090582  0.51828218  0.11211608  1
  Br  Br11  1  0.19737637  0.67909418  0.11211608  1
  Br  Br12  1  0.86404303  0.85161552  0.94544942  1
  Br  Br13  1  0.14838448  0.01242752  0.94544942  1
  Br  Br14  1  0.98757248  0.13595697  0.94544942  1
  Br  Br15  1  0.18494885  0.53070970  0.22121725  1
  Br  Br16  1  0.34576085  0.81505115  0.22121725  1
  Br  Br17  1  0.46929030  0.65423915  0.22121725  1
  Br  Br18  1  0.46929030  0.81505115  0.72121725  1
  Br  Br19  1  0.18494885  0.65423915  0.72121725  1
  Br  Br20  1  0.34576085  0.53070970  0.72121725  1
  Br  Br21  1  0.14838448  0.13595697  0.44544942  1
  Br  Br22  1  0.98757248  0.85161552  0.44544942  1
  Br  Br23  1  0.86404303  0.01242752  0.44544942  1
  Br  Br24  1  0.53070970  0.18494885  0.27878275  1
  Br  Br25  1  0.81505115  0.34576085  0.27878275  1
  Br  Br26  1  0.65423915  0.46929030  0.27878275  1
  Br  Br27  1  0.85161552  0.86404303  0.55455058  1
  Br  Br28  1  0.01242752  0.14838448  0.55455058  1
  Br  Br29  1  0.13595697  0.98757248  0.55455058  1
  Br  Br30  1  0.13595697  0.14838448  0.05455058  1
  Br  Br31  1  0.85161552  0.98757248  0.05455058  1
  Br  Br32  1  0.01242752  0.86404303  0.05455058  1
  Br  Br33  1  0.81505115  0.46929030  0.77878275  1
  Br  Br34  1  0.65423915  0.18494885  0.77878275  1
  Br  Br35  1  0.53070970  0.34576085  0.77878275  1
  Br  Br36  1  0.23113800  0.00000000  0.25000000  1
  Br  Br37  1  0.00000000  0.23113800  0.25000000  1
  Br  Br38  1  0.76886200  0.76886200  0.25000000  1
  Br  Br39  1  0.76886200  0.00000000  0.75000000  1
  Br  Br40  1  0.00000000  0.76886200  0.75000000  1
  Br  Br41  1  0.23113800  0.23113800  0.75000000  1
  Br  Br42  1  0.89780466  0.33333333  0.58333333  1
  Br  Br43  1  0.66666667  0.56447133  0.58333333  1
  Br  Br44  1  0.43552867  0.10219534  0.58333333  1
  Br  Br45  1  0.43552867  0.33333333  0.08333333  1
  Br  Br46  1  0.66666667  0.10219534  0.08333333  1
  Br  Br47  1  0.89780466  0.56447133  0.08333333  1
  Br  Br48  1  0.56447133  0.66666667  0.91666667  1
  Br  Br49  1  0.33333333  0.89780466  0.91666667  1
  Br  Br50  1  0.10219534  0.43552867  0.91666667  1
  Br  Br51  1  0.10219534  0.66666667  0.41666667  1
  Br  Br52  1  0.33333333  0.43552867  0.41666667  1
  Br  Br53  1  0.56447133  0.89780466  0.41666667  1
  Li  Li54  1  0.53761185  0.41126649  0.10652806  1
  Li  Li55  1  0.58873351  0.12634536  0.10652806  1
  Li  Li56  1  0.87365464  0.46238815  0.10652806  1
  Li  Li57  1  0.41126649  0.53761185  0.39347194  1
  Li  Li58  1  0.12634536  0.58873351  0.39347194  1
  Li  Li59  1  0.46238815  0.87365464  0.39347194  1
  Li  Li60  1  0.46238815  0.58873351  0.89347194  1
  Li  Li61  1  0.41126649  0.87365464  0.89347194  1
  Li  Li62  1  0.12634536  0.53761185  0.89347194  1
  Li  Li63  1  0.58873351  0.46238815  0.60652806  1
  Li  Li64  1  0.87365464  0.41126649  0.60652806  1
  Li  Li65  1  0.53761185  0.12634536  0.60652806  1
  Li  Li66  1  0.20427852  0.74459983  0.43986139  1
  Li  Li67  1  0.25540017  0.45967869  0.43986139  1
  Li  Li68  1  0.54032131  0.79572148  0.43986139  1
  Li  Li69  1  0.07793316  0.87094518  0.72680528  1
  Li  Li70  1  0.79301203  0.92206684  0.72680528  1
  Li  Li71  1  0.12905482  0.20698797  0.72680528  1
  Li  Li72  1  0.12905482  0.92206684  0.22680528  1
  Li  Li73  1  0.07793316  0.20698797  0.22680528  1
  Li  Li74  1  0.79301203  0.87094518  0.22680528  1
  Li  Li75  1  0.25540017  0.79572148  0.93986139  1
  Li  Li76  1  0.54032131  0.74459983  0.93986139  1
  Li  Li77  1  0.20427852  0.45967869  0.93986139  1
  Li  Li78  1  0.87094518  0.07793316  0.77319472  1
  Li  Li79  1  0.92206684  0.79301203  0.77319472  1
  Li  Li80  1  0.20698797  0.12905482  0.77319472  1
  Li  Li81  1  0.74459983  0.20427852  0.06013861  1
  Li  Li82  1  0.45967869  0.25540017  0.06013861  1
  Li  Li83  1  0.79572148  0.54032131  0.06013861  1
  Li  Li84  1  0.79572148  0.25540017  0.56013861  1
  Li  Li85  1  0.74459983  0.54032131  0.56013861  1
  Li  Li86  1  0.45967869  0.20427852  0.56013861  1
  Li  Li87  1  0.92206684  0.12905482  0.27319472  1
  Li  Li88  1  0.20698797  0.07793316  0.27319472  1
  Li  Li89  1  0.87094518  0.79301203  0.27319472  1
  Li  Li90  1  0.87920121  0.72660526  0.21034471  1
  Li  Li91  1  0.27339474  0.15259595  0.21034471  1
  Li  Li92  1  0.84740405  0.12079879  0.21034471  1
  Li  Li93  1  0.72660526  0.87920121  0.28965529  1
  Li  Li94  1  0.15259595  0.27339474  0.28965529  1
  Li  Li95  1  0.12079879  0.84740405  0.28965529  1
  Li  Li96  1  0.12079879  0.27339474  0.78965529  1
  Li  Li97  1  0.72660526  0.84740405  0.78965529  1
  Li  Li98  1  0.15259595  0.87920121  0.78965529  1
  Li  Li99  1  0.27339474  0.12079879  0.71034471  1
  Li  Li100  1  0.84740405  0.72660526  0.71034471  1
  Li  Li101  1  0.87920121  0.15259595  0.71034471  1
  Li  Li102  1  0.54586788  0.05993860  0.54367804  1
  Li  Li103  1  0.94006140  0.48592928  0.54367804  1
  Li  Li104  1  0.51407072  0.45413212  0.54367804  1
  Li  Li105  1  0.39327193  0.21253454  0.62298862  1
  Li  Li106  1  0.81926261  0.60672807  0.62298862  1
  Li  Li107  1  0.78746546  0.18073739  0.62298862  1
  Li  Li108  1  0.78746546  0.60672807  0.12298862  1
  Li  Li109  1  0.39327193  0.18073739  0.12298862  1
  Li  Li110  1  0.81926261  0.21253454  0.12298862  1
  Li  Li111  1  0.94006140  0.45413212  0.04367804  1
  Li  Li112  1  0.51407072  0.05993860  0.04367804  1
  Li  Li113  1  0.54586788  0.48592928  0.04367804  1
  Li  Li114  1  0.21253454  0.39327193  0.87701138  1
  Li  Li115  1  0.60672807  0.81926261  0.87701138  1
  Li  Li116  1  0.18073739  0.78746546  0.87701138  1
  Li  Li117  1  0.05993860  0.54586788  0.95632196  1
  Li  Li118  1  0.48592928  0.94006140  0.95632196  1
  Li  Li119  1  0.45413212  0.51407072  0.95632196  1
  Li  Li120  1  0.45413212  0.94006140  0.45632196  1
  Li  Li121  1  0.05993860  0.51407072  0.45632196  1
  Li  Li122  1  0.48592928  0.54586788  0.45632196  1
  Li  Li123  1  0.60672807  0.78746546  0.37701138  1
  Li  Li124  1  0.18073739  0.39327193  0.37701138  1
  Li  Li125  1  0.21253454  0.81926261  0.37701138  1
  Li  Li126  1  0.00000000  0.00000000  0.00000000  1
  Li  Li127  1  0.00000000  0.00000000  0.50000000  1
  Li  Li128  1  0.66666667  0.33333333  0.33333333  1
  Li  Li129  1  0.66666667  0.33333333  0.83333333  1
  Li  Li130  1  0.33333333  0.66666667  0.66666667  1
  Li  Li131  1  0.33333333  0.66666667  0.16666667  1
  Li  Li132  1  0.50000000  0.00000000  0.00000000  1
  Li  Li133  1  0.00000000  0.50000000  0.00000000  1
  Li  Li134  1  0.50000000  0.50000000  0.00000000  1
  Li  Li135  1  0.00000000  0.50000000  0.50000000  1
  Li  Li136  1  0.50000000  0.00000000  0.50000000  1
  Li  Li137  1  0.50000000  0.50000000  0.50000000  1
  Li  Li138  1  0.16666667  0.33333333  0.33333333  1
  Li  Li139  1  0.66666667  0.83333333  0.33333333  1
  Li  Li140  1  0.16666667  0.83333333  0.33333333  1
  Li  Li141  1  0.66666667  0.83333333  0.83333333  1
  Li  Li142  1  0.16666667  0.33333333  0.83333333  1
  Li  Li143  1  0.16666667  0.83333333  0.83333333  1
  Li  Li144  1  0.83333333  0.66666667  0.66666667  1
  Li  Li145  1  0.33333333  0.16666667  0.66666667  1
  Li  Li146  1  0.83333333  0.16666667  0.66666667  1
  Li  Li147  1  0.33333333  0.16666667  0.16666667  1
  Li  Li148  1  0.83333333  0.66666667  0.16666667  1
  Li  Li149  1  0.83333333  0.16666667  0.16666667  1
  Li  Li150  1  0.00000000  0.00000000  0.17234903  1
  Li  Li151  1  0.00000000  0.00000000  0.32765097  1
  Li  Li152  1  0.00000000  0.00000000  0.82765097  1
  Li  Li153  1  0.00000000  0.00000000  0.67234903  1
  Li  Li154  1  0.66666667  0.33333333  0.50568236  1
  Li  Li155  1  0.66666667  0.33333333  0.66098431  1
  Li  Li156  1  0.66666667  0.33333333  0.16098431  1
  Li  Li157  1  0.66666667  0.33333333  0.00568236  1
  Li  Li158  1  0.33333333  0.66666667  0.83901569  1
  Li  Li159  1  0.33333333  0.66666667  0.99431764  1
  Li  Li160  1  0.33333333  0.66666667  0.49431764  1
  Li  Li161  1  0.33333333  0.66666667  0.33901569  1
  S  S162  1  0.83979530  0.51350623  0.03872932  1
  S  S163  1  -0.51350623  0.32628907  0.03872932  1
  S  S164  1  -0.32628907  -0.83979530  0.03872932  1
  S  S165  1  0.51350623  0.83979530  0.46127068  1
  S  S166  1  0.32628907  -0.51350623  0.46127068  1
  S  S167  1  -0.83979530  -0.32628907  0.46127068  1
  S  S168  1  -0.83979530  -0.51350623  -0.03872932  1
  S  S169  1  0.51350623  -0.32628907  -0.03872932  1
  S  S170  1  0.32628907  0.83979530  -0.03872932  1
  S  S171  1  -0.51350623  -0.83979530  0.53872932  1
  S  S172  1  -0.32628907  0.51350623  0.53872932  1
  S  S173  1  0.83979530  0.32628907  0.53872932  1
  S  S174  1  1.50646197  0.84683957  0.37206265  1
  S  S175  1  0.15316043  0.65962241  0.37206265  1
  S  S176  1  0.34037759  -0.50646197  0.37206265  1
  S  S177  1  1.18017290  1.17312864  0.79460402  1
  S  S178  1  0.99295574  -0.18017290  0.79460402  1
  S  S179  1  -0.17312864  0.00704426  0.79460402  1
  S  S180  1  -0.17312864  -0.18017290  0.29460402  1
  S  S181  1  1.18017290  0.00704426  0.29460402  1
  S  S182  1  0.99295574  1.17312864  0.29460402  1
  S  S183  1  0.15316043  -0.50646197  0.87206265  1
  S  S184  1  0.34037759  0.84683957  0.87206265  1
  S  S185  1  1.50646197  0.65962241  0.87206265  1
  S  S186  1  1.17312864  1.18017290  0.70539598  1
  S  S187  1  -0.18017290  0.99295574  0.70539598  1
  S  S188  1  0.00704426  -0.17312864  0.70539598  1
  S  S189  1  0.84683957  1.50646197  1.12793735  1
  S  S190  1  0.65962241  0.15316043  1.12793735  1
  S  S191  1  -0.50646197  0.34037759  1.12793735  1
  S  S192  1  -0.50646197  0.15316043  0.62793735  1
  S  S193  1  0.84683957  0.34037759  0.62793735  1
  S  S194  1  0.65962241  1.50646197  0.62793735  1
  S  S195  1  -0.18017290  -0.17312864  1.20539598  1
  S  S196  1  0.00704426  1.18017290  1.20539598  1
  S  S197  1  1.17312864  0.99295574  1.20539598  1
  S  S198  1  0.00000000  0.00000000  0.25000000  1
  S  S199  1  0.00000000  0.00000000  0.75000000  1
  S  S200  1  0.66666667  0.33333333  0.58333333  1
  S  S201  1  0.66666667  0.33333333  0.08333333  1
  S  S202  1  0.33333333  0.66666667  0.91666667  1
  S  S203  1  0.33333333  0.66666667  0.41666667  1
  S  S204  1  0.00000000  0.00000000  0.40821446  1
  S  S205  1  0.00000000  0.00000000  0.09178554  1
  S  S206  1  0.00000000  0.00000000  0.59178554  1
  S  S207  1  0.00000000  0.00000000  0.90821446  1
  S  S208  1  0.66666667  0.33333333  0.74154779  1
  S  S209  1  0.66666667  0.33333333  0.42511888  1
  S  S210  1  0.66666667  0.33333333  0.92511888  1
  S  S211  1  0.66666667  0.33333333  0.24154779  1
  S  S212  1  0.33333333  0.66666667  0.07488112  1
  S  S213  1  0.33333333  0.66666667  0.75845221  1
  S  S214  1  0.33333333  0.66666667  0.25845221  1
  S  S215  1  0.33333333  0.66666667  0.57488112  1
  S  S216  1  0.41016473  0.26702614  0.39544447  1
  S  S217  1  0.73297386  0.14313860  0.39544447  1
  S  S218  1  0.85686140  0.58983527  0.39544447  1
  S  S219  1  0.26702614  0.41016473  0.10455553  1
  S  S220  1  0.14313860  0.73297386  0.10455553  1
  S  S221  1  0.58983527  0.85686140  0.10455553  1
  S  S222  1  0.58983527  0.73297386  0.60455553  1
  S  S223  1  0.26702614  0.85686140  0.60455553  1
  S  S224  1  0.14313860  0.41016473  0.60455553  1
  S  S225  1  0.73297386  0.58983527  0.89544447  1
  S  S226  1  0.85686140  0.26702614  0.89544447  1
  S  S227  1  0.41016473  0.14313860  0.89544447  1
  S  S228  1  0.07683140  0.60035947  0.72877781  1
  S  S229  1  0.39964053  0.47647193  0.72877781  1
  S  S230  1  0.52352807  0.92316860  0.72877781  1
  S  S231  1  0.93369280  0.74349807  0.43788886  1
  S  S232  1  0.80980526  0.06630720  0.43788886  1
  S  S233  1  0.25650193  0.19019474  0.43788886  1
  S  S234  1  0.25650193  0.06630720  0.93788886  1
  S  S235  1  0.93369280  0.19019474  0.93788886  1
  S  S236  1  0.80980526  0.74349807  0.93788886  1
  S  S237  1  0.39964053  0.92316860  0.22877781  1
  S  S238  1  0.52352807  0.60035947  0.22877781  1
  S  S239  1  0.07683140  0.47647193  0.22877781  1
  S  S240  1  0.74349807  0.93369280  0.06211114  1
  S  S241  1  0.06630720  0.80980526  0.06211114  1
  S  S242  1  0.19019474  0.25650193  0.06211114  1
  S  S243  1  0.60035947  0.07683140  0.77122219  1
  S  S244  1  0.47647193  0.39964053  0.77122219  1
  S  S245  1  0.92316860  0.52352807  0.77122219  1
  S  S246  1  0.92316860  0.39964053  0.27122219  1
  S  S247  1  0.60035947  0.52352807  0.27122219  1
  S  S248  1  0.47647193  0.07683140  0.27122219  1
  S  S249  1  0.06630720  0.25650193  0.56211114  1
  S  S250  1  0.19019474  0.93369280  0.56211114  1
  S  S251  1  0.74349807  0.80980526  0.56211114  1
  S  S252  1  0.62223162  0.00000000  0.25000000  1
  S  S253  1  0.00000000  0.62223162  0.25000000  1
  S  S254  1  0.37776838  0.37776838  0.25000000  1
  S  S255  1  0.37776838  0.00000000  0.75000000  1
  S  S256  1  0.00000000  0.37776838  0.75000000  1
  S  S257  1  0.62223162  0.62223162  0.75000000  1
  S  S258  1  0.28889829  0.33333333  0.58333333  1
  S  S259  1  0.66666667  0.95556495  0.58333333  1
  S  S260  1  0.04443505  0.71110171  0.58333333  1
  S  S261  1  0.04443505  0.33333333  0.08333333  1
  S  S262  1  0.66666667  0.71110171  0.08333333  1
  S  S263  1  0.28889829  0.95556495  0.08333333  1
  S  S264  1  0.95556495  0.66666667  0.91666667  1
  S  S265  1  0.33333333  0.28889829  0.91666667  1
  S  S266  1  0.71110171  0.04443505  0.91666667  1
  S  S267  1  0.71110171  0.66666667  0.41666667  1
  S  S268  1  0.33333333  0.04443505  0.41666667  1
  S  S269  1  0.95556495  0.28889829  0.41666667  1
  Sb  Sb270  1  0.26811527  0.86843574  0.50774682  1
  Sb  Sb271  1  0.13156426  0.39967953  0.50774682  1
  Sb  Sb272  1  0.60032047  0.73188473  0.50774682  1
  Sb  Sb273  1  0.86843574  0.26811527  0.99225318  1
  Sb  Sb274  1  0.39967953  0.13156426  0.99225318  1
  Sb  Sb275  1  0.73188473  0.60032047  0.99225318  1
  Sb  Sb276  1  0.73188473  0.13156426  0.49225318  1
  Sb  Sb277  1  0.86843574  0.60032047  0.49225318  1
  Sb  Sb278  1  0.39967953  0.26811527  0.49225318  1
  Sb  Sb279  1  0.13156426  0.73188473  0.00774682  1
  Sb  Sb280  1  0.60032047  0.86843574  0.00774682  1
  Sb  Sb281  1  0.26811527  0.39967953  0.00774682  1
  Sb  Sb282  1  0.93478193  0.20176907  0.84108016  1
  Sb  Sb283  1  0.79823093  0.73301286  0.84108016  1
  Sb  Sb284  1  0.26698714  0.06521807  0.84108016  1
  Sb  Sb285  1  0.53510241  0.60144860  0.32558651  1
  Sb  Sb286  1  0.06634619  0.46489759  0.32558651  1
  Sb  Sb287  1  0.39855140  0.93365381  0.32558651  1
  Sb  Sb288  1  0.39855140  0.46489759  0.82558651  1
  Sb  Sb289  1  0.53510241  0.93365381  0.82558651  1
  Sb  Sb290  1  0.06634619  0.60144860  0.82558651  1
  Sb  Sb291  1  0.79823093  0.06521807  0.34108016  1
  Sb  Sb292  1  0.26698714  0.20176907  0.34108016  1
  Sb  Sb293  1  0.93478193  0.73301286  0.34108016  1
  Sb  Sb294  1  0.60144860  0.53510241  0.17441349  1
  Sb  Sb295  1  0.46489759  0.06634619  0.17441349  1
  Sb  Sb296  1  0.93365381  0.39855140  0.17441349  1
  Sb  Sb297  1  0.20176907  0.93478193  0.65891984  1
  Sb  Sb298  1  0.73301286  0.79823093  0.65891984  1
  Sb  Sb299  1  0.06521807  0.26698714  0.65891984  1
  Sb  Sb300  1  0.06521807  0.79823093  0.15891984  1
  Sb  Sb301  1  0.20176907  0.26698714  0.15891984  1
  Sb  Sb302  1  0.73301286  0.93478193  0.15891984  1
  Sb  Sb303  1  0.46489759  0.39855140  0.67441349  1
  Sb  Sb304  1  0.93365381  0.53510241  0.67441349  1
  Sb  Sb305  1  0.60144860  0.06634619  0.67441349  1
  Sb  Sb306  1  0.89330552  -0.00000000  0.25000000  1
  Sb  Sb307  1  0.00000000  0.89330552  0.25000000  1
  Sb  Sb308  1  0.10669448  0.10669448  0.25000000  1
  Sb  Sb309  1  0.10669448  0.00000000  0.75000000  1
  Sb  Sb310  1  0.00000000  0.10669448  0.75000000  1
  Sb  Sb311  1  0.89330552  0.89330552  0.75000000  1
  Sb  Sb312  1  0.55997218  0.33333333  0.58333333  1
  Sb  Sb313  1  0.66666667  0.22663885  0.58333333  1
  Sb  Sb314  1  0.77336115  0.44002782  0.58333333  1
  Sb  Sb315  1  0.77336115  0.33333333  0.08333333  1
  Sb  Sb316  1  0.66666667  0.44002782  0.08333333  1
  Sb  Sb317  1  0.55997218  0.22663885  0.08333333  1
  Sb  Sb318  1  0.22663885  0.66666667  0.91666667  1
  Sb  Sb319  1  0.33333333  0.55997218  0.91666667  1
  Sb  Sb320  1  0.44002782  0.77336115  0.91666667  1
  Sb  Sb321  1  0.44002782  0.66666667  0.41666667  1
  Sb  Sb322  1  0.33333333  0.77336115  0.41666667  1
  Sb  Sb323  1  0.22663885  0.55997218  0.41666667  1
