# generated using pymatgen
data_Li2Mg3(TeI2)2
_symmetry_space_group_name_H-M   'P 1'
_cell_length_a   19.90158231
_cell_length_b   19.90158231
_cell_length_c   15.76642531
_cell_angle_alpha   90.00000000
_cell_angle_beta   90.00000000
_cell_angle_gamma   120.00000000
_symmetry_Int_Tables_number   1
_chemical_formula_structural   Li2Mg3(TeI2)2
_chemical_formula_sum   'Li36 Mg54 Te36 I72'
_cell_volume   5408.02989419
_cell_formula_units_Z   18
loop_
 _symmetry_equiv_pos_site_id
 _symmetry_equiv_pos_as_xyz
  1  'x, y, z'
loop_
 _atom_site_type_symbol
 _atom_site_label
 _atom_site_symmetry_multiplicity
 _atom_site_fract_x
 _atom_site_fract_y
 _atom_site_fract_z
 _atom_site_occupancy
  I  I0  1  0.17587974  -0.00000000  0.25000000  1
  I  I1  1  0.00000000  0.17587974  0.25000000  1
  I  I2  1  0.82412026  0.82412026  0.25000000  1
  I  I3  1  0.82412026  -0.00000000  0.75000000  1
  I  I4  1  0.00000000  0.82412026  0.75000000  1
  I  I5  1  0.17587974  0.17587974  0.75000000  1
  I  I6  1  0.84254640  0.33333333  0.58333333  1
  I  I7  1  0.66666667  0.50921307  0.58333333  1
  I  I8  1  0.49078693  0.15745360  0.58333333  1
  I  I9  1  0.49078693  0.33333333  0.08333333  1
  I  I10  1  0.66666667  0.15745360  0.08333333  1
  I  I11  1  0.84254640  0.50921307  0.08333333  1
  I  I12  1  0.50921307  0.66666667  0.91666667  1
  I  I13  1  0.33333333  0.84254640  0.91666667  1
  I  I14  1  0.15745360  0.49078693  0.91666667  1
  I  I15  1  0.15745360  0.66666667  0.41666667  1
  I  I16  1  0.33333333  0.49078693  0.41666667  1
  I  I17  1  0.50921307  0.84254640  0.41666667  1
  I  I18  1  0.26557541  0.01642918  0.30421025  1
  I  I19  1  -0.01642918  0.24914622  0.30421025  1
  I  I20  1  -0.24914622  -0.26557541  0.30421025  1
  I  I21  1  0.01642918  0.26557541  0.19578975  1
  I  I22  1  0.24914622  -0.01642918  0.19578975  1
  I  I23  1  -0.26557541  -0.24914622  0.19578975  1
  I  I24  1  -0.26557541  -0.01642918  -0.30421025  1
  I  I25  1  0.01642918  -0.24914622  -0.30421025  1
  I  I26  1  0.24914622  0.26557541  -0.30421025  1
  I  I27  1  -0.01642918  -0.26557541  0.80421025  1
  I  I28  1  -0.24914622  0.01642918  0.80421025  1
  I  I29  1  0.26557541  0.24914622  0.80421025  1
  I  I30  1  0.93224207  0.34976252  0.63754358  1
  I  I31  1  0.65023748  0.58247955  0.63754358  1
  I  I32  1  0.41752045  0.06775793  0.63754358  1
  I  I33  1  0.68309585  0.59890874  0.52912309  1
  I  I34  1  0.91581289  0.31690415  0.52912309  1
  I  I35  1  0.40109126  0.08418711  0.52912309  1
  I  I36  1  0.40109126  0.31690415  0.02912309  1
  I  I37  1  0.68309585  0.08418711  0.02912309  1
  I  I38  1  0.91581289  0.59890874  0.02912309  1
  I  I39  1  0.65023748  0.06775793  1.13754358  1
  I  I40  1  0.41752045  0.34976252  1.13754358  1
  I  I41  1  0.93224207  0.58247955  1.13754358  1
  I  I42  1  0.59890874  0.68309585  0.97087691  1
  I  I43  1  0.31690415  0.91581289  0.97087691  1
  I  I44  1  0.08418711  0.40109126  0.97087691  1
  I  I45  1  0.34976252  0.93224207  0.86245642  1
  I  I46  1  0.58247955  0.65023748  0.86245642  1
  I  I47  1  0.06775793  0.41752045  0.86245642  1
  I  I48  1  0.06775793  0.65023748  0.36245642  1
  I  I49  1  0.34976252  0.41752045  0.36245642  1
  I  I50  1  0.58247955  0.93224207  0.36245642  1
  I  I51  1  0.31690415  0.40109126  1.47087691  1
  I  I52  1  0.08418711  0.68309585  1.47087691  1
  I  I53  1  0.59890874  0.91581289  1.47087691  1
  I  I54  1  0.00000000  0.00000000  0.90411534  1
  I  I55  1  0.00000000  0.00000000  0.59588466  1
  I  I56  1  0.00000000  0.00000000  0.09588466  1
  I  I57  1  0.00000000  0.00000000  0.40411534  1
  I  I58  1  0.66666667  0.33333333  0.23744867  1
  I  I59  1  0.66666667  0.33333333  0.92921800  1
  I  I60  1  0.66666667  0.33333333  0.42921800  1
  I  I61  1  0.66666667  0.33333333  0.73744867  1
  I  I62  1  0.33333333  0.66666667  0.57078200  1
  I  I63  1  0.33333333  0.66666667  0.26255133  1
  I  I64  1  0.33333333  0.66666667  0.76255133  1
  I  I65  1  0.33333333  0.66666667  0.07078200  1
  I  I66  1  0.00000000  0.00000000  0.00000000  1
  I  I67  1  0.00000000  0.00000000  0.50000000  1
  I  I68  1  0.66666667  0.33333333  0.33333333  1
  I  I69  1  0.66666667  0.33333333  0.83333333  1
  I  I70  1  0.33333333  0.66666667  0.66666667  1
  I  I71  1  0.33333333  0.66666667  0.16666667  1
  Li  Li72  1  0.81275375  0.92185573  0.09359131  1
  Li  Li73  1  0.07814427  0.89089803  0.09359131  1
  Li  Li74  1  0.10910197  0.18724625  0.09359131  1
  Li  Li75  1  0.92185573  0.81275375  0.40640869  1
  Li  Li76  1  0.89089803  0.07814427  0.40640869  1
  Li  Li77  1  0.18724625  0.10910197  0.40640869  1
  Li  Li78  1  0.18724625  0.07814427  0.90640869  1
  Li  Li79  1  0.92185573  0.10910197  0.90640869  1
  Li  Li80  1  0.89089803  0.81275375  0.90640869  1
  Li  Li81  1  0.07814427  0.18724625  0.59359131  1
  Li  Li82  1  0.10910197  0.92185573  0.59359131  1
  Li  Li83  1  0.81275375  0.89089803  0.59359131  1
  Li  Li84  1  0.47942042  0.25518906  0.42692465  1
  Li  Li85  1  0.74481094  0.22423136  0.42692465  1
  Li  Li86  1  0.77576864  0.52057958  0.42692465  1
  Li  Li87  1  0.58852239  0.14608709  0.73974202  1
  Li  Li88  1  0.55756470  0.41147761  0.73974202  1
  Li  Li89  1  0.85391291  0.44243530  0.73974202  1
  Li  Li90  1  0.85391291  0.41147761  0.23974202  1
  Li  Li91  1  0.58852239  0.44243530  0.23974202  1
  Li  Li92  1  0.55756470  0.14608709  0.23974202  1
  Li  Li93  1  0.74481094  0.52057958  0.92692465  1
  Li  Li94  1  0.77576864  0.25518906  0.92692465  1
  Li  Li95  1  0.47942042  0.22423136  0.92692465  1
  Li  Li96  1  0.14608709  0.58852239  0.76025798  1
  Li  Li97  1  0.41147761  0.55756470  0.76025798  1
  Li  Li98  1  0.44243530  0.85391291  0.76025798  1
  Li  Li99  1  0.25518906  0.47942042  0.07307535  1
  Li  Li100  1  0.22423136  0.74481094  0.07307535  1
  Li  Li101  1  0.52057958  0.77576864  0.07307535  1
  Li  Li102  1  0.52057958  0.74481094  0.57307535  1
  Li  Li103  1  0.25518906  0.77576864  0.57307535  1
  Li  Li104  1  0.22423136  0.47942042  0.57307535  1
  Li  Li105  1  0.41147761  0.85391291  0.26025798  1
  Li  Li106  1  0.44243530  0.58852239  0.26025798  1
  Li  Li107  1  0.14608709  0.55756470  0.26025798  1
  Mg  Mg108  1  0.80681051  0.59970787  0.47049865  1
  Mg  Mg109  1  0.40029213  0.20710264  0.47049865  1
  Mg  Mg110  1  0.79289736  0.19318949  0.47049865  1
  Mg  Mg111  1  0.59970787  0.80681051  0.02950135  1
  Mg  Mg112  1  0.20710264  0.40029213  0.02950135  1
  Mg  Mg113  1  0.19318949  0.79289736  0.02950135  1
  Mg  Mg114  1  0.19318949  0.40029213  0.52950135  1
  Mg  Mg115  1  0.59970787  0.79289736  0.52950135  1
  Mg  Mg116  1  0.20710264  0.80681051  0.52950135  1
  Mg  Mg117  1  0.40029213  0.19318949  0.97049865  1
  Mg  Mg118  1  0.79289736  0.59970787  0.97049865  1
  Mg  Mg119  1  0.80681051  0.20710264  0.97049865  1
  Mg  Mg120  1  0.47347718  0.93304121  0.80383198  1
  Mg  Mg121  1  0.06695879  0.54043597  0.80383198  1
  Mg  Mg122  1  0.45956403  0.52652282  0.80383198  1
  Mg  Mg123  1  0.26637454  0.14014385  0.36283468  1
  Mg  Mg124  1  0.87376931  0.73362546  0.36283468  1
  Mg  Mg125  1  0.85985615  0.12623069  0.36283468  1
  Mg  Mg126  1  0.85985615  0.73362546  0.86283468  1
  Mg  Mg127  1  0.26637454  0.12623069  0.86283468  1
  Mg  Mg128  1  0.87376931  0.14014385  0.86283468  1
  Mg  Mg129  1  0.06695879  0.52652282  0.30383198  1
  Mg  Mg130  1  0.45956403  0.93304121  0.30383198  1
  Mg  Mg131  1  0.47347718  0.54043597  0.30383198  1
  Mg  Mg132  1  0.14014385  0.26637454  0.13716532  1
  Mg  Mg133  1  0.73362546  0.87376931  0.13716532  1
  Mg  Mg134  1  0.12623069  0.85985615  0.13716532  1
  Mg  Mg135  1  0.93304121  0.47347718  0.69616802  1
  Mg  Mg136  1  0.54043597  0.06695879  0.69616802  1
  Mg  Mg137  1  0.52652282  0.45956403  0.69616802  1
  Mg  Mg138  1  0.52652282  0.06695879  0.19616802  1
  Mg  Mg139  1  0.93304121  0.45956403  0.19616802  1
  Mg  Mg140  1  0.54043597  0.47347718  0.19616802  1
  Mg  Mg141  1  0.73362546  0.85985615  0.63716532  1
  Mg  Mg142  1  0.12623069  0.26637454  0.63716532  1
  Mg  Mg143  1  0.14014385  0.87376931  0.63716532  1
  Mg  Mg144  1  0.45602009  -0.00000000  0.25000000  1
  Mg  Mg145  1  0.00000000  0.45602009  0.25000000  1
  Mg  Mg146  1  0.54397991  0.54397991  0.25000000  1
  Mg  Mg147  1  0.54397991  0.00000000  0.75000000  1
  Mg  Mg148  1  0.00000000  0.54397991  0.75000000  1
  Mg  Mg149  1  0.45602009  0.45602009  0.75000000  1
  Mg  Mg150  1  0.12268676  0.33333333  0.58333333  1
  Mg  Mg151  1  0.66666667  0.78935343  0.58333333  1
  Mg  Mg152  1  0.21064657  0.87731324  0.58333333  1
  Mg  Mg153  1  0.21064657  0.33333333  0.08333333  1
  Mg  Mg154  1  0.66666667  0.87731324  0.08333333  1
  Mg  Mg155  1  0.12268676  0.78935343  0.08333333  1
  Mg  Mg156  1  0.78935343  0.66666667  0.91666667  1
  Mg  Mg157  1  0.33333333  0.12268676  0.91666667  1
  Mg  Mg158  1  0.87731324  0.21064657  0.91666667  1
  Mg  Mg159  1  0.87731324  0.66666667  0.41666667  1
  Mg  Mg160  1  0.33333333  0.21064657  0.41666667  1
  Mg  Mg161  1  0.78935343  0.12268676  0.41666667  1
  Te  Te162  1  0.87509712  0.96803544  0.49114753  1
  Te  Te163  1  0.03196456  0.90706168  0.49114753  1
  Te  Te164  1  0.09293832  0.12490288  0.49114753  1
  Te  Te165  1  0.96803544  0.87509712  0.00885247  1
  Te  Te166  1  0.90706168  0.03196456  0.00885247  1
  Te  Te167  1  0.12490288  0.09293832  0.00885247  1
  Te  Te168  1  0.12490288  0.03196456  0.50885247  1
  Te  Te169  1  0.96803544  0.09293832  0.50885247  1
  Te  Te170  1  0.90706168  0.87509712  0.50885247  1
  Te  Te171  1  0.03196456  0.12490288  0.99114753  1
  Te  Te172  1  0.09293832  0.96803544  0.99114753  1
  Te  Te173  1  0.87509712  0.90706168  0.99114753  1
  Te  Te174  1  0.54176379  0.30136878  0.82448086  1
  Te  Te175  1  0.69863122  0.24039501  0.82448086  1
  Te  Te176  1  0.75960499  0.45823621  0.82448086  1
  Te  Te177  1  0.63470211  0.20843045  0.34218580  1
  Te  Te178  1  0.57372834  0.36529789  0.34218580  1
  Te  Te179  1  0.79156955  0.42627166  0.34218580  1
  Te  Te180  1  0.79156955  0.36529789  0.84218580  1
  Te  Te181  1  0.63470211  0.42627166  0.84218580  1
  Te  Te182  1  0.57372834  0.20843045  0.84218580  1
  Te  Te183  1  0.69863122  0.45823621  0.32448086  1
  Te  Te184  1  0.75960499  0.30136878  0.32448086  1
  Te  Te185  1  0.54176379  0.24039501  0.32448086  1
  Te  Te186  1  0.20843045  0.63470211  0.15781420  1
  Te  Te187  1  0.36529789  0.57372834  0.15781420  1
  Te  Te188  1  0.42627166  0.79156955  0.15781420  1
  Te  Te189  1  0.30136878  0.54176379  0.67551914  1
  Te  Te190  1  0.24039501  0.69863122  0.67551914  1
  Te  Te191  1  0.45823621  0.75960499  0.67551914  1
  Te  Te192  1  0.45823621  0.69863122  0.17551914  1
  Te  Te193  1  0.30136878  0.75960499  0.17551914  1
  Te  Te194  1  0.24039501  0.54176379  0.17551914  1
  Te  Te195  1  0.36529789  0.79156955  0.65781420  1
  Te  Te196  1  0.42627166  0.63470211  0.65781420  1
  Te  Te197  1  0.20843045  0.57372834  0.65781420  1
