# generated using pymatgen
data_Li5Mg3Se7BrO
_symmetry_space_group_name_H-M   'P 1'
_cell_length_a   3.66111962
_cell_length_b   3.50526340
_cell_length_c   3.22199241
_cell_angle_alpha   85.33734297
_cell_angle_beta   93.87603325
_cell_angle_gamma   92.70650437
_symmetry_Int_Tables_number   1
_chemical_formula_structural   Li5Mg3Se7BrO
_chemical_formula_sum   'Li5 Mg3 Se7 Br1 O1'
_cell_volume   41.08111999
_cell_formula_units_Z   1
loop_
 _symmetry_equiv_pos_site_id
 _symmetry_equiv_pos_as_xyz
  1  'x, y, z'
loop_
 _atom_site_type_symbol
 _atom_site_label
 _atom_site_symmetry_multiplicity
 _atom_site_fract_x
 _atom_site_fract_y
 _atom_site_fract_z
 _atom_site_occupancy
  Li  Li0  1  0.00000000  0.00000000  0.00000000  1
  Li  Li1  1  0.50000000  0.50000000  0.50000000  1
  Li  Li2  1  0.50000000  0.50000000  0.00000000  1
  Li  Li3  1  0.50000000  0.00000000  0.50000000  1
  Li  Li4  1  0.00000000  0.50000000  0.50000000  1
  Mg  Mg5  1  0.38103929  0.40995055  0.52706304  1
  Mg  Mg6  1  0.64039502  0.62687401  0.83404636  1
  Mg  Mg7  1  0.46196343  0.50278396  0.94116209  1
  Se  Se8  1  0.05368614  0.70467075  0.06892529  1
  Se  Se9  1  0.16602347  0.66325359  0.87959926  1
  Se  Se10  1  0.57624313  0.50785732  0.45743700  1
  Se  Se11  1  0.70795791  0.46388584  0.97910731  1
  Se  Se12  1  0.17322466  0.42556902  0.71494918  1
  Se  Se13  1  0.06470043  0.11974483  0.01651771  1
  Se  Se14  1  0.20535707  0.50791804  0.17909632  1
  Br  Br15  1  0.03595323  0.52365385  0.85685440  1
  O  O16  1  0.97622102  0.47833675  0.16208481  1
