# generated using pymatgen
data_Li4Si2SBr8O
_symmetry_space_group_name_H-M   'P 1'
_cell_length_a   15.88737200
_cell_length_b   15.88737200
_cell_length_c   10.19031372
_cell_angle_alpha   90.00000000
_cell_angle_beta   90.00000000
_cell_angle_gamma   120.00000000
_symmetry_Int_Tables_number   1
_chemical_formula_structural   Li4Si2SBr8O
_chemical_formula_sum   'Li36 Si18 S9 Br72 O9'
_cell_volume   2227.52360563
_cell_formula_units_Z   9
loop_
 _symmetry_equiv_pos_site_id
 _symmetry_equiv_pos_as_xyz
  1  'x, y, z'
loop_
 _atom_site_type_symbol
 _atom_site_label
 _atom_site_symmetry_multiplicity
 _atom_site_fract_x
 _atom_site_fract_y
 _atom_site_fract_z
 _atom_site_occupancy
  Br  Br0  1  0.50000000  -0.00000000  0.50000000  1
  Br  Br1  1  0.00000000  0.50000000  0.50000000  1
  Br  Br2  1  0.50000000  0.50000000  0.50000000  1
  Br  Br3  1  0.16666667  0.33333333  0.83333333  1
  Br  Br4  1  0.66666667  0.83333333  0.83333333  1
  Br  Br5  1  0.16666667  0.83333333  0.83333333  1
  Br  Br6  1  0.83333333  0.66666667  0.16666667  1
  Br  Br7  1  0.33333333  0.16666667  0.16666667  1
  Br  Br8  1  0.83333333  0.16666667  0.16666667  1
  Br  Br9  1  0.23756020  0.02090002  0.72050582  1
  Br  Br10  1  -0.02090002  0.21666018  0.72050582  1
  Br  Br11  1  -0.21666018  -0.23756020  0.72050582  1
  Br  Br12  1  0.02090002  0.23756020  -0.72050582  1
  Br  Br13  1  0.21666018  -0.02090002  -0.72050582  1
  Br  Br14  1  -0.23756020  -0.21666018  -0.72050582  1
  Br  Br15  1  -0.23756020  -0.02090002  -0.72050582  1
  Br  Br16  1  0.02090002  -0.21666018  -0.72050582  1
  Br  Br17  1  0.21666018  0.23756020  -0.72050582  1
  Br  Br18  1  -0.02090002  -0.23756020  0.72050582  1
  Br  Br19  1  -0.21666018  0.02090002  0.72050582  1
  Br  Br20  1  0.23756020  0.21666018  0.72050582  1
  Br  Br21  1  0.90422686  0.35423335  1.05383915  1
  Br  Br22  1  0.64576665  0.54999351  1.05383915  1
  Br  Br23  1  0.45000649  0.09577314  1.05383915  1
  Br  Br24  1  0.68756668  0.57089353  -0.38717249  1
  Br  Br25  1  0.88332685  0.31243332  -0.38717249  1
  Br  Br26  1  0.42910647  0.11667315  -0.38717249  1
  Br  Br27  1  0.42910647  0.31243332  -0.38717249  1
  Br  Br28  1  0.68756668  0.11667315  -0.38717249  1
  Br  Br29  1  0.88332685  0.57089353  -0.38717249  1
  Br  Br30  1  0.64576665  0.09577314  1.05383915  1
  Br  Br31  1  0.45000649  0.35423335  1.05383915  1
  Br  Br32  1  0.90422686  0.54999351  1.05383915  1
  Br  Br33  1  0.57089353  0.68756668  1.38717249  1
  Br  Br34  1  0.31243332  0.88332685  1.38717249  1
  Br  Br35  1  0.11667315  0.42910647  1.38717249  1
  Br  Br36  1  0.35423335  0.90422686  -0.05383915  1
  Br  Br37  1  0.54999351  0.64576665  -0.05383915  1
  Br  Br38  1  0.09577314  0.45000649  -0.05383915  1
  Br  Br39  1  0.09577314  0.64576665  -0.05383915  1
  Br  Br40  1  0.35423335  0.45000649  -0.05383915  1
  Br  Br41  1  0.54999351  0.90422686  -0.05383915  1
  Br  Br42  1  0.31243332  0.42910647  1.38717249  1
  Br  Br43  1  0.11667315  0.68756668  1.38717249  1
  Br  Br44  1  0.57089353  0.88332685  1.38717249  1
  Br  Br45  1  0.12307847  -0.00000000  0.50000000  1
  Br  Br46  1  0.00000000  0.12307847  0.50000000  1
  Br  Br47  1  0.87692153  0.87692153  0.50000000  1
  Br  Br48  1  0.87692153  0.00000000  0.50000000  1
  Br  Br49  1  0.00000000  0.87692153  0.50000000  1
  Br  Br50  1  0.12307847  0.12307847  0.50000000  1
  Br  Br51  1  0.78974514  0.33333333  0.83333333  1
  Br  Br52  1  0.66666667  0.45641181  0.83333333  1
  Br  Br53  1  0.54358819  0.21025486  0.83333333  1
  Br  Br54  1  0.54358819  0.33333333  0.83333333  1
  Br  Br55  1  0.66666667  0.21025486  0.83333333  1
  Br  Br56  1  0.78974514  0.45641181  0.83333333  1
  Br  Br57  1  0.45641181  0.66666667  0.16666667  1
  Br  Br58  1  0.33333333  0.78974514  0.16666667  1
  Br  Br59  1  0.21025486  0.54358819  0.16666667  1
  Br  Br60  1  0.21025486  0.66666667  0.16666667  1
  Br  Br61  1  0.33333333  0.54358819  0.16666667  1
  Br  Br62  1  0.45641181  0.78974514  0.16666667  1
  Br  Br63  1  0.50000000  -0.00000000  0.00000000  1
  Br  Br64  1  0.00000000  0.50000000  0.00000000  1
  Br  Br65  1  0.50000000  0.50000000  0.00000000  1
  Br  Br66  1  0.16666667  0.33333333  0.33333333  1
  Br  Br67  1  0.66666667  0.83333333  0.33333333  1
  Br  Br68  1  0.16666667  0.83333333  0.33333333  1
  Br  Br69  1  0.83333333  0.66666667  0.66666667  1
  Br  Br70  1  0.33333333  0.16666667  0.66666667  1
  Br  Br71  1  0.83333333  0.16666667  0.66666667  1
  Li  Li72  1  0.33853080  0.82735652  0.52498181  1
  Li  Li73  1  0.17264348  0.51117429  0.52498181  1
  Li  Li74  1  0.48882571  0.66146920  0.52498181  1
  Li  Li75  1  0.82735652  0.33853080  0.47501819  1
  Li  Li76  1  0.51117429  0.17264348  0.47501819  1
  Li  Li77  1  0.66146920  0.48882571  0.47501819  1
  Li  Li78  1  0.66146920  0.17264348  0.47501819  1
  Li  Li79  1  0.82735652  0.48882571  0.47501819  1
  Li  Li80  1  0.51117429  0.33853080  0.47501819  1
  Li  Li81  1  0.17264348  0.66146920  0.52498181  1
  Li  Li82  1  0.48882571  0.82735652  0.52498181  1
  Li  Li83  1  0.33853080  0.51117429  0.52498181  1
  Li  Li84  1  0.00519747  0.16068985  0.85831514  1
  Li  Li85  1  0.83931015  0.84450762  0.85831514  1
  Li  Li86  1  0.15549238  0.99480253  0.85831514  1
  Li  Li87  1  0.49402318  0.67186414  0.80835152  1
  Li  Li88  1  0.17784095  0.50597682  0.80835152  1
  Li  Li89  1  0.32813586  0.82215905  0.80835152  1
  Li  Li90  1  0.32813586  0.50597682  0.80835152  1
  Li  Li91  1  0.49402318  0.82215905  0.80835152  1
  Li  Li92  1  0.17784095  0.67186414  0.80835152  1
  Li  Li93  1  0.83931015  0.99480253  0.85831514  1
  Li  Li94  1  0.15549238  0.16068985  0.85831514  1
  Li  Li95  1  0.00519747  0.84450762  0.85831514  1
  Li  Li96  1  0.67186414  0.49402318  0.19164848  1
  Li  Li97  1  0.50597682  0.17784095  0.19164848  1
  Li  Li98  1  0.82215905  0.32813586  0.19164848  1
  Li  Li99  1  0.16068985  0.00519747  0.14168486  1
  Li  Li100  1  0.84450762  0.83931015  0.14168486  1
  Li  Li101  1  0.99480253  0.15549238  0.14168486  1
  Li  Li102  1  0.99480253  0.83931015  0.14168486  1
  Li  Li103  1  0.16068985  0.15549238  0.14168486  1
  Li  Li104  1  0.84450762  0.00519747  0.14168486  1
  Li  Li105  1  0.50597682  0.32813586  0.19164848  1
  Li  Li106  1  0.82215905  0.49402318  0.19164848  1
  Li  Li107  1  0.67186414  0.17784095  0.19164848  1
  O  O108  1  0.00000000  0.00000000  0.50000000  1
  O  O109  1  0.66666667  0.33333333  0.83333333  1
  O  O110  1  0.33333333  0.66666667  0.16666667  1
  O  O111  1  0.00000000  0.00000000  0.84220667  1
  O  O112  1  0.00000000  0.00000000  0.15779333  1
  O  O113  1  0.66666667  0.33333333  0.17554000  1
  O  O114  1  0.66666667  0.33333333  0.49112667  1
  O  O115  1  0.33333333  0.66666667  0.50887333  1
  O  O116  1  0.33333333  0.66666667  0.82446000  1
  S  S117  1  0.00000000  0.00000000  0.00000000  1
  S  S118  1  0.66666667  0.33333333  0.33333333  1
  S  S119  1  0.33333333  0.66666667  0.66666667  1
  S  S120  1  0.00000000  0.00000000  0.32255231  1
  S  S121  1  0.00000000  0.00000000  0.67744769  1
  S  S122  1  0.66666667  0.33333333  0.65588564  1
  S  S123  1  0.66666667  0.33333333  0.01078102  1
  S  S124  1  0.33333333  0.66666667  0.98921898  1
  S  S125  1  0.33333333  0.66666667  0.34411436  1
  Si  Si126  1  0.75537306  -0.00000000  0.00000000  1
  Si  Si127  1  0.00000000  0.75537306  0.00000000  1
  Si  Si128  1  0.24462694  0.24462694  0.00000000  1
  Si  Si129  1  0.24462694  0.00000000  0.00000000  1
  Si  Si130  1  0.00000000  0.24462694  0.00000000  1
  Si  Si131  1  0.75537306  0.75537306  0.00000000  1
  Si  Si132  1  0.42203973  0.33333333  0.33333333  1
  Si  Si133  1  0.66666667  0.08870640  0.33333333  1
  Si  Si134  1  0.91129360  0.57796027  0.33333333  1
  Si  Si135  1  0.91129360  0.33333333  0.33333333  1
  Si  Si136  1  0.66666667  0.57796027  0.33333333  1
  Si  Si137  1  0.42203973  0.08870640  0.33333333  1
  Si  Si138  1  0.08870640  0.66666667  0.66666667  1
  Si  Si139  1  0.33333333  0.42203973  0.66666667  1
  Si  Si140  1  0.57796027  0.91129360  0.66666667  1
  Si  Si141  1  0.57796027  0.66666667  0.66666667  1
  Si  Si142  1  0.33333333  0.91129360  0.66666667  1
  Si  Si143  1  0.08870640  0.42203973  0.66666667  1
