# generated using pymatgen
data_Li6Mg2Te2O3
_symmetry_space_group_name_H-M   'P 1'
_cell_length_a   9.20976813
_cell_length_b   9.20976813
_cell_length_c   23.60454820
_cell_angle_alpha   90.00000000
_cell_angle_beta   90.00000000
_cell_angle_gamma   120.00000000
_symmetry_Int_Tables_number   1
_chemical_formula_structural   Li6Mg2Te2O3
_chemical_formula_sum   'Li72 Mg24 Te24 O36'
_cell_volume   1733.89868145
_cell_formula_units_Z   12
loop_
 _symmetry_equiv_pos_site_id
 _symmetry_equiv_pos_as_xyz
  1  'x, y, z'
loop_
 _atom_site_type_symbol
 _atom_site_label
 _atom_site_symmetry_multiplicity
 _atom_site_fract_x
 _atom_site_fract_y
 _atom_site_fract_z
 _atom_site_occupancy
  Li  Li0  1  0.18040815  0.00000000  0.25000000  1
  Li  Li1  1  0.00000000  0.18040815  0.25000000  1
  Li  Li2  1  0.81959185  0.81959185  0.25000000  1
  Li  Li3  1  0.81959185  -0.00000000  0.75000000  1
  Li  Li4  1  0.00000000  0.81959185  0.75000000  1
  Li  Li5  1  0.18040815  0.18040815  0.75000000  1
  Li  Li6  1  0.84707482  0.33333333  0.58333333  1
  Li  Li7  1  0.66666667  0.51374148  0.58333333  1
  Li  Li8  1  0.48625852  0.15292518  0.58333333  1
  Li  Li9  1  0.48625852  0.33333333  0.08333333  1
  Li  Li10  1  0.66666667  0.15292518  0.08333333  1
  Li  Li11  1  0.84707482  0.51374148  0.08333333  1
  Li  Li12  1  0.51374148  0.66666667  0.91666667  1
  Li  Li13  1  0.33333333  0.84707482  0.91666667  1
  Li  Li14  1  0.15292518  0.48625852  0.91666667  1
  Li  Li15  1  0.15292518  0.66666667  0.41666667  1
  Li  Li16  1  0.33333333  0.48625852  0.41666667  1
  Li  Li17  1  0.51374148  0.84707482  0.41666667  1
  Li  Li18  1  0.69506898  0.44213056  0.38616202  1
  Li  Li19  1  -0.44213056  0.25293842  0.38616202  1
  Li  Li20  1  -0.25293842  -0.69506898  0.38616202  1
  Li  Li21  1  0.44213056  0.69506898  0.11383798  1
  Li  Li22  1  0.25293842  -0.44213056  0.11383798  1
  Li  Li23  1  -0.69506898  -0.25293842  0.11383798  1
  Li  Li24  1  -0.69506898  -0.44213056  -0.38616202  1
  Li  Li25  1  0.44213056  -0.25293842  -0.38616202  1
  Li  Li26  1  0.25293842  0.69506898  -0.38616202  1
  Li  Li27  1  -0.44213056  -0.69506898  0.88616202  1
  Li  Li28  1  -0.25293842  0.44213056  0.88616202  1
  Li  Li29  1  0.69506898  0.25293842  0.88616202  1
  Li  Li30  1  1.36173565  0.77546389  0.71949536  1
  Li  Li31  1  0.22453611  0.58627175  0.71949536  1
  Li  Li32  1  0.41372825  -0.36173565  0.71949536  1
  Li  Li33  1  1.10879723  1.02840231  0.44717131  1
  Li  Li34  1  0.91960509  -0.10879723  0.44717131  1
  Li  Li35  1  -0.02840231  0.08039491  0.44717131  1
  Li  Li36  1  -0.02840231  -0.10879723  -0.05282869  1
  Li  Li37  1  1.10879723  0.08039491  -0.05282869  1
  Li  Li38  1  0.91960509  1.02840231  -0.05282869  1
  Li  Li39  1  0.22453611  -0.36173565  1.21949536  1
  Li  Li40  1  0.41372825  0.77546389  1.21949536  1
  Li  Li41  1  1.36173565  0.58627175  1.21949536  1
  Li  Li42  1  1.02840231  1.10879723  1.05282869  1
  Li  Li43  1  -0.10879723  0.91960509  1.05282869  1
  Li  Li44  1  0.08039491  -0.02840231  1.05282869  1
  Li  Li45  1  0.77546389  1.36173565  0.78050464  1
  Li  Li46  1  0.58627175  0.22453611  0.78050464  1
  Li  Li47  1  -0.36173565  0.41372825  0.78050464  1
  Li  Li48  1  -0.36173565  0.22453611  0.28050464  1
  Li  Li49  1  0.77546389  0.41372825  0.28050464  1
  Li  Li50  1  0.58627175  1.36173565  0.28050464  1
  Li  Li51  1  -0.10879723  -0.02840231  1.55282869  1
  Li  Li52  1  0.08039491  1.10879723  1.55282869  1
  Li  Li53  1  1.02840231  0.91960509  1.55282869  1
  Li  Li54  1  0.50000000  -0.00000000  0.00000000  1
  Li  Li55  1  0.00000000  0.50000000  0.00000000  1
  Li  Li56  1  0.50000000  0.50000000  0.00000000  1
  Li  Li57  1  0.00000000  0.50000000  0.50000000  1
  Li  Li58  1  0.50000000  -0.00000000  0.50000000  1
  Li  Li59  1  0.50000000  0.50000000  0.50000000  1
  Li  Li60  1  0.16666667  0.33333333  0.33333333  1
  Li  Li61  1  0.66666667  0.83333333  0.33333333  1
  Li  Li62  1  0.16666667  0.83333333  0.33333333  1
  Li  Li63  1  0.66666667  0.83333333  0.83333333  1
  Li  Li64  1  0.16666667  0.33333333  0.83333333  1
  Li  Li65  1  0.16666667  0.83333333  0.83333333  1
  Li  Li66  1  0.83333333  0.66666667  0.66666667  1
  Li  Li67  1  0.33333333  0.16666667  0.66666667  1
  Li  Li68  1  0.83333333  0.16666667  0.66666667  1
  Li  Li69  1  0.33333333  0.16666667  0.16666667  1
  Li  Li70  1  0.83333333  0.66666667  0.16666667  1
  Li  Li71  1  0.83333333  0.16666667  0.16666667  1
  Mg  Mg72  1  0.83487722  -0.00000000  0.25000000  1
  Mg  Mg73  1  0.00000000  0.83487722  0.25000000  1
  Mg  Mg74  1  0.16512278  0.16512278  0.25000000  1
  Mg  Mg75  1  0.16512278  0.00000000  0.75000000  1
  Mg  Mg76  1  0.00000000  0.16512278  0.75000000  1
  Mg  Mg77  1  0.83487722  0.83487722  0.75000000  1
  Mg  Mg78  1  0.50154388  0.33333333  0.58333333  1
  Mg  Mg79  1  0.66666667  0.16821055  0.58333333  1
  Mg  Mg80  1  0.83178945  0.49845612  0.58333333  1
  Mg  Mg81  1  0.83178945  0.33333333  0.08333333  1
  Mg  Mg82  1  0.66666667  0.49845612  0.08333333  1
  Mg  Mg83  1  0.50154388  0.16821055  0.08333333  1
  Mg  Mg84  1  0.16821055  0.66666667  0.91666667  1
  Mg  Mg85  1  0.33333333  0.50154388  0.91666667  1
  Mg  Mg86  1  0.49845612  0.83178945  0.91666667  1
  Mg  Mg87  1  0.49845612  0.66666667  0.41666667  1
  Mg  Mg88  1  0.33333333  0.83178945  0.41666667  1
  Mg  Mg89  1  0.16821055  0.50154388  0.41666667  1
  Mg  Mg90  1  0.00000000  0.00000000  0.25000000  1
  Mg  Mg91  1  0.00000000  0.00000000  0.75000000  1
  Mg  Mg92  1  0.66666667  0.33333333  0.58333333  1
  Mg  Mg93  1  0.66666667  0.33333333  0.08333333  1
  Mg  Mg94  1  0.33333333  0.66666667  0.91666667  1
  Mg  Mg95  1  0.33333333  0.66666667  0.41666667  1
  O  O96  1  0.69420620  0.64512336  0.10740338  1
  O  O97  1  0.35487664  0.04908283  0.10740338  1
  O  O98  1  0.95091717  0.30579380  0.10740338  1
  O  O99  1  0.64512336  0.69420620  0.39259662  1
  O  O100  1  0.04908283  0.35487664  0.39259662  1
  O  O101  1  0.30579380  0.95091717  0.39259662  1
  O  O102  1  0.30579380  0.35487664  0.89259662  1
  O  O103  1  0.64512336  0.95091717  0.89259662  1
  O  O104  1  0.04908283  0.69420620  0.89259662  1
  O  O105  1  0.35487664  0.30579380  0.60740338  1
  O  O106  1  0.95091717  0.64512336  0.60740338  1
  O  O107  1  0.69420620  0.04908283  0.60740338  1
  O  O108  1  0.36087286  0.97845670  0.44073672  1
  O  O109  1  0.02154330  0.38241617  0.44073672  1
  O  O110  1  0.61758383  0.63912714  0.44073672  1
  O  O111  1  0.31179003  0.02753953  0.72592995  1
  O  O112  1  0.71574950  0.68820997  0.72592995  1
  O  O113  1  0.97246047  0.28425050  0.72592995  1
  O  O114  1  0.97246047  0.68820997  0.22592995  1
  O  O115  1  0.31179003  0.28425050  0.22592995  1
  O  O116  1  0.71574950  0.02753953  0.22592995  1
  O  O117  1  0.02154330  0.63912714  0.94073672  1
  O  O118  1  0.61758383  0.97845670  0.94073672  1
  O  O119  1  0.36087286  0.38241617  0.94073672  1
  O  O120  1  0.02753953  0.31179003  0.77407005  1
  O  O121  1  0.68820997  0.71574950  0.77407005  1
  O  O122  1  0.28425050  0.97246047  0.77407005  1
  O  O123  1  0.97845670  0.36087286  0.05926328  1
  O  O124  1  0.38241617  0.02154330  0.05926328  1
  O  O125  1  0.63912714  0.61758383  0.05926328  1
  O  O126  1  0.63912714  0.02154330  0.55926328  1
  O  O127  1  0.97845670  0.61758383  0.55926328  1
  O  O128  1  0.38241617  0.36087286  0.55926328  1
  O  O129  1  0.68820997  0.97246047  0.27407005  1
  O  O130  1  0.28425050  0.31179003  0.27407005  1
  O  O131  1  0.02753953  0.71574950  0.27407005  1
  Te  Te132  1  0.57360678  0.00000000  0.25000000  1
  Te  Te133  1  0.00000000  0.57360678  0.25000000  1
  Te  Te134  1  0.42639322  0.42639322  0.25000000  1
  Te  Te135  1  0.42639322  0.00000000  0.75000000  1
  Te  Te136  1  0.00000000  0.42639322  0.75000000  1
  Te  Te137  1  0.57360678  0.57360678  0.75000000  1
  Te  Te138  1  0.24027345  0.33333333  0.58333333  1
  Te  Te139  1  0.66666667  0.90694012  0.58333333  1
  Te  Te140  1  0.09305988  0.75972655  0.58333333  1
  Te  Te141  1  0.09305988  0.33333333  0.08333333  1
  Te  Te142  1  0.66666667  0.75972655  0.08333333  1
  Te  Te143  1  0.24027345  0.90694012  0.08333333  1
  Te  Te144  1  0.90694012  0.66666667  0.91666667  1
  Te  Te145  1  0.33333333  0.24027345  0.91666667  1
  Te  Te146  1  0.75972655  0.09305988  0.91666667  1
  Te  Te147  1  0.75972655  0.66666667  0.41666667  1
  Te  Te148  1  0.33333333  0.09305988  0.41666667  1
  Te  Te149  1  0.90694012  0.24027345  0.41666667  1
  Te  Te150  1  0.00000000  0.00000000  0.00000000  1
  Te  Te151  1  0.00000000  0.00000000  0.50000000  1
  Te  Te152  1  0.66666667  0.33333333  0.33333333  1
  Te  Te153  1  0.66666667  0.33333333  0.83333333  1
  Te  Te154  1  0.33333333  0.66666667  0.66666667  1
  Te  Te155  1  0.33333333  0.66666667  0.16666667  1
