# generated using pymatgen
data_Li2Ta3O5F3
_symmetry_space_group_name_H-M   'P 1'
_cell_length_a   3.80211699
_cell_length_b   3.48760044
_cell_length_c   4.27899004
_cell_angle_alpha   91.76520060
_cell_angle_beta   90.14850008
_cell_angle_gamma   94.34520791
_symmetry_Int_Tables_number   1
_chemical_formula_structural   Li2Ta3O5F3
_chemical_formula_sum   'Li2 Ta3 O5 F3'
_cell_volume   56.54991070
_cell_formula_units_Z   1
loop_
 _symmetry_equiv_pos_site_id
 _symmetry_equiv_pos_as_xyz
  1  'x, y, z'
loop_
 _atom_site_type_symbol
 _atom_site_label
 _atom_site_symmetry_multiplicity
 _atom_site_fract_x
 _atom_site_fract_y
 _atom_site_fract_z
 _atom_site_occupancy
  Li  Li0  1  0.00000000  0.00000000  0.00000000  1
  Li  Li1  1  0.50000000  0.50000000  0.50000000  1
  Ta  Ta2  1  0.50000000  0.50000000  0.00000000  1
  Ta  Ta3  1  0.50000000  0.00000000  0.50000000  1
  Ta  Ta4  1  0.00000000  0.50000000  0.50000000  1
  O  O5  1  0.13358076  0.51792076  0.81709021  1
  O  O6  1  0.68746647  0.19004980  0.94029656  1
  O  O7  1  0.00652600  0.36650256  0.40436792  1
  O  O8  1  0.73770287  0.06027530  0.94245898  1
  O  O9  1  0.92789954  0.33768185  0.83086827  1
  F  F10  1  0.55179227  0.14870207  0.77769777  1
  F  F11  1  0.11608508  0.42412050  0.78720323  1
  F  F12  1  0.55621371  0.33572803  0.34046080  1
