# generated using pymatgen
data_SrLiOF
_symmetry_space_group_name_H-M   'P 1'
_cell_length_a   13.50923151
_cell_length_b   18.96102627
_cell_length_c   12.31815093
_cell_angle_alpha   90.00000000
_cell_angle_beta   90.00000000
_cell_angle_gamma   90.00000000
_symmetry_Int_Tables_number   1
_chemical_formula_structural   SrLiOF
_chemical_formula_sum   'Sr32 Li32 O32 F32'
_cell_volume   3155.28072975
_cell_formula_units_Z   32
loop_
 _symmetry_equiv_pos_site_id
 _symmetry_equiv_pos_as_xyz
  1  'x, y, z'
loop_
 _atom_site_type_symbol
 _atom_site_label
 _atom_site_symmetry_multiplicity
 _atom_site_fract_x
 _atom_site_fract_y
 _atom_site_fract_z
 _atom_site_occupancy
  F  F0  1  0.74967621  0.58767369  0.74972542  1
  F  F1  1  0.00032379  0.16232631  0.74972542  1
  F  F2  1  0.00032379  0.58767369  0.00027458  1
  F  F3  1  0.74967621  0.16232631  0.00027458  1
  F  F4  1  -0.74967621  -0.58767369  -0.74972542  1
  F  F5  1  0.99967621  0.83767369  -0.74972542  1
  F  F6  1  0.99967621  -0.58767369  0.99972542  1
  F  F7  1  -0.74967621  0.83767369  0.99972542  1
  F  F8  1  0.74967621  1.08767369  1.24972542  1
  F  F9  1  0.00032379  0.66232631  1.24972542  1
  F  F10  1  0.00032379  1.08767369  0.50027458  1
  F  F11  1  0.74967621  0.66232631  0.50027458  1
  F  F12  1  -0.74967621  -0.08767369  -0.24972542  1
  F  F13  1  0.99967621  1.33767369  -0.24972542  1
  F  F14  1  0.99967621  -0.08767369  1.49972542  1
  F  F15  1  -0.74967621  1.33767369  1.49972542  1
  F  F16  1  1.24967621  0.58767369  1.24972542  1
  F  F17  1  0.50032379  0.16232631  1.24972542  1
  F  F18  1  0.50032379  0.58767369  0.50027458  1
  F  F19  1  1.24967621  0.16232631  0.50027458  1
  F  F20  1  -0.24967621  -0.58767369  -0.24972542  1
  F  F21  1  1.49967621  0.83767369  -0.24972542  1
  F  F22  1  1.49967621  -0.58767369  1.49972542  1
  F  F23  1  -0.24967621  0.83767369  1.49972542  1
  F  F24  1  1.24967621  1.08767369  0.74972542  1
  F  F25  1  0.50032379  0.66232631  0.74972542  1
  F  F26  1  0.50032379  1.08767369  0.00027458  1
  F  F27  1  1.24967621  0.66232631  0.00027458  1
  F  F28  1  -0.24967621  -0.08767369  -0.74972542  1
  F  F29  1  1.49967621  1.33767369  -0.74972542  1
  F  F30  1  1.49967621  -0.08767369  0.99972542  1
  F  F31  1  -0.24967621  1.33767369  0.99972542  1
  Li  Li32  1  0.34649527  0.80906956  0.31588405  1
  Li  Li33  1  0.40350473  0.94093044  0.31588405  1
  Li  Li34  1  0.40350473  0.80906956  0.43411595  1
  Li  Li35  1  0.34649527  0.94093044  0.43411595  1
  Li  Li36  1  0.65350473  0.19093044  0.68411595  1
  Li  Li37  1  0.59649527  0.05906956  0.68411595  1
  Li  Li38  1  0.59649527  0.19093044  0.56588405  1
  Li  Li39  1  0.65350473  0.05906956  0.56588405  1
  Li  Li40  1  0.34649527  0.30906956  0.81588405  1
  Li  Li41  1  0.40350473  0.44093044  0.81588405  1
  Li  Li42  1  0.40350473  0.30906956  0.93411595  1
  Li  Li43  1  0.34649527  0.44093044  0.93411595  1
  Li  Li44  1  0.65350473  0.69093044  0.18411595  1
  Li  Li45  1  0.59649527  0.55906956  0.18411595  1
  Li  Li46  1  0.59649527  0.69093044  0.06588405  1
  Li  Li47  1  0.65350473  0.55906956  0.06588405  1
  Li  Li48  1  0.84649527  0.80906956  0.81588405  1
  Li  Li49  1  0.90350473  0.94093044  0.81588405  1
  Li  Li50  1  0.90350473  0.80906956  0.93411595  1
  Li  Li51  1  0.84649527  0.94093044  0.93411595  1
  Li  Li52  1  0.15350473  0.19093044  0.18411595  1
  Li  Li53  1  0.09649527  0.05906956  0.18411595  1
  Li  Li54  1  0.09649527  0.19093044  0.06588405  1
  Li  Li55  1  0.15350473  0.05906956  0.06588405  1
  Li  Li56  1  0.84649527  0.30906956  0.31588405  1
  Li  Li57  1  0.90350473  0.44093044  0.31588405  1
  Li  Li58  1  0.90350473  0.30906956  0.43411595  1
  Li  Li59  1  0.84649527  0.44093044  0.43411595  1
  Li  Li60  1  0.15350473  0.69093044  0.68411595  1
  Li  Li61  1  0.09649527  0.55906956  0.68411595  1
  Li  Li62  1  0.09649527  0.69093044  0.56588405  1
  Li  Li63  1  0.15350473  0.55906956  0.56588405  1
  O  O64  1  0.40733026  0.22640380  0.30291943  1
  O  O65  1  0.34266974  0.52359620  0.30291943  1
  O  O66  1  0.34266974  0.22640380  0.44708057  1
  O  O67  1  0.40733026  0.52359620  0.44708057  1
  O  O68  1  0.59266974  0.77359620  0.69708057  1
  O  O69  1  0.65733026  0.47640380  0.69708057  1
  O  O70  1  0.65733026  0.77359620  0.55291943  1
  O  O71  1  0.59266974  0.47640380  0.55291943  1
  O  O72  1  0.40733026  0.72640380  0.80291943  1
  O  O73  1  0.34266974  0.02359620  0.80291943  1
  O  O74  1  0.34266974  0.72640380  0.94708057  1
  O  O75  1  0.40733026  0.02359620  0.94708057  1
  O  O76  1  0.59266974  0.27359620  0.19708057  1
  O  O77  1  0.65733026  0.97640380  0.19708057  1
  O  O78  1  0.65733026  0.27359620  0.05291943  1
  O  O79  1  0.59266974  0.97640380  0.05291943  1
  O  O80  1  0.90733026  0.22640380  0.80291943  1
  O  O81  1  0.84266974  0.52359620  0.80291943  1
  O  O82  1  0.84266974  0.22640380  0.94708057  1
  O  O83  1  0.90733026  0.52359620  0.94708057  1
  O  O84  1  0.09266974  0.77359620  0.19708057  1
  O  O85  1  0.15733026  0.47640380  0.19708057  1
  O  O86  1  0.15733026  0.77359620  0.05291943  1
  O  O87  1  0.09266974  0.47640380  0.05291943  1
  O  O88  1  0.90733026  0.72640380  0.30291943  1
  O  O89  1  0.84266974  0.02359620  0.30291943  1
  O  O90  1  0.84266974  0.72640380  0.44708057  1
  O  O91  1  0.90733026  0.02359620  0.44708057  1
  O  O92  1  0.09266974  0.27359620  0.69708057  1
  O  O93  1  0.15733026  0.97640380  0.69708057  1
  O  O94  1  0.15733026  0.27359620  0.55291943  1
  O  O95  1  0.09266974  0.97640380  0.55291943  1
  Sr  Sr96  1  0.34710318  0.47029995  0.49350993  1
  Sr  Sr97  1  0.40289682  0.27970005  0.49350993  1
  Sr  Sr98  1  0.40289682  0.47029995  0.25649007  1
  Sr  Sr99  1  0.34710318  0.27970005  0.25649007  1
  Sr  Sr100  1  0.65289682  0.52970005  0.50649007  1
  Sr  Sr101  1  0.59710318  0.72029995  0.50649007  1
  Sr  Sr102  1  0.59710318  0.52970005  0.74350993  1
  Sr  Sr103  1  0.65289682  0.72029995  0.74350993  1
  Sr  Sr104  1  0.34710318  0.97029995  0.99350993  1
  Sr  Sr105  1  0.40289682  0.77970005  0.99350993  1
  Sr  Sr106  1  0.40289682  0.97029995  0.75649007  1
  Sr  Sr107  1  0.34710318  0.77970005  0.75649007  1
  Sr  Sr108  1  0.65289682  0.02970005  0.00649007  1
  Sr  Sr109  1  0.59710318  0.22029995  0.00649007  1
  Sr  Sr110  1  0.59710318  0.02970005  0.24350993  1
  Sr  Sr111  1  0.65289682  0.22029995  0.24350993  1
  Sr  Sr112  1  0.84710318  0.47029995  0.99350993  1
  Sr  Sr113  1  0.90289682  0.27970005  0.99350993  1
  Sr  Sr114  1  0.90289682  0.47029995  0.75649007  1
  Sr  Sr115  1  0.84710318  0.27970005  0.75649007  1
  Sr  Sr116  1  0.15289682  0.52970005  0.00649007  1
  Sr  Sr117  1  0.09710318  0.72029995  0.00649007  1
  Sr  Sr118  1  0.09710318  0.52970005  0.24350993  1
  Sr  Sr119  1  0.15289682  0.72029995  0.24350993  1
  Sr  Sr120  1  0.84710318  0.97029995  0.49350993  1
  Sr  Sr121  1  0.90289682  0.77970005  0.49350993  1
  Sr  Sr122  1  0.90289682  0.97029995  0.25649007  1
  Sr  Sr123  1  0.84710318  0.77970005  0.25649007  1
  Sr  Sr124  1  0.15289682  0.02970005  0.50649007  1
  Sr  Sr125  1  0.09710318  0.22029995  0.50649007  1
  Sr  Sr126  1  0.09710318  0.02970005  0.74350993  1
  Sr  Sr127  1  0.15289682  0.22029995  0.74350993  1
