# generated using pymatgen
data_NaLi8IF8
_symmetry_space_group_name_H-M   'P 1'
_cell_length_a   12.40494877
_cell_length_b   12.40494877
_cell_length_c   7.87969790
_cell_angle_alpha   90.00000000
_cell_angle_beta   90.00000000
_cell_angle_gamma   90.00000000
_symmetry_Int_Tables_number   1
_chemical_formula_structural   NaLi8IF8
_chemical_formula_sum   'Na4 Li32 I4 F32'
_cell_volume   1212.54961392
_cell_formula_units_Z   4
loop_
 _symmetry_equiv_pos_site_id
 _symmetry_equiv_pos_as_xyz
  1  'x, y, z'
loop_
 _atom_site_type_symbol
 _atom_site_label
 _atom_site_symmetry_multiplicity
 _atom_site_fract_x
 _atom_site_fract_y
 _atom_site_fract_z
 _atom_site_occupancy
  F  F0  1  0.42671852  0.87560673  0.68203322  1
  F  F1  1  0.07328148  -0.87560673  1.18203322  1
  F  F2  1  -0.62560673  1.17671852  0.93203322  1
  F  F3  1  1.12560673  -0.17671852  1.43203322  1
  F  F4  1  0.07328148  0.87560673  -0.18203322  1
  F  F5  1  0.42671852  -0.87560673  -0.68203322  1
  F  F6  1  1.12560673  1.17671852  -0.43203322  1
  F  F7  1  -0.62560673  -0.17671852  0.06796678  1
  F  F8  1  -0.42671852  -0.87560673  -0.68203322  1
  F  F9  1  0.92671852  0.87560673  -0.18203322  1
  F  F10  1  1.62560673  -0.17671852  0.06796678  1
  F  F11  1  -0.12560673  1.17671852  -0.43203322  1
  F  F12  1  0.92671852  -0.87560673  1.18203322  1
  F  F13  1  -0.42671852  0.87560673  0.68203322  1
  F  F14  1  -0.12560673  -0.17671852  1.43203322  1
  F  F15  1  1.62560673  1.17671852  0.93203322  1
  F  F16  1  0.92671852  1.37560673  1.18203322  1
  F  F17  1  0.57328148  -0.37560673  1.68203322  1
  F  F18  1  -0.12560673  1.67671852  1.43203322  1
  F  F19  1  1.62560673  0.32328148  1.93203322  1
  F  F20  1  0.57328148  1.37560673  0.31796678  1
  F  F21  1  0.92671852  -0.37560673  -0.18203322  1
  F  F22  1  1.62560673  1.67671852  0.06796678  1
  F  F23  1  -0.12560673  0.32328148  0.56796678  1
  F  F24  1  0.07328148  -0.37560673  -0.18203322  1
  F  F25  1  1.42671852  1.37560673  0.31796678  1
  F  F26  1  2.12560673  0.32328148  0.56796678  1
  F  F27  1  0.37439327  1.67671852  0.06796678  1
  F  F28  1  1.42671852  -0.37560673  1.68203322  1
  F  F29  1  0.07328148  1.37560673  1.18203322  1
  F  F30  1  0.37439327  0.32328148  1.93203322  1
  F  F31  1  2.12560673  1.67671852  1.43203322  1
  I  I32  1  0.00000000  0.75000000  0.12500000  1
  I  I33  1  0.50000000  0.75000000  0.37500000  1
  I  I34  1  0.50000000  0.25000000  0.62500000  1
  I  I35  1  0.00000000  0.25000000  0.87500000  1
  Li  Li36  1  0.00000000  0.00000000  0.00000000  1
  Li  Li37  1  0.50000000  0.00000000  0.50000000  1
  Li  Li38  1  0.25000000  0.75000000  0.25000000  1
  Li  Li39  1  0.25000000  0.25000000  0.75000000  1
  Li  Li40  1  0.50000000  0.50000000  0.50000000  1
  Li  Li41  1  0.00000000  0.50000000  0.00000000  1
  Li  Li42  1  0.75000000  0.25000000  0.75000000  1
  Li  Li43  1  0.75000000  0.75000000  0.25000000  1
  Li  Li44  1  0.38570828  0.63570828  0.87500000  1
  Li  Li45  1  0.11429172  0.36429172  0.37500000  1
  Li  Li46  1  0.61429172  0.13570828  0.12500000  1
  Li  Li47  1  0.88570828  0.86429172  0.62500000  1
  Li  Li48  1  0.61429172  0.36429172  0.12500000  1
  Li  Li49  1  0.88570828  0.63570828  0.62500000  1
  Li  Li50  1  0.38570828  0.86429172  0.87500000  1
  Li  Li51  1  0.11429172  0.13570828  0.37500000  1
  Li  Li52  1  0.88570828  0.13570828  0.37500000  1
  Li  Li53  1  0.61429172  0.86429172  0.87500000  1
  Li  Li54  1  0.11429172  0.63570828  0.62500000  1
  Li  Li55  1  0.38570828  0.36429172  0.12500000  1
  Li  Li56  1  0.11429172  0.86429172  0.62500000  1
  Li  Li57  1  0.38570828  0.13570828  0.12500000  1
  Li  Li58  1  0.88570828  0.36429172  0.37500000  1
  Li  Li59  1  0.61429172  0.63570828  0.87500000  1
  Li  Li60  1  0.00000000  0.00000000  0.50000000  1
  Li  Li61  1  0.50000000  0.00000000  0.00000000  1
  Li  Li62  1  0.25000000  0.75000000  0.75000000  1
  Li  Li63  1  0.25000000  0.25000000  0.25000000  1
  Li  Li64  1  0.50000000  0.50000000  0.00000000  1
  Li  Li65  1  0.00000000  0.50000000  0.50000000  1
  Li  Li66  1  0.75000000  0.25000000  0.25000000  1
  Li  Li67  1  0.75000000  0.75000000  0.75000000  1
  Na  Na68  1  0.00000000  0.25000000  0.37500000  1
  Na  Na69  1  0.00000000  0.75000000  0.62500000  1
  Na  Na70  1  0.50000000  0.75000000  0.87500000  1
  Na  Na71  1  0.50000000  0.25000000  0.12500000  1
