# generated using pymatgen
data_Li4B2Br3O3F
_symmetry_space_group_name_H-M   'P 1'
_cell_length_a   16.83738205
_cell_length_b   16.83738205
_cell_length_c   16.83738205
_cell_angle_alpha   90.00000000
_cell_angle_beta   90.00000000
_cell_angle_gamma   90.00000000
_symmetry_Int_Tables_number   1
_chemical_formula_structural   Li4B2Br3O3F
_chemical_formula_sum   'Li96 B48 Br72 O72 F24'
_cell_volume   4773.35460813
_cell_formula_units_Z   24
loop_
 _symmetry_equiv_pos_site_id
 _symmetry_equiv_pos_as_xyz
  1  'x, y, z'
loop_
 _atom_site_type_symbol
 _atom_site_label
 _atom_site_symmetry_multiplicity
 _atom_site_fract_x
 _atom_site_fract_y
 _atom_site_fract_z
 _atom_site_occupancy
  B  B0  1  0.50000000  0.50000000  0.50000000  1
  B  B1  1  0.50000000  0.00000000  0.00000000  1
  B  B2  1  0.00000000  0.50000000  0.00000000  1
  B  B3  1  0.00000000  0.00000000  0.50000000  1
  B  B4  1  0.32371425  0.32371425  0.32371425  1
  B  B5  1  0.67628575  0.67628575  0.32371425  1
  B  B6  1  0.67628575  0.32371425  0.67628575  1
  B  B7  1  0.32371425  0.67628575  0.67628575  1
  B  B8  1  0.32371425  0.32371425  0.67628575  1
  B  B9  1  0.67628575  0.67628575  0.67628575  1
  B  B10  1  0.32371425  0.67628575  0.32371425  1
  B  B11  1  0.67628575  0.32371425  0.32371425  1
  B  B12  1  0.32371425  0.82371425  0.82371425  1
  B  B13  1  0.67628575  0.17628575  0.82371425  1
  B  B14  1  0.67628575  0.82371425  0.17628575  1
  B  B15  1  0.32371425  0.17628575  0.17628575  1
  B  B16  1  0.32371425  0.82371425  0.17628575  1
  B  B17  1  0.67628575  0.17628575  0.17628575  1
  B  B18  1  0.32371425  0.17628575  0.82371425  1
  B  B19  1  0.67628575  0.82371425  0.82371425  1
  B  B20  1  0.82371425  0.32371425  0.82371425  1
  B  B21  1  0.17628575  0.67628575  0.82371425  1
  B  B22  1  0.17628575  0.32371425  0.17628575  1
  B  B23  1  0.82371425  0.67628575  0.17628575  1
  B  B24  1  0.82371425  0.32371425  0.17628575  1
  B  B25  1  0.17628575  0.67628575  0.17628575  1
  B  B26  1  0.82371425  0.67628575  0.82371425  1
  B  B27  1  0.17628575  0.32371425  0.82371425  1
  B  B28  1  0.82371425  0.82371425  0.32371425  1
  B  B29  1  0.17628575  0.17628575  0.32371425  1
  B  B30  1  0.17628575  0.82371425  0.67628575  1
  B  B31  1  0.82371425  0.17628575  0.67628575  1
  B  B32  1  0.82371425  0.82371425  0.67628575  1
  B  B33  1  0.17628575  0.17628575  0.67628575  1
  B  B34  1  0.82371425  0.17628575  0.32371425  1
  B  B35  1  0.17628575  0.82371425  0.32371425  1
  B  B36  1  0.25000000  0.25000000  0.25000000  1
  B  B37  1  0.25000000  0.25000000  0.75000000  1
  B  B38  1  0.25000000  0.75000000  0.75000000  1
  B  B39  1  0.25000000  0.75000000  0.25000000  1
  B  B40  1  0.75000000  0.25000000  0.75000000  1
  B  B41  1  0.75000000  0.25000000  0.25000000  1
  B  B42  1  0.75000000  0.75000000  0.25000000  1
  B  B43  1  0.75000000  0.75000000  0.75000000  1
  B  B44  1  0.00000000  0.00000000  0.00000000  1
  B  B45  1  0.00000000  0.50000000  0.50000000  1
  B  B46  1  0.50000000  0.00000000  0.50000000  1
  B  B47  1  0.50000000  0.50000000  0.00000000  1
  Br  Br48  1  0.07924040  0.25000000  0.25000000  1
  Br  Br49  1  0.92075960  0.75000000  0.25000000  1
  Br  Br50  1  0.25000000  0.07924040  0.25000000  1
  Br  Br51  1  0.25000000  0.92075960  0.75000000  1
  Br  Br52  1  0.25000000  0.25000000  0.07924040  1
  Br  Br53  1  0.75000000  0.25000000  0.92075960  1
  Br  Br54  1  0.25000000  0.07924040  0.75000000  1
  Br  Br55  1  0.75000000  0.92075960  0.75000000  1
  Br  Br56  1  0.07924040  0.25000000  0.75000000  1
  Br  Br57  1  0.92075960  0.25000000  0.25000000  1
  Br  Br58  1  0.25000000  0.25000000  0.92075960  1
  Br  Br59  1  0.25000000  0.75000000  0.07924040  1
  Br  Br60  1  0.07924040  0.75000000  0.75000000  1
  Br  Br61  1  0.92075960  0.25000000  0.75000000  1
  Br  Br62  1  0.25000000  0.57924040  0.75000000  1
  Br  Br63  1  0.25000000  0.42075960  0.25000000  1
  Br  Br64  1  0.25000000  0.75000000  0.57924040  1
  Br  Br65  1  0.75000000  0.75000000  0.42075960  1
  Br  Br66  1  0.25000000  0.57924040  0.25000000  1
  Br  Br67  1  0.75000000  0.42075960  0.25000000  1
  Br  Br68  1  0.07924040  0.75000000  0.25000000  1
  Br  Br69  1  0.92075960  0.75000000  0.75000000  1
  Br  Br70  1  0.25000000  0.75000000  0.42075960  1
  Br  Br71  1  0.25000000  0.25000000  0.57924040  1
  Br  Br72  1  0.57924040  0.25000000  0.75000000  1
  Br  Br73  1  0.42075960  0.75000000  0.75000000  1
  Br  Br74  1  0.75000000  0.07924040  0.75000000  1
  Br  Br75  1  0.75000000  0.92075960  0.25000000  1
  Br  Br76  1  0.75000000  0.25000000  0.57924040  1
  Br  Br77  1  0.25000000  0.25000000  0.42075960  1
  Br  Br78  1  0.75000000  0.07924040  0.25000000  1
  Br  Br79  1  0.25000000  0.92075960  0.25000000  1
  Br  Br80  1  0.57924040  0.25000000  0.25000000  1
  Br  Br81  1  0.42075960  0.25000000  0.75000000  1
  Br  Br82  1  0.75000000  0.25000000  0.42075960  1
  Br  Br83  1  0.75000000  0.75000000  0.57924040  1
  Br  Br84  1  0.57924040  0.75000000  0.25000000  1
  Br  Br85  1  0.42075960  0.25000000  0.25000000  1
  Br  Br86  1  0.75000000  0.57924040  0.25000000  1
  Br  Br87  1  0.75000000  0.42075960  0.75000000  1
  Br  Br88  1  0.75000000  0.75000000  0.07924040  1
  Br  Br89  1  0.25000000  0.75000000  0.92075960  1
  Br  Br90  1  0.75000000  0.57924040  0.75000000  1
  Br  Br91  1  0.25000000  0.42075960  0.75000000  1
  Br  Br92  1  0.57924040  0.75000000  0.75000000  1
  Br  Br93  1  0.42075960  0.75000000  0.25000000  1
  Br  Br94  1  0.75000000  0.75000000  0.92075960  1
  Br  Br95  1  0.75000000  0.25000000  0.07924040  1
  Br  Br96  1  0.39396199  -0.00000000  -0.00000000  1
  Br  Br97  1  0.60603801  -0.00000000  -0.00000000  1
  Br  Br98  1  0.00000000  0.39396199  -0.00000000  1
  Br  Br99  1  0.00000000  0.60603801  -0.00000000  1
  Br  Br100  1  0.00000000  0.00000000  0.39396199  1
  Br  Br101  1  0.00000000  0.00000000  0.60603801  1
  Br  Br102  1  0.39396199  0.50000000  0.50000000  1
  Br  Br103  1  0.60603801  0.50000000  0.50000000  1
  Br  Br104  1  0.00000000  0.89396199  0.50000000  1
  Br  Br105  1  0.00000000  0.10603801  0.50000000  1
  Br  Br106  1  0.00000000  0.50000000  0.89396199  1
  Br  Br107  1  0.00000000  0.50000000  0.10603801  1
  Br  Br108  1  0.89396199  -0.00000000  0.50000000  1
  Br  Br109  1  0.10603801  -0.00000000  0.50000000  1
  Br  Br110  1  0.50000000  0.39396199  0.50000000  1
  Br  Br111  1  0.50000000  0.60603801  0.50000000  1
  Br  Br112  1  0.50000000  0.00000000  0.89396199  1
  Br  Br113  1  0.50000000  0.00000000  0.10603801  1
  Br  Br114  1  0.89396199  0.50000000  -0.00000000  1
  Br  Br115  1  0.10603801  0.50000000  -0.00000000  1
  Br  Br116  1  0.50000000  0.89396199  -0.00000000  1
  Br  Br117  1  0.50000000  0.10603801  -0.00000000  1
  Br  Br118  1  0.50000000  0.50000000  0.39396199  1
  Br  Br119  1  0.50000000  0.50000000  0.60603801  1
  F  F120  1  0.00000000  0.25000000  0.25000000  1
  F  F121  1  0.00000000  0.75000000  0.25000000  1
  F  F122  1  0.25000000  0.00000000  0.25000000  1
  F  F123  1  0.25000000  0.00000000  0.75000000  1
  F  F124  1  0.25000000  0.25000000  0.00000000  1
  F  F125  1  0.75000000  0.25000000  0.00000000  1
  F  F126  1  0.00000000  0.75000000  0.75000000  1
  F  F127  1  0.00000000  0.25000000  0.75000000  1
  F  F128  1  0.25000000  0.50000000  0.75000000  1
  F  F129  1  0.25000000  0.50000000  0.25000000  1
  F  F130  1  0.25000000  0.75000000  0.50000000  1
  F  F131  1  0.75000000  0.75000000  0.50000000  1
  F  F132  1  0.50000000  0.25000000  0.75000000  1
  F  F133  1  0.50000000  0.75000000  0.75000000  1
  F  F134  1  0.75000000  -0.00000000  0.75000000  1
  F  F135  1  0.75000000  -0.00000000  0.25000000  1
  F  F136  1  0.75000000  0.25000000  0.50000000  1
  F  F137  1  0.25000000  0.25000000  0.50000000  1
  F  F138  1  0.50000000  0.75000000  0.25000000  1
  F  F139  1  0.50000000  0.25000000  0.25000000  1
  F  F140  1  0.75000000  0.50000000  0.25000000  1
  F  F141  1  0.75000000  0.50000000  0.75000000  1
  F  F142  1  0.75000000  0.75000000  -0.00000000  1
  F  F143  1  0.25000000  0.75000000  0.00000000  1
  Li  Li144  1  0.00000000  0.69835134  0.40378676  1
  Li  Li145  1  0.00000000  -0.69835134  0.40378676  1
  Li  Li146  1  0.00000000  0.69835134  -0.40378676  1
  Li  Li147  1  0.00000000  -0.69835134  -0.40378676  1
  Li  Li148  1  0.40378676  -0.00000000  0.69835134  1
  Li  Li149  1  0.40378676  -0.00000000  -0.69835134  1
  Li  Li150  1  -0.40378676  0.00000000  0.69835134  1
  Li  Li151  1  -0.40378676  0.00000000  -0.69835134  1
  Li  Li152  1  0.69835134  0.40378676  -0.00000000  1
  Li  Li153  1  -0.69835134  0.40378676  0.00000000  1
  Li  Li154  1  0.69835134  -0.40378676  -0.00000000  1
  Li  Li155  1  -0.69835134  -0.40378676  0.00000000  1
  Li  Li156  1  0.69835134  -0.00000000  -0.40378676  1
  Li  Li157  1  -0.69835134  0.00000000  -0.40378676  1
  Li  Li158  1  0.69835134  -0.00000000  0.40378676  1
  Li  Li159  1  -0.69835134  0.00000000  0.40378676  1
  Li  Li160  1  0.00000000  0.40378676  -0.69835134  1
  Li  Li161  1  0.00000000  0.40378676  0.69835134  1
  Li  Li162  1  0.00000000  -0.40378676  -0.69835134  1
  Li  Li163  1  0.00000000  -0.40378676  0.69835134  1
  Li  Li164  1  0.40378676  0.69835134  -0.00000000  1
  Li  Li165  1  0.40378676  -0.69835134  0.00000000  1
  Li  Li166  1  -0.40378676  0.69835134  -0.00000000  1
  Li  Li167  1  -0.40378676  -0.69835134  0.00000000  1
  Li  Li168  1  0.00000000  1.19835134  0.90378676  1
  Li  Li169  1  0.00000000  -0.19835134  0.90378676  1
  Li  Li170  1  0.00000000  1.19835134  0.09621324  1
  Li  Li171  1  0.00000000  -0.19835134  0.09621324  1
  Li  Li172  1  0.40378676  0.50000000  1.19835134  1
  Li  Li173  1  0.40378676  0.50000000  -0.19835134  1
  Li  Li174  1  -0.40378676  0.50000000  1.19835134  1
  Li  Li175  1  -0.40378676  0.50000000  -0.19835134  1
  Li  Li176  1  0.69835134  0.90378676  0.50000000  1
  Li  Li177  1  -0.69835134  0.90378676  0.50000000  1
  Li  Li178  1  0.69835134  0.09621324  0.50000000  1
  Li  Li179  1  -0.69835134  0.09621324  0.50000000  1
  Li  Li180  1  0.69835134  0.50000000  0.09621324  1
  Li  Li181  1  -0.69835134  0.50000000  0.09621324  1
  Li  Li182  1  0.69835134  0.50000000  0.90378676  1
  Li  Li183  1  -0.69835134  0.50000000  0.90378676  1
  Li  Li184  1  0.00000000  0.90378676  -0.19835134  1
  Li  Li185  1  0.00000000  0.90378676  1.19835134  1
  Li  Li186  1  0.00000000  0.09621324  -0.19835134  1
  Li  Li187  1  0.00000000  0.09621324  1.19835134  1
  Li  Li188  1  0.40378676  1.19835134  0.50000000  1
  Li  Li189  1  0.40378676  -0.19835134  0.50000000  1
  Li  Li190  1  -0.40378676  1.19835134  0.50000000  1
  Li  Li191  1  -0.40378676  -0.19835134  0.50000000  1
  Li  Li192  1  0.50000000  0.69835134  0.90378676  1
  Li  Li193  1  0.50000000  -0.69835134  0.90378676  1
  Li  Li194  1  0.50000000  0.69835134  0.09621324  1
  Li  Li195  1  0.50000000  -0.69835134  0.09621324  1
  Li  Li196  1  0.90378676  -0.00000000  1.19835134  1
  Li  Li197  1  0.90378676  -0.00000000  -0.19835134  1
  Li  Li198  1  0.09621324  0.00000000  1.19835134  1
  Li  Li199  1  0.09621324  0.00000000  -0.19835134  1
  Li  Li200  1  1.19835134  0.40378676  0.50000000  1
  Li  Li201  1  -0.19835134  0.40378676  0.50000000  1
  Li  Li202  1  1.19835134  -0.40378676  0.50000000  1
  Li  Li203  1  -0.19835134  -0.40378676  0.50000000  1
  Li  Li204  1  1.19835134  -0.00000000  0.09621324  1
  Li  Li205  1  -0.19835134  0.00000000  0.09621324  1
  Li  Li206  1  1.19835134  -0.00000000  0.90378676  1
  Li  Li207  1  -0.19835134  0.00000000  0.90378676  1
  Li  Li208  1  0.50000000  0.40378676  -0.19835134  1
  Li  Li209  1  0.50000000  0.40378676  1.19835134  1
  Li  Li210  1  0.50000000  -0.40378676  -0.19835134  1
  Li  Li211  1  0.50000000  -0.40378676  1.19835134  1
  Li  Li212  1  0.90378676  0.69835134  0.50000000  1
  Li  Li213  1  0.90378676  -0.69835134  0.50000000  1
  Li  Li214  1  0.09621324  0.69835134  0.50000000  1
  Li  Li215  1  0.09621324  -0.69835134  0.50000000  1
  Li  Li216  1  0.50000000  1.19835134  0.40378676  1
  Li  Li217  1  0.50000000  -0.19835134  0.40378676  1
  Li  Li218  1  0.50000000  1.19835134  -0.40378676  1
  Li  Li219  1  0.50000000  -0.19835134  -0.40378676  1
  Li  Li220  1  0.90378676  0.50000000  0.69835134  1
  Li  Li221  1  0.90378676  0.50000000  -0.69835134  1
  Li  Li222  1  0.09621324  0.50000000  0.69835134  1
  Li  Li223  1  0.09621324  0.50000000  -0.69835134  1
  Li  Li224  1  1.19835134  0.90378676  -0.00000000  1
  Li  Li225  1  -0.19835134  0.90378676  -0.00000000  1
  Li  Li226  1  1.19835134  0.09621324  -0.00000000  1
  Li  Li227  1  -0.19835134  0.09621324  0.00000000  1
  Li  Li228  1  1.19835134  0.50000000  -0.40378676  1
  Li  Li229  1  -0.19835134  0.50000000  -0.40378676  1
  Li  Li230  1  1.19835134  0.50000000  0.40378676  1
  Li  Li231  1  -0.19835134  0.50000000  0.40378676  1
  Li  Li232  1  0.50000000  0.90378676  -0.69835134  1
  Li  Li233  1  0.50000000  0.90378676  0.69835134  1
  Li  Li234  1  0.50000000  0.09621324  -0.69835134  1
  Li  Li235  1  0.50000000  0.09621324  0.69835134  1
  Li  Li236  1  0.90378676  1.19835134  -0.00000000  1
  Li  Li237  1  0.90378676  -0.19835134  -0.00000000  1
  Li  Li238  1  0.09621324  1.19835134  -0.00000000  1
  Li  Li239  1  0.09621324  -0.19835134  0.00000000  1
  O  O240  1  0.84049067  -0.00000000  -0.00000000  1
  O  O241  1  0.15950933  -0.00000000  -0.00000000  1
  O  O242  1  0.00000000  0.84049067  -0.00000000  1
  O  O243  1  0.00000000  0.15950933  -0.00000000  1
  O  O244  1  0.00000000  0.00000000  0.84049067  1
  O  O245  1  0.00000000  0.00000000  0.15950933  1
  O  O246  1  0.84049067  0.50000000  0.50000000  1
  O  O247  1  0.15950933  0.50000000  0.50000000  1
  O  O248  1  0.00000000  0.34049067  0.50000000  1
  O  O249  1  0.00000000  0.65950933  0.50000000  1
  O  O250  1  0.00000000  0.50000000  0.34049067  1
  O  O251  1  0.00000000  0.50000000  0.65950933  1
  O  O252  1  0.34049067  -0.00000000  0.50000000  1
  O  O253  1  0.65950933  -0.00000000  0.50000000  1
  O  O254  1  0.50000000  0.84049067  0.50000000  1
  O  O255  1  0.50000000  0.15950933  0.50000000  1
  O  O256  1  0.50000000  0.00000000  0.34049067  1
  O  O257  1  0.50000000  0.00000000  0.65950933  1
  O  O258  1  0.34049067  0.50000000  -0.00000000  1
  O  O259  1  0.65950933  0.50000000  -0.00000000  1
  O  O260  1  0.50000000  0.34049067  -0.00000000  1
  O  O261  1  0.50000000  0.65950933  -0.00000000  1
  O  O262  1  0.50000000  0.50000000  0.84049067  1
  O  O263  1  0.50000000  0.50000000  0.15950933  1
  O  O264  1  0.50000000  0.81370642  0.81370642  1
  O  O265  1  0.50000000  0.18629358  0.81370642  1
  O  O266  1  0.50000000  0.81370642  0.18629358  1
  O  O267  1  0.50000000  0.18629358  0.18629358  1
  O  O268  1  0.81370642  0.50000000  0.81370642  1
  O  O269  1  0.81370642  0.50000000  0.18629358  1
  O  O270  1  0.18629358  0.50000000  0.81370642  1
  O  O271  1  0.18629358  0.50000000  0.18629358  1
  O  O272  1  0.81370642  0.81370642  0.50000000  1
  O  O273  1  0.18629358  0.81370642  0.50000000  1
  O  O274  1  0.81370642  0.18629358  0.50000000  1
  O  O275  1  0.18629358  0.18629358  0.50000000  1
  O  O276  1  0.50000000  0.31370642  0.31370642  1
  O  O277  1  0.50000000  0.68629358  0.31370642  1
  O  O278  1  0.50000000  0.31370642  0.68629358  1
  O  O279  1  0.50000000  0.68629358  0.68629358  1
  O  O280  1  0.81370642  -0.00000000  0.31370642  1
  O  O281  1  0.81370642  -0.00000000  0.68629358  1
  O  O282  1  0.18629358  -0.00000000  0.31370642  1
  O  O283  1  0.18629358  -0.00000000  0.68629358  1
  O  O284  1  0.81370642  0.31370642  -0.00000000  1
  O  O285  1  0.18629358  0.31370642  0.00000000  1
  O  O286  1  0.81370642  0.68629358  -0.00000000  1
  O  O287  1  0.18629358  0.68629358  -0.00000000  1
  O  O288  1  0.00000000  0.81370642  0.31370642  1
  O  O289  1  0.00000000  0.18629358  0.31370642  1
  O  O290  1  0.00000000  0.81370642  0.68629358  1
  O  O291  1  0.00000000  0.18629358  0.68629358  1
  O  O292  1  0.31370642  0.50000000  0.31370642  1
  O  O293  1  0.31370642  0.50000000  0.68629358  1
  O  O294  1  0.68629358  0.50000000  0.31370642  1
  O  O295  1  0.68629358  0.50000000  0.68629358  1
  O  O296  1  0.31370642  0.81370642  -0.00000000  1
  O  O297  1  0.68629358  0.81370642  -0.00000000  1
  O  O298  1  0.31370642  0.18629358  -0.00000000  1
  O  O299  1  0.68629358  0.18629358  -0.00000000  1
  O  O300  1  0.00000000  0.31370642  0.81370642  1
  O  O301  1  0.00000000  0.68629358  0.81370642  1
  O  O302  1  0.00000000  0.31370642  0.18629358  1
  O  O303  1  0.00000000  0.68629358  0.18629358  1
  O  O304  1  0.31370642  -0.00000000  0.81370642  1
  O  O305  1  0.31370642  -0.00000000  0.18629358  1
  O  O306  1  0.68629358  -0.00000000  0.81370642  1
  O  O307  1  0.68629358  -0.00000000  0.18629358  1
  O  O308  1  0.31370642  0.31370642  0.50000000  1
  O  O309  1  0.68629358  0.31370642  0.50000000  1
  O  O310  1  0.31370642  0.68629358  0.50000000  1
  O  O311  1  0.68629358  0.68629358  0.50000000  1
