# generated using pymatgen
data_Li2Sb3Br9Cl2
_symmetry_space_group_name_H-M   'P 1'
_cell_length_a   7.26896188
_cell_length_b   7.26896188
_cell_length_c   16.67237552
_cell_angle_alpha   90.00000000
_cell_angle_beta   90.00000000
_cell_angle_gamma   120.00000000
_symmetry_Int_Tables_number   1
_chemical_formula_structural   Li2Sb3Br9Cl2
_chemical_formula_sum   'Li4 Sb6 Br18 Cl4'
_cell_volume   762.90928095
_cell_formula_units_Z   2
loop_
 _symmetry_equiv_pos_site_id
 _symmetry_equiv_pos_as_xyz
  1  'x, y, z'
loop_
 _atom_site_type_symbol
 _atom_site_label
 _atom_site_symmetry_multiplicity
 _atom_site_fract_x
 _atom_site_fract_y
 _atom_site_fract_z
 _atom_site_occupancy
  Br  Br0  1  0.16818309  0.33166557  0.92436731  1
  Br  Br1  1  -0.33166557  -0.16348248  0.92436731  1
  Br  Br2  1  0.16348248  -0.16818309  0.92436731  1
  Br  Br3  1  0.16818309  0.33166557  -0.92436731  1
  Br  Br4  1  -0.33166557  -0.16348248  -0.92436731  1
  Br  Br5  1  0.16348248  -0.16818309  -0.92436731  1
  Br  Br6  1  0.33166557  0.16818309  -0.92436731  1
  Br  Br7  1  -0.16348248  -0.33166557  -0.92436731  1
  Br  Br8  1  -0.16818309  0.16348248  -0.92436731  1
  Br  Br9  1  0.33166557  0.16818309  0.92436731  1
  Br  Br10  1  -0.16348248  -0.33166557  0.92436731  1
  Br  Br11  1  -0.16818309  0.16348248  0.92436731  1
  Br  Br12  1  0.00000000  0.00000000  0.00000000  1
  Br  Br13  1  0.33333333  0.66666667  0.50000000  1
  Br  Br14  1  0.66666667  0.33333333  0.50000000  1
  Br  Br15  1  0.24423590  0.00000000  0.00000000  1
  Br  Br16  1  0.00000000  0.24423590  0.00000000  1
  Br  Br17  1  0.75576410  0.75576410  0.00000000  1
  Cl  Cl18  1  0.00000000  0.00000000  0.50000000  1
  Cl  Cl19  1  0.68819183  0.00000000  -0.00000000  1
  Cl  Cl20  1  0.00000000  0.68819183  -0.00000000  1
  Cl  Cl21  1  0.31180817  0.31180817  -0.00000000  1
  Li  Li22  1  0.33333333  0.66666667  0.28614926  1
  Li  Li23  1  0.33333333  0.66666667  0.71385074  1
  Li  Li24  1  0.66666667  0.33333333  0.71385074  1
  Li  Li25  1  0.66666667  0.33333333  0.28614926  1
  Sb  Sb26  1  0.87494545  0.37977294  0.50000000  1
  Sb  Sb27  1  0.62022706  0.49517251  0.50000000  1
  Sb  Sb28  1  0.50482749  0.12505455  0.50000000  1
  Sb  Sb29  1  0.37977294  0.87494545  0.50000000  1
  Sb  Sb30  1  0.49517251  0.62022706  0.50000000  1
  Sb  Sb31  1  0.12505455  0.50482749  0.50000000  1
