# generated using pymatgen
data_Li6LaSc2In2O
_symmetry_space_group_name_H-M   'P 1'
_cell_length_a   12.97731006
_cell_length_b   15.47108769
_cell_length_c   12.91143511
_cell_angle_alpha   90.00000000
_cell_angle_beta   90.00000000
_cell_angle_gamma   90.00000000
_symmetry_Int_Tables_number   1
_chemical_formula_structural   Li6LaSc2In2O
_chemical_formula_sum   'Li6 La1 Sc2 In2 O1'
_cell_volume   2592.26887811
_cell_formula_units_Z   1
loop_
 _symmetry_equiv_pos_site_id
 _symmetry_equiv_pos_as_xyz
  1  'x, y, z'
loop_
 _atom_site_type_symbol
 _atom_site_label
 _atom_site_symmetry_multiplicity
 _atom_site_fract_x
 _atom_site_fract_y
 _atom_site_fract_z
 _atom_site_occupancy
  Li  Li0  1  0.12500000  0.00000000  0.25000000  1
  Li  Li1  1  0.00000000  0.00000000  0.00000000  1
  Li  Li2  1  0.37500000  0.00000000  0.25000000  1
  Li  Li3  1  0.25000000  0.25000000  0.25000000  1
  Li  Li4  1  0.00000000  0.25000000  0.12500000  1
  Li  Li5  1  0.14623199  0.67125100  0.04780548  1
  La  La6  1  0.80351634  0.70720758  0.36201555  1
  Sc  Sc7  1  0.93437956  0.41127673  0.34641960  1
  Sc  Sc8  1  0.07683815  0.64501496  0.50736092  1
  In  In9  1  0.36233617  0.61645112  0.64300250  1
  In  In10  1  0.98020335  0.51462711  0.28971347  1
  O  O11  1  0.66603213  0.90816874  0.39057239  1
