# generated using pymatgen
data_Li2S
_symmetry_space_group_name_H-M   'P 1'
_cell_length_a   10.56297859
_cell_length_b   10.56297859
_cell_length_c   10.68912017
_cell_angle_alpha   90.00000000
_cell_angle_beta   90.00000000
_cell_angle_gamma   120.00000000
_symmetry_Int_Tables_number   1
_chemical_formula_structural   Li2S
_chemical_formula_sum   'Li36 S18'
_cell_volume   1032.86935092
_cell_formula_units_Z   18
loop_
 _symmetry_equiv_pos_site_id
 _symmetry_equiv_pos_as_xyz
  1  'x, y, z'
loop_
 _atom_site_type_symbol
 _atom_site_label
 _atom_site_symmetry_multiplicity
 _atom_site_fract_x
 _atom_site_fract_y
 _atom_site_fract_z
 _atom_site_occupancy
  Li  Li0  1  0.79446327  0.00000000  0.50000000  1
  Li  Li1  1  0.00000000  0.79446327  0.50000000  1
  Li  Li2  1  -0.79446327  -0.79446327  0.50000000  1
  Li  Li3  1  -0.79446327  -0.00000000  0.50000000  1
  Li  Li4  1  0.00000000  -0.79446327  0.50000000  1
  Li  Li5  1  0.79446327  0.79446327  0.50000000  1
  Li  Li6  1  1.46112994  0.33333333  0.83333333  1
  Li  Li7  1  0.66666667  1.12779661  0.83333333  1
  Li  Li8  1  -0.12779661  -0.46112994  0.83333333  1
  Li  Li9  1  -0.12779661  0.33333333  0.83333333  1
  Li  Li10  1  0.66666667  -0.46112994  0.83333333  1
  Li  Li11  1  1.46112994  1.12779661  0.83333333  1
  Li  Li12  1  1.12779661  0.66666667  1.16666667  1
  Li  Li13  1  0.33333333  1.46112994  1.16666667  1
  Li  Li14  1  -0.46112994  -0.12779661  1.16666667  1
  Li  Li15  1  -0.46112994  0.66666667  1.16666667  1
  Li  Li16  1  0.33333333  -0.12779661  1.16666667  1
  Li  Li17  1  1.12779661  1.46112994  1.16666667  1
  Li  Li18  1  0.92551864  0.07448136  0.89255108  1
  Li  Li19  1  0.92551864  0.85103727  0.89255108  1
  Li  Li20  1  0.14896273  0.07448136  0.89255108  1
  Li  Li21  1  0.07448136  0.92551864  0.10744892  1
  Li  Li22  1  0.85103727  0.92551864  0.10744892  1
  Li  Li23  1  0.07448136  0.14896273  0.10744892  1
  Li  Li24  1  0.59218530  0.40781470  0.22588441  1
  Li  Li25  1  0.59218530  0.18437061  0.22588441  1
  Li  Li26  1  0.81562939  0.40781470  0.22588441  1
  Li  Li27  1  0.74114803  0.25885197  0.44078225  1
  Li  Li28  1  0.51770394  0.25885197  0.44078225  1
  Li  Li29  1  0.74114803  0.48229606  0.44078225  1
  Li  Li30  1  0.25885197  0.74114803  0.55921775  1
  Li  Li31  1  0.25885197  0.51770394  0.55921775  1
  Li  Li32  1  0.48229606  0.74114803  0.55921775  1
  Li  Li33  1  0.40781470  0.59218530  0.77411559  1
  Li  Li34  1  0.18437061  0.59218530  0.77411559  1
  Li  Li35  1  0.40781470  0.81562939  0.77411559  1
  S  S36  1  0.50000000  0.00000000  0.00000000  1
  S  S37  1  0.00000000  0.50000000  0.00000000  1
  S  S38  1  0.50000000  0.50000000  0.00000000  1
  S  S39  1  0.16666667  0.33333333  0.33333333  1
  S  S40  1  0.66666667  0.83333333  0.33333333  1
  S  S41  1  0.16666667  0.83333333  0.33333333  1
  S  S42  1  0.83333333  0.66666667  0.66666667  1
  S  S43  1  0.33333333  0.16666667  0.66666667  1
  S  S44  1  0.83333333  0.16666667  0.66666667  1
  S  S45  1  0.50000000  0.00000000  0.50000000  1
  S  S46  1  0.00000000  0.50000000  0.50000000  1
  S  S47  1  0.50000000  0.50000000  0.50000000  1
  S  S48  1  0.16666667  0.33333333  0.83333333  1
  S  S49  1  0.66666667  0.83333333  0.83333333  1
  S  S50  1  0.16666667  0.83333333  0.83333333  1
  S  S51  1  0.83333333  0.66666667  0.16666667  1
  S  S52  1  0.33333333  0.16666667  0.16666667  1
  S  S53  1  0.83333333  0.16666667  0.16666667  1
