# generated using pymatgen
data_HfCl4
_symmetry_space_group_name_H-M   'P 1'
_cell_length_a   8.16527571
_cell_length_b   8.16527571
_cell_length_c   6.62941928
_cell_angle_alpha   90.00000000
_cell_angle_beta   90.00000000
_cell_angle_gamma   120.00000000
_symmetry_Int_Tables_number   1
_chemical_formula_structural   HfCl4
_chemical_formula_sum   'Hf6 Cl24'
_cell_volume   382.77875563
_cell_formula_units_Z   6
loop_
 _symmetry_equiv_pos_site_id
 _symmetry_equiv_pos_as_xyz
  1  'x, y, z'
loop_
 _atom_site_type_symbol
 _atom_site_label
 _atom_site_symmetry_multiplicity
 _atom_site_fract_x
 _atom_site_fract_y
 _atom_site_fract_z
 _atom_site_occupancy
  Cl  Cl0  1  0.00000000  0.00000000  0.00000000  1
  Cl  Cl1  1  0.54833769  0.64331708  0.64295307  1
  Cl  Cl2  1  -0.64331708  -0.09497939  0.64295307  1
  Cl  Cl3  1  0.09497939  -0.54833769  0.64295307  1
  Cl  Cl4  1  -0.64331708  -0.54833769  -0.64295307  1
  Cl  Cl5  1  0.09497939  0.64331708  -0.64295307  1
  Cl  Cl6  1  0.54833769  -0.09497939  -0.64295307  1
  Cl  Cl7  1  0.59021422  0.89363571  0.08298743  1
  Cl  Cl8  1  0.10636429  0.69657850  0.08298743  1
  Cl  Cl9  1  0.30342150  0.40978578  0.08298743  1
  Cl  Cl10  1  0.10636429  0.40978578  0.91701257  1
  Cl  Cl11  1  0.30342150  0.89363571  0.91701257  1
  Cl  Cl12  1  0.59021422  0.69657850  0.91701257  1
  Cl  Cl13  1  0.46228720  0.53771280  0.00000000  1
  Cl  Cl14  1  0.46228720  0.92457439  0.00000000  1
  Cl  Cl15  1  0.07542561  0.53771280  0.00000000  1
  Cl  Cl16  1  0.77712034  0.59143943  0.74376145  1
  Cl  Cl17  1  0.40856057  0.18568091  0.74376145  1
  Cl  Cl18  1  0.81431909  0.22287966  0.74376145  1
  Cl  Cl19  1  0.40856057  0.22287966  0.25623855  1
  Cl  Cl20  1  0.81431909  0.59143943  0.25623855  1
  Cl  Cl21  1  0.77712034  0.18568091  0.25623855  1
  Cl  Cl22  1  0.33333333  0.66666667  0.50000000  1
  Cl  Cl23  1  0.33333333  0.66666667  0.00000000  1
  Hf  Hf24  1  0.57507690  0.42492310  0.50000000  1
  Hf  Hf25  1  0.57507690  0.15015381  0.50000000  1
  Hf  Hf26  1  0.84984619  0.42492310  0.50000000  1
  Hf  Hf27  1  0.00000000  0.00000000  0.50000000  1
  Hf  Hf28  1  0.66666667  0.33333333  0.74632473  1
  Hf  Hf29  1  0.66666667  0.33333333  0.25367527  1
