# generated using pymatgen
data_Li2Mg2S3
_symmetry_space_group_name_H-M   'P 1'
_cell_length_a   13.26620213
_cell_length_b   13.26620213
_cell_length_c   13.26620213
_cell_angle_alpha   90.00000000
_cell_angle_beta   90.00000000
_cell_angle_gamma   90.00000000
_symmetry_Int_Tables_number   1
_chemical_formula_structural   Li2Mg2S3
_chemical_formula_sum   'Li32 Mg32 S48'
_cell_volume   2334.74702153
_cell_formula_units_Z   16
loop_
 _symmetry_equiv_pos_site_id
 _symmetry_equiv_pos_as_xyz
  1  'x, y, z'
loop_
 _atom_site_type_symbol
 _atom_site_label
 _atom_site_symmetry_multiplicity
 _atom_site_fract_x
 _atom_site_fract_y
 _atom_site_fract_z
 _atom_site_occupancy
  Li  Li0  1  0.89028127  -0.00000000  -0.00000000  1
  Li  Li1  1  0.10971873  0.00000000  -0.00000000  1
  Li  Li2  1  0.00000000  0.89028127  -0.00000000  1
  Li  Li3  1  0.00000000  0.10971873  0.00000000  1
  Li  Li4  1  0.00000000  0.00000000  0.89028127  1
  Li  Li5  1  0.00000000  0.00000000  0.10971873  1
  Li  Li6  1  0.89028127  0.50000000  0.50000000  1
  Li  Li7  1  0.10971873  0.50000000  0.50000000  1
  Li  Li8  1  0.00000000  0.39028127  0.50000000  1
  Li  Li9  1  0.00000000  0.60971873  0.50000000  1
  Li  Li10  1  0.00000000  0.50000000  0.39028127  1
  Li  Li11  1  0.00000000  0.50000000  0.60971873  1
  Li  Li12  1  0.39028127  0.00000000  0.50000000  1
  Li  Li13  1  0.60971873  0.00000000  0.50000000  1
  Li  Li14  1  0.50000000  0.89028127  0.50000000  1
  Li  Li15  1  0.50000000  0.10971873  0.50000000  1
  Li  Li16  1  0.50000000  0.00000000  0.39028127  1
  Li  Li17  1  0.50000000  0.00000000  0.60971873  1
  Li  Li18  1  0.39028127  0.50000000  0.00000000  1
  Li  Li19  1  0.60971873  0.50000000  0.00000000  1
  Li  Li20  1  0.50000000  0.39028127  0.00000000  1
  Li  Li21  1  0.50000000  0.60971873  0.00000000  1
  Li  Li22  1  0.50000000  0.50000000  0.89028127  1
  Li  Li23  1  0.50000000  0.50000000  0.10971873  1
  Li  Li24  1  0.50000000  0.50000000  0.50000000  1
  Li  Li25  1  0.50000000  0.00000000  0.00000000  1
  Li  Li26  1  0.00000000  0.50000000  0.00000000  1
  Li  Li27  1  0.00000000  0.00000000  0.50000000  1
  Li  Li28  1  0.00000000  0.00000000  0.00000000  1
  Li  Li29  1  0.00000000  0.50000000  0.50000000  1
  Li  Li30  1  0.50000000  0.00000000  0.50000000  1
  Li  Li31  1  0.50000000  0.50000000  0.00000000  1
  Mg  Mg32  1  0.62442986  0.25000000  0.25000000  1
  Mg  Mg33  1  0.37557014  0.75000000  0.25000000  1
  Mg  Mg34  1  0.25000000  0.62442986  0.25000000  1
  Mg  Mg35  1  0.25000000  0.37557014  0.75000000  1
  Mg  Mg36  1  0.25000000  0.25000000  0.62442986  1
  Mg  Mg37  1  0.75000000  0.25000000  0.37557014  1
  Mg  Mg38  1  0.62442986  0.75000000  0.75000000  1
  Mg  Mg39  1  0.37557014  0.25000000  0.75000000  1
  Mg  Mg40  1  0.25000000  0.12442986  0.75000000  1
  Mg  Mg41  1  0.25000000  0.87557014  0.25000000  1
  Mg  Mg42  1  0.25000000  0.75000000  0.12442986  1
  Mg  Mg43  1  0.75000000  0.75000000  0.87557014  1
  Mg  Mg44  1  0.12442986  0.25000000  0.75000000  1
  Mg  Mg45  1  0.87557014  0.75000000  0.75000000  1
  Mg  Mg46  1  0.75000000  0.62442986  0.75000000  1
  Mg  Mg47  1  0.75000000  0.37557014  0.25000000  1
  Mg  Mg48  1  0.75000000  0.25000000  0.12442986  1
  Mg  Mg49  1  0.25000000  0.25000000  0.87557014  1
  Mg  Mg50  1  0.12442986  0.75000000  0.25000000  1
  Mg  Mg51  1  0.87557014  0.25000000  0.25000000  1
  Mg  Mg52  1  0.75000000  0.12442986  0.25000000  1
  Mg  Mg53  1  0.75000000  0.87557014  0.75000000  1
  Mg  Mg54  1  0.75000000  0.75000000  0.62442986  1
  Mg  Mg55  1  0.25000000  0.75000000  0.37557014  1
  Mg  Mg56  1  0.75000000  0.75000000  0.75000000  1
  Mg  Mg57  1  0.75000000  0.25000000  0.25000000  1
  Mg  Mg58  1  0.25000000  0.75000000  0.25000000  1
  Mg  Mg59  1  0.25000000  0.25000000  0.75000000  1
  Mg  Mg60  1  0.25000000  0.25000000  0.25000000  1
  Mg  Mg61  1  0.25000000  0.75000000  0.75000000  1
  Mg  Mg62  1  0.75000000  0.25000000  0.75000000  1
  Mg  Mg63  1  0.75000000  0.75000000  0.25000000  1
  S  S64  1  0.87803073  0.87803073  0.30929541  1
  S  S65  1  -0.87803073  -0.87803073  0.30929541  1
  S  S66  1  -0.87803073  0.87803073  -0.30929541  1
  S  S67  1  0.87803073  -0.87803073  -0.30929541  1
  S  S68  1  0.30929541  0.87803073  0.87803073  1
  S  S69  1  0.30929541  -0.87803073  -0.87803073  1
  S  S70  1  -0.30929541  -0.87803073  0.87803073  1
  S  S71  1  -0.30929541  0.87803073  -0.87803073  1
  S  S72  1  0.87803073  0.30929541  0.87803073  1
  S  S73  1  -0.87803073  0.30929541  -0.87803073  1
  S  S74  1  0.87803073  -0.30929541  -0.87803073  1
  S  S75  1  -0.87803073  -0.30929541  0.87803073  1
  S  S76  1  0.87803073  1.37803073  0.80929541  1
  S  S77  1  -0.87803073  -0.37803073  0.80929541  1
  S  S78  1  -0.87803073  1.37803073  0.19070459  1
  S  S79  1  0.87803073  -0.37803073  0.19070459  1
  S  S80  1  0.30929541  1.37803073  1.37803073  1
  S  S81  1  0.30929541  -0.37803073  -0.37803073  1
  S  S82  1  -0.30929541  -0.37803073  1.37803073  1
  S  S83  1  -0.30929541  1.37803073  -0.37803073  1
  S  S84  1  0.87803073  0.80929541  1.37803073  1
  S  S85  1  -0.87803073  0.80929541  -0.37803073  1
  S  S86  1  0.87803073  0.19070459  -0.37803073  1
  S  S87  1  -0.87803073  0.19070459  1.37803073  1
  S  S88  1  1.37803073  0.87803073  0.80929541  1
  S  S89  1  -0.37803073  -0.87803073  0.80929541  1
  S  S90  1  -0.37803073  0.87803073  0.19070459  1
  S  S91  1  1.37803073  -0.87803073  0.19070459  1
  S  S92  1  0.80929541  0.87803073  1.37803073  1
  S  S93  1  0.80929541  -0.87803073  -0.37803073  1
  S  S94  1  0.19070459  -0.87803073  1.37803073  1
  S  S95  1  0.19070459  0.87803073  -0.37803073  1
  S  S96  1  1.37803073  0.30929541  1.37803073  1
  S  S97  1  -0.37803073  0.30929541  -0.37803073  1
  S  S98  1  1.37803073  -0.30929541  -0.37803073  1
  S  S99  1  -0.37803073  -0.30929541  1.37803073  1
  S  S100  1  1.37803073  1.37803073  0.30929541  1
  S  S101  1  -0.37803073  -0.37803073  0.30929541  1
  S  S102  1  -0.37803073  1.37803073  -0.30929541  1
  S  S103  1  1.37803073  -0.37803073  -0.30929541  1
  S  S104  1  0.80929541  1.37803073  0.87803073  1
  S  S105  1  0.80929541  -0.37803073  -0.87803073  1
  S  S106  1  0.19070459  -0.37803073  0.87803073  1
  S  S107  1  0.19070459  1.37803073  -0.87803073  1
  S  S108  1  1.37803073  0.80929541  0.87803073  1
  S  S109  1  -0.37803073  0.80929541  -0.87803073  1
  S  S110  1  1.37803073  0.19070459  -0.87803073  1
  S  S111  1  -0.37803073  0.19070459  0.87803073  1
