# generated using pymatgen
data_LiBr
_symmetry_space_group_name_H-M   'P 1'
_cell_length_a   15.25600329
_cell_length_b   15.25600329
_cell_length_c   3.89764826
_cell_angle_alpha   90.00000000
_cell_angle_beta   90.00000000
_cell_angle_gamma   90.00000000
_symmetry_Int_Tables_number   1
_chemical_formula_structural   LiBr
_chemical_formula_sum   'Li32 Br32'
_cell_volume   907.16062386
_cell_formula_units_Z   32
loop_
 _symmetry_equiv_pos_site_id
 _symmetry_equiv_pos_as_xyz
  1  'x, y, z'
loop_
 _atom_site_type_symbol
 _atom_site_label
 _atom_site_symmetry_multiplicity
 _atom_site_fract_x
 _atom_site_fract_y
 _atom_site_fract_z
 _atom_site_occupancy
  Br  Br0  1  0.55215874  0.80215874  0.12500000  1
  Br  Br1  1  0.94784126  0.19784126  0.62500000  1
  Br  Br2  1  0.44784126  0.30215874  0.37500000  1
  Br  Br3  1  0.05215874  0.69784126  0.87500000  1
  Br  Br4  1  0.44784126  0.19784126  0.87500000  1
  Br  Br5  1  0.05215874  0.80215874  0.37500000  1
  Br  Br6  1  0.55215874  0.69784126  0.62500000  1
  Br  Br7  1  0.94784126  0.30215874  0.12500000  1
  Br  Br8  1  0.05215874  0.30215874  0.62500000  1
  Br  Br9  1  0.44784126  0.69784126  0.12500000  1
  Br  Br10  1  0.94784126  0.80215874  0.87500000  1
  Br  Br11  1  0.55215874  0.19784126  0.37500000  1
  Br  Br12  1  0.94784126  0.69784126  0.37500000  1
  Br  Br13  1  0.55215874  0.30215874  0.87500000  1
  Br  Br14  1  0.05215874  0.19784126  0.12500000  1
  Br  Br15  1  0.44784126  0.80215874  0.62500000  1
  Br  Br16  1  0.49314033  0.00000000  0.25000000  1
  Br  Br17  1  0.00685967  0.00000000  0.75000000  1
  Br  Br18  1  0.25000000  0.24314033  0.50000000  1
  Br  Br19  1  0.25000000  0.75685967  0.00000000  1
  Br  Br20  1  0.50685967  0.00000000  0.75000000  1
  Br  Br21  1  0.99314033  0.00000000  0.25000000  1
  Br  Br22  1  0.75000000  0.75685967  0.50000000  1
  Br  Br23  1  0.75000000  0.24314033  0.00000000  1
  Br  Br24  1  0.99314033  0.50000000  0.75000000  1
  Br  Br25  1  0.50685967  0.50000000  0.25000000  1
  Br  Br26  1  0.75000000  0.74314033  0.00000000  1
  Br  Br27  1  0.75000000  0.25685967  0.50000000  1
  Br  Br28  1  0.00685967  0.50000000  0.25000000  1
  Br  Br29  1  0.49314033  0.50000000  0.75000000  1
  Br  Br30  1  0.25000000  0.25685967  0.00000000  1
  Br  Br31  1  0.25000000  0.74314033  0.50000000  1
  Li  Li32  1  0.46301794  0.10514385  0.46218335  1
  Li  Li33  1  0.03698206  -0.10514385  0.96218335  1
  Li  Li34  1  0.14485615  1.21301794  0.71218335  1
  Li  Li35  1  0.35514385  -0.21301794  1.21218335  1
  Li  Li36  1  0.03698206  0.10514385  -0.46218335  1
  Li  Li37  1  0.46301794  -0.10514385  0.03781665  1
  Li  Li38  1  0.35514385  1.21301794  0.28781665  1
  Li  Li39  1  0.14485615  -0.21301794  -0.21218335  1
  Li  Li40  1  -0.46301794  -0.10514385  -0.46218335  1
  Li  Li41  1  0.96301794  0.10514385  0.03781665  1
  Li  Li42  1  0.85514385  -0.21301794  0.28781665  1
  Li  Li43  1  0.64485615  1.21301794  -0.21218335  1
  Li  Li44  1  0.96301794  -0.10514385  0.46218335  1
  Li  Li45  1  -0.46301794  0.10514385  0.96218335  1
  Li  Li46  1  0.64485615  -0.21301794  0.71218335  1
  Li  Li47  1  0.85514385  1.21301794  1.21218335  1
  Li  Li48  1  0.96301794  0.60514385  0.96218335  1
  Li  Li49  1  0.53698206  0.39485615  1.46218335  1
  Li  Li50  1  0.64485615  1.71301794  1.21218335  1
  Li  Li51  1  0.85514385  0.28698206  1.71218335  1
  Li  Li52  1  0.53698206  0.60514385  0.03781665  1
  Li  Li53  1  0.96301794  0.39485615  0.53781665  1
  Li  Li54  1  0.85514385  1.71301794  0.78781665  1
  Li  Li55  1  0.64485615  0.28698206  0.28781665  1
  Li  Li56  1  0.03698206  0.39485615  0.03781665  1
  Li  Li57  1  1.46301794  0.60514385  0.53781665  1
  Li  Li58  1  1.35514385  0.28698206  0.78781665  1
  Li  Li59  1  1.14485615  1.71301794  0.28781665  1
  Li  Li60  1  1.46301794  0.39485615  0.96218335  1
  Li  Li61  1  0.03698206  0.60514385  1.46218335  1
  Li  Li62  1  1.14485615  0.28698206  1.21218335  1
  Li  Li63  1  1.35514385  1.71301794  1.71218335  1
