# generated using pymatgen
data_Li6SeO2
_symmetry_space_group_name_H-M   'P 1'
_cell_length_a   12.78816685
_cell_length_b   12.78816685
_cell_length_c   8.19591188
_cell_angle_alpha   90.00000000
_cell_angle_beta   90.00000000
_cell_angle_gamma   120.00000000
_symmetry_Int_Tables_number   1
_chemical_formula_structural   Li6SeO2
_chemical_formula_sum   'Li36 Se6 O12'
_cell_volume   1160.76552234
_cell_formula_units_Z   6
loop_
 _symmetry_equiv_pos_site_id
 _symmetry_equiv_pos_as_xyz
  1  'x, y, z'
loop_
 _atom_site_type_symbol
 _atom_site_label
 _atom_site_symmetry_multiplicity
 _atom_site_fract_x
 _atom_site_fract_y
 _atom_site_fract_z
 _atom_site_occupancy
  Li  Li0  1  0.75456276  0.72103469  0.21276437  1
  Li  Li1  1  -0.72103469  0.03352807  0.21276437  1
  Li  Li2  1  -0.03352807  -0.75456276  0.21276437  1
  Li  Li3  1  0.72103469  0.75456276  -0.21276437  1
  Li  Li4  1  0.03352807  -0.72103469  -0.21276437  1
  Li  Li5  1  -0.75456276  -0.03352807  -0.21276437  1
  Li  Li6  1  -0.75456276  -0.72103469  -0.21276437  1
  Li  Li7  1  0.72103469  -0.03352807  -0.21276437  1
  Li  Li8  1  0.03352807  0.75456276  -0.21276437  1
  Li  Li9  1  -0.72103469  -0.75456276  0.21276437  1
  Li  Li10  1  -0.03352807  0.72103469  0.21276437  1
  Li  Li11  1  0.75456276  0.03352807  0.21276437  1
  Li  Li12  1  1.42122943  1.05436803  0.54609771  1
  Li  Li13  1  -0.05436803  0.36686140  0.54609771  1
  Li  Li14  1  0.63313860  -0.42122943  0.54609771  1
  Li  Li15  1  1.38770136  1.08789610  0.12056896  1
  Li  Li16  1  0.70019474  -0.38770136  0.12056896  1
  Li  Li17  1  -0.08789610  0.29980526  0.12056896  1
  Li  Li18  1  -0.08789610  -0.38770136  0.12056896  1
  Li  Li19  1  1.38770136  0.29980526  0.12056896  1
  Li  Li20  1  0.70019474  1.08789610  0.12056896  1
  Li  Li21  1  -0.05436803  -0.42122943  0.54609771  1
  Li  Li22  1  0.63313860  1.05436803  0.54609771  1
  Li  Li23  1  1.42122943  0.36686140  0.54609771  1
  Li  Li24  1  1.08789610  1.38770136  0.87943104  1
  Li  Li25  1  -0.38770136  0.70019474  0.87943104  1
  Li  Li26  1  0.29980526  -0.08789610  0.87943104  1
  Li  Li27  1  1.05436803  1.42122943  0.45390229  1
  Li  Li28  1  0.36686140  -0.05436803  0.45390229  1
  Li  Li29  1  -0.42122943  0.63313860  0.45390229  1
  Li  Li30  1  -0.42122943  -0.05436803  0.45390229  1
  Li  Li31  1  1.05436803  0.63313860  0.45390229  1
  Li  Li32  1  0.36686140  1.42122943  0.45390229  1
  Li  Li33  1  -0.38770136  -0.08789610  0.87943104  1
  Li  Li34  1  0.29980526  1.38770136  0.87943104  1
  Li  Li35  1  1.08789610  0.70019474  0.87943104  1
  O  O36  1  0.50000000  0.00000000  0.50000000  1
  O  O37  1  0.00000000  0.50000000  0.50000000  1
  O  O38  1  0.50000000  0.50000000  0.50000000  1
  O  O39  1  0.16666667  0.33333333  0.83333333  1
  O  O40  1  0.66666667  0.83333333  0.83333333  1
  O  O41  1  0.16666667  0.83333333  0.83333333  1
  O  O42  1  0.83333333  0.66666667  0.16666667  1
  O  O43  1  0.33333333  0.16666667  0.16666667  1
  O  O44  1  0.83333333  0.16666667  0.16666667  1
  O  O45  1  0.00000000  0.00000000  0.50000000  1
  O  O46  1  0.66666667  0.33333333  0.83333333  1
  O  O47  1  0.33333333  0.66666667  0.16666667  1
  Se  Se48  1  0.00000000  0.00000000  0.84943369  1
  Se  Se49  1  0.00000000  0.00000000  0.15056631  1
  Se  Se50  1  0.66666667  0.33333333  0.18276703  1
  Se  Se51  1  0.66666667  0.33333333  0.48389964  1
  Se  Se52  1  0.33333333  0.66666667  0.51610036  1
  Se  Se53  1  0.33333333  0.66666667  0.81723297  1
