# generated using pymatgen
data_Li2Te
_symmetry_space_group_name_H-M   'P 1'
_cell_length_a   8.63423401
_cell_length_b   8.63423401
_cell_length_c   8.63423401
_cell_angle_alpha   90.00000000
_cell_angle_beta   90.00000000
_cell_angle_gamma   90.00000000
_symmetry_Int_Tables_number   1
_chemical_formula_structural   Li2Te
_chemical_formula_sum   'Li24 Te12'
_cell_volume   643.68211930
_cell_formula_units_Z   12
loop_
 _symmetry_equiv_pos_site_id
 _symmetry_equiv_pos_as_xyz
  1  'x, y, z'
loop_
 _atom_site_type_symbol
 _atom_site_label
 _atom_site_symmetry_multiplicity
 _atom_site_fract_x
 _atom_site_fract_y
 _atom_site_fract_z
 _atom_site_occupancy
  Li  Li0  1  0.12500000  0.12500000  0.12500000  1
  Li  Li1  1  0.37500000  0.87500000  0.62500000  1
  Li  Li2  1  0.87500000  0.62500000  0.37500000  1
  Li  Li3  1  0.62500000  0.37500000  0.87500000  1
  Li  Li4  1  0.62500000  0.62500000  0.62500000  1
  Li  Li5  1  0.87500000  0.37500000  0.12500000  1
  Li  Li6  1  0.37500000  0.12500000  0.87500000  1
  Li  Li7  1  0.12500000  0.87500000  0.37500000  1
  Li  Li8  1  0.75492589  0.75492589  0.75492589  1
  Li  Li9  1  -0.25492589  -0.75492589  1.25492589  1
  Li  Li10  1  -0.75492589  1.25492589  -0.25492589  1
  Li  Li11  1  1.25492589  -0.25492589  -0.75492589  1
  Li  Li12  1  1.50492589  1.00492589  -0.50492589  1
  Li  Li13  1  -0.00492589  -0.00492589  -0.00492589  1
  Li  Li14  1  1.00492589  -0.50492589  1.50492589  1
  Li  Li15  1  -0.50492589  1.50492589  1.00492589  1
  Li  Li16  1  1.25492589  1.25492589  1.25492589  1
  Li  Li17  1  0.24507411  -0.25492589  1.75492589  1
  Li  Li18  1  -0.25492589  1.75492589  0.24507411  1
  Li  Li19  1  1.75492589  0.24507411  -0.25492589  1
  Li  Li20  1  2.00492589  1.50492589  -0.00492589  1
  Li  Li21  1  0.49507411  0.49507411  0.49507411  1
  Li  Li22  1  1.50492589  -0.00492589  2.00492589  1
  Li  Li23  1  -0.00492589  2.00492589  1.50492589  1
  Te  Te24  1  0.62500000  0.00000000  0.25000000  1
  Te  Te25  1  0.87500000  0.00000000  0.75000000  1
  Te  Te26  1  0.25000000  0.62500000  0.00000000  1
  Te  Te27  1  0.75000000  0.87500000  0.00000000  1
  Te  Te28  1  0.00000000  0.25000000  0.62500000  1
  Te  Te29  1  0.00000000  0.75000000  0.87500000  1
  Te  Te30  1  0.12500000  0.50000000  0.75000000  1
  Te  Te31  1  0.37500000  0.50000000  0.25000000  1
  Te  Te32  1  0.75000000  0.12500000  0.50000000  1
  Te  Te33  1  0.25000000  0.37500000  0.50000000  1
  Te  Te34  1  0.50000000  0.75000000  0.12500000  1
  Te  Te35  1  0.50000000  0.25000000  0.37500000  1
