# generated using pymatgen
data_Li4TiSe4
_symmetry_space_group_name_H-M   'P 1'
_cell_length_a   5.03310437
_cell_length_b   5.03310437
_cell_length_c   21.66795092
_cell_angle_alpha   90.00000000
_cell_angle_beta   90.00000000
_cell_angle_gamma   120.00000000
_symmetry_Int_Tables_number   1
_chemical_formula_structural   Li4TiSe4
_chemical_formula_sum   'Li12 Ti3 Se12'
_cell_volume   475.35749674
_cell_formula_units_Z   3
loop_
 _symmetry_equiv_pos_site_id
 _symmetry_equiv_pos_as_xyz
  1  'x, y, z'
loop_
 _atom_site_type_symbol
 _atom_site_label
 _atom_site_symmetry_multiplicity
 _atom_site_fract_x
 _atom_site_fract_y
 _atom_site_fract_z
 _atom_site_occupancy
  Li  Li0  1  0.84676726  0.62523467  0.50000000  1
  Li  Li1  1  0.37476533  0.22153259  0.50000000  1
  Li  Li2  1  0.77846741  0.15323274  0.50000000  1
  Li  Li3  1  0.62523467  0.84676726  0.50000000  1
  Li  Li4  1  0.22153259  0.37476533  0.50000000  1
  Li  Li5  1  0.15323274  0.77846741  0.50000000  1
  Li  Li6  1  0.33333333  0.66666667  -0.00000000  1
  Li  Li7  1  0.66666667  0.33333333  -0.00000000  1
  Li  Li8  1  0.33333333  0.66666667  0.41775319  1
  Li  Li9  1  0.33333333  0.66666667  0.58224681  1
  Li  Li10  1  0.66666667  0.33333333  0.58224681  1
  Li  Li11  1  0.66666667  0.33333333  0.41775319  1
  Se  Se12  1  0.39874128  0.00000000  0.72189722  1
  Se  Se13  1  0.00000000  0.39874128  0.72189722  1
  Se  Se14  1  -0.39874128  -0.39874128  0.72189722  1
  Se  Se15  1  0.39874128  0.00000000  -0.72189722  1
  Se  Se16  1  0.00000000  0.39874128  -0.72189722  1
  Se  Se17  1  -0.39874128  -0.39874128  -0.72189722  1
  Se  Se18  1  0.33333333  0.66666667  0.50000000  1
  Se  Se19  1  0.66666667  0.33333333  0.50000000  1
  Se  Se20  1  0.33333333  0.66666667  0.79033821  1
  Se  Se21  1  0.33333333  0.66666667  0.20966179  1
  Se  Se22  1  0.66666667  0.33333333  0.20966179  1
  Se  Se23  1  0.66666667  0.33333333  0.79033821  1
  Ti  Ti24  1  0.69375010  0.00000000  -0.00000000  1
  Ti  Ti25  1  0.00000000  0.69375010  0.00000000  1
  Ti  Ti26  1  0.30624990  0.30624990  0.00000000  1
