# generated using pymatgen
data_LiLa2Al(SiO)3
_symmetry_space_group_name_H-M   'P 1'
_cell_length_a   12.05051695
_cell_length_b   10.15797229
_cell_length_c   11.69723063
_cell_angle_alpha   90.00000000
_cell_angle_beta   90.00000000
_cell_angle_gamma   90.00000000
_symmetry_Int_Tables_number   1
_chemical_formula_structural   LiLa2Al(SiO)3
_chemical_formula_sum   'Li1 La2 Al1 Si3 O3'
_cell_volume   1431.84416658
_cell_formula_units_Z   1
loop_
 _symmetry_equiv_pos_site_id
 _symmetry_equiv_pos_as_xyz
  1  'x, y, z'
loop_
 _atom_site_type_symbol
 _atom_site_label
 _atom_site_symmetry_multiplicity
 _atom_site_fract_x
 _atom_site_fract_y
 _atom_site_fract_z
 _atom_site_occupancy
  Li  Li0  1  0.12500000  0.00000000  0.25000000  1
  La  La1  1  0.00000000  0.00000000  0.00000000  1
  La  La2  1  0.37500000  0.00000000  0.25000000  1
  Al  Al3  1  0.25000000  0.25000000  0.25000000  1
  Si  Si4  1  0.00000000  0.25000000  0.12500000  1
  Si  Si5  1  0.28388966  0.51165682  0.53912279  1
  Si  Si6  1  0.82710331  0.82538281  0.36418445  1
  O  O7  1  0.01754359  0.45949436  0.77223120  1
  O  O8  1  0.81809994  0.11583162  0.02323915  1
  O  O9  1  0.09241216  0.22813730  0.09231671  1
