# generated using pymatgen
data_LiF
_symmetry_space_group_name_H-M   'P 1'
_cell_length_a   15.57067412
_cell_length_b   15.57067412
_cell_length_c   14.34213977
_cell_angle_alpha   90.00000000
_cell_angle_beta   90.00000000
_cell_angle_gamma   120.00000000
_symmetry_Int_Tables_number   1
_chemical_formula_structural   LiF
_chemical_formula_sum   'Li108 F108'
_cell_volume   3011.33736458
_cell_formula_units_Z   108
loop_
 _symmetry_equiv_pos_site_id
 _symmetry_equiv_pos_as_xyz
  1  'x, y, z'
loop_
 _atom_site_type_symbol
 _atom_site_label
 _atom_site_symmetry_multiplicity
 _atom_site_fract_x
 _atom_site_fract_y
 _atom_site_fract_z
 _atom_site_occupancy
  F  F0  1  0.50000000  0.00000000  0.00000000  1
  F  F1  1  0.00000000  0.50000000  0.00000000  1
  F  F2  1  0.50000000  0.50000000  0.00000000  1
  F  F3  1  0.00000000  0.50000000  0.50000000  1
  F  F4  1  0.50000000  0.00000000  0.50000000  1
  F  F5  1  0.50000000  0.50000000  0.50000000  1
  F  F6  1  0.16666667  0.33333333  0.33333333  1
  F  F7  1  0.66666667  0.83333333  0.33333333  1
  F  F8  1  0.16666667  0.83333333  0.33333333  1
  F  F9  1  0.66666667  0.83333333  0.83333333  1
  F  F10  1  0.16666667  0.33333333  0.83333333  1
  F  F11  1  0.16666667  0.83333333  0.83333333  1
  F  F12  1  0.83333333  0.66666667  0.66666667  1
  F  F13  1  0.33333333  0.16666667  0.66666667  1
  F  F14  1  0.83333333  0.16666667  0.66666667  1
  F  F15  1  0.33333333  0.16666667  0.16666667  1
  F  F16  1  0.83333333  0.66666667  0.16666667  1
  F  F17  1  0.83333333  0.16666667  0.16666667  1
  F  F18  1  0.93921085  0.58383180  0.55331778  1
  F  F19  1  -0.58383180  0.35537904  0.55331778  1
  F  F20  1  -0.35537904  -0.93921085  0.55331778  1
  F  F21  1  0.58383180  0.93921085  -0.05331778  1
  F  F22  1  0.35537904  -0.58383180  -0.05331778  1
  F  F23  1  -0.93921085  -0.35537904  -0.05331778  1
  F  F24  1  -0.93921085  -0.58383180  -0.55331778  1
  F  F25  1  0.58383180  -0.35537904  -0.55331778  1
  F  F26  1  0.35537904  0.93921085  -0.55331778  1
  F  F27  1  -0.58383180  -0.93921085  1.05331778  1
  F  F28  1  -0.35537904  0.58383180  1.05331778  1
  F  F29  1  0.93921085  0.35537904  1.05331778  1
  F  F30  1  1.60587751  0.91716513  0.88665111  1
  F  F31  1  0.08283487  0.68871238  0.88665111  1
  F  F32  1  0.31128762  -0.60587751  0.88665111  1
  F  F33  1  1.25049847  1.27254418  0.28001555  1
  F  F34  1  1.02204571  -0.25049847  0.28001555  1
  F  F35  1  -0.27254418  -0.02204571  0.28001555  1
  F  F36  1  -0.27254418  -0.25049847  -0.21998445  1
  F  F37  1  1.25049847  -0.02204571  -0.21998445  1
  F  F38  1  1.02204571  1.27254418  -0.21998445  1
  F  F39  1  0.08283487  -0.60587751  1.38665111  1
  F  F40  1  0.31128762  0.91716513  1.38665111  1
  F  F41  1  1.60587751  0.68871238  1.38665111  1
  F  F42  1  1.27254418  1.25049847  1.21998445  1
  F  F43  1  -0.25049847  1.02204571  1.21998445  1
  F  F44  1  -0.02204571  -0.27254418  1.21998445  1
  F  F45  1  0.91716513  1.60587751  0.61334889  1
  F  F46  1  0.68871238  0.08283487  0.61334889  1
  F  F47  1  -0.60587751  0.31128762  0.61334889  1
  F  F48  1  -0.60587751  0.08283487  0.11334889  1
  F  F49  1  0.91716513  0.31128762  0.11334889  1
  F  F50  1  0.68871238  1.60587751  0.11334889  1
  F  F51  1  -0.25049847  -0.27254418  1.71998445  1
  F  F52  1  -0.02204571  1.25049847  1.71998445  1
  F  F53  1  1.27254418  1.02204571  1.71998445  1
  F  F54  1  0.80228527  0.00000000  0.25000000  1
  F  F55  1  0.00000000  0.80228527  0.25000000  1
  F  F56  1  0.19771473  0.19771473  0.25000000  1
  F  F57  1  0.19771473  0.00000000  0.75000000  1
  F  F58  1  0.00000000  0.19771473  0.75000000  1
  F  F59  1  0.80228527  0.80228527  0.75000000  1
  F  F60  1  0.46895194  0.33333333  0.58333333  1
  F  F61  1  0.66666667  0.13561861  0.58333333  1
  F  F62  1  0.86438139  0.53104806  0.58333333  1
  F  F63  1  0.86438139  0.33333333  0.08333333  1
  F  F64  1  0.66666667  0.53104806  0.08333333  1
  F  F65  1  0.46895194  0.13561861  0.08333333  1
  F  F66  1  0.13561861  0.66666667  0.91666667  1
  F  F67  1  0.33333333  0.46895194  0.91666667  1
  F  F68  1  0.53104806  0.86438139  0.91666667  1
  F  F69  1  0.53104806  0.66666667  0.41666667  1
  F  F70  1  0.33333333  0.86438139  0.41666667  1
  F  F71  1  0.13561861  0.46895194  0.41666667  1
  F  F72  1  0.28903605  0.97561139  0.21966753  1
  F  F73  1  0.02438861  0.31342466  0.21966753  1
  F  F74  1  0.68657534  0.71096395  0.21966753  1
  F  F75  1  0.97561139  0.28903605  0.28033247  1
  F  F76  1  0.31342466  0.02438861  0.28033247  1
  F  F77  1  0.71096395  0.68657534  0.28033247  1
  F  F78  1  0.71096395  0.02438861  0.78033247  1
  F  F79  1  0.97561139  0.68657534  0.78033247  1
  F  F80  1  0.31342466  0.28903605  0.78033247  1
  F  F81  1  0.02438861  0.71096395  0.71966753  1
  F  F82  1  0.68657534  0.97561139  0.71966753  1
  F  F83  1  0.28903605  0.31342466  0.71966753  1
  F  F84  1  0.95570271  0.30894472  0.55300086  1
  F  F85  1  0.69105528  0.64675799  0.55300086  1
  F  F86  1  0.35324201  0.04429729  0.55300086  1
  F  F87  1  0.64227805  0.62236938  0.61366580  1
  F  F88  1  0.98009133  0.35772195  0.61366580  1
  F  F89  1  0.37763062  0.01990867  0.61366580  1
  F  F90  1  0.37763062  0.35772195  0.11366580  1
  F  F91  1  0.64227805  0.01990867  0.11366580  1
  F  F92  1  0.98009133  0.62236938  0.11366580  1
  F  F93  1  0.69105528  0.04429729  0.05300086  1
  F  F94  1  0.35324201  0.30894472  0.05300086  1
  F  F95  1  0.95570271  0.64675799  0.05300086  1
  F  F96  1  0.62236938  0.64227805  0.88633420  1
  F  F97  1  0.35772195  0.98009133  0.88633420  1
  F  F98  1  0.01990867  0.37763062  0.88633420  1
  F  F99  1  0.30894472  0.95570271  0.94699914  1
  F  F100  1  0.64675799  0.69105528  0.94699914  1
  F  F101  1  0.04429729  0.35324201  0.94699914  1
  F  F102  1  0.04429729  0.69105528  0.44699914  1
  F  F103  1  0.30894472  0.35324201  0.44699914  1
  F  F104  1  0.64675799  0.95570271  0.44699914  1
  F  F105  1  0.35772195  0.37763062  0.38633420  1
  F  F106  1  0.01990867  0.64227805  0.38633420  1
  F  F107  1  0.62236938  0.98009133  0.38633420  1
  Li  Li108  1  0.42885302  0.11922160  0.96803772  1
  Li  Li109  1  0.88077840  0.30963142  0.96803772  1
  Li  Li110  1  0.69036858  0.57114698  0.96803772  1
  Li  Li111  1  0.11922160  0.42885302  0.53196228  1
  Li  Li112  1  0.30963142  0.88077840  0.53196228  1
  Li  Li113  1  0.57114698  0.69036858  0.53196228  1
  Li  Li114  1  0.57114698  0.88077840  0.03196228  1
  Li  Li115  1  0.11922160  0.69036858  0.03196228  1
  Li  Li116  1  0.30963142  0.42885302  0.03196228  1
  Li  Li117  1  0.88077840  0.57114698  0.46803772  1
  Li  Li118  1  0.69036858  0.11922160  0.46803772  1
  Li  Li119  1  0.42885302  0.30963142  0.46803772  1
  Li  Li120  1  0.09551968  0.45255493  0.30137105  1
  Li  Li121  1  0.54744507  0.64296475  0.30137105  1
  Li  Li122  1  0.35703525  0.90448032  0.30137105  1
  Li  Li123  1  0.78588827  0.76218635  0.86529561  1
  Li  Li124  1  0.97629808  0.21411173  0.86529561  1
  Li  Li125  1  0.23781365  0.02370192  0.86529561  1
  Li  Li126  1  0.23781365  0.21411173  0.36529561  1
  Li  Li127  1  0.78588827  0.02370192  0.36529561  1
  Li  Li128  1  0.97629808  0.76218635  0.36529561  1
  Li  Li129  1  0.54744507  0.90448032  0.80137105  1
  Li  Li130  1  0.35703525  0.45255493  0.80137105  1
  Li  Li131  1  0.09551968  0.64296475  0.80137105  1
  Li  Li132  1  0.76218635  0.78588827  0.63470439  1
  Li  Li133  1  0.21411173  0.97629808  0.63470439  1
  Li  Li134  1  0.02370192  0.23781365  0.63470439  1
  Li  Li135  1  0.45255493  0.09551968  0.19862895  1
  Li  Li136  1  0.64296475  0.54744507  0.19862895  1
  Li  Li137  1  0.90448032  0.35703525  0.19862895  1
  Li  Li138  1  0.90448032  0.54744507  0.69862895  1
  Li  Li139  1  0.45255493  0.35703525  0.69862895  1
  Li  Li140  1  0.64296475  0.09551968  0.69862895  1
  Li  Li141  1  0.21411173  0.23781365  0.13470439  1
  Li  Li142  1  0.02370192  0.78588827  0.13470439  1
  Li  Li143  1  0.76218635  0.97629808  0.13470439  1
  Li  Li144  1  0.84656569  0.08214879  0.52719319  1
  Li  Li145  1  0.91785121  0.76441691  0.52719319  1
  Li  Li146  1  0.23558309  0.15343431  0.52719319  1
  Li  Li147  1  0.08214879  0.84656569  0.97280681  1
  Li  Li148  1  0.76441691  0.91785121  0.97280681  1
  Li  Li149  1  0.15343431  0.23558309  0.97280681  1
  Li  Li150  1  0.15343431  0.91785121  0.47280681  1
  Li  Li151  1  0.08214879  0.23558309  0.47280681  1
  Li  Li152  1  0.76441691  0.84656569  0.47280681  1
  Li  Li153  1  0.91785121  0.15343431  0.02719319  1
  Li  Li154  1  0.23558309  0.08214879  0.02719319  1
  Li  Li155  1  0.84656569  0.76441691  0.02719319  1
  Li  Li156  1  0.51323236  0.41548212  0.86052652  1
  Li  Li157  1  0.58451788  0.09775024  0.86052652  1
  Li  Li158  1  0.90224976  0.48676764  0.86052652  1
  Li  Li159  1  0.74881545  0.17989903  0.30614015  1
  Li  Li160  1  0.43108357  0.25118455  0.30614015  1
  Li  Li161  1  0.82010097  0.56891643  0.30614015  1
  Li  Li162  1  0.82010097  0.25118455  0.80614015  1
  Li  Li163  1  0.74881545  0.56891643  0.80614015  1
  Li  Li164  1  0.43108357  0.17989903  0.80614015  1
  Li  Li165  1  0.58451788  0.48676764  0.36052652  1
  Li  Li166  1  0.90224976  0.41548212  0.36052652  1
  Li  Li167  1  0.51323236  0.09775024  0.36052652  1
  Li  Li168  1  0.17989903  0.74881545  0.19385985  1
  Li  Li169  1  0.25118455  0.43108357  0.19385985  1
  Li  Li170  1  0.56891643  0.82010097  0.19385985  1
  Li  Li171  1  0.41548212  0.51323236  0.63947348  1
  Li  Li172  1  0.09775024  0.58451788  0.63947348  1
  Li  Li173  1  0.48676764  0.90224976  0.63947348  1
  Li  Li174  1  0.48676764  0.58451788  0.13947348  1
  Li  Li175  1  0.41548212  0.90224976  0.13947348  1
  Li  Li176  1  0.09775024  0.51323236  0.13947348  1
  Li  Li177  1  0.25118455  0.82010097  0.69385985  1
  Li  Li178  1  0.56891643  0.74881545  0.69385985  1
  Li  Li179  1  0.17989903  0.43108357  0.69385985  1
  Li  Li180  1  0.85061098  0.55150643  0.87130672  1
  Li  Li181  1  0.44849357  0.29910455  0.87130672  1
  Li  Li182  1  0.70089545  0.14938902  0.87130672  1
  Li  Li183  1  0.55150643  0.85061098  0.62869328  1
  Li  Li184  1  0.29910455  0.44849357  0.62869328  1
  Li  Li185  1  0.14938902  0.70089545  0.62869328  1
  Li  Li186  1  0.14938902  0.44849357  0.12869328  1
  Li  Li187  1  0.55150643  0.70089545  0.12869328  1
  Li  Li188  1  0.29910455  0.85061098  0.12869328  1
  Li  Li189  1  0.44849357  0.14938902  0.37130672  1
  Li  Li190  1  0.70089545  0.55150643  0.37130672  1
  Li  Li191  1  0.85061098  0.29910455  0.37130672  1
  Li  Li192  1  0.51727765  0.88483976  0.20464006  1
  Li  Li193  1  0.11516024  0.63243789  0.20464006  1
  Li  Li194  1  0.36756211  0.48272235  0.20464006  1
  Li  Li195  1  0.21817309  0.18394431  0.96202661  1
  Li  Li196  1  0.96577122  0.78182691  0.96202661  1
  Li  Li197  1  0.81605569  0.03422878  0.96202661  1
  Li  Li198  1  0.81605569  0.78182691  0.46202661  1
  Li  Li199  1  0.21817309  0.03422878  0.46202661  1
  Li  Li200  1  0.96577122  0.18394431  0.46202661  1
  Li  Li201  1  0.11516024  0.48272235  0.70464006  1
  Li  Li202  1  0.36756211  0.88483976  0.70464006  1
  Li  Li203  1  0.51727765  0.63243789  0.70464006  1
  Li  Li204  1  0.18394431  0.21817309  0.53797339  1
  Li  Li205  1  0.78182691  0.96577122  0.53797339  1
  Li  Li206  1  0.03422878  0.81605569  0.53797339  1
  Li  Li207  1  0.88483976  0.51727765  0.29535994  1
  Li  Li208  1  0.63243789  0.11516024  0.29535994  1
  Li  Li209  1  0.48272235  0.36756211  0.29535994  1
  Li  Li210  1  0.48272235  0.11516024  0.79535994  1
  Li  Li211  1  0.88483976  0.36756211  0.79535994  1
  Li  Li212  1  0.63243789  0.51727765  0.79535994  1
  Li  Li213  1  0.78182691  0.81605569  0.03797339  1
  Li  Li214  1  0.03422878  0.21817309  0.03797339  1
  Li  Li215  1  0.18394431  0.96577122  0.03797339  1
