# generated using pymatgen
data_SrLi4CaTe2SeCl2
_symmetry_space_group_name_H-M   'P 1'
_cell_length_a   15.38611058
_cell_length_b   15.38611058
_cell_length_c   28.66500848
_cell_angle_alpha   90.00000000
_cell_angle_beta   90.00000000
_cell_angle_gamma   120.00000000
_symmetry_Int_Tables_number   1
_chemical_formula_structural   SrLi4CaTe2SeCl2
_chemical_formula_sum   'Sr24 Li96 Ca24 Te48 Se24 Cl48'
_cell_volume   5876.79315356
_cell_formula_units_Z   24
loop_
 _symmetry_equiv_pos_site_id
 _symmetry_equiv_pos_as_xyz
  1  'x, y, z'
loop_
 _atom_site_type_symbol
 _atom_site_label
 _atom_site_symmetry_multiplicity
 _atom_site_fract_x
 _atom_site_fract_y
 _atom_site_fract_z
 _atom_site_occupancy
  Ca  Ca0  1  0.34751246  0.91725611  0.10205606  1
  Ca  Ca1  1  0.08274389  0.43025634  0.10205606  1
  Ca  Ca2  1  0.56974366  0.65248754  0.10205606  1
  Ca  Ca3  1  0.65248754  0.08274389  0.60205606  1
  Ca  Ca4  1  0.91725611  0.56974366  0.60205606  1
  Ca  Ca5  1  0.43025634  0.34751246  0.60205606  1
  Ca  Ca6  1  0.91725611  0.34751246  0.89794394  1
  Ca  Ca7  1  0.43025634  0.08274389  0.89794394  1
  Ca  Ca8  1  0.65248754  0.56974366  0.89794394  1
  Ca  Ca9  1  0.08274389  0.65248754  0.39794394  1
  Ca  Ca10  1  0.56974366  0.91725611  0.39794394  1
  Ca  Ca11  1  0.34751246  0.43025634  0.39794394  1
  Ca  Ca12  1  0.65248754  0.08274389  0.89794394  1
  Ca  Ca13  1  0.91725611  0.56974366  0.89794394  1
  Ca  Ca14  1  0.43025634  0.34751246  0.89794394  1
  Ca  Ca15  1  0.34751246  0.91725611  0.39794394  1
  Ca  Ca16  1  0.08274389  0.43025634  0.39794394  1
  Ca  Ca17  1  0.56974366  0.65248754  0.39794394  1
  Ca  Ca18  1  0.08274389  0.65248754  0.10205606  1
  Ca  Ca19  1  0.56974366  0.91725611  0.10205606  1
  Ca  Ca20  1  0.34751246  0.43025634  0.10205606  1
  Ca  Ca21  1  0.91725611  0.34751246  0.60205606  1
  Ca  Ca22  1  0.43025634  0.08274389  0.60205606  1
  Ca  Ca23  1  0.65248754  0.56974366  0.60205606  1
  Cl  Cl24  1  0.95812097  0.91624193  0.61651079  1
  Cl  Cl25  1  0.08375807  0.04187903  0.61651079  1
  Cl  Cl26  1  0.95812097  0.04187903  0.61651079  1
  Cl  Cl27  1  0.04187903  0.08375807  0.11651079  1
  Cl  Cl28  1  0.91624193  0.95812097  0.11651079  1
  Cl  Cl29  1  0.04187903  0.95812097  0.11651079  1
  Cl  Cl30  1  0.91624193  0.95812097  0.38348921  1
  Cl  Cl31  1  0.04187903  0.08375807  0.38348921  1
  Cl  Cl32  1  0.04187903  0.95812097  0.38348921  1
  Cl  Cl33  1  0.08375807  0.04187903  0.88348921  1
  Cl  Cl34  1  0.95812097  0.91624193  0.88348921  1
  Cl  Cl35  1  0.95812097  0.04187903  0.88348921  1
  Cl  Cl36  1  0.33333333  0.66666667  0.82056116  1
  Cl  Cl37  1  0.66666667  0.33333333  0.32056116  1
  Cl  Cl38  1  0.66666667  0.33333333  0.17943884  1
  Cl  Cl39  1  0.33333333  0.66666667  0.67943884  1
  Cl  Cl40  1  0.44813730  0.89627460  0.78157770  1
  Cl  Cl41  1  0.10372540  0.55186270  0.78157770  1
  Cl  Cl42  1  0.44813730  0.55186270  0.78157770  1
  Cl  Cl43  1  0.55186270  0.10372540  0.28157770  1
  Cl  Cl44  1  0.89627460  0.44813730  0.28157770  1
  Cl  Cl45  1  0.55186270  0.44813730  0.28157770  1
  Cl  Cl46  1  0.89627460  0.44813730  0.21842230  1
  Cl  Cl47  1  0.55186270  0.10372540  0.21842230  1
  Cl  Cl48  1  0.55186270  0.44813730  0.21842230  1
  Cl  Cl49  1  0.10372540  0.55186270  0.71842230  1
  Cl  Cl50  1  0.44813730  0.89627460  0.71842230  1
  Cl  Cl51  1  0.44813730  0.55186270  0.71842230  1
  Cl  Cl52  1  0.33333333  0.66666667  0.60771550  1
  Cl  Cl53  1  0.66666667  0.33333333  0.10771550  1
  Cl  Cl54  1  0.66666667  0.33333333  0.39228450  1
  Cl  Cl55  1  0.33333333  0.66666667  0.89228450  1
  Cl  Cl56  1  0.80428193  0.60856386  0.77565952  1
  Cl  Cl57  1  0.39143614  0.19571807  0.77565952  1
  Cl  Cl58  1  0.80428193  0.19571807  0.77565952  1
  Cl  Cl59  1  0.19571807  0.39143614  0.27565952  1
  Cl  Cl60  1  0.60856386  0.80428193  0.27565952  1
  Cl  Cl61  1  0.19571807  0.80428193  0.27565952  1
  Cl  Cl62  1  0.60856386  0.80428193  0.22434048  1
  Cl  Cl63  1  0.19571807  0.39143614  0.22434048  1
  Cl  Cl64  1  0.19571807  0.80428193  0.22434048  1
  Cl  Cl65  1  0.39143614  0.19571807  0.72434048  1
  Cl  Cl66  1  0.80428193  0.60856386  0.72434048  1
  Cl  Cl67  1  0.80428193  0.19571807  0.72434048  1
  Cl  Cl68  1  0.33333333  0.66666667  0.06303334  1
  Cl  Cl69  1  0.66666667  0.33333333  0.56303334  1
  Cl  Cl70  1  0.66666667  0.33333333  0.93696666  1
  Cl  Cl71  1  0.33333333  0.66666667  0.43696666  1
  Li  Li72  1  0.06542677  0.43505258  0.15483210  1
  Li  Li73  1  -0.43505258  -0.36962582  0.15483210  1
  Li  Li74  1  0.36962582  -0.06542677  0.15483210  1
  Li  Li75  1  -0.06542677  -0.43505258  0.65483210  1
  Li  Li76  1  0.43505258  0.36962582  0.65483210  1
  Li  Li77  1  -0.36962582  0.06542677  0.65483210  1
  Li  Li78  1  0.43505258  0.06542677  -0.15483210  1
  Li  Li79  1  -0.36962582  -0.43505258  -0.15483210  1
  Li  Li80  1  -0.06542677  0.36962582  -0.15483210  1
  Li  Li81  1  -0.43505258  -0.06542677  0.34516790  1
  Li  Li82  1  0.36962582  0.43505258  0.34516790  1
  Li  Li83  1  0.06542677  -0.36962582  0.34516790  1
  Li  Li84  1  -0.06542677  -0.43505258  -0.15483210  1
  Li  Li85  1  0.43505258  0.36962582  -0.15483210  1
  Li  Li86  1  -0.36962582  0.06542677  -0.15483210  1
  Li  Li87  1  0.06542677  0.43505258  0.34516790  1
  Li  Li88  1  -0.43505258  -0.36962582  0.34516790  1
  Li  Li89  1  0.36962582  -0.06542677  0.34516790  1
  Li  Li90  1  -0.43505258  -0.06542677  0.15483210  1
  Li  Li91  1  0.36962582  0.43505258  0.15483210  1
  Li  Li92  1  0.06542677  -0.36962582  0.15483210  1
  Li  Li93  1  0.43505258  0.06542677  0.65483210  1
  Li  Li94  1  -0.36962582  -0.43505258  0.65483210  1
  Li  Li95  1  -0.06542677  0.36962582  0.65483210  1
  Li  Li96  1  0.87942676  0.21139044  0.25000000  1
  Li  Li97  1  0.78860956  0.66803632  0.25000000  1
  Li  Li98  1  0.33196368  0.12057324  0.25000000  1
  Li  Li99  1  0.12057324  0.78860956  0.75000000  1
  Li  Li100  1  0.21139044  0.33196368  0.75000000  1
  Li  Li101  1  0.66803632  0.87942676  0.75000000  1
  Li  Li102  1  0.21139044  0.87942676  0.75000000  1
  Li  Li103  1  0.66803632  0.78860956  0.75000000  1
  Li  Li104  1  0.12057324  0.33196368  0.75000000  1
  Li  Li105  1  0.78860956  0.12057324  0.25000000  1
  Li  Li106  1  0.33196368  0.21139044  0.25000000  1
  Li  Li107  1  0.87942676  0.66803632  0.25000000  1
  Li  Li108  1  0.73219589  0.46439178  0.78642533  1
  Li  Li109  1  0.53560822  0.26780411  0.78642533  1
  Li  Li110  1  0.73219589  0.26780411  0.78642533  1
  Li  Li111  1  0.26780411  0.53560822  0.28642533  1
  Li  Li112  1  0.46439178  0.73219589  0.28642533  1
  Li  Li113  1  0.26780411  0.73219589  0.28642533  1
  Li  Li114  1  0.46439178  0.73219589  0.21357467  1
  Li  Li115  1  0.26780411  0.53560822  0.21357467  1
  Li  Li116  1  0.26780411  0.73219589  0.21357467  1
  Li  Li117  1  0.53560822  0.26780411  0.71357467  1
  Li  Li118  1  0.73219589  0.46439178  0.71357467  1
  Li  Li119  1  0.73219589  0.26780411  0.71357467  1
  Li  Li120  1  0.45467033  0.90934065  0.37070677  1
  Li  Li121  1  0.09065935  0.54532967  0.37070677  1
  Li  Li122  1  0.45467033  0.54532967  0.37070677  1
  Li  Li123  1  0.54532967  0.09065935  0.87070677  1
  Li  Li124  1  0.90934065  0.45467033  0.87070677  1
  Li  Li125  1  0.54532967  0.45467033  0.87070677  1
  Li  Li126  1  0.90934065  0.45467033  0.62929323  1
  Li  Li127  1  0.54532967  0.09065935  0.62929323  1
  Li  Li128  1  0.54532967  0.45467033  0.62929323  1
  Li  Li129  1  0.09065935  0.54532967  0.12929323  1
  Li  Li130  1  0.45467033  0.90934065  0.12929323  1
  Li  Li131  1  0.45467033  0.54532967  0.12929323  1
  Li  Li132  1  0.39073947  0.78147894  0.45998039  1
  Li  Li133  1  0.21852106  0.60926053  0.45998039  1
  Li  Li134  1  0.39073947  0.60926053  0.45998039  1
  Li  Li135  1  0.60926053  0.21852106  0.95998039  1
  Li  Li136  1  0.78147894  0.39073947  0.95998039  1
  Li  Li137  1  0.60926053  0.39073947  0.95998039  1
  Li  Li138  1  0.78147894  0.39073947  0.54001961  1
  Li  Li139  1  0.60926053  0.21852106  0.54001961  1
  Li  Li140  1  0.60926053  0.39073947  0.54001961  1
  Li  Li141  1  0.21852106  0.60926053  0.04001961  1
  Li  Li142  1  0.39073947  0.78147894  0.04001961  1
  Li  Li143  1  0.39073947  0.60926053  0.04001961  1
  Li  Li144  1  0.69776863  0.91753398  0.06885682  1
  Li  Li145  1  0.08246602  0.78023465  0.06885682  1
  Li  Li146  1  0.21976535  0.30223137  0.06885682  1
  Li  Li147  1  0.30223137  0.08246602  0.56885682  1
  Li  Li148  1  0.91753398  0.21976535  0.56885682  1
  Li  Li149  1  0.78023465  0.69776863  0.56885682  1
  Li  Li150  1  0.91753398  0.69776863  0.93114318  1
  Li  Li151  1  0.78023465  0.08246602  0.93114318  1
  Li  Li152  1  0.30223137  0.21976535  0.93114318  1
  Li  Li153  1  0.08246602  0.30223137  0.43114318  1
  Li  Li154  1  0.21976535  0.91753398  0.43114318  1
  Li  Li155  1  0.69776863  0.78023465  0.43114318  1
  Li  Li156  1  0.30223137  0.08246602  0.93114318  1
  Li  Li157  1  0.91753398  0.21976535  0.93114318  1
  Li  Li158  1  0.78023465  0.69776863  0.93114318  1
  Li  Li159  1  0.69776863  0.91753398  0.43114318  1
  Li  Li160  1  0.08246602  0.78023465  0.43114318  1
  Li  Li161  1  0.21976535  0.30223137  0.43114318  1
  Li  Li162  1  0.08246602  0.30223137  0.06885682  1
  Li  Li163  1  0.21976535  0.91753398  0.06885682  1
  Li  Li164  1  0.69776863  0.78023465  0.06885682  1
  Li  Li165  1  0.91753398  0.69776863  0.56885682  1
  Li  Li166  1  0.78023465  0.08246602  0.56885682  1
  Li  Li167  1  0.30223137  0.21976535  0.56885682  1
  Se  Se168  1  0.47274300  0.61194715  0.31981430  1
  Se  Se169  1  0.38805285  0.86079585  0.31981430  1
  Se  Se170  1  0.13920415  0.52725700  0.31981430  1
  Se  Se171  1  0.52725700  0.38805285  0.81981430  1
  Se  Se172  1  0.61194715  0.13920415  0.81981430  1
  Se  Se173  1  0.86079585  0.47274300  0.81981430  1
  Se  Se174  1  0.61194715  0.47274300  0.68018570  1
  Se  Se175  1  0.86079585  0.38805285  0.68018570  1
  Se  Se176  1  0.52725700  0.13920415  0.68018570  1
  Se  Se177  1  0.38805285  0.52725700  0.18018570  1
  Se  Se178  1  0.13920415  0.61194715  0.18018570  1
  Se  Se179  1  0.47274300  0.86079585  0.18018570  1
  Se  Se180  1  0.52725700  0.38805285  0.68018570  1
  Se  Se181  1  0.61194715  0.13920415  0.68018570  1
  Se  Se182  1  0.86079585  0.47274300  0.68018570  1
  Se  Se183  1  0.47274300  0.61194715  0.18018570  1
  Se  Se184  1  0.38805285  0.86079585  0.18018570  1
  Se  Se185  1  0.13920415  0.52725700  0.18018570  1
  Se  Se186  1  0.38805285  0.52725700  0.31981430  1
  Se  Se187  1  0.13920415  0.61194715  0.31981430  1
  Se  Se188  1  0.47274300  0.86079585  0.31981430  1
  Se  Se189  1  0.61194715  0.47274300  0.81981430  1
  Se  Se190  1  0.86079585  0.38805285  0.81981430  1
  Se  Se191  1  0.52725700  0.13920415  0.81981430  1
  Sr  Sr192  1  0.48195382  0.96390763  0.25000000  1
  Sr  Sr193  1  0.03609237  0.51804618  0.25000000  1
  Sr  Sr194  1  0.48195382  0.51804618  0.25000000  1
  Sr  Sr195  1  0.51804618  0.03609237  0.75000000  1
  Sr  Sr196  1  0.96390763  0.48195382  0.75000000  1
  Sr  Sr197  1  0.51804618  0.48195382  0.75000000  1
  Sr  Sr198  1  0.47336907  0.94673814  0.47572864  1
  Sr  Sr199  1  0.05326186  0.52663093  0.47572864  1
  Sr  Sr200  1  0.47336907  0.52663093  0.47572864  1
  Sr  Sr201  1  0.52663093  0.05326186  0.97572864  1
  Sr  Sr202  1  0.94673814  0.47336907  0.97572864  1
  Sr  Sr203  1  0.52663093  0.47336907  0.97572864  1
  Sr  Sr204  1  0.94673814  0.47336907  0.52427136  1
  Sr  Sr205  1  0.52663093  0.05326186  0.52427136  1
  Sr  Sr206  1  0.52663093  0.47336907  0.52427136  1
  Sr  Sr207  1  0.05326186  0.52663093  0.02427136  1
  Sr  Sr208  1  0.47336907  0.94673814  0.02427136  1
  Sr  Sr209  1  0.47336907  0.52663093  0.02427136  1
  Sr  Sr210  1  0.33333333  0.66666667  0.75000000  1
  Sr  Sr211  1  0.66666667  0.33333333  0.25000000  1
  Sr  Sr212  1  0.00000000  0.00000000  0.00000000  1
  Sr  Sr213  1  0.00000000  0.00000000  0.50000000  1
  Sr  Sr214  1  0.00000000  0.00000000  0.25000000  1
  Sr  Sr215  1  0.00000000  0.00000000  0.75000000  1
  Te  Te216  1  0.00709000  0.69883137  0.21431777  1
  Te  Te217  1  0.30116863  0.30825863  0.21431777  1
  Te  Te218  1  0.69174137  0.99291000  0.21431777  1
  Te  Te219  1  0.99291000  0.30116863  0.71431777  1
  Te  Te220  1  0.69883137  0.69174137  0.71431777  1
  Te  Te221  1  0.30825863  0.00709000  0.71431777  1
  Te  Te222  1  0.69883137  0.00709000  0.78568223  1
  Te  Te223  1  0.30825863  0.30116863  0.78568223  1
  Te  Te224  1  0.99291000  0.69174137  0.78568223  1
  Te  Te225  1  0.30116863  0.99291000  0.28568223  1
  Te  Te226  1  0.69174137  0.69883137  0.28568223  1
  Te  Te227  1  0.00709000  0.30825863  0.28568223  1
  Te  Te228  1  0.99291000  0.30116863  0.78568223  1
  Te  Te229  1  0.69883137  0.69174137  0.78568223  1
  Te  Te230  1  0.30825863  0.00709000  0.78568223  1
  Te  Te231  1  0.00709000  0.69883137  0.28568223  1
  Te  Te232  1  0.30116863  0.30825863  0.28568223  1
  Te  Te233  1  0.69174137  0.99291000  0.28568223  1
  Te  Te234  1  0.30116863  0.99291000  0.21431777  1
  Te  Te235  1  0.69174137  0.69883137  0.21431777  1
  Te  Te236  1  0.00709000  0.30825863  0.21431777  1
  Te  Te237  1  0.69883137  0.00709000  0.71431777  1
  Te  Te238  1  0.30825863  0.30116863  0.71431777  1
  Te  Te239  1  0.99291000  0.69174137  0.71431777  1
  Te  Te240  1  0.42704001  0.28668133  0.00266394  1
  Te  Te241  1  0.71331867  0.14035869  0.00266394  1
  Te  Te242  1  0.85964131  0.57295999  0.00266394  1
  Te  Te243  1  0.57295999  0.71331867  0.50266394  1
  Te  Te244  1  0.28668133  0.85964131  0.50266394  1
  Te  Te245  1  0.14035869  0.42704001  0.50266394  1
  Te  Te246  1  0.28668133  0.42704001  0.99733606  1
  Te  Te247  1  0.14035869  0.71331867  0.99733606  1
  Te  Te248  1  0.57295999  0.85964131  0.99733606  1
  Te  Te249  1  0.71331867  0.57295999  0.49733606  1
  Te  Te250  1  0.85964131  0.28668133  0.49733606  1
  Te  Te251  1  0.42704001  0.14035869  0.49733606  1
  Te  Te252  1  0.57295999  0.71331867  0.99733606  1
  Te  Te253  1  0.28668133  0.85964131  0.99733606  1
  Te  Te254  1  0.14035869  0.42704001  0.99733606  1
  Te  Te255  1  0.42704001  0.28668133  0.49733606  1
  Te  Te256  1  0.71331867  0.14035869  0.49733606  1
  Te  Te257  1  0.85964131  0.57295999  0.49733606  1
  Te  Te258  1  0.71331867  0.57295999  0.00266394  1
  Te  Te259  1  0.85964131  0.28668133  0.00266394  1
  Te  Te260  1  0.42704001  0.14035869  0.00266394  1
  Te  Te261  1  0.28668133  0.42704001  0.50266394  1
  Te  Te262  1  0.14035869  0.71331867  0.50266394  1
  Te  Te263  1  0.57295999  0.85964131  0.50266394  1
