# generated using pymatgen
data_LiBr
_symmetry_space_group_name_H-M   'P 1'
_cell_length_a   10.64091256
_cell_length_b   10.64091256
_cell_length_c   12.12775682
_cell_angle_alpha   90.00000000
_cell_angle_beta   90.00000000
_cell_angle_gamma   120.00000000
_symmetry_Int_Tables_number   1
_chemical_formula_structural   LiBr
_chemical_formula_sum   'Li36 Br36'
_cell_volume   1189.23822760
_cell_formula_units_Z   36
loop_
 _symmetry_equiv_pos_site_id
 _symmetry_equiv_pos_as_xyz
  1  'x, y, z'
loop_
 _atom_site_type_symbol
 _atom_site_label
 _atom_site_symmetry_multiplicity
 _atom_site_fract_x
 _atom_site_fract_y
 _atom_site_fract_z
 _atom_site_occupancy
  Br  Br0  1  0.69062269  0.22130922  0.35354470  1
  Br  Br1  1  -0.22130922  0.46931347  0.35354470  1
  Br  Br2  1  -0.46931347  -0.69062269  0.35354470  1
  Br  Br3  1  0.69062269  0.22130922  -0.35354470  1
  Br  Br4  1  -0.22130922  0.46931347  -0.35354470  1
  Br  Br5  1  -0.46931347  -0.69062269  -0.35354470  1
  Br  Br6  1  0.22130922  0.69062269  -0.35354470  1
  Br  Br7  1  0.46931347  -0.22130922  -0.35354470  1
  Br  Br8  1  -0.69062269  -0.46931347  -0.35354470  1
  Br  Br9  1  0.22130922  0.69062269  0.35354470  1
  Br  Br10  1  0.46931347  -0.22130922  0.35354470  1
  Br  Br11  1  -0.69062269  -0.46931347  0.35354470  1
  Br  Br12  1  0.39244207  0.00000000  0.91483727  1
  Br  Br13  1  0.00000000  0.39244207  0.91483727  1
  Br  Br14  1  0.60755793  0.60755793  0.91483727  1
  Br  Br15  1  0.39244207  0.00000000  0.08516273  1
  Br  Br16  1  0.00000000  0.39244207  0.08516273  1
  Br  Br17  1  0.60755793  0.60755793  0.08516273  1
  Br  Br18  1  0.34410238  0.47729100  0.78626281  1
  Br  Br19  1  0.52270900  0.86681138  0.78626281  1
  Br  Br20  1  0.13318862  0.65589762  0.78626281  1
  Br  Br21  1  0.34410238  0.47729100  0.21373719  1
  Br  Br22  1  0.52270900  0.86681138  0.21373719  1
  Br  Br23  1  0.13318862  0.65589762  0.21373719  1
  Br  Br24  1  0.47729100  0.34410238  0.21373719  1
  Br  Br25  1  0.86681138  0.52270900  0.21373719  1
  Br  Br26  1  0.65589762  0.13318862  0.21373719  1
  Br  Br27  1  0.47729100  0.34410238  0.78626281  1
  Br  Br28  1  0.86681138  0.52270900  0.78626281  1
  Br  Br29  1  0.65589762  0.13318862  0.78626281  1
  Br  Br30  1  0.11267612  0.00000000  0.20196861  1
  Br  Br31  1  0.00000000  0.11267612  0.20196861  1
  Br  Br32  1  0.88732388  0.88732388  0.20196861  1
  Br  Br33  1  0.11267612  0.00000000  0.79803139  1
  Br  Br34  1  0.00000000  0.11267612  0.79803139  1
  Br  Br35  1  0.88732388  0.88732388  0.79803139  1
  Li  Li36  1  0.87191392  0.00000000  0.81879089  1
  Li  Li37  1  0.00000000  0.87191392  0.81879089  1
  Li  Li38  1  0.12808608  0.12808608  0.81879089  1
  Li  Li39  1  0.87191392  0.00000000  0.18120911  1
  Li  Li40  1  0.00000000  0.87191392  0.18120911  1
  Li  Li41  1  0.12808608  0.12808608  0.18120911  1
  Li  Li42  1  0.51198932  0.18967240  0.11306229  1
  Li  Li43  1  0.81032760  0.32231692  0.11306229  1
  Li  Li44  1  0.67768308  0.48801068  0.11306229  1
  Li  Li45  1  0.51198932  0.18967240  0.88693771  1
  Li  Li46  1  0.81032760  0.32231692  0.88693771  1
  Li  Li47  1  0.67768308  0.48801068  0.88693771  1
  Li  Li48  1  0.18967240  0.51198932  0.88693771  1
  Li  Li49  1  0.32231692  0.81032760  0.88693771  1
  Li  Li50  1  0.48801068  0.67768308  0.88693771  1
  Li  Li51  1  0.18967240  0.51198932  0.11306229  1
  Li  Li52  1  0.32231692  0.81032760  0.11306229  1
  Li  Li53  1  0.48801068  0.67768308  0.11306229  1
  Li  Li54  1  0.09635941  0.83169855  0.09008463  1
  Li  Li55  1  0.16830145  0.26466086  0.09008463  1
  Li  Li56  1  0.73533914  0.90364059  0.09008463  1
  Li  Li57  1  0.09635941  0.83169855  0.90991537  1
  Li  Li58  1  0.16830145  0.26466086  0.90991537  1
  Li  Li59  1  0.73533914  0.90364059  0.90991537  1
  Li  Li60  1  0.83169855  0.09635941  0.90991537  1
  Li  Li61  1  0.26466086  0.16830145  0.90991537  1
  Li  Li62  1  0.90364059  0.73533914  0.90991537  1
  Li  Li63  1  0.83169855  0.09635941  0.09008463  1
  Li  Li64  1  0.26466086  0.16830145  0.09008463  1
  Li  Li65  1  0.90364059  0.73533914  0.09008463  1
  Li  Li66  1  0.54689048  0.00000000  0.50000000  1
  Li  Li67  1  0.00000000  0.54689048  0.50000000  1
  Li  Li68  1  0.45310952  0.45310952  0.50000000  1
  Li  Li69  1  0.33333333  0.66666667  0.50000000  1
  Li  Li70  1  0.66666667  0.33333333  0.50000000  1
  Li  Li71  1  0.00000000  0.00000000  0.00000000  1
