# generated using pymatgen
data_SrLi6(CaTe3)2
_symmetry_space_group_name_H-M   'P 1'
_cell_length_a   20.42444536
_cell_length_b   20.42444536
_cell_length_c   20.42444536
_cell_angle_alpha   90.00000000
_cell_angle_beta   90.00000000
_cell_angle_gamma   90.00000000
_symmetry_Int_Tables_number   1
_chemical_formula_structural   SrLi6(CaTe3)2
_chemical_formula_sum   'Sr24 Li144 Ca48 Te144'
_cell_volume   8520.22013173
_cell_formula_units_Z   24
loop_
 _symmetry_equiv_pos_site_id
 _symmetry_equiv_pos_as_xyz
  1  'x, y, z'
loop_
 _atom_site_type_symbol
 _atom_site_label
 _atom_site_symmetry_multiplicity
 _atom_site_fract_x
 _atom_site_fract_y
 _atom_site_fract_z
 _atom_site_occupancy
  Ca  Ca0  1  0.69709876  0.27364240  0.90210599  1
  Ca  Ca1  1  0.80290124  0.72635760  0.40210599  1
  Ca  Ca2  1  0.30290124  0.77364240  0.59789401  1
  Ca  Ca3  1  0.19709876  0.22635760  0.09789401  1
  Ca  Ca4  1  0.90210599  0.69709876  0.27364240  1
  Ca  Ca5  1  0.40210599  0.80290124  0.72635760  1
  Ca  Ca6  1  0.59789401  0.30290124  0.77364240  1
  Ca  Ca7  1  0.09789401  0.19709876  0.22635760  1
  Ca  Ca8  1  0.27364240  0.90210599  0.69709876  1
  Ca  Ca9  1  0.72635760  0.40210599  0.80290124  1
  Ca  Ca10  1  0.77364240  0.59789401  0.30290124  1
  Ca  Ca11  1  0.22635760  0.09789401  0.19709876  1
  Ca  Ca12  1  0.02364240  0.94709876  0.34789401  1
  Ca  Ca13  1  0.47635760  0.05290124  0.84789401  1
  Ca  Ca14  1  0.52364240  0.55290124  0.65210599  1
  Ca  Ca15  1  0.97635760  0.44709876  0.15210599  1
  Ca  Ca16  1  0.44709876  0.15210599  0.97635760  1
  Ca  Ca17  1  0.55290124  0.65210599  0.52364240  1
  Ca  Ca18  1  0.05290124  0.84789401  0.47635760  1
  Ca  Ca19  1  0.94709876  0.34789401  0.02364240  1
  Ca  Ca20  1  0.65210599  0.52364240  0.55290124  1
  Ca  Ca21  1  0.15210599  0.97635760  0.44709876  1
  Ca  Ca22  1  0.34789401  0.02364240  0.94709876  1
  Ca  Ca23  1  0.84789401  0.47635760  0.05290124  1
  Ca  Ca24  1  0.19709876  0.77364240  0.40210599  1
  Ca  Ca25  1  0.30290124  0.22635760  0.90210599  1
  Ca  Ca26  1  0.80290124  0.27364240  0.09789401  1
  Ca  Ca27  1  0.69709876  0.72635760  0.59789401  1
  Ca  Ca28  1  0.40210599  0.19709876  0.77364240  1
  Ca  Ca29  1  0.90210599  0.30290124  0.22635760  1
  Ca  Ca30  1  0.09789401  0.80290124  0.27364240  1
  Ca  Ca31  1  0.59789401  0.69709876  0.72635760  1
  Ca  Ca32  1  0.77364240  0.40210599  0.19709876  1
  Ca  Ca33  1  0.22635760  0.90210599  0.30290124  1
  Ca  Ca34  1  0.27364240  0.09789401  0.80290124  1
  Ca  Ca35  1  0.72635760  0.59789401  0.69709876  1
  Ca  Ca36  1  0.52364240  0.44709876  0.84789401  1
  Ca  Ca37  1  0.97635760  0.55290124  0.34789401  1
  Ca  Ca38  1  0.02364240  0.05290124  0.15210599  1
  Ca  Ca39  1  0.47635760  0.94709876  0.65210599  1
  Ca  Ca40  1  0.94709876  0.65210599  0.47635760  1
  Ca  Ca41  1  0.05290124  0.15210599  0.02364240  1
  Ca  Ca42  1  0.55290124  0.34789401  0.97635760  1
  Ca  Ca43  1  0.44709876  0.84789401  0.52364240  1
  Ca  Ca44  1  0.15210599  0.02364240  0.05290124  1
  Ca  Ca45  1  0.65210599  0.47635760  0.94709876  1
  Ca  Ca46  1  0.84789401  0.52364240  0.44709876  1
  Ca  Ca47  1  0.34789401  0.97635760  0.55290124  1
  Li  Li48  1  0.71881979  0.65493596  0.97856986  1
  Li  Li49  1  0.78118021  0.34506404  0.47856986  1
  Li  Li50  1  0.28118021  0.15493596  0.52143014  1
  Li  Li51  1  0.21881979  0.84506404  0.02143014  1
  Li  Li52  1  0.97856986  0.71881979  0.65493596  1
  Li  Li53  1  0.47856986  0.78118021  0.34506404  1
  Li  Li54  1  0.52143014  0.28118021  0.15493596  1
  Li  Li55  1  0.02143014  0.21881979  0.84506404  1
  Li  Li56  1  0.65493596  0.97856986  0.71881979  1
  Li  Li57  1  0.34506404  0.47856986  0.78118021  1
  Li  Li58  1  0.15493596  0.52143014  0.28118021  1
  Li  Li59  1  0.84506404  0.02143014  0.21881979  1
  Li  Li60  1  0.40493596  0.96881979  0.27143014  1
  Li  Li61  1  0.09506404  0.03118021  0.77143014  1
  Li  Li62  1  0.90493596  0.53118021  0.72856986  1
  Li  Li63  1  0.59506404  0.46881979  0.22856986  1
  Li  Li64  1  0.46881979  0.22856986  0.59506404  1
  Li  Li65  1  0.53118021  0.72856986  0.90493596  1
  Li  Li66  1  0.03118021  0.77143014  0.09506404  1
  Li  Li67  1  0.96881979  0.27143014  0.40493596  1
  Li  Li68  1  0.72856986  0.90493596  0.53118021  1
  Li  Li69  1  0.22856986  0.59506404  0.46881979  1
  Li  Li70  1  0.27143014  0.40493596  0.96881979  1
  Li  Li71  1  0.77143014  0.09506404  0.03118021  1
  Li  Li72  1  0.21881979  0.15493596  0.47856986  1
  Li  Li73  1  0.28118021  0.84506404  0.97856986  1
  Li  Li74  1  0.78118021  0.65493596  0.02143014  1
  Li  Li75  1  0.71881979  0.34506404  0.52143014  1
  Li  Li76  1  0.47856986  0.21881979  0.15493596  1
  Li  Li77  1  0.97856986  0.28118021  0.84506404  1
  Li  Li78  1  0.02143014  0.78118021  0.65493596  1
  Li  Li79  1  0.52143014  0.71881979  0.34506404  1
  Li  Li80  1  0.15493596  0.47856986  0.21881979  1
  Li  Li81  1  0.84506404  0.97856986  0.28118021  1
  Li  Li82  1  0.65493596  0.02143014  0.78118021  1
  Li  Li83  1  0.34506404  0.52143014  0.71881979  1
  Li  Li84  1  0.90493596  0.46881979  0.77143014  1
  Li  Li85  1  0.59506404  0.53118021  0.27143014  1
  Li  Li86  1  0.40493596  0.03118021  0.22856986  1
  Li  Li87  1  0.09506404  0.96881979  0.72856986  1
  Li  Li88  1  0.96881979  0.72856986  0.09506404  1
  Li  Li89  1  0.03118021  0.22856986  0.40493596  1
  Li  Li90  1  0.53118021  0.27143014  0.59506404  1
  Li  Li91  1  0.46881979  0.77143014  0.90493596  1
  Li  Li92  1  0.22856986  0.40493596  0.03118021  1
  Li  Li93  1  0.72856986  0.09506404  0.96881979  1
  Li  Li94  1  0.77143014  0.90493596  0.46881979  1
  Li  Li95  1  0.27143014  0.59506404  0.53118021  1
  Li  Li96  1  0.87500000  0.87500000  0.87500000  1
  Li  Li97  1  0.62500000  0.12500000  0.37500000  1
  Li  Li98  1  0.12500000  0.37500000  0.62500000  1
  Li  Li99  1  0.37500000  0.62500000  0.12500000  1
  Li  Li100  1  0.37500000  0.37500000  0.37500000  1
  Li  Li101  1  0.12500000  0.62500000  0.87500000  1
  Li  Li102  1  0.62500000  0.87500000  0.12500000  1
  Li  Li103  1  0.87500000  0.12500000  0.62500000  1
  Li  Li104  1  0.09188992  0.09188992  0.09188992  1
  Li  Li105  1  0.40811008  0.90811008  0.59188992  1
  Li  Li106  1  0.90811008  0.59188992  0.40811008  1
  Li  Li107  1  0.59188992  0.40811008  0.90811008  1
  Li  Li108  1  0.84188992  0.34188992  0.15811008  1
  Li  Li109  1  0.65811008  0.65811008  0.65811008  1
  Li  Li110  1  0.34188992  0.15811008  0.84188992  1
  Li  Li111  1  0.15811008  0.84188992  0.34188992  1
  Li  Li112  1  0.59188992  0.59188992  0.59188992  1
  Li  Li113  1  0.90811008  0.40811008  0.09188992  1
  Li  Li114  1  0.40811008  0.09188992  0.90811008  1
  Li  Li115  1  0.09188992  0.90811008  0.40811008  1
  Li  Li116  1  0.34188992  0.84188992  0.65811008  1
  Li  Li117  1  0.15811008  0.15811008  0.15811008  1
  Li  Li118  1  0.84188992  0.65811008  0.34188992  1
  Li  Li119  1  0.65811008  0.34188992  0.84188992  1
  Li  Li120  1  0.40581549  0.12297430  0.10888967  1
  Li  Li121  1  0.09418451  0.87702570  0.60888967  1
  Li  Li122  1  0.59418451  0.62297430  0.39111033  1
  Li  Li123  1  0.90581549  0.37702570  0.89111033  1
  Li  Li124  1  0.10888967  0.40581549  0.12297430  1
  Li  Li125  1  0.60888967  0.09418451  0.87702570  1
  Li  Li126  1  0.39111033  0.59418451  0.62297430  1
  Li  Li127  1  0.89111033  0.90581549  0.37702570  1
  Li  Li128  1  0.12297430  0.10888967  0.40581549  1
  Li  Li129  1  0.87702570  0.60888967  0.09418451  1
  Li  Li130  1  0.62297430  0.39111033  0.59418451  1
  Li  Li131  1  0.37702570  0.89111033  0.90581549  1
  Li  Li132  1  0.87297430  0.65581549  0.14111033  1
  Li  Li133  1  0.62702570  0.34418451  0.64111033  1
  Li  Li134  1  0.37297430  0.84418451  0.85888967  1
  Li  Li135  1  0.12702570  0.15581549  0.35888967  1
  Li  Li136  1  0.15581549  0.35888967  0.12702570  1
  Li  Li137  1  0.84418451  0.85888967  0.37297430  1
  Li  Li138  1  0.34418451  0.64111033  0.62702570  1
  Li  Li139  1  0.65581549  0.14111033  0.87297430  1
  Li  Li140  1  0.85888967  0.37297430  0.84418451  1
  Li  Li141  1  0.35888967  0.12702570  0.15581549  1
  Li  Li142  1  0.14111033  0.87297430  0.65581549  1
  Li  Li143  1  0.64111033  0.62702570  0.34418451  1
  Li  Li144  1  0.90581549  0.62297430  0.60888967  1
  Li  Li145  1  0.59418451  0.37702570  0.10888967  1
  Li  Li146  1  0.09418451  0.12297430  0.89111033  1
  Li  Li147  1  0.40581549  0.87702570  0.39111033  1
  Li  Li148  1  0.60888967  0.90581549  0.62297430  1
  Li  Li149  1  0.10888967  0.59418451  0.37702570  1
  Li  Li150  1  0.89111033  0.09418451  0.12297430  1
  Li  Li151  1  0.39111033  0.40581549  0.87702570  1
  Li  Li152  1  0.62297430  0.60888967  0.90581549  1
  Li  Li153  1  0.37702570  0.10888967  0.59418451  1
  Li  Li154  1  0.12297430  0.89111033  0.09418451  1
  Li  Li155  1  0.87702570  0.39111033  0.40581549  1
  Li  Li156  1  0.37297430  0.15581549  0.64111033  1
  Li  Li157  1  0.12702570  0.84418451  0.14111033  1
  Li  Li158  1  0.87297430  0.34418451  0.35888967  1
  Li  Li159  1  0.62702570  0.65581549  0.85888967  1
  Li  Li160  1  0.65581549  0.85888967  0.62702570  1
  Li  Li161  1  0.34418451  0.35888967  0.87297430  1
  Li  Li162  1  0.84418451  0.14111033  0.12702570  1
  Li  Li163  1  0.15581549  0.64111033  0.37297430  1
  Li  Li164  1  0.35888967  0.87297430  0.34418451  1
  Li  Li165  1  0.85888967  0.62702570  0.65581549  1
  Li  Li166  1  0.64111033  0.37297430  0.15581549  1
  Li  Li167  1  0.14111033  0.12702570  0.84418451  1
  Li  Li168  1  0.12500000  0.20102865  0.45102865  1
  Li  Li169  1  0.37500000  0.79897135  0.95102865  1
  Li  Li170  1  0.87500000  0.70102865  0.04897135  1
  Li  Li171  1  0.62500000  0.29897135  0.54897135  1
  Li  Li172  1  0.45102865  0.12500000  0.20102865  1
  Li  Li173  1  0.95102865  0.37500000  0.79897135  1
  Li  Li174  1  0.04897135  0.87500000  0.70102865  1
  Li  Li175  1  0.54897135  0.62500000  0.29897135  1
  Li  Li176  1  0.20102865  0.45102865  0.12500000  1
  Li  Li177  1  0.79897135  0.95102865  0.37500000  1
  Li  Li178  1  0.70102865  0.04897135  0.87500000  1
  Li  Li179  1  0.29897135  0.54897135  0.62500000  1
  Li  Li180  1  0.62500000  0.70102865  0.95102865  1
  Li  Li181  1  0.87500000  0.29897135  0.45102865  1
  Li  Li182  1  0.37500000  0.20102865  0.54897135  1
  Li  Li183  1  0.12500000  0.79897135  0.04897135  1
  Li  Li184  1  0.95102865  0.62500000  0.70102865  1
  Li  Li185  1  0.45102865  0.87500000  0.29897135  1
  Li  Li186  1  0.54897135  0.37500000  0.20102865  1
  Li  Li187  1  0.04897135  0.12500000  0.79897135  1
  Li  Li188  1  0.70102865  0.95102865  0.62500000  1
  Li  Li189  1  0.29897135  0.45102865  0.87500000  1
  Li  Li190  1  0.20102865  0.54897135  0.37500000  1
  Li  Li191  1  0.79897135  0.04897135  0.12500000  1
  Sr  Sr192  1  0.12500000  0.00000000  0.25000000  1
  Sr  Sr193  1  0.37500000  0.00000000  0.75000000  1
  Sr  Sr194  1  0.25000000  0.12500000  -0.00000000  1
  Sr  Sr195  1  0.75000000  0.37500000  -0.00000000  1
  Sr  Sr196  1  0.00000000  0.25000000  0.12500000  1
  Sr  Sr197  1  0.00000000  0.75000000  0.37500000  1
  Sr  Sr198  1  0.62500000  0.50000000  0.75000000  1
  Sr  Sr199  1  0.87500000  0.50000000  0.25000000  1
  Sr  Sr200  1  0.75000000  0.62500000  0.50000000  1
  Sr  Sr201  1  0.25000000  0.87500000  0.50000000  1
  Sr  Sr202  1  0.50000000  0.75000000  0.62500000  1
  Sr  Sr203  1  0.50000000  0.25000000  0.87500000  1
  Sr  Sr204  1  0.62500000  0.00000000  0.25000000  1
  Sr  Sr205  1  0.87500000  0.00000000  0.75000000  1
  Sr  Sr206  1  0.25000000  0.62500000  0.00000000  1
  Sr  Sr207  1  0.75000000  0.87500000  0.00000000  1
  Sr  Sr208  1  0.00000000  0.25000000  0.62500000  1
  Sr  Sr209  1  0.00000000  0.75000000  0.87500000  1
  Sr  Sr210  1  0.12500000  0.50000000  0.75000000  1
  Sr  Sr211  1  0.37500000  0.50000000  0.25000000  1
  Sr  Sr212  1  0.75000000  0.12500000  0.50000000  1
  Sr  Sr213  1  0.25000000  0.37500000  0.50000000  1
  Sr  Sr214  1  0.50000000  0.75000000  0.12500000  1
  Sr  Sr215  1  0.50000000  0.25000000  0.37500000  1
  Te  Te216  1  0.42443719  0.59655521  0.87946685  1
  Te  Te217  1  0.07556281  -0.59655521  1.37946685  1
  Te  Te218  1  -0.42443719  1.09655521  -0.37946685  1
  Te  Te219  1  0.92443719  -0.09655521  -0.87946685  1
  Te  Te220  1  0.87946685  0.42443719  0.59655521  1
  Te  Te221  1  1.37946685  0.07556281  -0.59655521  1
  Te  Te222  1  -0.37946685  -0.42443719  1.09655521  1
  Te  Te223  1  -0.87946685  0.92443719  -0.09655521  1
  Te  Te224  1  0.59655521  0.87946685  0.42443719  1
  Te  Te225  1  -0.59655521  1.37946685  0.07556281  1
  Te  Te226  1  1.09655521  -0.37946685  -0.42443719  1
  Te  Te227  1  -0.09655521  -0.87946685  0.92443719  1
  Te  Te228  1  1.34655521  0.67443719  -0.62946685  1
  Te  Te229  1  0.15344479  0.32556281  -0.12946685  1
  Te  Te230  1  0.84655521  -0.17443719  1.62946685  1
  Te  Te231  1  -0.34655521  1.17443719  1.12946685  1
  Te  Te232  1  1.17443719  1.12946685  -0.34655521  1
  Te  Te233  1  -0.17443719  1.62946685  0.84655521  1
  Te  Te234  1  0.32556281  -0.12946685  0.15344479  1
  Te  Te235  1  0.67443719  -0.62946685  1.34655521  1
  Te  Te236  1  1.62946685  0.84655521  -0.17443719  1
  Te  Te237  1  1.12946685  -0.34655521  1.17443719  1
  Te  Te238  1  -0.62946685  1.34655521  0.67443719  1
  Te  Te239  1  -0.12946685  0.15344479  0.32556281  1
  Te  Te240  1  0.92443719  1.09655521  1.37946685  1
  Te  Te241  1  0.57556281  -0.09655521  1.87946685  1
  Te  Te242  1  0.07556281  1.59655521  0.12053315  1
  Te  Te243  1  1.42443719  0.40344479  -0.37946685  1
  Te  Te244  1  1.37946685  0.92443719  1.09655521  1
  Te  Te245  1  1.87946685  0.57556281  -0.09655521  1
  Te  Te246  1  0.12053315  0.07556281  1.59655521  1
  Te  Te247  1  -0.37946685  1.42443719  0.40344479  1
  Te  Te248  1  1.09655521  1.37946685  0.92443719  1
  Te  Te249  1  -0.09655521  1.87946685  0.57556281  1
  Te  Te250  1  1.59655521  0.12053315  0.07556281  1
  Te  Te251  1  0.40344479  -0.37946685  1.42443719  1
  Te  Te252  1  1.84655521  1.17443719  -0.12946685  1
  Te  Te253  1  0.65344479  0.82556281  0.37053315  1
  Te  Te254  1  1.34655521  0.32556281  2.12946685  1
  Te  Te255  1  0.15344479  1.67443719  1.62946685  1
  Te  Te256  1  1.67443719  1.62946685  0.15344479  1
  Te  Te257  1  0.32556281  2.12946685  1.34655521  1
  Te  Te258  1  0.82556281  0.37053315  0.65344479  1
  Te  Te259  1  1.17443719  -0.12946685  1.84655521  1
  Te  Te260  1  2.12946685  1.34655521  0.32556281  1
  Te  Te261  1  1.62946685  0.15344479  1.67443719  1
  Te  Te262  1  -0.12946685  1.84655521  1.17443719  1
  Te  Te263  1  0.37053315  0.65344479  0.82556281  1
  Te  Te264  1  0.18668519  0.46098288  0.57899549  1
  Te  Te265  1  0.31331481  0.53901712  0.07899549  1
  Te  Te266  1  0.81331481  0.96098288  0.92100451  1
  Te  Te267  1  0.68668519  0.03901712  0.42100451  1
  Te  Te268  1  0.57899549  0.18668519  0.46098288  1
  Te  Te269  1  0.07899549  0.31331481  0.53901712  1
  Te  Te270  1  0.92100451  0.81331481  0.96098288  1
  Te  Te271  1  0.42100451  0.68668519  0.03901712  1
  Te  Te272  1  0.46098288  0.57899549  0.18668519  1
  Te  Te273  1  0.53901712  0.07899549  0.31331481  1
  Te  Te274  1  0.96098288  0.92100451  0.81331481  1
  Te  Te275  1  0.03901712  0.42100451  0.68668519  1
  Te  Te276  1  0.21098288  0.43668519  0.67100451  1
  Te  Te277  1  0.28901712  0.56331481  0.17100451  1
  Te  Te278  1  0.71098288  0.06331481  0.32899549  1
  Te  Te279  1  0.78901712  0.93668519  0.82899549  1
  Te  Te280  1  0.93668519  0.82899549  0.78901712  1
  Te  Te281  1  0.06331481  0.32899549  0.71098288  1
  Te  Te282  1  0.56331481  0.17100451  0.28901712  1
  Te  Te283  1  0.43668519  0.67100451  0.21098288  1
  Te  Te284  1  0.32899549  0.71098288  0.06331481  1
  Te  Te285  1  0.82899549  0.78901712  0.93668519  1
  Te  Te286  1  0.67100451  0.21098288  0.43668519  1
  Te  Te287  1  0.17100451  0.28901712  0.56331481  1
  Te  Te288  1  0.68668519  0.96098288  0.07899549  1
  Te  Te289  1  0.81331481  0.03901712  0.57899549  1
  Te  Te290  1  0.31331481  0.46098288  0.42100451  1
  Te  Te291  1  0.18668519  0.53901712  0.92100451  1
  Te  Te292  1  0.07899549  0.68668519  0.96098288  1
  Te  Te293  1  0.57899549  0.81331481  0.03901712  1
  Te  Te294  1  0.42100451  0.31331481  0.46098288  1
  Te  Te295  1  0.92100451  0.18668519  0.53901712  1
  Te  Te296  1  0.96098288  0.07899549  0.68668519  1
  Te  Te297  1  0.03901712  0.57899549  0.81331481  1
  Te  Te298  1  0.46098288  0.42100451  0.31331481  1
  Te  Te299  1  0.53901712  0.92100451  0.18668519  1
  Te  Te300  1  0.71098288  0.93668519  0.17100451  1
  Te  Te301  1  0.78901712  0.06331481  0.67100451  1
  Te  Te302  1  0.21098288  0.56331481  0.82899549  1
  Te  Te303  1  0.28901712  0.43668519  0.32899549  1
  Te  Te304  1  0.43668519  0.32899549  0.28901712  1
  Te  Te305  1  0.56331481  0.82899549  0.21098288  1
  Te  Te306  1  0.06331481  0.67100451  0.78901712  1
  Te  Te307  1  0.93668519  0.17100451  0.71098288  1
  Te  Te308  1  0.82899549  0.21098288  0.56331481  1
  Te  Te309  1  0.32899549  0.28901712  0.43668519  1
  Te  Te310  1  0.17100451  0.71098288  0.93668519  1
  Te  Te311  1  0.67100451  0.78901712  0.06331481  1
  Te  Te312  1  0.16829532  0.56664417  0.46898195  1
  Te  Te313  1  0.33170468  0.43335583  0.96898195  1
  Te  Te314  1  0.83170468  0.06664417  0.03101805  1
  Te  Te315  1  0.66829532  0.93335583  0.53101805  1
  Te  Te316  1  0.46898195  0.16829532  0.56664417  1
  Te  Te317  1  0.96898195  0.33170468  0.43335583  1
  Te  Te318  1  0.03101805  0.83170468  0.06664417  1
  Te  Te319  1  0.53101805  0.66829532  0.93335583  1
  Te  Te320  1  0.56664417  0.46898195  0.16829532  1
  Te  Te321  1  0.43335583  0.96898195  0.33170468  1
  Te  Te322  1  0.06664417  0.03101805  0.83170468  1
  Te  Te323  1  0.93335583  0.53101805  0.66829532  1
  Te  Te324  1  0.31664417  0.41829532  0.78101805  1
  Te  Te325  1  0.18335583  0.58170468  0.28101805  1
  Te  Te326  1  0.81664417  0.08170468  0.21898195  1
  Te  Te327  1  0.68335583  0.91829532  0.71898195  1
  Te  Te328  1  0.91829532  0.71898195  0.68335583  1
  Te  Te329  1  0.08170468  0.21898195  0.81664417  1
  Te  Te330  1  0.58170468  0.28101805  0.18335583  1
  Te  Te331  1  0.41829532  0.78101805  0.31664417  1
  Te  Te332  1  0.21898195  0.81664417  0.08170468  1
  Te  Te333  1  0.71898195  0.68335583  0.91829532  1
  Te  Te334  1  0.78101805  0.31664417  0.41829532  1
  Te  Te335  1  0.28101805  0.18335583  0.58170468  1
  Te  Te336  1  0.66829532  0.06664417  0.96898195  1
  Te  Te337  1  0.83170468  0.93335583  0.46898195  1
  Te  Te338  1  0.33170468  0.56664417  0.53101805  1
  Te  Te339  1  0.16829532  0.43335583  0.03101805  1
  Te  Te340  1  0.96898195  0.66829532  0.06664417  1
  Te  Te341  1  0.46898195  0.83170468  0.93335583  1
  Te  Te342  1  0.53101805  0.33170468  0.56664417  1
  Te  Te343  1  0.03101805  0.16829532  0.43335583  1
  Te  Te344  1  0.06664417  0.96898195  0.66829532  1
  Te  Te345  1  0.93335583  0.46898195  0.83170468  1
  Te  Te346  1  0.56664417  0.53101805  0.33170468  1
  Te  Te347  1  0.43335583  0.03101805  0.16829532  1
  Te  Te348  1  0.81664417  0.91829532  0.28101805  1
  Te  Te349  1  0.68335583  0.08170468  0.78101805  1
  Te  Te350  1  0.31664417  0.58170468  0.71898195  1
  Te  Te351  1  0.18335583  0.41829532  0.21898195  1
  Te  Te352  1  0.41829532  0.21898195  0.18335583  1
  Te  Te353  1  0.58170468  0.71898195  0.31664417  1
  Te  Te354  1  0.08170468  0.78101805  0.68335583  1
  Te  Te355  1  0.91829532  0.28101805  0.81664417  1
  Te  Te356  1  0.71898195  0.31664417  0.58170468  1
  Te  Te357  1  0.21898195  0.18335583  0.41829532  1
  Te  Te358  1  0.28101805  0.81664417  0.91829532  1
  Te  Te359  1  0.78101805  0.68335583  0.08170468  1
