# generated using pymatgen
data_Li2Zr3S4
_symmetry_space_group_name_H-M   'P 1'
_cell_length_a   3.18137477
_cell_length_b   2.59080837
_cell_length_c   5.00329775
_cell_angle_alpha   94.13023474
_cell_angle_beta   90.48151846
_cell_angle_gamma   97.18305465
_symmetry_Int_Tables_number   1
_chemical_formula_structural   Li2Zr3S4
_chemical_formula_sum   'Li2 Zr3 S4'
_cell_volume   40.80261279
_cell_formula_units_Z   1
loop_
 _symmetry_equiv_pos_site_id
 _symmetry_equiv_pos_as_xyz
  1  'x, y, z'
loop_
 _atom_site_type_symbol
 _atom_site_label
 _atom_site_symmetry_multiplicity
 _atom_site_fract_x
 _atom_site_fract_y
 _atom_site_fract_z
 _atom_site_occupancy
  Li  Li0  1  0.00000000  0.00000000  0.00000000  1
  Li  Li1  1  0.33300000  0.66700000  0.25000000  1
  Zr  Zr2  1  0.66700000  0.33300000  0.50000000  1
  Zr  Zr3  1  0.00000000  0.00000000  0.75000000  1
  Zr  Zr4  1  0.65604717  0.18231668  0.62902355  1
  S  S5  1  0.75427368  0.82775791  0.09694628  1
  S  S6  1  0.24216108  0.36121200  0.41680755  1
  S  S7  1  0.90756038  0.45327602  0.41762456  1
  S  S8  1  0.31251900  0.54825676  0.53493317  1
