# generated using pymatgen
data_Li3SbS3
_symmetry_space_group_name_H-M   'P 1'
_cell_length_a   15.54947294
_cell_length_b   15.54947294
_cell_length_c   10.12365988
_cell_angle_alpha   90.00000000
_cell_angle_beta   90.00000000
_cell_angle_gamma   90.00000000
_symmetry_Int_Tables_number   1
_chemical_formula_structural   Li3SbS3
_chemical_formula_sum   'Li48 Sb16 S48'
_cell_volume   2447.76032697
_cell_formula_units_Z   16
loop_
 _symmetry_equiv_pos_site_id
 _symmetry_equiv_pos_as_xyz
  1  'x, y, z'
loop_
 _atom_site_type_symbol
 _atom_site_label
 _atom_site_symmetry_multiplicity
 _atom_site_fract_x
 _atom_site_fract_y
 _atom_site_fract_z
 _atom_site_occupancy
  Li  Li0  1  0.86547320  0.50680588  0.85872187  1
  Li  Li1  1  0.63452680  0.49319412  0.35872187  1
  Li  Li2  1  0.74319412  0.61547320  0.10872187  1
  Li  Li3  1  0.75680588  0.38452680  0.60872187  1
  Li  Li4  1  0.63452680  0.50680588  0.64127813  1
  Li  Li5  1  0.86547320  0.49319412  0.14127813  1
  Li  Li6  1  0.75680588  0.61547320  0.39127813  1
  Li  Li7  1  0.74319412  0.38452680  0.89127813  1
  Li  Li8  1  0.13452680  0.49319412  0.14127813  1
  Li  Li9  1  0.36547320  0.50680588  0.64127813  1
  Li  Li10  1  0.25680588  0.38452680  0.89127813  1
  Li  Li11  1  0.24319412  0.61547320  0.39127813  1
  Li  Li12  1  0.36547320  0.49319412  0.35872187  1
  Li  Li13  1  0.13452680  0.50680588  0.85872187  1
  Li  Li14  1  0.24319412  0.38452680  0.60872187  1
  Li  Li15  1  0.25680588  0.61547320  0.10872187  1
  Li  Li16  1  0.36547320  0.00680588  0.35872187  1
  Li  Li17  1  0.13452680  0.99319412  0.85872187  1
  Li  Li18  1  0.24319412  0.11547320  0.60872187  1
  Li  Li19  1  0.25680588  0.88452680  0.10872187  1
  Li  Li20  1  0.13452680  0.00680588  0.14127813  1
  Li  Li21  1  0.36547320  0.99319412  0.64127813  1
  Li  Li22  1  0.25680588  0.11547320  0.89127813  1
  Li  Li23  1  0.24319412  0.88452680  0.39127813  1
  Li  Li24  1  0.63452680  0.99319412  0.64127813  1
  Li  Li25  1  0.86547320  0.00680588  0.14127813  1
  Li  Li26  1  0.75680588  0.88452680  0.39127813  1
  Li  Li27  1  0.74319412  0.11547320  0.89127813  1
  Li  Li28  1  0.86547320  0.99319412  0.85872187  1
  Li  Li29  1  0.63452680  0.00680588  0.35872187  1
  Li  Li30  1  0.74319412  0.88452680  0.10872187  1
  Li  Li31  1  0.75680588  0.11547320  0.60872187  1
  Li  Li32  1  0.75753826  0.00000000  0.00000000  1
  Li  Li33  1  0.74246174  0.00000000  0.50000000  1
  Li  Li34  1  0.25000000  0.50753826  0.25000000  1
  Li  Li35  1  0.25000000  0.49246174  0.75000000  1
  Li  Li36  1  0.24246174  -0.00000000  -0.00000000  1
  Li  Li37  1  0.25753826  0.00000000  0.50000000  1
  Li  Li38  1  0.75000000  0.49246174  0.75000000  1
  Li  Li39  1  0.75000000  0.50753826  0.25000000  1
  Li  Li40  1  0.25753826  0.50000000  0.50000000  1
  Li  Li41  1  0.24246174  0.50000000  0.00000000  1
  Li  Li42  1  0.75000000  0.00753826  0.75000000  1
  Li  Li43  1  0.75000000  0.99246174  0.25000000  1
  Li  Li44  1  0.74246174  0.50000000  0.50000000  1
  Li  Li45  1  0.75753826  0.50000000  -0.00000000  1
  Li  Li46  1  0.25000000  0.99246174  0.25000000  1
  Li  Li47  1  0.25000000  0.00753826  0.75000000  1
  S  S48  1  0.00000000  0.00000000  0.50000000  1
  S  S49  1  0.50000000  0.00000000  0.00000000  1
  S  S50  1  0.25000000  0.75000000  0.75000000  1
  S  S51  1  0.25000000  0.25000000  0.25000000  1
  S  S52  1  0.50000000  0.50000000  -0.00000000  1
  S  S53  1  0.00000000  0.50000000  0.50000000  1
  S  S54  1  0.75000000  0.25000000  0.25000000  1
  S  S55  1  0.75000000  0.75000000  0.75000000  1
  S  S56  1  0.05428322  0.03788166  0.42484028  1
  S  S57  1  0.44571678  -0.03788166  0.92484028  1
  S  S58  1  0.21211834  0.80428322  0.67484028  1
  S  S59  1  0.28788166  0.19571678  1.17484028  1
  S  S60  1  0.44571678  0.03788166  0.07515972  1
  S  S61  1  0.05428322  -0.03788166  -0.42484028  1
  S  S62  1  0.28788166  0.80428322  -0.17484028  1
  S  S63  1  0.21211834  0.19571678  0.32515972  1
  S  S64  1  -0.05428322  -0.03788166  -0.42484028  1
  S  S65  1  0.55428322  0.03788166  0.07515972  1
  S  S66  1  0.78788166  0.19571678  0.32515972  1
  S  S67  1  0.71211834  0.80428322  -0.17484028  1
  S  S68  1  0.55428322  -0.03788166  0.92484028  1
  S  S69  1  -0.05428322  0.03788166  0.42484028  1
  S  S70  1  0.71211834  0.19571678  1.17484028  1
  S  S71  1  0.78788166  0.80428322  0.67484028  1
  S  S72  1  0.55428322  0.53788166  0.92484028  1
  S  S73  1  0.94571678  0.46211834  1.42484028  1
  S  S74  1  0.71211834  1.30428322  1.17484028  1
  S  S75  1  0.78788166  0.69571678  1.67484028  1
  S  S76  1  0.94571678  0.53788166  0.57515972  1
  S  S77  1  0.55428322  0.46211834  0.07515972  1
  S  S78  1  0.78788166  1.30428322  0.32515972  1
  S  S79  1  0.71211834  0.69571678  0.82515972  1
  S  S80  1  0.44571678  0.46211834  0.07515972  1
  S  S81  1  1.05428322  0.53788166  0.57515972  1
  S  S82  1  1.28788166  0.69571678  0.82515972  1
  S  S83  1  1.21211834  1.30428322  0.32515972  1
  S  S84  1  1.05428322  0.46211834  1.42484028  1
  S  S85  1  0.44571678  0.53788166  0.92484028  1
  S  S86  1  1.21211834  0.69571678  1.67484028  1
  S  S87  1  1.28788166  1.30428322  1.17484028  1
  S  S88  1  0.00000000  0.00000000  0.00000000  1
  S  S89  1  0.50000000  0.00000000  0.50000000  1
  S  S90  1  0.25000000  0.75000000  0.25000000  1
  S  S91  1  0.25000000  0.25000000  0.75000000  1
  S  S92  1  0.50000000  0.50000000  0.50000000  1
  S  S93  1  0.00000000  0.50000000  0.00000000  1
  S  S94  1  0.75000000  0.25000000  0.75000000  1
  S  S95  1  0.75000000  0.75000000  0.25000000  1
  Sb  Sb96  1  0.39894502  0.64894502  0.87500000  1
  Sb  Sb97  1  0.10105498  0.35105498  0.37500000  1
  Sb  Sb98  1  0.60105498  0.14894502  0.12500000  1
  Sb  Sb99  1  0.89894502  0.85105498  0.62500000  1
  Sb  Sb100  1  0.60105498  0.35105498  0.12500000  1
  Sb  Sb101  1  0.89894502  0.64894502  0.62500000  1
  Sb  Sb102  1  0.39894502  0.85105498  0.87500000  1
  Sb  Sb103  1  0.10105498  0.14894502  0.37500000  1
  Sb  Sb104  1  0.89894502  0.14894502  0.37500000  1
  Sb  Sb105  1  0.60105498  0.85105498  0.87500000  1
  Sb  Sb106  1  0.10105498  0.64894502  0.62500000  1
  Sb  Sb107  1  0.39894502  0.35105498  0.12500000  1
  Sb  Sb108  1  0.10105498  0.85105498  0.62500000  1
  Sb  Sb109  1  0.39894502  0.14894502  0.12500000  1
  Sb  Sb110  1  0.89894502  0.35105498  0.37500000  1
  Sb  Sb111  1  0.60105498  0.64894502  0.87500000  1
