# generated using pymatgen
data_LiTi2P2Se5IO2
_symmetry_space_group_name_H-M   'P 1'
_cell_length_a   4.22373464
_cell_length_b   3.47502198
_cell_length_c   4.36429007
_cell_angle_alpha   91.33218622
_cell_angle_beta   88.54321870
_cell_angle_gamma   85.09896877
_symmetry_Int_Tables_number   1
_chemical_formula_structural   LiTi2P2Se5IO2
_chemical_formula_sum   'Li1 Ti2 P2 Se5 I1 O2'
_cell_volume   63.78155553
_cell_formula_units_Z   1
loop_
 _symmetry_equiv_pos_site_id
 _symmetry_equiv_pos_as_xyz
  1  'x, y, z'
loop_
 _atom_site_type_symbol
 _atom_site_label
 _atom_site_symmetry_multiplicity
 _atom_site_fract_x
 _atom_site_fract_y
 _atom_site_fract_z
 _atom_site_occupancy
  Li  Li0  1  0.00000000  0.00000000  0.00000000  1
  Ti  Ti1  1  0.50000000  0.50000000  0.50000000  1
  Ti  Ti2  1  0.50000000  0.50000000  0.00000000  1
  Se  Se3  1  0.50000000  0.00000000  0.50000000  1
  Se  Se4  1  0.00000000  0.50000000  0.50000000  1
  Se  Se5  1  0.37404897  0.57083954  0.75355522  1
  Se  Se6  1  0.85618071  0.35020205  0.45495566  1
  Se  Se7  1  0.11350211  0.57879327  0.09233821  1
  O  O8  1  0.76912079  0.01667644  0.43272024  1
  O  O9  1  0.98780539  0.61248671  0.01528698  1
  P  P10  1  0.51733289  0.61268134  0.02474793  1
  P  P11  1  0.57033945  0.57507955  0.69036989  1
  I  I12  1  0.25833380  0.66142056  0.90113238  1
