# generated using pymatgen
data_Li4Ti3Se8
_symmetry_space_group_name_H-M   'P 1'
_cell_length_a   9.60947719
_cell_length_b   9.60947719
_cell_length_c   15.31014417
_cell_angle_alpha   90.00000000
_cell_angle_beta   90.00000000
_cell_angle_gamma   90.00000000
_symmetry_Int_Tables_number   1
_chemical_formula_structural   Li4Ti3Se8
_chemical_formula_sum   'Li16 Ti12 Se32'
_cell_volume   1413.77012777
_cell_formula_units_Z   4
loop_
 _symmetry_equiv_pos_site_id
 _symmetry_equiv_pos_as_xyz
  1  'x, y, z'
loop_
 _atom_site_type_symbol
 _atom_site_label
 _atom_site_symmetry_multiplicity
 _atom_site_fract_x
 _atom_site_fract_y
 _atom_site_fract_z
 _atom_site_occupancy
  Li  Li0  1  0.19807039  0.44807039  0.87500000  1
  Li  Li1  1  0.30192961  0.55192961  0.37500000  1
  Li  Li2  1  0.80192961  0.94807039  0.12500000  1
  Li  Li3  1  0.69807039  0.05192961  0.62500000  1
  Li  Li4  1  0.80192961  0.55192961  0.12500000  1
  Li  Li5  1  0.69807039  0.44807039  0.62500000  1
  Li  Li6  1  0.19807039  0.05192961  0.87500000  1
  Li  Li7  1  0.30192961  0.94807039  0.37500000  1
  Li  Li8  1  0.69807039  0.94807039  0.37500000  1
  Li  Li9  1  0.80192961  0.05192961  0.87500000  1
  Li  Li10  1  0.30192961  0.44807039  0.62500000  1
  Li  Li11  1  0.19807039  0.55192961  0.12500000  1
  Li  Li12  1  0.30192961  0.05192961  0.62500000  1
  Li  Li13  1  0.19807039  0.94807039  0.12500000  1
  Li  Li14  1  0.69807039  0.55192961  0.37500000  1
  Li  Li15  1  0.80192961  0.44807039  0.87500000  1
  Se  Se16  1  0.00000000  0.59952434  0.73828120  1
  Se  Se17  1  0.50000000  -0.59952434  1.23828120  1
  Se  Se18  1  -0.34952434  0.75000000  0.98828120  1
  Se  Se19  1  0.84952434  0.25000000  1.48828120  1
  Se  Se20  1  0.50000000  0.59952434  -0.23828120  1
  Se  Se21  1  0.00000000  -0.59952434  -0.73828120  1
  Se  Se22  1  0.84952434  0.75000000  -0.48828120  1
  Se  Se23  1  -0.34952434  0.25000000  0.01171880  1
  Se  Se24  1  0.50000000  1.09952434  1.23828120  1
  Se  Se25  1  1.00000000  -0.09952434  1.73828120  1
  Se  Se26  1  0.15047566  1.25000000  1.48828120  1
  Se  Se27  1  1.34952434  0.75000000  1.98828120  1
  Se  Se28  1  1.00000000  1.09952434  0.26171880  1
  Se  Se29  1  0.50000000  -0.09952434  -0.23828120  1
  Se  Se30  1  1.34952434  1.25000000  0.01171880  1
  Se  Se31  1  0.15047566  0.75000000  0.51171880  1
  Se  Se32  1  0.00000000  0.00000000  0.00000000  1
  Se  Se33  1  0.50000000  0.00000000  0.50000000  1
  Se  Se34  1  0.25000000  0.75000000  0.25000000  1
  Se  Se35  1  0.25000000  0.25000000  0.75000000  1
  Se  Se36  1  0.50000000  0.50000000  0.50000000  1
  Se  Se37  1  0.00000000  0.50000000  0.00000000  1
  Se  Se38  1  0.75000000  0.25000000  0.75000000  1
  Se  Se39  1  0.75000000  0.75000000  0.25000000  1
  Se  Se40  1  0.00000000  0.00000000  0.50000000  1
  Se  Se41  1  0.50000000  0.00000000  0.00000000  1
  Se  Se42  1  0.25000000  0.75000000  0.75000000  1
  Se  Se43  1  0.25000000  0.25000000  0.25000000  1
  Se  Se44  1  0.50000000  0.50000000  0.00000000  1
  Se  Se45  1  0.00000000  0.50000000  0.50000000  1
  Se  Se46  1  0.75000000  0.25000000  0.25000000  1
  Se  Se47  1  0.75000000  0.75000000  0.75000000  1
  Ti  Ti48  1  0.00000000  0.75000000  0.12500000  1
  Ti  Ti49  1  0.50000000  0.75000000  0.37500000  1
  Ti  Ti50  1  0.50000000  0.25000000  0.62500000  1
  Ti  Ti51  1  0.00000000  0.25000000  0.87500000  1
  Ti  Ti52  1  0.00000000  0.25000000  0.42793530  1
  Ti  Ti53  1  0.00000000  0.75000000  0.67793530  1
  Ti  Ti54  1  0.50000000  0.25000000  0.07206470  1
  Ti  Ti55  1  0.50000000  0.75000000  0.82206470  1
  Ti  Ti56  1  0.50000000  0.75000000  0.92793530  1
  Ti  Ti57  1  0.50000000  0.25000000  0.17793530  1
  Ti  Ti58  1  0.00000000  0.75000000  0.57206470  1
  Ti  Ti59  1  0.00000000  0.25000000  0.32206470  1
