# generated using pymatgen
data_Li4Ti3O2
_symmetry_space_group_name_H-M   'P 1'
_cell_length_a   3.97219532
_cell_length_b   4.32191647
_cell_length_c   6.62708969
_cell_angle_alpha   107.90119272
_cell_angle_beta   104.65670290
_cell_angle_gamma   95.65641204
_symmetry_Int_Tables_number   1
_chemical_formula_structural   Li4Ti3O2
_chemical_formula_sum   'Li4 Ti3 O2'
_cell_volume   102.80042664
_cell_formula_units_Z   1
loop_
 _symmetry_equiv_pos_site_id
 _symmetry_equiv_pos_as_xyz
  1  'x, y, z'
loop_
 _atom_site_type_symbol
 _atom_site_label
 _atom_site_symmetry_multiplicity
 _atom_site_fract_x
 _atom_site_fract_y
 _atom_site_fract_z
 _atom_site_occupancy
  Li  Li0  1  0.00000000  0.00000000  0.00000000  1
  Li  Li1  1  0.33300000  0.66700000  0.25000000  1
  Li  Li2  1  0.66700000  0.33300000  0.50000000  1
  Li  Li3  1  0.00000000  0.00000000  0.75000000  1
  Ti  Ti4  1  0.70350408  0.24988794  0.73644754  1
  Ti  Ti5  1  0.08146483  0.84899794  0.37389108  1
  Ti  Ti6  1  0.23784074  0.60144780  0.29654973  1
  O  O7  1  0.36900768  0.88762588  0.38595796  1
  O  O8  1  0.06449310  0.30861927  0.22206596  1
