# generated using pymatgen
data_LiBr
_symmetry_space_group_name_H-M   'P 1'
_cell_length_a   4.98704449
_cell_length_b   4.98704449
_cell_length_c   7.60880598
_cell_angle_alpha   90.00000000
_cell_angle_beta   90.00000000
_cell_angle_gamma   120.00000000
_symmetry_Int_Tables_number   1
_chemical_formula_structural   LiBr
_chemical_formula_sum   'Li3 Br3'
_cell_volume   163.88289459
_cell_formula_units_Z   3
loop_
 _symmetry_equiv_pos_site_id
 _symmetry_equiv_pos_as_xyz
  1  'x, y, z'
loop_
 _atom_site_type_symbol
 _atom_site_label
 _atom_site_symmetry_multiplicity
 _atom_site_fract_x
 _atom_site_fract_y
 _atom_site_fract_z
 _atom_site_occupancy
  Br  Br0  1  0.00000000  0.00000000  0.08834849  1
  Br  Br1  1  0.00000000  0.00000000  0.91165151  1
  Br  Br2  1  0.00000000  0.00000000  0.50000000  1
  Li  Li3  1  0.44636388  0.00000000  0.00000000  1
  Li  Li4  1  0.00000000  0.44636388  0.00000000  1
  Li  Li5  1  -0.44636388  -0.44636388  0.00000000  1
