# generated using pymatgen
data_SiS2
_symmetry_space_group_name_H-M   'P 1'
_cell_length_a   12.63048359
_cell_length_b   12.63048359
_cell_length_c   12.63048359
_cell_angle_alpha   90.00000000
_cell_angle_beta   90.00000000
_cell_angle_gamma   90.00000000
_symmetry_Int_Tables_number   1
_chemical_formula_structural   SiS2
_chemical_formula_sum   'Si48 S96'
_cell_volume   2014.92987821
_cell_formula_units_Z   48
loop_
 _symmetry_equiv_pos_site_id
 _symmetry_equiv_pos_as_xyz
  1  'x, y, z'
loop_
 _atom_site_type_symbol
 _atom_site_label
 _atom_site_symmetry_multiplicity
 _atom_site_fract_x
 _atom_site_fract_y
 _atom_site_fract_z
 _atom_site_occupancy
  S  S0  1  0.89661237  -0.00000000  -0.00000000  1
  S  S1  1  0.10338763  -0.00000000  -0.00000000  1
  S  S2  1  0.00000000  0.89661237  -0.00000000  1
  S  S3  1  0.00000000  0.10338763  -0.00000000  1
  S  S4  1  0.00000000  0.00000000  0.89661237  1
  S  S5  1  0.00000000  0.00000000  0.10338763  1
  S  S6  1  0.89661237  0.50000000  0.50000000  1
  S  S7  1  0.10338763  0.50000000  0.50000000  1
  S  S8  1  0.00000000  0.39661237  0.50000000  1
  S  S9  1  0.00000000  0.60338763  0.50000000  1
  S  S10  1  0.00000000  0.50000000  0.39661237  1
  S  S11  1  0.00000000  0.50000000  0.60338763  1
  S  S12  1  0.39661237  -0.00000000  0.50000000  1
  S  S13  1  0.60338763  0.00000000  0.50000000  1
  S  S14  1  0.50000000  0.89661237  0.50000000  1
  S  S15  1  0.50000000  0.10338763  0.50000000  1
  S  S16  1  0.50000000  0.00000000  0.39661237  1
  S  S17  1  0.50000000  0.00000000  0.60338763  1
  S  S18  1  0.39661237  0.50000000  0.00000000  1
  S  S19  1  0.60338763  0.50000000  -0.00000000  1
  S  S20  1  0.50000000  0.39661237  0.00000000  1
  S  S21  1  0.50000000  0.60338763  -0.00000000  1
  S  S22  1  0.50000000  0.50000000  0.89661237  1
  S  S23  1  0.50000000  0.50000000  0.10338763  1
  S  S24  1  0.12334123  0.12334123  0.00660806  1
  S  S25  1  -0.12334123  -0.12334123  0.00660806  1
  S  S26  1  -0.12334123  0.12334123  -0.00660806  1
  S  S27  1  0.12334123  -0.12334123  -0.00660806  1
  S  S28  1  0.00660806  0.12334123  0.12334123  1
  S  S29  1  0.00660806  -0.12334123  -0.12334123  1
  S  S30  1  -0.00660806  -0.12334123  0.12334123  1
  S  S31  1  -0.00660806  0.12334123  -0.12334123  1
  S  S32  1  0.12334123  0.00660806  0.12334123  1
  S  S33  1  -0.12334123  0.00660806  -0.12334123  1
  S  S34  1  0.12334123  -0.00660806  -0.12334123  1
  S  S35  1  -0.12334123  -0.00660806  0.12334123  1
  S  S36  1  0.12334123  0.62334123  0.50660806  1
  S  S37  1  -0.12334123  0.37665877  0.50660806  1
  S  S38  1  -0.12334123  0.62334123  0.49339194  1
  S  S39  1  0.12334123  0.37665877  0.49339194  1
  S  S40  1  0.00660806  0.62334123  0.62334123  1
  S  S41  1  0.00660806  0.37665877  0.37665877  1
  S  S42  1  -0.00660806  0.37665877  0.62334123  1
  S  S43  1  -0.00660806  0.62334123  0.37665877  1
  S  S44  1  0.12334123  0.50660806  0.62334123  1
  S  S45  1  -0.12334123  0.50660806  0.37665877  1
  S  S46  1  0.12334123  0.49339194  0.37665877  1
  S  S47  1  -0.12334123  0.49339194  0.62334123  1
  S  S48  1  0.62334123  0.12334123  0.50660806  1
  S  S49  1  0.37665877  -0.12334123  0.50660806  1
  S  S50  1  0.37665877  0.12334123  0.49339194  1
  S  S51  1  0.62334123  -0.12334123  0.49339194  1
  S  S52  1  0.50660806  0.12334123  0.62334123  1
  S  S53  1  0.50660806  -0.12334123  0.37665877  1
  S  S54  1  0.49339194  -0.12334123  0.62334123  1
  S  S55  1  0.49339194  0.12334123  0.37665877  1
  S  S56  1  0.62334123  0.00660806  0.62334123  1
  S  S57  1  0.37665877  0.00660806  0.37665877  1
  S  S58  1  0.62334123  -0.00660806  0.37665877  1
  S  S59  1  0.37665877  -0.00660806  0.62334123  1
  S  S60  1  0.62334123  0.62334123  0.00660806  1
  S  S61  1  0.37665877  0.37665877  0.00660806  1
  S  S62  1  0.37665877  0.62334123  -0.00660806  1
  S  S63  1  0.62334123  0.37665877  -0.00660806  1
  S  S64  1  0.50660806  0.62334123  0.12334123  1
  S  S65  1  0.50660806  0.37665877  -0.12334123  1
  S  S66  1  0.49339194  0.37665877  0.12334123  1
  S  S67  1  0.49339194  0.62334123  -0.12334123  1
  S  S68  1  0.62334123  0.50660806  0.12334123  1
  S  S69  1  0.37665877  0.50660806  -0.12334123  1
  S  S70  1  0.62334123  0.49339194  -0.12334123  1
  S  S71  1  0.37665877  0.49339194  0.12334123  1
  S  S72  1  0.25000000  0.25000000  0.25000000  1
  S  S73  1  0.25000000  0.75000000  0.75000000  1
  S  S74  1  0.75000000  0.25000000  0.75000000  1
  S  S75  1  0.75000000  0.75000000  0.25000000  1
  S  S76  1  0.50000000  0.50000000  0.50000000  1
  S  S77  1  0.50000000  0.00000000  0.00000000  1
  S  S78  1  0.00000000  0.50000000  0.00000000  1
  S  S79  1  0.00000000  0.00000000  0.50000000  1
  S  S80  1  0.61418201  0.61418201  0.61418201  1
  S  S81  1  0.38581799  0.38581799  0.61418201  1
  S  S82  1  0.38581799  0.61418201  0.38581799  1
  S  S83  1  0.61418201  0.38581799  0.38581799  1
  S  S84  1  0.61418201  0.11418201  0.11418201  1
  S  S85  1  0.38581799  0.88581799  0.11418201  1
  S  S86  1  0.38581799  0.11418201  0.88581799  1
  S  S87  1  0.61418201  0.88581799  0.88581799  1
  S  S88  1  0.11418201  0.61418201  0.11418201  1
  S  S89  1  0.88581799  0.38581799  0.11418201  1
  S  S90  1  0.88581799  0.61418201  0.88581799  1
  S  S91  1  0.11418201  0.38581799  0.88581799  1
  S  S92  1  0.11418201  0.11418201  0.61418201  1
  S  S93  1  0.88581799  0.88581799  0.61418201  1
  S  S94  1  0.88581799  0.11418201  0.38581799  1
  S  S95  1  0.11418201  0.88581799  0.38581799  1
  Si  Si96  1  0.80071871  0.80071871  0.03323139  1
  Si  Si97  1  0.19928129  0.19928129  0.03323139  1
  Si  Si98  1  0.19928129  0.80071871  0.96676861  1
  Si  Si99  1  0.80071871  0.19928129  0.96676861  1
  Si  Si100  1  0.03323139  0.80071871  0.80071871  1
  Si  Si101  1  0.03323139  0.19928129  0.19928129  1
  Si  Si102  1  0.96676861  0.19928129  0.80071871  1
  Si  Si103  1  0.96676861  0.80071871  0.19928129  1
  Si  Si104  1  0.80071871  0.03323139  0.80071871  1
  Si  Si105  1  0.19928129  0.03323139  0.19928129  1
  Si  Si106  1  0.80071871  0.96676861  0.19928129  1
  Si  Si107  1  0.19928129  0.96676861  0.80071871  1
  Si  Si108  1  0.80071871  0.30071871  0.53323139  1
  Si  Si109  1  0.19928129  0.69928129  0.53323139  1
  Si  Si110  1  0.19928129  0.30071871  0.46676861  1
  Si  Si111  1  0.80071871  0.69928129  0.46676861  1
  Si  Si112  1  0.03323139  0.30071871  0.30071871  1
  Si  Si113  1  0.03323139  0.69928129  0.69928129  1
  Si  Si114  1  0.96676861  0.69928129  0.30071871  1
  Si  Si115  1  0.96676861  0.30071871  0.69928129  1
  Si  Si116  1  0.80071871  0.53323139  0.30071871  1
  Si  Si117  1  0.19928129  0.53323139  0.69928129  1
  Si  Si118  1  0.80071871  0.46676861  0.69928129  1
  Si  Si119  1  0.19928129  0.46676861  0.30071871  1
  Si  Si120  1  0.30071871  0.80071871  0.53323139  1
  Si  Si121  1  0.69928129  0.19928129  0.53323139  1
  Si  Si122  1  0.69928129  0.80071871  0.46676861  1
  Si  Si123  1  0.30071871  0.19928129  0.46676861  1
  Si  Si124  1  0.53323139  0.80071871  0.30071871  1
  Si  Si125  1  0.53323139  0.19928129  0.69928129  1
  Si  Si126  1  0.46676861  0.19928129  0.30071871  1
  Si  Si127  1  0.46676861  0.80071871  0.69928129  1
  Si  Si128  1  0.30071871  0.03323139  0.30071871  1
  Si  Si129  1  0.69928129  0.03323139  0.69928129  1
  Si  Si130  1  0.30071871  0.96676861  0.69928129  1
  Si  Si131  1  0.69928129  0.96676861  0.30071871  1
  Si  Si132  1  0.30071871  0.30071871  0.03323139  1
  Si  Si133  1  0.69928129  0.69928129  0.03323139  1
  Si  Si134  1  0.69928129  0.30071871  0.96676861  1
  Si  Si135  1  0.30071871  0.69928129  0.96676861  1
  Si  Si136  1  0.53323139  0.30071871  0.80071871  1
  Si  Si137  1  0.53323139  0.69928129  0.19928129  1
  Si  Si138  1  0.46676861  0.69928129  0.80071871  1
  Si  Si139  1  0.46676861  0.30071871  0.19928129  1
  Si  Si140  1  0.30071871  0.53323139  0.80071871  1
  Si  Si141  1  0.69928129  0.53323139  0.19928129  1
  Si  Si142  1  0.30071871  0.46676861  0.19928129  1
  Si  Si143  1  0.69928129  0.46676861  0.80071871  1
