# generated using pymatgen
data_Li8I3Cl3F2
_symmetry_space_group_name_H-M   'P 1'
_cell_length_a   13.58996841
_cell_length_b   6.18906873
_cell_length_c   12.06413639
_cell_angle_alpha   90.00000000
_cell_angle_beta   90.00000000
_cell_angle_gamma   90.00000000
_symmetry_Int_Tables_number   1
_chemical_formula_structural   Li8I3Cl3F2
_chemical_formula_sum   'Li32 I12 Cl12 F8'
_cell_volume   1014.70544643
_cell_formula_units_Z   4
loop_
 _symmetry_equiv_pos_site_id
 _symmetry_equiv_pos_as_xyz
  1  'x, y, z'
loop_
 _atom_site_type_symbol
 _atom_site_label
 _atom_site_symmetry_multiplicity
 _atom_site_fract_x
 _atom_site_fract_y
 _atom_site_fract_z
 _atom_site_occupancy
  Cl  Cl0  1  0.11722448  0.61521691  0.72106182  1
  Cl  Cl1  1  0.38277552  -0.61521691  1.22106182  1
  Cl  Cl2  1  -0.11722448  1.11521691  -0.72106182  1
  Cl  Cl3  1  0.61722448  -0.11521691  -0.22106182  1
  Cl  Cl4  1  -0.11722448  -0.61521691  -0.72106182  1
  Cl  Cl5  1  0.61722448  0.61521691  -0.22106182  1
  Cl  Cl6  1  0.11722448  -0.11521691  0.72106182  1
  Cl  Cl7  1  0.38277552  1.11521691  1.22106182  1
  Cl  Cl8  1  0.37155213  0.25000000  0.81613130  1
  Cl  Cl9  1  0.12844787  0.75000000  0.31613130  1
  Cl  Cl10  1  0.62844787  0.75000000  0.18386870  1
  Cl  Cl11  1  0.87155213  0.25000000  0.68386870  1
  F  F12  1  0.41186360  0.25000000  0.53746415  1
  F  F13  1  0.08813640  0.75000000  0.03746415  1
  F  F14  1  0.58813640  0.75000000  0.46253585  1
  F  F15  1  0.91186360  0.25000000  0.96253585  1
  F  F16  1  0.68607844  0.25000000  0.07903965  1
  F  F17  1  0.81392156  0.75000000  0.57903965  1
  F  F18  1  0.31392156  0.75000000  0.92096035  1
  F  F19  1  0.18607844  0.25000000  0.42096035  1
  I  I20  1  0.36618543  0.25000000  0.97791583  1
  I  I21  1  0.13381457  0.75000000  0.47791583  1
  I  I22  1  0.63381457  0.75000000  0.02208417  1
  I  I23  1  0.86618543  0.25000000  0.52208417  1
  I  I24  1  0.00000000  0.00000000  0.50000000  1
  I  I25  1  0.50000000  0.00000000  0.00000000  1
  I  I26  1  0.00000000  0.50000000  0.50000000  1
  I  I27  1  0.50000000  0.50000000  -0.00000000  1
  I  I28  1  0.00000000  0.00000000  0.00000000  1
  I  I29  1  0.50000000  0.00000000  0.50000000  1
  I  I30  1  0.00000000  0.50000000  0.00000000  1
  I  I31  1  0.50000000  0.50000000  0.50000000  1
  Li  Li32  1  0.51538040  0.04259894  0.68996750  1
  Li  Li33  1  0.98461960  0.95740106  0.18996750  1
  Li  Li34  1  0.48461960  0.54259894  0.31003250  1
  Li  Li35  1  0.01538040  0.45740106  0.81003250  1
  Li  Li36  1  0.48461960  0.95740106  0.31003250  1
  Li  Li37  1  0.01538040  0.04259894  0.81003250  1
  Li  Li38  1  0.51538040  0.45740106  0.68996750  1
  Li  Li39  1  0.98461960  0.54259894  0.18996750  1
  Li  Li40  1  0.38550092  0.99267987  0.42968366  1
  Li  Li41  1  0.11449908  0.00732013  0.92968366  1
  Li  Li42  1  0.61449908  0.49267987  0.57031634  1
  Li  Li43  1  0.88550092  0.50732013  0.07031634  1
  Li  Li44  1  0.61449908  0.00732013  0.57031634  1
  Li  Li45  1  0.88550092  0.99267987  0.07031634  1
  Li  Li46  1  0.38550092  0.50732013  0.42968366  1
  Li  Li47  1  0.11449908  0.49267987  0.92968366  1
  Li  Li48  1  0.11370768  0.25000000  0.13097897  1
  Li  Li49  1  0.38629232  0.75000000  0.63097897  1
  Li  Li50  1  0.88629232  0.75000000  0.86902103  1
  Li  Li51  1  0.61370768  0.25000000  0.36902103  1
  Li  Li52  1  0.53515160  0.25000000  0.43918727  1
  Li  Li53  1  0.96484840  0.75000000  0.93918727  1
  Li  Li54  1  0.46484840  0.75000000  0.56081273  1
  Li  Li55  1  0.03515160  0.25000000  0.06081273  1
  Li  Li56  1  0.30277464  0.01379329  0.80220313  1
  Li  Li57  1  0.19722536  0.98620671  0.30220313  1
  Li  Li58  1  0.69722536  0.51379329  0.19779687  1
  Li  Li59  1  0.80277464  0.48620671  0.69779687  1
  Li  Li60  1  0.69722536  0.98620671  0.19779687  1
  Li  Li61  1  0.80277464  0.01379329  0.69779687  1
  Li  Li62  1  0.30277464  0.48620671  0.80220313  1
  Li  Li63  1  0.19722536  0.51379329  0.30220313  1
