# generated using pymatgen
data_Li2Te
_symmetry_space_group_name_H-M   'P 1'
_cell_length_a   14.67069131
_cell_length_b   14.67069131
_cell_length_c   14.67069131
_cell_angle_alpha   90.00000000
_cell_angle_beta   90.00000000
_cell_angle_gamma   90.00000000
_symmetry_Int_Tables_number   1
_chemical_formula_structural   Li2Te
_chemical_formula_sum   'Li96 Te48'
_cell_volume   3157.56091144
_cell_formula_units_Z   48
loop_
 _symmetry_equiv_pos_site_id
 _symmetry_equiv_pos_as_xyz
  1  'x, y, z'
loop_
 _atom_site_type_symbol
 _atom_site_label
 _atom_site_symmetry_multiplicity
 _atom_site_fract_x
 _atom_site_fract_y
 _atom_site_fract_z
 _atom_site_occupancy
  Li  Li0  1  0.86054226  0.31156899  0.92015174  1
  Li  Li1  1  -0.36054226  -0.31156899  1.42015174  1
  Li  Li2  1  -0.86054226  0.81156899  -0.42015174  1
  Li  Li3  1  1.36054226  0.18843101  -0.92015174  1
  Li  Li4  1  0.92015174  0.86054226  0.31156899  1
  Li  Li5  1  1.42015174  -0.36054226  -0.31156899  1
  Li  Li6  1  -0.42015174  -0.86054226  0.81156899  1
  Li  Li7  1  -0.92015174  1.36054226  0.18843101  1
  Li  Li8  1  0.31156899  0.92015174  0.86054226  1
  Li  Li9  1  -0.31156899  1.42015174  -0.36054226  1
  Li  Li10  1  0.81156899  -0.42015174  -0.86054226  1
  Li  Li11  1  0.18843101  -0.92015174  1.36054226  1
  Li  Li12  1  1.06156899  1.11054226  -0.67015174  1
  Li  Li13  1  0.43843101  -0.11054226  -0.17015174  1
  Li  Li14  1  0.56156899  -0.61054226  1.67015174  1
  Li  Li15  1  -0.06156899  1.61054226  1.17015174  1
  Li  Li16  1  1.61054226  1.17015174  -0.06156899  1
  Li  Li17  1  -0.61054226  1.67015174  0.56156899  1
  Li  Li18  1  -0.11054226  -0.17015174  0.43843101  1
  Li  Li19  1  1.11054226  -0.67015174  1.06156899  1
  Li  Li20  1  1.67015174  0.56156899  -0.61054226  1
  Li  Li21  1  1.17015174  -0.06156899  1.61054226  1
  Li  Li22  1  -0.67015174  1.06156899  1.11054226  1
  Li  Li23  1  -0.17015174  0.43843101  -0.11054226  1
  Li  Li24  1  -0.86054226  -0.31156899  -0.92015174  1
  Li  Li25  1  1.36054226  0.31156899  -0.42015174  1
  Li  Li26  1  0.86054226  0.18843101  1.42015174  1
  Li  Li27  1  -0.36054226  0.81156899  0.92015174  1
  Li  Li28  1  -0.92015174  -0.86054226  -0.31156899  1
  Li  Li29  1  -0.42015174  1.36054226  0.31156899  1
  Li  Li30  1  1.42015174  0.86054226  0.18843101  1
  Li  Li31  1  0.92015174  -0.36054226  0.81156899  1
  Li  Li32  1  -0.31156899  -0.92015174  -0.86054226  1
  Li  Li33  1  0.31156899  -0.42015174  1.36054226  1
  Li  Li34  1  0.18843101  1.42015174  0.86054226  1
  Li  Li35  1  0.81156899  0.92015174  -0.36054226  1
  Li  Li36  1  -0.06156899  -0.11054226  1.67015174  1
  Li  Li37  1  0.56156899  1.11054226  1.17015174  1
  Li  Li38  1  0.43843101  1.61054226  -0.67015174  1
  Li  Li39  1  1.06156899  -0.61054226  -0.17015174  1
  Li  Li40  1  -0.61054226  -0.17015174  1.06156899  1
  Li  Li41  1  1.61054226  -0.67015174  0.43843101  1
  Li  Li42  1  1.11054226  1.17015174  0.56156899  1
  Li  Li43  1  -0.11054226  1.67015174  -0.06156899  1
  Li  Li44  1  -0.67015174  0.43843101  1.61054226  1
  Li  Li45  1  -0.17015174  1.06156899  -0.61054226  1
  Li  Li46  1  1.67015174  -0.06156899  -0.11054226  1
  Li  Li47  1  1.17015174  0.56156899  1.11054226  1
  Li  Li48  1  1.36054226  0.81156899  1.42015174  1
  Li  Li49  1  0.13945774  0.18843101  1.92015174  1
  Li  Li50  1  -0.36054226  1.31156899  0.07984826  1
  Li  Li51  1  1.86054226  0.68843101  -0.42015174  1
  Li  Li52  1  1.42015174  1.36054226  0.81156899  1
  Li  Li53  1  1.92015174  0.13945774  0.18843101  1
  Li  Li54  1  0.07984826  -0.36054226  1.31156899  1
  Li  Li55  1  -0.42015174  1.86054226  0.68843101  1
  Li  Li56  1  0.81156899  1.42015174  1.36054226  1
  Li  Li57  1  0.18843101  1.92015174  0.13945774  1
  Li  Li58  1  1.31156899  0.07984826  -0.36054226  1
  Li  Li59  1  0.68843101  -0.42015174  1.86054226  1
  Li  Li60  1  1.56156899  1.61054226  -0.17015174  1
  Li  Li61  1  0.93843101  0.38945774  0.32984826  1
  Li  Li62  1  1.06156899  -0.11054226  2.17015174  1
  Li  Li63  1  0.43843101  2.11054226  1.67015174  1
  Li  Li64  1  2.11054226  1.67015174  0.43843101  1
  Li  Li65  1  -0.11054226  2.17015174  1.06156899  1
  Li  Li66  1  0.38945774  0.32984826  0.93843101  1
  Li  Li67  1  1.61054226  -0.17015174  1.56156899  1
  Li  Li68  1  2.17015174  1.06156899  -0.11054226  1
  Li  Li69  1  1.67015174  0.43843101  2.11054226  1
  Li  Li70  1  -0.17015174  1.56156899  1.61054226  1
  Li  Li71  1  0.32984826  0.93843101  0.38945774  1
  Li  Li72  1  -0.36054226  0.18843101  -0.42015174  1
  Li  Li73  1  1.86054226  0.81156899  0.07984826  1
  Li  Li74  1  1.36054226  0.68843101  1.92015174  1
  Li  Li75  1  0.13945774  1.31156899  1.42015174  1
  Li  Li76  1  -0.42015174  -0.36054226  0.18843101  1
  Li  Li77  1  0.07984826  1.86054226  0.81156899  1
  Li  Li78  1  1.92015174  1.36054226  0.68843101  1
  Li  Li79  1  1.42015174  0.13945774  1.31156899  1
  Li  Li80  1  0.18843101  -0.42015174  -0.36054226  1
  Li  Li81  1  0.81156899  0.07984826  1.86054226  1
  Li  Li82  1  0.68843101  1.92015174  1.36054226  1
  Li  Li83  1  1.31156899  1.42015174  0.13945774  1
  Li  Li84  1  0.43843101  0.38945774  2.17015174  1
  Li  Li85  1  1.06156899  1.61054226  1.67015174  1
  Li  Li86  1  0.93843101  2.11054226  -0.17015174  1
  Li  Li87  1  1.56156899  -0.11054226  0.32984826  1
  Li  Li88  1  -0.11054226  0.32984826  1.56156899  1
  Li  Li89  1  2.11054226  -0.17015174  0.93843101  1
  Li  Li90  1  1.61054226  1.67015174  1.06156899  1
  Li  Li91  1  0.38945774  2.17015174  0.43843101  1
  Li  Li92  1  -0.17015174  0.93843101  2.11054226  1
  Li  Li93  1  0.32984826  1.56156899  -0.11054226  1
  Li  Li94  1  2.17015174  0.43843101  0.38945774  1
  Li  Li95  1  1.67015174  1.06156899  1.61054226  1
  Te  Te96  1  0.12500000  -0.00000000  0.25000000  1
  Te  Te97  1  0.37500000  -0.00000000  0.75000000  1
  Te  Te98  1  0.25000000  0.12500000  -0.00000000  1
  Te  Te99  1  0.75000000  0.37500000  -0.00000000  1
  Te  Te100  1  0.00000000  0.25000000  0.12500000  1
  Te  Te101  1  0.00000000  0.75000000  0.37500000  1
  Te  Te102  1  0.87500000  -0.00000000  0.75000000  1
  Te  Te103  1  0.62500000  0.00000000  0.25000000  1
  Te  Te104  1  0.75000000  0.87500000  -0.00000000  1
  Te  Te105  1  0.25000000  0.62500000  -0.00000000  1
  Te  Te106  1  0.00000000  0.75000000  0.87500000  1
  Te  Te107  1  0.00000000  0.25000000  0.62500000  1
  Te  Te108  1  0.62500000  0.50000000  0.75000000  1
  Te  Te109  1  0.87500000  0.50000000  0.25000000  1
  Te  Te110  1  0.75000000  0.62500000  0.50000000  1
  Te  Te111  1  0.25000000  0.87500000  0.50000000  1
  Te  Te112  1  0.50000000  0.75000000  0.62500000  1
  Te  Te113  1  0.50000000  0.25000000  0.87500000  1
  Te  Te114  1  0.37500000  0.50000000  0.25000000  1
  Te  Te115  1  0.12500000  0.50000000  0.75000000  1
  Te  Te116  1  0.25000000  0.37500000  0.50000000  1
  Te  Te117  1  0.75000000  0.12500000  0.50000000  1
  Te  Te118  1  0.50000000  0.25000000  0.37500000  1
  Te  Te119  1  0.50000000  0.75000000  0.12500000  1
  Te  Te120  1  0.37500000  -0.00000000  0.25000000  1
  Te  Te121  1  0.12500000  -0.00000000  0.75000000  1
  Te  Te122  1  0.25000000  0.37500000  -0.00000000  1
  Te  Te123  1  0.75000000  0.12500000  -0.00000000  1
  Te  Te124  1  0.00000000  0.25000000  0.37500000  1
  Te  Te125  1  0.00000000  0.75000000  0.12500000  1
  Te  Te126  1  0.75000000  0.62500000  0.00000000  1
  Te  Te127  1  0.75000000  0.37500000  0.50000000  1
  Te  Te128  1  0.12500000  0.50000000  0.25000000  1
  Te  Te129  1  0.87500000  -0.00000000  0.25000000  1
  Te  Te130  1  0.00000000  0.25000000  0.87500000  1
  Te  Te131  1  0.50000000  0.25000000  0.12500000  1
  Te  Te132  1  0.87500000  0.50000000  0.75000000  1
  Te  Te133  1  0.62500000  0.50000000  0.25000000  1
  Te  Te134  1  0.75000000  0.87500000  0.50000000  1
  Te  Te135  1  0.25000000  0.62500000  0.50000000  1
  Te  Te136  1  0.50000000  0.75000000  0.87500000  1
  Te  Te137  1  0.50000000  0.25000000  0.62500000  1
  Te  Te138  1  0.25000000  0.12500000  0.50000000  1
  Te  Te139  1  0.25000000  0.87500000  -0.00000000  1
  Te  Te140  1  0.62500000  0.00000000  0.75000000  1
  Te  Te141  1  0.37500000  0.50000000  0.75000000  1
  Te  Te142  1  0.50000000  0.75000000  0.37500000  1
  Te  Te143  1  0.00000000  0.75000000  0.62500000  1
