# generated using pymatgen
data_LiF
_symmetry_space_group_name_H-M   'P 1'
_cell_length_a   8.39087804
_cell_length_b   8.76955985
_cell_length_c   10.92605032
_cell_angle_alpha   90.00000000
_cell_angle_beta   90.00000000
_cell_angle_gamma   90.00000000
_symmetry_Int_Tables_number   1
_chemical_formula_structural   LiF
_chemical_formula_sum   'Li24 F24'
_cell_volume   803.98584238
_cell_formula_units_Z   24
loop_
 _symmetry_equiv_pos_site_id
 _symmetry_equiv_pos_as_xyz
  1  'x, y, z'
loop_
 _atom_site_type_symbol
 _atom_site_label
 _atom_site_symmetry_multiplicity
 _atom_site_fract_x
 _atom_site_fract_y
 _atom_site_fract_z
 _atom_site_occupancy
  F  F0  1  0.77388962  0.77809689  0.07212724  1
  F  F1  1  0.22611038  0.22190311  0.07212724  1
  F  F2  1  0.72611038  0.27809689  0.92787276  1
  F  F3  1  0.27388962  0.72190311  0.92787276  1
  F  F4  1  0.22611038  0.22190311  0.92787276  1
  F  F5  1  0.77388962  0.77809689  0.92787276  1
  F  F6  1  0.27388962  0.72190311  0.07212724  1
  F  F7  1  0.72611038  0.27809689  0.07212724  1
  F  F8  1  0.79493621  0.64638629  0.59093928  1
  F  F9  1  0.20506379  0.35361371  0.59093928  1
  F  F10  1  0.70506379  0.14638629  0.40906072  1
  F  F11  1  0.29493621  0.85361371  0.40906072  1
  F  F12  1  0.20506379  0.35361371  0.40906072  1
  F  F13  1  0.79493621  0.64638629  0.40906072  1
  F  F14  1  0.29493621  0.85361371  0.59093928  1
  F  F15  1  0.70506379  0.14638629  0.59093928  1
  F  F16  1  0.00000000  0.50000000  0.00000000  1
  F  F17  1  0.50000000  0.00000000  -0.00000000  1
  F  F18  1  0.76491021  0.22163779  -0.00000000  1
  F  F19  1  0.23508979  0.77836221  0.00000000  1
  F  F20  1  0.73508979  0.72163779  0.00000000  1
  F  F21  1  0.26491021  0.27836221  0.00000000  1
  F  F22  1  0.00000000  0.50000000  0.50000000  1
  F  F23  1  0.50000000  0.00000000  0.50000000  1
  Li  Li24  1  0.95420252  0.67989267  0.50000000  1
  Li  Li25  1  0.04579748  0.32010733  0.50000000  1
  Li  Li26  1  0.54579748  0.17989267  0.50000000  1
  Li  Li27  1  0.45420252  0.82010733  0.50000000  1
  Li  Li28  1  0.00000000  0.50000000  0.11086332  1
  Li  Li29  1  0.50000000  0.00000000  0.88913668  1
  Li  Li30  1  0.00000000  0.50000000  0.88913668  1
  Li  Li31  1  0.50000000  0.00000000  0.11086332  1
  Li  Li32  1  0.18930345  0.82705547  0.23078338  1
  Li  Li33  1  -0.18930345  -0.82705547  0.23078338  1
  Li  Li34  1  0.31069655  1.32705547  -0.23078338  1
  Li  Li35  1  0.68930345  -0.32705547  -0.23078338  1
  Li  Li36  1  -0.18930345  -0.82705547  -0.23078338  1
  Li  Li37  1  0.18930345  0.82705547  -0.23078338  1
  Li  Li38  1  0.68930345  -0.32705547  0.23078338  1
  Li  Li39  1  0.31069655  1.32705547  0.23078338  1
  Li  Li40  1  0.61220031  0.42907614  0.50000000  1
  Li  Li41  1  0.38779969  0.57092386  0.50000000  1
  Li  Li42  1  0.88779969  0.92907614  0.50000000  1
  Li  Li43  1  0.11220031  0.07092386  0.50000000  1
  Li  Li44  1  0.00000000  0.50000000  0.38689179  1
  Li  Li45  1  0.50000000  0.00000000  0.61310821  1
  Li  Li46  1  0.00000000  0.50000000  0.61310821  1
  Li  Li47  1  0.50000000  0.00000000  0.38689179  1
