# generated using pymatgen
data_Li4Mg2ZrO6
_symmetry_space_group_name_H-M   'P 1'
_cell_length_a   23.13308212
_cell_length_b   23.13308212
_cell_length_c   23.13308212
_cell_angle_alpha   90.00000000
_cell_angle_beta   90.00000000
_cell_angle_gamma   90.00000000
_symmetry_Int_Tables_number   1
_chemical_formula_structural   Li4Mg2ZrO6
_chemical_formula_sum   'Li192 Mg96 Zr48 O288'
_cell_volume   12379.42573427
_cell_formula_units_Z   48
loop_
 _symmetry_equiv_pos_site_id
 _symmetry_equiv_pos_as_xyz
  1  'x, y, z'
loop_
 _atom_site_type_symbol
 _atom_site_label
 _atom_site_symmetry_multiplicity
 _atom_site_fract_x
 _atom_site_fract_y
 _atom_site_fract_z
 _atom_site_occupancy
  Li  Li0  1  0.71599374  -0.00000000  -0.00000000  1
  Li  Li1  1  0.28400626  0.00000000  0.00000000  1
  Li  Li2  1  0.00000000  0.71599374  -0.00000000  1
  Li  Li3  1  0.00000000  0.28400626  0.00000000  1
  Li  Li4  1  0.00000000  0.00000000  0.71599374  1
  Li  Li5  1  0.00000000  0.00000000  0.28400626  1
  Li  Li6  1  0.71599374  0.50000000  0.50000000  1
  Li  Li7  1  0.28400626  0.50000000  0.50000000  1
  Li  Li8  1  0.00000000  0.21599374  0.50000000  1
  Li  Li9  1  0.00000000  0.78400626  0.50000000  1
  Li  Li10  1  0.00000000  0.50000000  0.21599374  1
  Li  Li11  1  0.00000000  0.50000000  0.78400626  1
  Li  Li12  1  0.21599374  0.00000000  0.50000000  1
  Li  Li13  1  0.78400626  0.00000000  0.50000000  1
  Li  Li14  1  0.50000000  0.71599374  0.50000000  1
  Li  Li15  1  0.50000000  0.28400626  0.50000000  1
  Li  Li16  1  0.50000000  0.00000000  0.21599374  1
  Li  Li17  1  0.50000000  0.00000000  0.78400626  1
  Li  Li18  1  0.21599374  0.50000000  0.00000000  1
  Li  Li19  1  0.78400626  0.50000000  0.00000000  1
  Li  Li20  1  0.50000000  0.21599374  0.00000000  1
  Li  Li21  1  0.50000000  0.78400626  0.00000000  1
  Li  Li22  1  0.50000000  0.50000000  0.71599374  1
  Li  Li23  1  0.50000000  0.50000000  0.28400626  1
  Li  Li24  1  0.05070890  -0.00000000  -0.00000000  1
  Li  Li25  1  0.94929110  -0.00000000  -0.00000000  1
  Li  Li26  1  0.00000000  0.05070890  -0.00000000  1
  Li  Li27  1  0.00000000  0.94929110  -0.00000000  1
  Li  Li28  1  0.00000000  0.00000000  0.05070890  1
  Li  Li29  1  0.00000000  0.00000000  0.94929110  1
  Li  Li30  1  0.05070890  0.50000000  0.50000000  1
  Li  Li31  1  0.94929110  0.50000000  0.50000000  1
  Li  Li32  1  0.00000000  0.55070890  0.50000000  1
  Li  Li33  1  0.00000000  0.44929110  0.50000000  1
  Li  Li34  1  0.00000000  0.50000000  0.55070890  1
  Li  Li35  1  0.00000000  0.50000000  0.44929110  1
  Li  Li36  1  0.55070890  0.00000000  0.50000000  1
  Li  Li37  1  0.44929110  -0.00000000  0.50000000  1
  Li  Li38  1  0.50000000  0.05070890  0.50000000  1
  Li  Li39  1  0.50000000  0.94929110  0.50000000  1
  Li  Li40  1  0.50000000  0.00000000  0.55070890  1
  Li  Li41  1  0.50000000  0.00000000  0.44929110  1
  Li  Li42  1  0.55070890  0.50000000  0.00000000  1
  Li  Li43  1  0.44929110  0.50000000  0.00000000  1
  Li  Li44  1  0.50000000  0.55070890  0.00000000  1
  Li  Li45  1  0.50000000  0.44929110  0.00000000  1
  Li  Li46  1  0.50000000  0.50000000  0.05070890  1
  Li  Li47  1  0.50000000  0.50000000  0.94929110  1
  Li  Li48  1  0.92249535  0.29106931  0.64604898  1
  Li  Li49  1  0.07750465  0.70893069  0.64604898  1
  Li  Li50  1  0.07750465  0.29106931  0.35395102  1
  Li  Li51  1  0.92249535  0.70893069  0.35395102  1
  Li  Li52  1  0.64604898  0.92249535  0.29106931  1
  Li  Li53  1  0.64604898  0.07750465  0.70893069  1
  Li  Li54  1  0.35395102  0.07750465  0.29106931  1
  Li  Li55  1  0.35395102  0.92249535  0.70893069  1
  Li  Li56  1  0.29106931  0.64604898  0.92249535  1
  Li  Li57  1  0.70893069  0.64604898  0.07750465  1
  Li  Li58  1  0.29106931  0.35395102  0.07750465  1
  Li  Li59  1  0.70893069  0.35395102  0.92249535  1
  Li  Li60  1  0.29106931  0.92249535  0.64604898  1
  Li  Li61  1  0.70893069  0.07750465  0.64604898  1
  Li  Li62  1  0.29106931  0.07750465  0.35395102  1
  Li  Li63  1  0.70893069  0.92249535  0.35395102  1
  Li  Li64  1  0.92249535  0.64604898  0.29106931  1
  Li  Li65  1  0.07750465  0.64604898  0.70893069  1
  Li  Li66  1  0.07750465  0.35395102  0.29106931  1
  Li  Li67  1  0.92249535  0.35395102  0.70893069  1
  Li  Li68  1  0.64604898  0.29106931  0.92249535  1
  Li  Li69  1  0.64604898  0.70893069  0.07750465  1
  Li  Li70  1  0.35395102  0.29106931  0.07750465  1
  Li  Li71  1  0.35395102  0.70893069  0.92249535  1
  Li  Li72  1  0.92249535  0.79106931  0.14604898  1
  Li  Li73  1  0.07750465  0.20893069  0.14604898  1
  Li  Li74  1  0.07750465  0.79106931  0.85395102  1
  Li  Li75  1  0.92249535  0.20893069  0.85395102  1
  Li  Li76  1  0.64604898  0.42249535  0.79106931  1
  Li  Li77  1  0.64604898  0.57750465  0.20893069  1
  Li  Li78  1  0.35395102  0.57750465  0.79106931  1
  Li  Li79  1  0.35395102  0.42249535  0.20893069  1
  Li  Li80  1  0.29106931  0.14604898  0.42249535  1
  Li  Li81  1  0.70893069  0.14604898  0.57750465  1
  Li  Li82  1  0.29106931  0.85395102  0.57750465  1
  Li  Li83  1  0.70893069  0.85395102  0.42249535  1
  Li  Li84  1  0.29106931  0.42249535  0.14604898  1
  Li  Li85  1  0.70893069  0.57750465  0.14604898  1
  Li  Li86  1  0.29106931  0.57750465  0.85395102  1
  Li  Li87  1  0.70893069  0.42249535  0.85395102  1
  Li  Li88  1  0.92249535  0.14604898  0.79106931  1
  Li  Li89  1  0.07750465  0.14604898  0.20893069  1
  Li  Li90  1  0.07750465  0.85395102  0.79106931  1
  Li  Li91  1  0.92249535  0.85395102  0.20893069  1
  Li  Li92  1  0.64604898  0.79106931  0.42249535  1
  Li  Li93  1  0.64604898  0.20893069  0.57750465  1
  Li  Li94  1  0.35395102  0.79106931  0.57750465  1
  Li  Li95  1  0.35395102  0.20893069  0.42249535  1
  Li  Li96  1  0.42249535  0.29106931  0.14604898  1
  Li  Li97  1  0.57750465  0.70893069  0.14604898  1
  Li  Li98  1  0.57750465  0.29106931  0.85395102  1
  Li  Li99  1  0.42249535  0.70893069  0.85395102  1
  Li  Li100  1  0.14604898  0.92249535  0.79106931  1
  Li  Li101  1  0.14604898  0.07750465  0.20893069  1
  Li  Li102  1  0.85395102  0.07750465  0.79106931  1
  Li  Li103  1  0.85395102  0.92249535  0.20893069  1
  Li  Li104  1  0.79106931  0.64604898  0.42249535  1
  Li  Li105  1  0.20893069  0.64604898  0.57750465  1
  Li  Li106  1  0.79106931  0.35395102  0.57750465  1
  Li  Li107  1  0.20893069  0.35395102  0.42249535  1
  Li  Li108  1  0.79106931  0.92249535  0.14604898  1
  Li  Li109  1  0.20893069  0.07750465  0.14604898  1
  Li  Li110  1  0.79106931  0.07750465  0.85395102  1
  Li  Li111  1  0.20893069  0.92249535  0.85395102  1
  Li  Li112  1  0.42249535  0.64604898  0.79106931  1
  Li  Li113  1  0.57750465  0.64604898  0.20893069  1
  Li  Li114  1  0.57750465  0.35395102  0.79106931  1
  Li  Li115  1  0.42249535  0.35395102  0.20893069  1
  Li  Li116  1  0.14604898  0.29106931  0.42249535  1
  Li  Li117  1  0.14604898  0.70893069  0.57750465  1
  Li  Li118  1  0.85395102  0.29106931  0.57750465  1
  Li  Li119  1  0.85395102  0.70893069  0.42249535  1
  Li  Li120  1  0.42249535  0.79106931  0.64604898  1
  Li  Li121  1  0.57750465  0.20893069  0.64604898  1
  Li  Li122  1  0.57750465  0.79106931  0.35395102  1
  Li  Li123  1  0.42249535  0.20893069  0.35395102  1
  Li  Li124  1  0.14604898  0.42249535  0.29106931  1
  Li  Li125  1  0.14604898  0.57750465  0.70893069  1
  Li  Li126  1  0.85395102  0.57750465  0.29106931  1
  Li  Li127  1  0.85395102  0.42249535  0.70893069  1
  Li  Li128  1  0.79106931  0.14604898  0.92249535  1
  Li  Li129  1  0.20893069  0.14604898  0.07750465  1
  Li  Li130  1  0.79106931  0.85395102  0.07750465  1
  Li  Li131  1  0.20893069  0.85395102  0.92249535  1
  Li  Li132  1  0.79106931  0.42249535  0.64604898  1
  Li  Li133  1  0.20893069  0.57750465  0.64604898  1
  Li  Li134  1  0.79106931  0.57750465  0.35395102  1
  Li  Li135  1  0.20893069  0.42249535  0.35395102  1
  Li  Li136  1  0.42249535  0.14604898  0.29106931  1
  Li  Li137  1  0.57750465  0.14604898  0.70893069  1
  Li  Li138  1  0.57750465  0.85395102  0.29106931  1
  Li  Li139  1  0.42249535  0.85395102  0.70893069  1
  Li  Li140  1  0.14604898  0.79106931  0.92249535  1
  Li  Li141  1  0.14604898  0.20893069  0.07750465  1
  Li  Li142  1  0.85395102  0.79106931  0.07750465  1
  Li  Li143  1  0.85395102  0.20893069  0.92249535  1
  Li  Li144  1  0.62730552  0.62730552  0.55829711  1
  Li  Li145  1  0.37269448  0.37269448  0.55829711  1
  Li  Li146  1  0.37269448  0.62730552  0.44170289  1
  Li  Li147  1  0.62730552  0.37269448  0.44170289  1
  Li  Li148  1  0.55829711  0.62730552  0.62730552  1
  Li  Li149  1  0.55829711  0.37269448  0.37269448  1
  Li  Li150  1  0.44170289  0.37269448  0.62730552  1
  Li  Li151  1  0.44170289  0.62730552  0.37269448  1
  Li  Li152  1  0.62730552  0.55829711  0.62730552  1
  Li  Li153  1  0.37269448  0.55829711  0.37269448  1
  Li  Li154  1  0.62730552  0.44170289  0.37269448  1
  Li  Li155  1  0.37269448  0.44170289  0.62730552  1
  Li  Li156  1  0.62730552  0.12730552  0.05829711  1
  Li  Li157  1  0.37269448  0.87269448  0.05829711  1
  Li  Li158  1  0.37269448  0.12730552  0.94170289  1
  Li  Li159  1  0.62730552  0.87269448  0.94170289  1
  Li  Li160  1  0.55829711  0.12730552  0.12730552  1
  Li  Li161  1  0.55829711  0.87269448  0.87269448  1
  Li  Li162  1  0.44170289  0.87269448  0.12730552  1
  Li  Li163  1  0.44170289  0.12730552  0.87269448  1
  Li  Li164  1  0.62730552  0.05829711  0.12730552  1
  Li  Li165  1  0.37269448  0.05829711  0.87269448  1
  Li  Li166  1  0.62730552  0.94170289  0.87269448  1
  Li  Li167  1  0.37269448  0.94170289  0.12730552  1
  Li  Li168  1  0.12730552  0.62730552  0.05829711  1
  Li  Li169  1  0.87269448  0.37269448  0.05829711  1
  Li  Li170  1  0.87269448  0.62730552  0.94170289  1
  Li  Li171  1  0.12730552  0.37269448  0.94170289  1
  Li  Li172  1  0.05829711  0.62730552  0.12730552  1
  Li  Li173  1  0.05829711  0.37269448  0.87269448  1
  Li  Li174  1  0.94170289  0.37269448  0.12730552  1
  Li  Li175  1  0.94170289  0.62730552  0.87269448  1
  Li  Li176  1  0.12730552  0.55829711  0.12730552  1
  Li  Li177  1  0.87269448  0.55829711  0.87269448  1
  Li  Li178  1  0.12730552  0.44170289  0.87269448  1
  Li  Li179  1  0.87269448  0.44170289  0.12730552  1
  Li  Li180  1  0.12730552  0.12730552  0.55829711  1
  Li  Li181  1  0.87269448  0.87269448  0.55829711  1
  Li  Li182  1  0.87269448  0.12730552  0.44170289  1
  Li  Li183  1  0.12730552  0.87269448  0.44170289  1
  Li  Li184  1  0.05829711  0.12730552  0.62730552  1
  Li  Li185  1  0.05829711  0.87269448  0.37269448  1
  Li  Li186  1  0.94170289  0.87269448  0.62730552  1
  Li  Li187  1  0.94170289  0.12730552  0.37269448  1
  Li  Li188  1  0.12730552  0.05829711  0.62730552  1
  Li  Li189  1  0.87269448  0.05829711  0.37269448  1
  Li  Li190  1  0.12730552  0.94170289  0.37269448  1
  Li  Li191  1  0.87269448  0.94170289  0.62730552  1
  Mg  Mg192  1  0.85928960  0.85928960  0.85928960  1
  Mg  Mg193  1  0.14071040  0.14071040  0.85928960  1
  Mg  Mg194  1  0.14071040  0.85928960  0.14071040  1
  Mg  Mg195  1  0.85928960  0.14071040  0.14071040  1
  Mg  Mg196  1  0.85928960  0.35928960  0.35928960  1
  Mg  Mg197  1  0.14071040  0.64071040  0.35928960  1
  Mg  Mg198  1  0.14071040  0.35928960  0.64071040  1
  Mg  Mg199  1  0.85928960  0.64071040  0.64071040  1
  Mg  Mg200  1  0.35928960  0.85928960  0.35928960  1
  Mg  Mg201  1  0.64071040  0.14071040  0.35928960  1
  Mg  Mg202  1  0.64071040  0.85928960  0.64071040  1
  Mg  Mg203  1  0.35928960  0.14071040  0.64071040  1
  Mg  Mg204  1  0.35928960  0.35928960  0.85928960  1
  Mg  Mg205  1  0.64071040  0.64071040  0.85928960  1
  Mg  Mg206  1  0.64071040  0.35928960  0.14071040  1
  Mg  Mg207  1  0.35928960  0.64071040  0.14071040  1
  Mg  Mg208  1  0.87015188  0.87015188  0.76844926  1
  Mg  Mg209  1  0.12984812  0.12984812  0.76844926  1
  Mg  Mg210  1  0.12984812  0.87015188  0.23155074  1
  Mg  Mg211  1  0.87015188  0.12984812  0.23155074  1
  Mg  Mg212  1  0.76844926  0.87015188  0.87015188  1
  Mg  Mg213  1  0.76844926  0.12984812  0.12984812  1
  Mg  Mg214  1  0.23155074  0.12984812  0.87015188  1
  Mg  Mg215  1  0.23155074  0.87015188  0.12984812  1
  Mg  Mg216  1  0.87015188  0.76844926  0.87015188  1
  Mg  Mg217  1  0.12984812  0.76844926  0.12984812  1
  Mg  Mg218  1  0.87015188  0.23155074  0.12984812  1
  Mg  Mg219  1  0.12984812  0.23155074  0.87015188  1
  Mg  Mg220  1  0.87015188  0.37015188  0.26844926  1
  Mg  Mg221  1  0.12984812  0.62984812  0.26844926  1
  Mg  Mg222  1  0.12984812  0.37015188  0.73155074  1
  Mg  Mg223  1  0.87015188  0.62984812  0.73155074  1
  Mg  Mg224  1  0.76844926  0.37015188  0.37015188  1
  Mg  Mg225  1  0.76844926  0.62984812  0.62984812  1
  Mg  Mg226  1  0.23155074  0.62984812  0.37015188  1
  Mg  Mg227  1  0.23155074  0.37015188  0.62984812  1
  Mg  Mg228  1  0.87015188  0.26844926  0.37015188  1
  Mg  Mg229  1  0.12984812  0.26844926  0.62984812  1
  Mg  Mg230  1  0.87015188  0.73155074  0.62984812  1
  Mg  Mg231  1  0.12984812  0.73155074  0.37015188  1
  Mg  Mg232  1  0.37015188  0.87015188  0.26844926  1
  Mg  Mg233  1  0.62984812  0.12984812  0.26844926  1
  Mg  Mg234  1  0.62984812  0.87015188  0.73155074  1
  Mg  Mg235  1  0.37015188  0.12984812  0.73155074  1
  Mg  Mg236  1  0.26844926  0.87015188  0.37015188  1
  Mg  Mg237  1  0.26844926  0.12984812  0.62984812  1
  Mg  Mg238  1  0.73155074  0.12984812  0.37015188  1
  Mg  Mg239  1  0.73155074  0.87015188  0.62984812  1
  Mg  Mg240  1  0.37015188  0.76844926  0.37015188  1
  Mg  Mg241  1  0.62984812  0.76844926  0.62984812  1
  Mg  Mg242  1  0.37015188  0.23155074  0.62984812  1
  Mg  Mg243  1  0.62984812  0.23155074  0.37015188  1
  Mg  Mg244  1  0.37015188  0.37015188  0.76844926  1
  Mg  Mg245  1  0.62984812  0.62984812  0.76844926  1
  Mg  Mg246  1  0.62984812  0.37015188  0.23155074  1
  Mg  Mg247  1  0.37015188  0.62984812  0.23155074  1
  Mg  Mg248  1  0.26844926  0.37015188  0.87015188  1
  Mg  Mg249  1  0.26844926  0.62984812  0.12984812  1
  Mg  Mg250  1  0.73155074  0.62984812  0.87015188  1
  Mg  Mg251  1  0.73155074  0.37015188  0.12984812  1
  Mg  Mg252  1  0.37015188  0.26844926  0.87015188  1
  Mg  Mg253  1  0.62984812  0.26844926  0.12984812  1
  Mg  Mg254  1  0.37015188  0.73155074  0.12984812  1
  Mg  Mg255  1  0.62984812  0.73155074  0.87015188  1
  Mg  Mg256  1  0.31588253  0.31588253  0.31588253  1
  Mg  Mg257  1  0.68411747  0.68411747  0.31588253  1
  Mg  Mg258  1  0.68411747  0.31588253  0.68411747  1
  Mg  Mg259  1  0.31588253  0.68411747  0.68411747  1
  Mg  Mg260  1  0.31588253  0.81588253  0.81588253  1
  Mg  Mg261  1  0.68411747  0.18411747  0.81588253  1
  Mg  Mg262  1  0.68411747  0.81588253  0.18411747  1
  Mg  Mg263  1  0.31588253  0.18411747  0.18411747  1
  Mg  Mg264  1  0.81588253  0.31588253  0.81588253  1
  Mg  Mg265  1  0.18411747  0.68411747  0.81588253  1
  Mg  Mg266  1  0.18411747  0.31588253  0.18411747  1
  Mg  Mg267  1  0.81588253  0.68411747  0.18411747  1
  Mg  Mg268  1  0.81588253  0.81588253  0.31588253  1
  Mg  Mg269  1  0.18411747  0.18411747  0.31588253  1
  Mg  Mg270  1  0.18411747  0.81588253  0.68411747  1
  Mg  Mg271  1  0.81588253  0.18411747  0.68411747  1
  Mg  Mg272  1  0.90501396  0.90501396  0.90501396  1
  Mg  Mg273  1  0.09498604  0.09498604  0.90501396  1
  Mg  Mg274  1  0.09498604  0.90501396  0.09498604  1
  Mg  Mg275  1  0.90501396  0.09498604  0.09498604  1
  Mg  Mg276  1  0.90501396  0.40501396  0.40501396  1
  Mg  Mg277  1  0.09498604  0.59498604  0.40501396  1
  Mg  Mg278  1  0.09498604  0.40501396  0.59498604  1
  Mg  Mg279  1  0.90501396  0.59498604  0.59498604  1
  Mg  Mg280  1  0.40501396  0.90501396  0.40501396  1
  Mg  Mg281  1  0.59498604  0.09498604  0.40501396  1
  Mg  Mg282  1  0.59498604  0.90501396  0.59498604  1
  Mg  Mg283  1  0.40501396  0.09498604  0.59498604  1
  Mg  Mg284  1  0.40501396  0.40501396  0.90501396  1
  Mg  Mg285  1  0.59498604  0.59498604  0.90501396  1
  Mg  Mg286  1  0.59498604  0.40501396  0.09498604  1
  Mg  Mg287  1  0.40501396  0.59498604  0.09498604  1
  O  O288  1  0.70215338  0.12893598  0.73575219  1
  O  O289  1  -0.70215338  -0.12893598  0.73575219  1
  O  O290  1  -0.70215338  0.12893598  -0.73575219  1
  O  O291  1  0.70215338  -0.12893598  -0.73575219  1
  O  O292  1  0.73575219  0.70215338  0.12893598  1
  O  O293  1  0.73575219  -0.70215338  -0.12893598  1
  O  O294  1  -0.73575219  -0.70215338  0.12893598  1
  O  O295  1  -0.73575219  0.70215338  -0.12893598  1
  O  O296  1  0.12893598  0.73575219  0.70215338  1
  O  O297  1  -0.12893598  0.73575219  -0.70215338  1
  O  O298  1  0.12893598  -0.73575219  -0.70215338  1
  O  O299  1  -0.12893598  -0.73575219  0.70215338  1
  O  O300  1  0.12893598  0.70215338  0.73575219  1
  O  O301  1  -0.12893598  -0.70215338  0.73575219  1
  O  O302  1  0.12893598  -0.70215338  -0.73575219  1
  O  O303  1  -0.12893598  0.70215338  -0.73575219  1
  O  O304  1  0.70215338  0.73575219  0.12893598  1
  O  O305  1  -0.70215338  0.73575219  -0.12893598  1
  O  O306  1  -0.70215338  -0.73575219  0.12893598  1
  O  O307  1  0.70215338  -0.73575219  -0.12893598  1
  O  O308  1  0.73575219  0.12893598  0.70215338  1
  O  O309  1  0.73575219  -0.12893598  -0.70215338  1
  O  O310  1  -0.73575219  0.12893598  -0.70215338  1
  O  O311  1  -0.73575219  -0.12893598  0.70215338  1
  O  O312  1  0.70215338  0.62893598  1.23575219  1
  O  O313  1  -0.70215338  0.37106402  1.23575219  1
  O  O314  1  -0.70215338  0.62893598  -0.23575219  1
  O  O315  1  0.70215338  0.37106402  -0.23575219  1
  O  O316  1  0.73575219  1.20215338  0.62893598  1
  O  O317  1  0.73575219  -0.20215338  0.37106402  1
  O  O318  1  -0.73575219  -0.20215338  0.62893598  1
  O  O319  1  -0.73575219  1.20215338  0.37106402  1
  O  O320  1  0.12893598  1.23575219  1.20215338  1
  O  O321  1  -0.12893598  1.23575219  -0.20215338  1
  O  O322  1  0.12893598  -0.23575219  -0.20215338  1
  O  O323  1  -0.12893598  -0.23575219  1.20215338  1
  O  O324  1  0.12893598  1.20215338  1.23575219  1
  O  O325  1  -0.12893598  -0.20215338  1.23575219  1
  O  O326  1  0.12893598  -0.20215338  -0.23575219  1
  O  O327  1  -0.12893598  1.20215338  -0.23575219  1
  O  O328  1  0.70215338  1.23575219  0.62893598  1
  O  O329  1  -0.70215338  1.23575219  0.37106402  1
  O  O330  1  -0.70215338  -0.23575219  0.62893598  1
  O  O331  1  0.70215338  -0.23575219  0.37106402  1
  O  O332  1  0.73575219  0.62893598  1.20215338  1
  O  O333  1  0.73575219  0.37106402  -0.20215338  1
  O  O334  1  -0.73575219  0.62893598  -0.20215338  1
  O  O335  1  -0.73575219  0.37106402  1.20215338  1
  O  O336  1  1.20215338  0.12893598  1.23575219  1
  O  O337  1  -0.20215338  -0.12893598  1.23575219  1
  O  O338  1  -0.20215338  0.12893598  -0.23575219  1
  O  O339  1  1.20215338  -0.12893598  -0.23575219  1
  O  O340  1  1.23575219  0.70215338  0.62893598  1
  O  O341  1  1.23575219  -0.70215338  0.37106402  1
  O  O342  1  -0.23575219  -0.70215338  0.62893598  1
  O  O343  1  -0.23575219  0.70215338  0.37106402  1
  O  O344  1  0.62893598  0.73575219  1.20215338  1
  O  O345  1  0.37106402  0.73575219  -0.20215338  1
  O  O346  1  0.62893598  -0.73575219  -0.20215338  1
  O  O347  1  0.37106402  -0.73575219  1.20215338  1
  O  O348  1  0.62893598  0.70215338  1.23575219  1
  O  O349  1  0.37106402  -0.70215338  1.23575219  1
  O  O350  1  0.62893598  -0.70215338  -0.23575219  1
  O  O351  1  0.37106402  0.70215338  -0.23575219  1
  O  O352  1  1.20215338  0.73575219  0.62893598  1
  O  O353  1  -0.20215338  0.73575219  0.37106402  1
  O  O354  1  -0.20215338  -0.73575219  0.62893598  1
  O  O355  1  1.20215338  -0.73575219  0.37106402  1
  O  O356  1  1.23575219  0.12893598  1.20215338  1
  O  O357  1  1.23575219  -0.12893598  -0.20215338  1
  O  O358  1  -0.23575219  0.12893598  -0.20215338  1
  O  O359  1  -0.23575219  -0.12893598  1.20215338  1
  O  O360  1  1.20215338  0.62893598  0.73575219  1
  O  O361  1  -0.20215338  0.37106402  0.73575219  1
  O  O362  1  -0.20215338  0.62893598  -0.73575219  1
  O  O363  1  1.20215338  0.37106402  -0.73575219  1
  O  O364  1  1.23575219  1.20215338  0.12893598  1
  O  O365  1  1.23575219  -0.20215338  -0.12893598  1
  O  O366  1  -0.23575219  -0.20215338  0.12893598  1
  O  O367  1  -0.23575219  1.20215338  -0.12893598  1
  O  O368  1  0.62893598  1.23575219  0.70215338  1
  O  O369  1  0.37106402  1.23575219  -0.70215338  1
  O  O370  1  0.62893598  -0.23575219  -0.70215338  1
  O  O371  1  0.37106402  -0.23575219  0.70215338  1
  O  O372  1  0.62893598  1.20215338  0.73575219  1
  O  O373  1  0.37106402  -0.20215338  0.73575219  1
  O  O374  1  0.62893598  -0.20215338  -0.73575219  1
  O  O375  1  0.37106402  1.20215338  -0.73575219  1
  O  O376  1  1.20215338  1.23575219  0.12893598  1
  O  O377  1  -0.20215338  1.23575219  -0.12893598  1
  O  O378  1  -0.20215338  -0.23575219  0.12893598  1
  O  O379  1  1.20215338  -0.23575219  -0.12893598  1
  O  O380  1  1.23575219  0.62893598  0.70215338  1
  O  O381  1  1.23575219  0.37106402  -0.70215338  1
  O  O382  1  -0.23575219  0.62893598  -0.70215338  1
  O  O383  1  -0.23575219  0.37106402  0.70215338  1
  O  O384  1  0.26909956  0.65812806  0.55506645  1
  O  O385  1  0.73090044  0.34187194  0.55506645  1
  O  O386  1  0.73090044  0.65812806  0.44493355  1
  O  O387  1  0.26909956  0.34187194  0.44493355  1
  O  O388  1  0.55506645  0.26909956  0.65812806  1
  O  O389  1  0.55506645  0.73090044  0.34187194  1
  O  O390  1  0.44493355  0.73090044  0.65812806  1
  O  O391  1  0.44493355  0.26909956  0.34187194  1
  O  O392  1  0.65812806  0.55506645  0.26909956  1
  O  O393  1  0.34187194  0.55506645  0.73090044  1
  O  O394  1  0.65812806  0.44493355  0.73090044  1
  O  O395  1  0.34187194  0.44493355  0.26909956  1
  O  O396  1  0.65812806  0.26909956  0.55506645  1
  O  O397  1  0.34187194  0.73090044  0.55506645  1
  O  O398  1  0.65812806  0.73090044  0.44493355  1
  O  O399  1  0.34187194  0.26909956  0.44493355  1
  O  O400  1  0.26909956  0.55506645  0.65812806  1
  O  O401  1  0.73090044  0.55506645  0.34187194  1
  O  O402  1  0.73090044  0.44493355  0.65812806  1
  O  O403  1  0.26909956  0.44493355  0.34187194  1
  O  O404  1  0.55506645  0.65812806  0.26909956  1
  O  O405  1  0.55506645  0.34187194  0.73090044  1
  O  O406  1  0.44493355  0.65812806  0.73090044  1
  O  O407  1  0.44493355  0.34187194  0.26909956  1
  O  O408  1  0.26909956  0.15812806  0.05506645  1
  O  O409  1  0.73090044  0.84187194  0.05506645  1
  O  O410  1  0.73090044  0.15812806  0.94493355  1
  O  O411  1  0.26909956  0.84187194  0.94493355  1
  O  O412  1  0.55506645  0.76909956  0.15812806  1
  O  O413  1  0.55506645  0.23090044  0.84187194  1
  O  O414  1  0.44493355  0.23090044  0.15812806  1
  O  O415  1  0.44493355  0.76909956  0.84187194  1
  O  O416  1  0.65812806  0.05506645  0.76909956  1
  O  O417  1  0.34187194  0.05506645  0.23090044  1
  O  O418  1  0.65812806  0.94493355  0.23090044  1
  O  O419  1  0.34187194  0.94493355  0.76909956  1
  O  O420  1  0.65812806  0.76909956  0.05506645  1
  O  O421  1  0.34187194  0.23090044  0.05506645  1
  O  O422  1  0.65812806  0.23090044  0.94493355  1
  O  O423  1  0.34187194  0.76909956  0.94493355  1
  O  O424  1  0.26909956  0.05506645  0.15812806  1
  O  O425  1  0.73090044  0.05506645  0.84187194  1
  O  O426  1  0.73090044  0.94493355  0.15812806  1
  O  O427  1  0.26909956  0.94493355  0.84187194  1
  O  O428  1  0.55506645  0.15812806  0.76909956  1
  O  O429  1  0.55506645  0.84187194  0.23090044  1
  O  O430  1  0.44493355  0.15812806  0.23090044  1
  O  O431  1  0.44493355  0.84187194  0.76909956  1
  O  O432  1  0.76909956  0.65812806  0.05506645  1
  O  O433  1  0.23090044  0.34187194  0.05506645  1
  O  O434  1  0.23090044  0.65812806  0.94493355  1
  O  O435  1  0.76909956  0.34187194  0.94493355  1
  O  O436  1  0.05506645  0.26909956  0.15812806  1
  O  O437  1  0.05506645  0.73090044  0.84187194  1
  O  O438  1  0.94493355  0.73090044  0.15812806  1
  O  O439  1  0.94493355  0.26909956  0.84187194  1
  O  O440  1  0.15812806  0.55506645  0.76909956  1
  O  O441  1  0.84187194  0.55506645  0.23090044  1
  O  O442  1  0.15812806  0.44493355  0.23090044  1
  O  O443  1  0.84187194  0.44493355  0.76909956  1
  O  O444  1  0.15812806  0.26909956  0.05506645  1
  O  O445  1  0.84187194  0.73090044  0.05506645  1
  O  O446  1  0.15812806  0.73090044  0.94493355  1
  O  O447  1  0.84187194  0.26909956  0.94493355  1
  O  O448  1  0.76909956  0.55506645  0.15812806  1
  O  O449  1  0.23090044  0.55506645  0.84187194  1
  O  O450  1  0.23090044  0.44493355  0.15812806  1
  O  O451  1  0.76909956  0.44493355  0.84187194  1
  O  O452  1  0.05506645  0.65812806  0.76909956  1
  O  O453  1  0.05506645  0.34187194  0.23090044  1
  O  O454  1  0.94493355  0.65812806  0.23090044  1
  O  O455  1  0.94493355  0.34187194  0.76909956  1
  O  O456  1  0.76909956  0.15812806  0.55506645  1
  O  O457  1  0.23090044  0.84187194  0.55506645  1
  O  O458  1  0.23090044  0.15812806  0.44493355  1
  O  O459  1  0.76909956  0.84187194  0.44493355  1
  O  O460  1  0.05506645  0.76909956  0.65812806  1
  O  O461  1  0.05506645  0.23090044  0.34187194  1
  O  O462  1  0.94493355  0.23090044  0.65812806  1
  O  O463  1  0.94493355  0.76909956  0.34187194  1
  O  O464  1  0.15812806  0.05506645  0.26909956  1
  O  O465  1  0.84187194  0.05506645  0.73090044  1
  O  O466  1  0.15812806  0.94493355  0.73090044  1
  O  O467  1  0.84187194  0.94493355  0.26909956  1
  O  O468  1  0.15812806  0.76909956  0.55506645  1
  O  O469  1  0.84187194  0.23090044  0.55506645  1
  O  O470  1  0.15812806  0.23090044  0.44493355  1
  O  O471  1  0.84187194  0.76909956  0.44493355  1
  O  O472  1  0.76909956  0.05506645  0.65812806  1
  O  O473  1  0.23090044  0.05506645  0.34187194  1
  O  O474  1  0.23090044  0.94493355  0.65812806  1
  O  O475  1  0.76909956  0.94493355  0.34187194  1
  O  O476  1  0.05506645  0.15812806  0.26909956  1
  O  O477  1  0.05506645  0.84187194  0.73090044  1
  O  O478  1  0.94493355  0.15812806  0.73090044  1
  O  O479  1  0.94493355  0.84187194  0.26909956  1
  O  O480  1  0.11805448  0.11805448  0.08082698  1
  O  O481  1  0.88194552  0.88194552  0.08082698  1
  O  O482  1  0.88194552  0.11805448  0.91917302  1
  O  O483  1  0.11805448  0.88194552  0.91917302  1
  O  O484  1  0.08082698  0.11805448  0.11805448  1
  O  O485  1  0.08082698  0.88194552  0.88194552  1
  O  O486  1  0.91917302  0.88194552  0.11805448  1
  O  O487  1  0.91917302  0.11805448  0.88194552  1
  O  O488  1  0.11805448  0.08082698  0.11805448  1
  O  O489  1  0.88194552  0.08082698  0.88194552  1
  O  O490  1  0.11805448  0.91917302  0.88194552  1
  O  O491  1  0.88194552  0.91917302  0.11805448  1
  O  O492  1  0.11805448  0.61805448  0.58082698  1
  O  O493  1  0.88194552  0.38194552  0.58082698  1
  O  O494  1  0.88194552  0.61805448  0.41917302  1
  O  O495  1  0.11805448  0.38194552  0.41917302  1
  O  O496  1  0.08082698  0.61805448  0.61805448  1
  O  O497  1  0.08082698  0.38194552  0.38194552  1
  O  O498  1  0.91917302  0.38194552  0.61805448  1
  O  O499  1  0.91917302  0.61805448  0.38194552  1
  O  O500  1  0.11805448  0.58082698  0.61805448  1
  O  O501  1  0.88194552  0.58082698  0.38194552  1
  O  O502  1  0.11805448  0.41917302  0.38194552  1
  O  O503  1  0.88194552  0.41917302  0.61805448  1
  O  O504  1  0.61805448  0.11805448  0.58082698  1
  O  O505  1  0.38194552  0.88194552  0.58082698  1
  O  O506  1  0.38194552  0.11805448  0.41917302  1
  O  O507  1  0.61805448  0.88194552  0.41917302  1
  O  O508  1  0.58082698  0.11805448  0.61805448  1
  O  O509  1  0.58082698  0.88194552  0.38194552  1
  O  O510  1  0.41917302  0.88194552  0.61805448  1
  O  O511  1  0.41917302  0.11805448  0.38194552  1
  O  O512  1  0.61805448  0.08082698  0.61805448  1
  O  O513  1  0.38194552  0.08082698  0.38194552  1
  O  O514  1  0.61805448  0.91917302  0.38194552  1
  O  O515  1  0.38194552  0.91917302  0.61805448  1
  O  O516  1  0.61805448  0.61805448  0.08082698  1
  O  O517  1  0.38194552  0.38194552  0.08082698  1
  O  O518  1  0.38194552  0.61805448  0.91917302  1
  O  O519  1  0.61805448  0.38194552  0.91917302  1
  O  O520  1  0.58082698  0.61805448  0.11805448  1
  O  O521  1  0.58082698  0.38194552  0.88194552  1
  O  O522  1  0.41917302  0.38194552  0.11805448  1
  O  O523  1  0.41917302  0.61805448  0.88194552  1
  O  O524  1  0.61805448  0.58082698  0.11805448  1
  O  O525  1  0.38194552  0.58082698  0.88194552  1
  O  O526  1  0.61805448  0.41917302  0.88194552  1
  O  O527  1  0.38194552  0.41917302  0.11805448  1
  O  O528  1  0.05018386  0.05018386  0.05018386  1
  O  O529  1  0.94981614  0.94981614  0.05018386  1
  O  O530  1  0.94981614  0.05018386  0.94981614  1
  O  O531  1  0.05018386  0.94981614  0.94981614  1
  O  O532  1  0.05018386  0.55018386  0.55018386  1
  O  O533  1  0.94981614  0.44981614  0.55018386  1
  O  O534  1  0.94981614  0.55018386  0.44981614  1
  O  O535  1  0.05018386  0.44981614  0.44981614  1
  O  O536  1  0.55018386  0.05018386  0.55018386  1
  O  O537  1  0.44981614  0.94981614  0.55018386  1
  O  O538  1  0.44981614  0.05018386  0.44981614  1
  O  O539  1  0.55018386  0.94981614  0.44981614  1
  O  O540  1  0.55018386  0.55018386  0.05018386  1
  O  O541  1  0.44981614  0.44981614  0.05018386  1
  O  O542  1  0.44981614  0.55018386  0.94981614  1
  O  O543  1  0.55018386  0.44981614  0.94981614  1
  O  O544  1  0.12797523  0.12797523  0.12797523  1
  O  O545  1  0.87202477  0.87202477  0.12797523  1
  O  O546  1  0.87202477  0.12797523  0.87202477  1
  O  O547  1  0.12797523  0.87202477  0.87202477  1
  O  O548  1  0.12797523  0.62797523  0.62797523  1
  O  O549  1  0.87202477  0.37202477  0.62797523  1
  O  O550  1  0.87202477  0.62797523  0.37202477  1
  O  O551  1  0.12797523  0.37202477  0.37202477  1
  O  O552  1  0.62797523  0.12797523  0.62797523  1
  O  O553  1  0.37202477  0.87202477  0.62797523  1
  O  O554  1  0.37202477  0.12797523  0.37202477  1
  O  O555  1  0.62797523  0.87202477  0.37202477  1
  O  O556  1  0.62797523  0.62797523  0.12797523  1
  O  O557  1  0.37202477  0.37202477  0.12797523  1
  O  O558  1  0.37202477  0.62797523  0.87202477  1
  O  O559  1  0.62797523  0.37202477  0.87202477  1
  O  O560  1  0.40371732  0.40371732  0.40371732  1
  O  O561  1  0.59628268  0.59628268  0.40371732  1
  O  O562  1  0.59628268  0.40371732  0.59628268  1
  O  O563  1  0.40371732  0.59628268  0.59628268  1
  O  O564  1  0.40371732  0.90371732  0.90371732  1
  O  O565  1  0.59628268  0.09628268  0.90371732  1
  O  O566  1  0.59628268  0.90371732  0.09628268  1
  O  O567  1  0.40371732  0.09628268  0.09628268  1
  O  O568  1  0.90371732  0.40371732  0.90371732  1
  O  O569  1  0.09628268  0.59628268  0.90371732  1
  O  O570  1  0.09628268  0.40371732  0.09628268  1
  O  O571  1  0.90371732  0.59628268  0.09628268  1
  O  O572  1  0.90371732  0.90371732  0.40371732  1
  O  O573  1  0.09628268  0.09628268  0.40371732  1
  O  O574  1  0.09628268  0.90371732  0.59628268  1
  O  O575  1  0.90371732  0.09628268  0.59628268  1
  Zr  Zr576  1  0.45132055  0.45132055  0.45132055  1
  Zr  Zr577  1  0.54867945  0.54867945  0.45132055  1
  Zr  Zr578  1  0.54867945  0.45132055  0.54867945  1
  Zr  Zr579  1  0.45132055  0.54867945  0.54867945  1
  Zr  Zr580  1  0.45132055  0.95132055  0.95132055  1
  Zr  Zr581  1  0.54867945  0.04867945  0.95132055  1
  Zr  Zr582  1  0.54867945  0.95132055  0.04867945  1
  Zr  Zr583  1  0.45132055  0.04867945  0.04867945  1
  Zr  Zr584  1  0.95132055  0.45132055  0.95132055  1
  Zr  Zr585  1  0.04867945  0.54867945  0.95132055  1
  Zr  Zr586  1  0.04867945  0.45132055  0.04867945  1
  Zr  Zr587  1  0.95132055  0.54867945  0.04867945  1
  Zr  Zr588  1  0.95132055  0.95132055  0.45132055  1
  Zr  Zr589  1  0.04867945  0.04867945  0.45132055  1
  Zr  Zr590  1  0.04867945  0.95132055  0.54867945  1
  Zr  Zr591  1  0.95132055  0.04867945  0.54867945  1
  Zr  Zr592  1  0.02703494  0.25000000  0.25000000  1
  Zr  Zr593  1  0.97296506  0.75000000  0.25000000  1
  Zr  Zr594  1  0.25000000  0.02703494  0.25000000  1
  Zr  Zr595  1  0.25000000  0.97296506  0.75000000  1
  Zr  Zr596  1  0.25000000  0.25000000  0.02703494  1
  Zr  Zr597  1  0.75000000  0.25000000  0.97296506  1
  Zr  Zr598  1  0.02703494  0.75000000  0.75000000  1
  Zr  Zr599  1  0.97296506  0.25000000  0.75000000  1
  Zr  Zr600  1  0.25000000  0.52703494  0.75000000  1
  Zr  Zr601  1  0.25000000  0.47296506  0.25000000  1
  Zr  Zr602  1  0.25000000  0.75000000  0.52703494  1
  Zr  Zr603  1  0.75000000  0.75000000  0.47296506  1
  Zr  Zr604  1  0.52703494  0.25000000  0.75000000  1
  Zr  Zr605  1  0.47296506  0.75000000  0.75000000  1
  Zr  Zr606  1  0.75000000  0.02703494  0.75000000  1
  Zr  Zr607  1  0.75000000  0.97296506  0.25000000  1
  Zr  Zr608  1  0.75000000  0.25000000  0.52703494  1
  Zr  Zr609  1  0.25000000  0.25000000  0.47296506  1
  Zr  Zr610  1  0.52703494  0.75000000  0.25000000  1
  Zr  Zr611  1  0.47296506  0.25000000  0.25000000  1
  Zr  Zr612  1  0.75000000  0.52703494  0.25000000  1
  Zr  Zr613  1  0.75000000  0.47296506  0.75000000  1
  Zr  Zr614  1  0.75000000  0.75000000  0.02703494  1
  Zr  Zr615  1  0.25000000  0.75000000  0.97296506  1
  Zr  Zr616  1  0.50000000  0.50000000  0.50000000  1
  Zr  Zr617  1  0.50000000  0.00000000  0.00000000  1
  Zr  Zr618  1  0.00000000  0.50000000  0.00000000  1
  Zr  Zr619  1  0.00000000  0.00000000  0.50000000  1
  Zr  Zr620  1  0.25000000  0.25000000  0.25000000  1
  Zr  Zr621  1  0.25000000  0.75000000  0.75000000  1
  Zr  Zr622  1  0.75000000  0.25000000  0.75000000  1
  Zr  Zr623  1  0.75000000  0.75000000  0.25000000  1
