# generated using pymatgen
data_KLi2F3
_symmetry_space_group_name_H-M   'P 1'
_cell_length_a   9.53327878
_cell_length_b   9.54360832
_cell_length_c   6.76353238
_cell_angle_alpha   90.00000000
_cell_angle_beta   90.00000000
_cell_angle_gamma   90.00000000
_symmetry_Int_Tables_number   1
_chemical_formula_structural   KLi2F3
_chemical_formula_sum   'K4 Li8 F12'
_cell_volume   615.35888257
_cell_formula_units_Z   4
loop_
 _symmetry_equiv_pos_site_id
 _symmetry_equiv_pos_as_xyz
  1  'x, y, z'
loop_
 _atom_site_type_symbol
 _atom_site_label
 _atom_site_symmetry_multiplicity
 _atom_site_fract_x
 _atom_site_fract_y
 _atom_site_fract_z
 _atom_site_occupancy
  F  F0  1  0.46655095  0.83217241  0.74523169  1
  F  F1  1  -0.46655095  -0.83217241  0.74523169  1
  F  F2  1  0.03344905  1.33217241  -0.24523169  1
  F  F3  1  0.96655095  -0.33217241  -0.24523169  1
  F  F4  1  -0.46655095  -0.83217241  -0.74523169  1
  F  F5  1  0.46655095  0.83217241  -0.74523169  1
  F  F6  1  0.96655095  -0.33217241  1.24523169  1
  F  F7  1  0.03344905  1.33217241  1.24523169  1
  F  F8  1  0.00000000  0.00000000  0.00000000  1
  F  F9  1  0.50000000  0.50000000  0.50000000  1
  F  F10  1  0.00000000  0.50000000  0.50000000  1
  F  F11  1  0.50000000  0.00000000  0.00000000  1
  K  K12  1  0.73790876  0.90887075  -0.00000000  1
  K  K13  1  0.26209124  0.09112925  0.00000000  1
  K  K14  1  0.76209124  0.40887075  0.50000000  1
  K  K15  1  0.23790876  0.59112925  0.50000000  1
  Li  Li16  1  0.26156922  0.67255557  0.19127820  1
  Li  Li17  1  0.73843078  0.32744443  0.19127820  1
  Li  Li18  1  0.23843078  0.17255557  0.30872180  1
  Li  Li19  1  0.76156922  0.82744443  0.30872180  1
  Li  Li20  1  0.73843078  0.32744443  0.80872180  1
  Li  Li21  1  0.26156922  0.67255557  0.80872180  1
  Li  Li22  1  0.76156922  0.82744443  0.69127820  1
  Li  Li23  1  0.23843078  0.17255557  0.69127820  1
