# generated using pymatgen
data_Li2Zr(SeI)2
_symmetry_space_group_name_H-M   'P 1'
_cell_length_a   14.52549655
_cell_length_b   14.52549655
_cell_length_c   5.26997192
_cell_angle_alpha   90.00000000
_cell_angle_beta   90.00000000
_cell_angle_gamma   120.00000000
_symmetry_Int_Tables_number   1
_chemical_formula_structural   Li2Zr(SeI)2
_chemical_formula_sum   'Li12 Zr6 Se12 I12'
_cell_volume   962.94372623
_cell_formula_units_Z   6
loop_
 _symmetry_equiv_pos_site_id
 _symmetry_equiv_pos_as_xyz
  1  'x, y, z'
loop_
 _atom_site_type_symbol
 _atom_site_label
 _atom_site_symmetry_multiplicity
 _atom_site_fract_x
 _atom_site_fract_y
 _atom_site_fract_z
 _atom_site_occupancy
  I  I0  1  0.55614106  0.01754290  0.56018669  1
  I  I1  1  -0.01754290  0.53859816  0.56018669  1
  I  I2  1  -0.53859816  -0.55614106  0.56018669  1
  I  I3  1  -0.55614106  -0.01754290  1.06018669  1
  I  I4  1  0.01754290  -0.53859816  1.06018669  1
  I  I5  1  0.53859816  0.55614106  1.06018669  1
  I  I6  1  -0.55614106  -0.01754290  -0.56018669  1
  I  I7  1  0.01754290  -0.53859816  -0.56018669  1
  I  I8  1  0.53859816  0.55614106  -0.56018669  1
  I  I9  1  0.55614106  0.01754290  -0.06018669  1
  I  I10  1  -0.01754290  0.53859816  -0.06018669  1
  I  I11  1  -0.53859816  -0.55614106  -0.06018669  1
  Li  Li12  1  0.90902359  0.81934999  0.09019825  1
  Li  Li13  1  0.18065001  0.08967360  0.09019825  1
  Li  Li14  1  0.91032640  0.09097641  0.09019825  1
  Li  Li15  1  0.09097641  0.18065001  0.59019825  1
  Li  Li16  1  0.81934999  0.91032640  0.59019825  1
  Li  Li17  1  0.08967360  0.90902359  0.59019825  1
  Li  Li18  1  0.09097641  0.18065001  0.90980175  1
  Li  Li19  1  0.81934999  0.91032640  0.90980175  1
  Li  Li20  1  0.08967360  0.90902359  0.90980175  1
  Li  Li21  1  0.90902359  0.81934999  0.40980175  1
  Li  Li22  1  0.18065001  0.08967360  0.40980175  1
  Li  Li23  1  0.91032640  0.09097641  0.40980175  1
  Se  Se24  1  0.12997994  0.68924399  0.25000000  1
  Se  Se25  1  0.31075601  0.44073594  0.25000000  1
  Se  Se26  1  0.55926406  0.87002006  0.25000000  1
  Se  Se27  1  0.87002006  0.31075601  0.75000000  1
  Se  Se28  1  0.68924399  0.55926406  0.75000000  1
  Se  Se29  1  0.44073594  0.12997994  0.75000000  1
  Se  Se30  1  0.17933070  0.87666004  0.25000000  1
  Se  Se31  1  0.12333996  0.30267067  0.25000000  1
  Se  Se32  1  0.69732933  0.82066930  0.25000000  1
  Se  Se33  1  0.82066930  0.12333996  0.75000000  1
  Se  Se34  1  0.87666004  0.69732933  0.75000000  1
  Se  Se35  1  0.30267067  0.17933070  0.75000000  1
  Zr  Zr36  1  0.00000000  0.00000000  0.25000000  1
  Zr  Zr37  1  0.00000000  0.00000000  0.75000000  1
  Zr  Zr38  1  0.66666667  0.33333333  0.25000000  1
  Zr  Zr39  1  0.33333333  0.66666667  0.75000000  1
  Zr  Zr40  1  0.33333333  0.66666667  0.25000000  1
  Zr  Zr41  1  0.66666667  0.33333333  0.75000000  1
