# generated using pymatgen
data_Li2O
_symmetry_space_group_name_H-M   'P 1'
_cell_length_a   8.91416573
_cell_length_b   8.91416573
_cell_length_c   2.74572812
_cell_angle_alpha   90.00000000
_cell_angle_beta   90.00000000
_cell_angle_gamma   120.00000000
_symmetry_Int_Tables_number   1
_chemical_formula_structural   Li2O
_chemical_formula_sum   'Li6 O3'
_cell_volume   188.95116407
_cell_formula_units_Z   3
loop_
 _symmetry_equiv_pos_site_id
 _symmetry_equiv_pos_as_xyz
  1  'x, y, z'
loop_
 _atom_site_type_symbol
 _atom_site_label
 _atom_site_symmetry_multiplicity
 _atom_site_fract_x
 _atom_site_fract_y
 _atom_site_fract_z
 _atom_site_occupancy
  Li  Li0  1  0.92280723  0.07719277  0.50000000  1
  Li  Li1  1  0.92280723  0.84561446  0.50000000  1
  Li  Li2  1  0.15438554  0.07719277  0.50000000  1
  Li  Li3  1  0.22829194  0.77170806  0.00000000  1
  Li  Li4  1  0.22829194  0.45658388  0.00000000  1
  Li  Li5  1  0.54341612  0.77170806  0.00000000  1
  O  O6  1  0.80663789  -0.80663789  0.50000000  1
  O  O7  1  0.80663789  1.61327579  0.50000000  1
  O  O8  1  -1.61327579  -0.80663789  0.50000000  1
