# generated using pymatgen
data_Li3La2TiO2
_symmetry_space_group_name_H-M   'P 1'
_cell_length_a   3.86615434
_cell_length_b   4.54316281
_cell_length_c   5.34665906
_cell_angle_alpha   115.70138007
_cell_angle_beta   102.18953833
_cell_angle_gamma   92.45362661
_symmetry_Int_Tables_number   1
_chemical_formula_structural   Li3La2TiO2
_chemical_formula_sum   'Li3 La2 Ti1 O2'
_cell_volume   81.74451318
_cell_formula_units_Z   1
loop_
 _symmetry_equiv_pos_site_id
 _symmetry_equiv_pos_as_xyz
  1  'x, y, z'
loop_
 _atom_site_type_symbol
 _atom_site_label
 _atom_site_symmetry_multiplicity
 _atom_site_fract_x
 _atom_site_fract_y
 _atom_site_fract_z
 _atom_site_occupancy
  Li  Li0  1  0.00000000  0.00000000  0.00000000  1
  Li  Li1  1  0.33300000  0.66700000  0.25000000  1
  Li  Li2  1  0.66700000  0.33300000  0.50000000  1
  Ti  Ti3  1  0.00000000  0.00000000  0.75000000  1
  La  La4  1  0.86564407  0.44773559  0.27584309  1
  La  La5  1  0.10763294  0.36884490  0.35080063  1
  O  O6  1  0.34116844  0.00308914  0.42242954  1
  O  O7  1  0.26902581  0.25460653  0.31560619  1
