# generated using pymatgen
data_KLi2Cl3
_symmetry_space_group_name_H-M   'P 1'
_cell_length_a   7.46791293
_cell_length_b   12.54239830
_cell_length_c   13.48232231
_cell_angle_alpha   90.00000000
_cell_angle_beta   90.00000000
_cell_angle_gamma   90.00000000
_symmetry_Int_Tables_number   1
_chemical_formula_structural   KLi2Cl3
_chemical_formula_sum   'K8 Li16 Cl24'
_cell_volume   1262.82897754
_cell_formula_units_Z   8
loop_
 _symmetry_equiv_pos_site_id
 _symmetry_equiv_pos_as_xyz
  1  'x, y, z'
loop_
 _atom_site_type_symbol
 _atom_site_label
 _atom_site_symmetry_multiplicity
 _atom_site_fract_x
 _atom_site_fract_y
 _atom_site_fract_z
 _atom_site_occupancy
  Cl  Cl0  1  0.36468113  0.33750402  0.84497643  1
  Cl  Cl1  1  0.13531887  -0.33750402  1.34497643  1
  Cl  Cl2  1  -0.36468113  0.83750402  -0.84497643  1
  Cl  Cl3  1  0.86468113  0.16249598  -0.34497643  1
  Cl  Cl4  1  -0.36468113  -0.33750402  -0.84497643  1
  Cl  Cl5  1  0.86468113  0.33750402  -0.34497643  1
  Cl  Cl6  1  0.36468113  0.16249598  0.84497643  1
  Cl  Cl7  1  0.13531887  0.83750402  1.34497643  1
  Cl  Cl8  1  0.35186929  0.58012752  0.69142319  1
  Cl  Cl9  1  0.14813071  0.41987248  0.19142319  1
  Cl  Cl10  1  0.64813071  0.08012752  0.30857681  1
  Cl  Cl11  1  0.85186929  0.91987248  0.80857681  1
  Cl  Cl12  1  0.64813071  0.41987248  0.30857681  1
  Cl  Cl13  1  0.85186929  0.58012752  0.80857681  1
  Cl  Cl14  1  0.35186929  0.91987248  0.69142319  1
  Cl  Cl15  1  0.14813071  0.08012752  0.19142319  1
  Cl  Cl16  1  0.05620843  0.69705410  0.28060656  1
  Cl  Cl17  1  0.44379157  0.30294590  0.78060656  1
  Cl  Cl18  1  0.94379157  0.19705410  0.71939344  1
  Cl  Cl19  1  0.55620843  0.80294590  0.21939344  1
  Cl  Cl20  1  0.94379157  0.30294590  0.71939344  1
  Cl  Cl21  1  0.55620843  0.69705410  0.21939344  1
  Cl  Cl22  1  0.05620843  0.80294590  0.28060656  1
  Cl  Cl23  1  0.44379157  0.19705410  0.78060656  1
  K  K24  1  0.00000000  0.00000000  0.00000000  1
  K  K25  1  0.50000000  0.00000000  0.50000000  1
  K  K26  1  0.00000000  0.50000000  -0.00000000  1
  K  K27  1  0.50000000  0.50000000  0.50000000  1
  K  K28  1  0.00000000  0.00000000  0.50000000  1
  K  K29  1  0.50000000  0.00000000  0.00000000  1
  K  K30  1  0.00000000  0.50000000  0.50000000  1
  K  K31  1  0.50000000  0.50000000  -0.00000000  1
  Li  Li32  1  0.65133645  0.02465068  0.40563627  1
  Li  Li33  1  0.84866355  0.97534932  0.90563627  1
  Li  Li34  1  0.34866355  0.52465068  0.59436373  1
  Li  Li35  1  0.15133645  0.47534932  0.09436373  1
  Li  Li36  1  0.34866355  0.97534932  0.59436373  1
  Li  Li37  1  0.15133645  0.02465068  0.09436373  1
  Li  Li38  1  0.65133645  0.47534932  0.40563627  1
  Li  Li39  1  0.84866355  0.52465068  0.90563627  1
  Li  Li40  1  0.08642310  0.25000000  0.91701995  1
  Li  Li41  1  0.41357690  0.75000000  0.41701995  1
  Li  Li42  1  0.91357690  0.75000000  0.08298005  1
  Li  Li43  1  0.58642310  0.25000000  0.58298005  1
  Li  Li44  1  0.44049259  0.25000000  0.46548490  1
  Li  Li45  1  0.05950741  0.75000000  0.96548490  1
  Li  Li46  1  0.55950741  0.75000000  0.53451510  1
  Li  Li47  1  0.94049259  0.25000000  0.03451510  1
