# generated using pymatgen
data_LiCl
_symmetry_space_group_name_H-M   'P 1'
_cell_length_a   10.94176038
_cell_length_b   10.94176038
_cell_length_c   10.94176038
_cell_angle_alpha   90.00000000
_cell_angle_beta   90.00000000
_cell_angle_gamma   90.00000000
_symmetry_Int_Tables_number   1
_chemical_formula_structural   LiCl
_chemical_formula_sum   'Li48 Cl48'
_cell_volume   1309.97075227
_cell_formula_units_Z   48
loop_
 _symmetry_equiv_pos_site_id
 _symmetry_equiv_pos_as_xyz
  1  'x, y, z'
loop_
 _atom_site_type_symbol
 _atom_site_label
 _atom_site_symmetry_multiplicity
 _atom_site_fract_x
 _atom_site_fract_y
 _atom_site_fract_z
 _atom_site_occupancy
  Cl  Cl0  1  0.12500000  0.55306666  -0.30306666  1
  Cl  Cl1  1  0.37500000  -0.55306666  0.19693334  1
  Cl  Cl2  1  0.87500000  1.05306666  0.80306666  1
  Cl  Cl3  1  0.62500000  -0.05306666  1.30306666  1
  Cl  Cl4  1  -0.30306666  0.12500000  0.55306666  1
  Cl  Cl5  1  0.19693334  0.37500000  -0.55306666  1
  Cl  Cl6  1  0.80306666  0.87500000  1.05306666  1
  Cl  Cl7  1  1.30306666  0.62500000  -0.05306666  1
  Cl  Cl8  1  0.55306666  -0.30306666  0.12500000  1
  Cl  Cl9  1  -0.55306666  0.19693334  0.37500000  1
  Cl  Cl10  1  1.05306666  0.80306666  0.87500000  1
  Cl  Cl11  1  -0.05306666  1.30306666  0.62500000  1
  Cl  Cl12  1  0.87500000  -0.55306666  1.30306666  1
  Cl  Cl13  1  0.62500000  0.55306666  0.80306666  1
  Cl  Cl14  1  0.12500000  -0.05306666  0.19693334  1
  Cl  Cl15  1  0.37500000  1.05306666  -0.30306666  1
  Cl  Cl16  1  1.30306666  0.87500000  -0.55306666  1
  Cl  Cl17  1  0.80306666  0.62500000  0.55306666  1
  Cl  Cl18  1  0.19693334  0.12500000  -0.05306666  1
  Cl  Cl19  1  -0.30306666  0.37500000  1.05306666  1
  Cl  Cl20  1  -0.55306666  1.30306666  0.87500000  1
  Cl  Cl21  1  0.55306666  0.80306666  0.62500000  1
  Cl  Cl22  1  -0.05306666  0.19693334  0.12500000  1
  Cl  Cl23  1  1.05306666  -0.30306666  0.37500000  1
  Cl  Cl24  1  0.62500000  1.05306666  0.19693334  1
  Cl  Cl25  1  0.87500000  -0.05306666  0.69693334  1
  Cl  Cl26  1  1.37500000  1.55306666  1.30306666  1
  Cl  Cl27  1  1.12500000  0.44693334  1.80306666  1
  Cl  Cl28  1  0.19693334  0.62500000  1.05306666  1
  Cl  Cl29  1  0.69693334  0.87500000  -0.05306666  1
  Cl  Cl30  1  1.30306666  1.37500000  1.55306666  1
  Cl  Cl31  1  1.80306666  1.12500000  0.44693334  1
  Cl  Cl32  1  1.05306666  0.19693334  0.62500000  1
  Cl  Cl33  1  -0.05306666  0.69693334  0.87500000  1
  Cl  Cl34  1  1.55306666  1.30306666  1.37500000  1
  Cl  Cl35  1  0.44693334  1.80306666  1.12500000  1
  Cl  Cl36  1  1.37500000  -0.05306666  1.80306666  1
  Cl  Cl37  1  1.12500000  1.05306666  1.30306666  1
  Cl  Cl38  1  0.62500000  0.44693334  0.69693334  1
  Cl  Cl39  1  0.87500000  1.55306666  0.19693334  1
  Cl  Cl40  1  1.80306666  1.37500000  -0.05306666  1
  Cl  Cl41  1  1.30306666  1.12500000  1.05306666  1
  Cl  Cl42  1  0.69693334  0.62500000  0.44693334  1
  Cl  Cl43  1  0.19693334  0.87500000  1.55306666  1
  Cl  Cl44  1  -0.05306666  1.80306666  1.37500000  1
  Cl  Cl45  1  1.05306666  1.30306666  1.12500000  1
  Cl  Cl46  1  0.44693334  0.69693334  0.62500000  1
  Cl  Cl47  1  1.55306666  0.19693334  0.87500000  1
  Li  Li48  1  0.12500000  0.12500000  0.12500000  1
  Li  Li49  1  0.37500000  0.87500000  0.62500000  1
  Li  Li50  1  0.87500000  0.62500000  0.37500000  1
  Li  Li51  1  0.62500000  0.37500000  0.87500000  1
  Li  Li52  1  0.87500000  0.87500000  0.87500000  1
  Li  Li53  1  0.62500000  0.12500000  0.37500000  1
  Li  Li54  1  0.12500000  0.37500000  0.62500000  1
  Li  Li55  1  0.37500000  0.62500000  0.12500000  1
  Li  Li56  1  0.62500000  0.62500000  0.62500000  1
  Li  Li57  1  0.87500000  0.37500000  0.12500000  1
  Li  Li58  1  0.37500000  0.12500000  0.87500000  1
  Li  Li59  1  0.12500000  0.87500000  0.37500000  1
  Li  Li60  1  0.37500000  0.37500000  0.37500000  1
  Li  Li61  1  0.12500000  0.62500000  0.87500000  1
  Li  Li62  1  0.62500000  0.87500000  0.12500000  1
  Li  Li63  1  0.87500000  0.12500000  0.62500000  1
  Li  Li64  1  0.05614272  0.05614272  0.05614272  1
  Li  Li65  1  0.44385728  0.94385728  0.55614272  1
  Li  Li66  1  0.94385728  0.55614272  0.44385728  1
  Li  Li67  1  0.55614272  0.44385728  0.94385728  1
  Li  Li68  1  0.80614272  0.30614272  0.19385728  1
  Li  Li69  1  0.69385728  0.69385728  0.69385728  1
  Li  Li70  1  0.30614272  0.19385728  0.80614272  1
  Li  Li71  1  0.19385728  0.80614272  0.30614272  1
  Li  Li72  1  0.94385728  0.94385728  0.94385728  1
  Li  Li73  1  0.55614272  0.05614272  0.44385728  1
  Li  Li74  1  0.05614272  0.44385728  0.55614272  1
  Li  Li75  1  0.44385728  0.55614272  0.05614272  1
  Li  Li76  1  0.19385728  0.69385728  0.80614272  1
  Li  Li77  1  0.30614272  0.30614272  0.30614272  1
  Li  Li78  1  0.69385728  0.80614272  0.19385728  1
  Li  Li79  1  0.80614272  0.19385728  0.69385728  1
  Li  Li80  1  0.55614272  0.55614272  0.55614272  1
  Li  Li81  1  0.94385728  0.44385728  0.05614272  1
  Li  Li82  1  0.44385728  0.05614272  0.94385728  1
  Li  Li83  1  0.05614272  0.94385728  0.44385728  1
  Li  Li84  1  0.30614272  0.80614272  0.69385728  1
  Li  Li85  1  0.19385728  0.19385728  0.19385728  1
  Li  Li86  1  0.80614272  0.69385728  0.30614272  1
  Li  Li87  1  0.69385728  0.30614272  0.80614272  1
  Li  Li88  1  0.44385728  0.44385728  0.44385728  1
  Li  Li89  1  0.05614272  0.55614272  0.94385728  1
  Li  Li90  1  0.55614272  0.94385728  0.05614272  1
  Li  Li91  1  0.94385728  0.05614272  0.55614272  1
  Li  Li92  1  0.69385728  0.19385728  0.30614272  1
  Li  Li93  1  0.80614272  0.80614272  0.80614272  1
  Li  Li94  1  0.19385728  0.30614272  0.69385728  1
  Li  Li95  1  0.30614272  0.69385728  0.19385728  1
