# generated using pymatgen
data_Li3Sb4WO2
_symmetry_space_group_name_H-M   'P 1'
_cell_length_a   8.05541659
_cell_length_b   9.19835064
_cell_length_c   6.91427959
_cell_angle_alpha   90.00000000
_cell_angle_beta   90.00000000
_cell_angle_gamma   90.00000000
_symmetry_Int_Tables_number   1
_chemical_formula_structural   Li3Sb4WO2
_chemical_formula_sum   'Li3 Sb4 W1 O2'
_cell_volume   512.32423808
_cell_formula_units_Z   1
loop_
 _symmetry_equiv_pos_site_id
 _symmetry_equiv_pos_as_xyz
  1  'x, y, z'
loop_
 _atom_site_type_symbol
 _atom_site_label
 _atom_site_symmetry_multiplicity
 _atom_site_fract_x
 _atom_site_fract_y
 _atom_site_fract_z
 _atom_site_occupancy
  Li  Li0  1  0.12500000  0.12500000  0.12500000  1
  Li  Li1  1  0.50000000  0.50000000  0.50000000  1
  Li  Li2  1  0.25000000  0.25000000  0.25000000  1
  W  W3  1  0.75000000  0.75000000  0.75000000  1
  Sb  Sb4  1  0.32917196  0.05623044  0.89094179  1
  Sb  Sb5  1  0.39292782  0.30687847  0.85913931  1
  Sb  Sb6  1  0.58629280  0.49006458  0.15647268  1
  Sb  Sb7  1  0.81451415  0.18377647  0.70789518  1
  O  O8  1  0.18096653  0.06210678  0.80459143  1
  O  O9  1  0.64978337  0.74624101  0.51102784  1
