# generated using pymatgen
data_Li2Te
_symmetry_space_group_name_H-M   'P 1'
_cell_length_a   10.95133420
_cell_length_b   10.95133420
_cell_length_c   10.95133420
_cell_angle_alpha   90.00000000
_cell_angle_beta   90.00000000
_cell_angle_gamma   90.00000000
_symmetry_Int_Tables_number   1
_chemical_formula_structural   Li2Te
_chemical_formula_sum   'Li32 Te16'
_cell_volume   1313.41235600
_cell_formula_units_Z   16
loop_
 _symmetry_equiv_pos_site_id
 _symmetry_equiv_pos_as_xyz
  1  'x, y, z'
loop_
 _atom_site_type_symbol
 _atom_site_label
 _atom_site_symmetry_multiplicity
 _atom_site_fract_x
 _atom_site_fract_y
 _atom_site_fract_z
 _atom_site_occupancy
  Li  Li0  1  0.12500000  0.70086770  -0.45086770  1
  Li  Li1  1  0.37500000  -0.70086770  0.04913230  1
  Li  Li2  1  0.87500000  1.20086770  0.95086770  1
  Li  Li3  1  0.62500000  -0.20086770  1.45086770  1
  Li  Li4  1  -0.45086770  0.12500000  0.70086770  1
  Li  Li5  1  0.04913230  0.37500000  -0.70086770  1
  Li  Li6  1  0.95086770  0.87500000  1.20086770  1
  Li  Li7  1  1.45086770  0.62500000  -0.20086770  1
  Li  Li8  1  0.70086770  -0.45086770  0.12500000  1
  Li  Li9  1  -0.70086770  0.04913230  0.37500000  1
  Li  Li10  1  1.20086770  0.95086770  0.87500000  1
  Li  Li11  1  -0.20086770  1.45086770  0.62500000  1
  Li  Li12  1  0.62500000  1.20086770  0.04913230  1
  Li  Li13  1  0.87500000  -0.20086770  0.54913230  1
  Li  Li14  1  1.37500000  1.70086770  1.45086770  1
  Li  Li15  1  1.12500000  0.29913230  1.95086770  1
  Li  Li16  1  0.04913230  0.62500000  1.20086770  1
  Li  Li17  1  0.54913230  0.87500000  -0.20086770  1
  Li  Li18  1  1.45086770  1.37500000  1.70086770  1
  Li  Li19  1  1.95086770  1.12500000  0.29913230  1
  Li  Li20  1  1.20086770  0.04913230  0.62500000  1
  Li  Li21  1  -0.20086770  0.54913230  0.87500000  1
  Li  Li22  1  1.70086770  1.45086770  1.37500000  1
  Li  Li23  1  0.29913230  1.95086770  1.12500000  1
  Li  Li24  1  0.87500000  0.87500000  0.87500000  1
  Li  Li25  1  0.62500000  0.12500000  0.37500000  1
  Li  Li26  1  0.12500000  0.37500000  0.62500000  1
  Li  Li27  1  0.37500000  0.62500000  0.12500000  1
  Li  Li28  1  0.37500000  0.37500000  0.37500000  1
  Li  Li29  1  0.12500000  0.62500000  0.87500000  1
  Li  Li30  1  0.62500000  0.87500000  0.12500000  1
  Li  Li31  1  0.87500000  0.12500000  0.62500000  1
  Te  Te32  1  0.04203754  0.04203754  0.04203754  1
  Te  Te33  1  0.45796246  0.95796246  0.54203754  1
  Te  Te34  1  0.95796246  0.54203754  0.45796246  1
  Te  Te35  1  0.54203754  0.45796246  0.95796246  1
  Te  Te36  1  0.79203754  0.29203754  0.20796246  1
  Te  Te37  1  0.70796246  0.70796246  0.70796246  1
  Te  Te38  1  0.29203754  0.20796246  0.79203754  1
  Te  Te39  1  0.20796246  0.79203754  0.29203754  1
  Te  Te40  1  0.54203754  0.54203754  0.54203754  1
  Te  Te41  1  0.95796246  0.45796246  0.04203754  1
  Te  Te42  1  0.45796246  0.04203754  0.95796246  1
  Te  Te43  1  0.04203754  0.95796246  0.45796246  1
  Te  Te44  1  0.29203754  0.79203754  0.70796246  1
  Te  Te45  1  0.20796246  0.20796246  0.20796246  1
  Te  Te46  1  0.79203754  0.70796246  0.29203754  1
  Te  Te47  1  0.70796246  0.29203754  0.79203754  1
