# generated using pymatgen
data_Li2Se
_symmetry_space_group_name_H-M   'P 1'
_cell_length_a   7.16087193
_cell_length_b   10.80859955
_cell_length_c   11.17752380
_cell_angle_alpha   90.00000000
_cell_angle_beta   90.00000000
_cell_angle_gamma   90.00000000
_symmetry_Int_Tables_number   1
_chemical_formula_structural   Li2Se
_chemical_formula_sum   'Li32 Se16'
_cell_volume   865.12913162
_cell_formula_units_Z   16
loop_
 _symmetry_equiv_pos_site_id
 _symmetry_equiv_pos_as_xyz
  1  'x, y, z'
loop_
 _atom_site_type_symbol
 _atom_site_label
 _atom_site_symmetry_multiplicity
 _atom_site_fract_x
 _atom_site_fract_y
 _atom_site_fract_z
 _atom_site_occupancy
  Li  Li0  1  0.88550595  0.74201957  0.67338813  1
  Li  Li1  1  -0.13550595  0.00798043  0.67338813  1
  Li  Li2  1  -0.13550595  0.74201957  0.07661187  1
  Li  Li3  1  0.88550595  0.00798043  0.07661187  1
  Li  Li4  1  -0.88550595  -0.74201957  -0.67338813  1
  Li  Li5  1  1.13550595  0.99201957  -0.67338813  1
  Li  Li6  1  1.13550595  -0.74201957  0.92338813  1
  Li  Li7  1  -0.88550595  0.99201957  0.92338813  1
  Li  Li8  1  0.88550595  1.24201957  1.17338813  1
  Li  Li9  1  -0.13550595  0.50798043  1.17338813  1
  Li  Li10  1  -0.13550595  1.24201957  0.57661187  1
  Li  Li11  1  0.88550595  0.50798043  0.57661187  1
  Li  Li12  1  -0.88550595  -0.24201957  -0.17338813  1
  Li  Li13  1  1.13550595  1.49201957  -0.17338813  1
  Li  Li14  1  1.13550595  -0.24201957  1.42338813  1
  Li  Li15  1  -0.88550595  1.49201957  1.42338813  1
  Li  Li16  1  1.38550595  0.74201957  1.17338813  1
  Li  Li17  1  0.36449405  0.00798043  1.17338813  1
  Li  Li18  1  0.36449405  0.74201957  0.57661187  1
  Li  Li19  1  1.38550595  0.00798043  0.57661187  1
  Li  Li20  1  -0.38550595  -0.74201957  -0.17338813  1
  Li  Li21  1  1.63550595  0.99201957  -0.17338813  1
  Li  Li22  1  1.63550595  -0.74201957  1.42338813  1
  Li  Li23  1  -0.38550595  0.99201957  1.42338813  1
  Li  Li24  1  1.38550595  1.24201957  0.67338813  1
  Li  Li25  1  0.36449405  0.50798043  0.67338813  1
  Li  Li26  1  0.36449405  1.24201957  0.07661187  1
  Li  Li27  1  1.38550595  0.50798043  0.07661187  1
  Li  Li28  1  -0.38550595  -0.24201957  -0.67338813  1
  Li  Li29  1  1.63550595  1.49201957  -0.67338813  1
  Li  Li30  1  1.63550595  -0.24201957  0.92338813  1
  Li  Li31  1  -0.38550595  1.49201957  0.92338813  1
  Se  Se32  1  0.12500000  0.03348116  0.12500000  1
  Se  Se33  1  0.62500000  0.71651884  0.12500000  1
  Se  Se34  1  0.87500000  0.96651884  0.87500000  1
  Se  Se35  1  0.37500000  0.28348116  0.87500000  1
  Se  Se36  1  0.12500000  0.53348116  0.62500000  1
  Se  Se37  1  0.62500000  0.21651884  0.62500000  1
  Se  Se38  1  0.87500000  0.46651884  0.37500000  1
  Se  Se39  1  0.37500000  0.78348116  0.37500000  1
  Se  Se40  1  0.62500000  0.03348116  0.62500000  1
  Se  Se41  1  0.12500000  0.71651884  0.62500000  1
  Se  Se42  1  0.37500000  0.96651884  0.37500000  1
  Se  Se43  1  0.87500000  0.28348116  0.37500000  1
  Se  Se44  1  0.62500000  0.53348116  0.12500000  1
  Se  Se45  1  0.12500000  0.21651884  0.12500000  1
  Se  Se46  1  0.37500000  0.46651884  0.87500000  1
  Se  Se47  1  0.87500000  0.78348116  0.87500000  1
