# generated using pymatgen
data_Li6SF4
_symmetry_space_group_name_H-M   'P 1'
_cell_length_a   22.04788872
_cell_length_b   22.04788872
_cell_length_c   4.99317533
_cell_angle_alpha   90.00000000
_cell_angle_beta   90.00000000
_cell_angle_gamma   120.00000000
_symmetry_Int_Tables_number   1
_chemical_formula_structural   Li6SF4
_chemical_formula_sum   'Li108 S18 F72'
_cell_volume   2102.04236376
_cell_formula_units_Z   18
loop_
 _symmetry_equiv_pos_site_id
 _symmetry_equiv_pos_as_xyz
  1  'x, y, z'
loop_
 _atom_site_type_symbol
 _atom_site_label
 _atom_site_symmetry_multiplicity
 _atom_site_fract_x
 _atom_site_fract_y
 _atom_site_fract_z
 _atom_site_occupancy
  F  F0  1  0.00000000  0.00000000  0.63879958  1
  F  F1  1  0.00000000  0.00000000  0.86120042  1
  F  F2  1  0.00000000  0.00000000  0.36120042  1
  F  F3  1  0.00000000  0.00000000  0.13879958  1
  F  F4  1  0.66666667  0.33333333  0.97213292  1
  F  F5  1  0.66666667  0.33333333  0.19453375  1
  F  F6  1  0.66666667  0.33333333  0.69453375  1
  F  F7  1  0.66666667  0.33333333  0.47213292  1
  F  F8  1  0.33333333  0.66666667  0.30546625  1
  F  F9  1  0.33333333  0.66666667  0.52786708  1
  F  F10  1  0.33333333  0.66666667  0.02786708  1
  F  F11  1  0.33333333  0.66666667  0.80546625  1
  F  F12  1  0.39007030  0.00000000  0.25000000  1
  F  F13  1  0.00000000  0.39007030  0.25000000  1
  F  F14  1  0.60992970  0.60992970  0.25000000  1
  F  F15  1  0.60992970  0.00000000  0.75000000  1
  F  F16  1  0.00000000  0.60992970  0.75000000  1
  F  F17  1  0.39007030  0.39007030  0.75000000  1
  F  F18  1  0.05673696  0.33333333  0.58333333  1
  F  F19  1  0.66666667  0.72340363  0.58333333  1
  F  F20  1  0.27659637  0.94326304  0.58333333  1
  F  F21  1  0.27659637  0.33333333  0.08333333  1
  F  F22  1  0.66666667  0.94326304  0.08333333  1
  F  F23  1  0.05673696  0.72340363  0.08333333  1
  F  F24  1  0.72340363  0.66666667  0.91666667  1
  F  F25  1  0.33333333  0.05673696  0.91666667  1
  F  F26  1  0.94326304  0.27659637  0.91666667  1
  F  F27  1  0.94326304  0.66666667  0.41666667  1
  F  F28  1  0.33333333  0.27659637  0.41666667  1
  F  F29  1  0.72340363  0.05673696  0.41666667  1
  F  F30  1  0.50000000  0.00000000  0.00000000  1
  F  F31  1  0.00000000  0.50000000  0.00000000  1
  F  F32  1  0.50000000  0.50000000  0.00000000  1
  F  F33  1  0.00000000  0.50000000  0.50000000  1
  F  F34  1  0.50000000  0.00000000  0.50000000  1
  F  F35  1  0.50000000  0.50000000  0.50000000  1
  F  F36  1  0.16666667  0.33333333  0.33333333  1
  F  F37  1  0.66666667  0.83333333  0.33333333  1
  F  F38  1  0.16666667  0.83333333  0.33333333  1
  F  F39  1  0.66666667  0.83333333  0.83333333  1
  F  F40  1  0.16666667  0.33333333  0.83333333  1
  F  F41  1  0.16666667  0.83333333  0.83333333  1
  F  F42  1  0.83333333  0.66666667  0.66666667  1
  F  F43  1  0.33333333  0.16666667  0.66666667  1
  F  F44  1  0.83333333  0.16666667  0.66666667  1
  F  F45  1  0.33333333  0.16666667  0.16666667  1
  F  F46  1  0.83333333  0.66666667  0.16666667  1
  F  F47  1  0.83333333  0.16666667  0.16666667  1
  F  F48  1  0.00000000  0.00000000  0.00000000  1
  F  F49  1  0.00000000  0.00000000  0.50000000  1
  F  F50  1  0.66666667  0.33333333  0.33333333  1
  F  F51  1  0.66666667  0.33333333  0.83333333  1
  F  F52  1  0.33333333  0.66666667  0.66666667  1
  F  F53  1  0.33333333  0.66666667  0.16666667  1
  F  F54  1  0.49622867  -0.00000000  0.25000000  1
  F  F55  1  0.00000000  0.49622867  0.25000000  1
  F  F56  1  0.50377133  0.50377133  0.25000000  1
  F  F57  1  0.50377133  0.00000000  0.75000000  1
  F  F58  1  0.00000000  0.50377133  0.75000000  1
  F  F59  1  0.49622867  0.49622867  0.75000000  1
  F  F60  1  0.16289534  0.33333333  0.58333333  1
  F  F61  1  0.66666667  0.82956200  0.58333333  1
  F  F62  1  0.17043800  0.83710466  0.58333333  1
  F  F63  1  0.17043800  0.33333333  0.08333333  1
  F  F64  1  0.66666667  0.83710466  0.08333333  1
  F  F65  1  0.16289534  0.82956200  0.08333333  1
  F  F66  1  0.82956200  0.66666667  0.91666667  1
  F  F67  1  0.33333333  0.16289534  0.91666667  1
  F  F68  1  0.83710466  0.17043800  0.91666667  1
  F  F69  1  0.83710466  0.66666667  0.41666667  1
  F  F70  1  0.33333333  0.17043800  0.41666667  1
  F  F71  1  0.82956200  0.16289534  0.41666667  1
  Li  Li72  1  0.52019044  0.96604553  0.02354730  1
  Li  Li73  1  -0.96604553  -0.44585509  0.02354730  1
  Li  Li74  1  0.44585509  -0.52019044  0.02354730  1
  Li  Li75  1  0.96604553  0.52019044  0.47645270  1
  Li  Li76  1  -0.44585509  -0.96604553  0.47645270  1
  Li  Li77  1  -0.52019044  0.44585509  0.47645270  1
  Li  Li78  1  -0.52019044  -0.96604553  -0.02354730  1
  Li  Li79  1  0.96604553  0.44585509  -0.02354730  1
  Li  Li80  1  -0.44585509  0.52019044  -0.02354730  1
  Li  Li81  1  -0.96604553  -0.52019044  0.52354730  1
  Li  Li82  1  0.44585509  0.96604553  0.52354730  1
  Li  Li83  1  0.52019044  -0.44585509  0.52354730  1
  Li  Li84  1  1.18685710  1.29937886  0.35688063  1
  Li  Li85  1  -0.29937886  -0.11252176  0.35688063  1
  Li  Li86  1  1.11252176  -0.18685710  0.35688063  1
  Li  Li87  1  1.63271219  0.85352377  0.80978604  1
  Li  Li88  1  0.22081158  -0.63271219  0.80978604  1
  Li  Li89  1  0.14647623  0.77918842  0.80978604  1
  Li  Li90  1  0.14647623  -0.63271219  0.30978604  1
  Li  Li91  1  1.63271219  0.77918842  0.30978604  1
  Li  Li92  1  0.22081158  0.85352377  0.30978604  1
  Li  Li93  1  -0.29937886  -0.18685710  0.85688063  1
  Li  Li94  1  1.11252176  1.29937886  0.85688063  1
  Li  Li95  1  1.18685710  -0.11252176  0.85688063  1
  Li  Li96  1  0.85352377  1.63271219  0.69021396  1
  Li  Li97  1  -0.63271219  0.22081158  0.69021396  1
  Li  Li98  1  0.77918842  0.14647623  0.69021396  1
  Li  Li99  1  1.29937886  1.18685710  1.14311937  1
  Li  Li100  1  -0.11252176  -0.29937886  1.14311937  1
  Li  Li101  1  -0.18685710  1.11252176  1.14311937  1
  Li  Li102  1  -0.18685710  -0.29937886  0.64311937  1
  Li  Li103  1  1.29937886  1.11252176  0.64311937  1
  Li  Li104  1  -0.11252176  1.18685710  0.64311937  1
  Li  Li105  1  -0.63271219  0.14647623  1.19021396  1
  Li  Li106  1  0.77918842  1.63271219  1.19021396  1
  Li  Li107  1  0.85352377  0.22081158  1.19021396  1
  Li  Li108  1  0.89317484  0.42376218  0.41092727  1
  Li  Li109  1  0.57623782  0.46941266  0.41092727  1
  Li  Li110  1  0.53058734  0.10682516  0.41092727  1
  Li  Li111  1  0.42376218  0.89317484  0.08907273  1
  Li  Li112  1  0.46941266  0.57623782  0.08907273  1
  Li  Li113  1  0.10682516  0.53058734  0.08907273  1
  Li  Li114  1  0.10682516  0.57623782  0.58907273  1
  Li  Li115  1  0.42376218  0.53058734  0.58907273  1
  Li  Li116  1  0.46941266  0.89317484  0.58907273  1
  Li  Li117  1  0.57623782  0.10682516  0.91092727  1
  Li  Li118  1  0.53058734  0.42376218  0.91092727  1
  Li  Li119  1  0.89317484  0.46941266  0.91092727  1
  Li  Li120  1  0.55984151  0.75709551  0.74426061  1
  Li  Li121  1  0.24290449  0.80274600  0.74426061  1
  Li  Li122  1  0.19725400  0.44015849  0.74426061  1
  Li  Li123  1  0.09042885  0.22650818  0.42240606  1
  Li  Li124  1  0.13607933  0.90957115  0.42240606  1
  Li  Li125  1  0.77349182  0.86392067  0.42240606  1
  Li  Li126  1  0.77349182  0.90957115  0.92240606  1
  Li  Li127  1  0.09042885  0.86392067  0.92240606  1
  Li  Li128  1  0.13607933  0.22650818  0.92240606  1
  Li  Li129  1  0.24290449  0.44015849  0.24426061  1
  Li  Li130  1  0.19725400  0.75709551  0.24426061  1
  Li  Li131  1  0.55984151  0.80274600  0.24426061  1
  Li  Li132  1  0.22650818  0.09042885  0.07759394  1
  Li  Li133  1  0.90957115  0.13607933  0.07759394  1
  Li  Li134  1  0.86392067  0.77349182  0.07759394  1
  Li  Li135  1  0.75709551  0.55984151  0.75573939  1
  Li  Li136  1  0.80274600  0.24290449  0.75573939  1
  Li  Li137  1  0.44015849  0.19725400  0.75573939  1
  Li  Li138  1  0.44015849  0.24290449  0.25573939  1
  Li  Li139  1  0.75709551  0.19725400  0.25573939  1
  Li  Li140  1  0.80274600  0.55984151  0.25573939  1
  Li  Li141  1  0.90957115  0.77349182  0.57759394  1
  Li  Li142  1  0.86392067  0.09042885  0.57759394  1
  Li  Li143  1  0.22650818  0.13607933  0.57759394  1
  Li  Li144  1  0.89560141  0.32661188  0.31711776  1
  Li  Li145  1  0.67338812  0.56898953  0.31711776  1
  Li  Li146  1  0.43101047  0.10439859  0.31711776  1
  Li  Li147  1  0.32661188  0.89560141  0.18288224  1
  Li  Li148  1  0.56898953  0.67338812  0.18288224  1
  Li  Li149  1  0.10439859  0.43101047  0.18288224  1
  Li  Li150  1  0.10439859  0.67338812  0.68288224  1
  Li  Li151  1  0.32661188  0.43101047  0.68288224  1
  Li  Li152  1  0.56898953  0.89560141  0.68288224  1
  Li  Li153  1  0.67338812  0.10439859  0.81711776  1
  Li  Li154  1  0.43101047  0.32661188  0.81711776  1
  Li  Li155  1  0.89560141  0.56898953  0.81711776  1
  Li  Li156  1  0.56226807  0.65994522  0.65045110  1
  Li  Li157  1  0.34005478  0.90232286  0.65045110  1
  Li  Li158  1  0.09767714  0.43773193  0.65045110  1
  Li  Li159  1  0.99327855  0.22893474  0.51621557  1
  Li  Li160  1  0.23565619  0.00672145  0.51621557  1
  Li  Li161  1  0.77106526  0.76434381  0.51621557  1
  Li  Li162  1  0.77106526  0.00672145  0.01621557  1
  Li  Li163  1  0.99327855  0.76434381  0.01621557  1
  Li  Li164  1  0.23565619  0.22893474  0.01621557  1
  Li  Li165  1  0.34005478  0.43773193  0.15045110  1
  Li  Li166  1  0.09767714  0.65994522  0.15045110  1
  Li  Li167  1  0.56226807  0.90232286  0.15045110  1
  Li  Li168  1  0.22893474  0.99327855  0.98378443  1
  Li  Li169  1  0.00672145  0.23565619  0.98378443  1
  Li  Li170  1  0.76434381  0.77106526  0.98378443  1
  Li  Li171  1  0.65994522  0.56226807  0.84954890  1
  Li  Li172  1  0.90232286  0.34005478  0.84954890  1
  Li  Li173  1  0.43773193  0.09767714  0.84954890  1
  Li  Li174  1  0.43773193  0.34005478  0.34954890  1
  Li  Li175  1  0.65994522  0.09767714  0.34954890  1
  Li  Li176  1  0.90232286  0.56226807  0.34954890  1
  Li  Li177  1  0.00672145  0.77106526  0.48378443  1
  Li  Li178  1  0.76434381  0.99327855  0.48378443  1
  Li  Li179  1  0.22893474  0.23565619  0.48378443  1
  S  S180  1  0.26949932  0.00000000  0.25000000  1
  S  S181  1  0.00000000  0.26949932  0.25000000  1
  S  S182  1  0.73050068  0.73050068  0.25000000  1
  S  S183  1  0.73050068  0.00000000  0.75000000  1
  S  S184  1  0.00000000  0.73050068  0.75000000  1
  S  S185  1  0.26949932  0.26949932  0.75000000  1
  S  S186  1  0.93616599  0.33333333  0.58333333  1
  S  S187  1  0.66666667  0.60283266  0.58333333  1
  S  S188  1  0.39716734  0.06383401  0.58333333  1
  S  S189  1  0.39716734  0.33333333  0.08333333  1
  S  S190  1  0.66666667  0.06383401  0.08333333  1
  S  S191  1  0.93616599  0.60283266  0.08333333  1
  S  S192  1  0.60283266  0.66666667  0.91666667  1
  S  S193  1  0.33333333  0.93616599  0.91666667  1
  S  S194  1  0.06383401  0.39716734  0.91666667  1
  S  S195  1  0.06383401  0.66666667  0.41666667  1
  S  S196  1  0.33333333  0.39716734  0.41666667  1
  S  S197  1  0.60283266  0.93616599  0.41666667  1
