# generated using pymatgen
data_Li2CaTe2
_symmetry_space_group_name_H-M   'P 1'
_cell_length_a   15.35497273
_cell_length_b   6.33478374
_cell_length_c   8.46059851
_cell_angle_alpha   90.00000000
_cell_angle_beta   90.00000000
_cell_angle_gamma   90.00000000
_symmetry_Int_Tables_number   1
_chemical_formula_structural   Li2CaTe2
_chemical_formula_sum   'Li12 Ca6 Te12'
_cell_volume   822.96606839
_cell_formula_units_Z   6
loop_
 _symmetry_equiv_pos_site_id
 _symmetry_equiv_pos_as_xyz
  1  'x, y, z'
loop_
 _atom_site_type_symbol
 _atom_site_label
 _atom_site_symmetry_multiplicity
 _atom_site_fract_x
 _atom_site_fract_y
 _atom_site_fract_z
 _atom_site_occupancy
  Ca  Ca0  1  0.05737012  0.09267333  0.00000000  1
  Ca  Ca1  1  0.94262988  0.90732667  0.00000000  1
  Ca  Ca2  1  0.44262988  0.59267333  0.00000000  1
  Ca  Ca3  1  0.55737012  0.40732667  -0.00000000  1
  Ca  Ca4  1  0.00000000  0.50000000  0.00000000  1
  Ca  Ca5  1  0.50000000  0.00000000  0.00000000  1
  Li  Li6  1  0.87692696  0.53472738  0.24380767  1
  Li  Li7  1  0.12307304  0.46527262  0.24380767  1
  Li  Li8  1  0.62307304  0.03472738  0.75619233  1
  Li  Li9  1  0.37692696  0.96527262  0.75619233  1
  Li  Li10  1  0.12307304  0.46527262  0.75619233  1
  Li  Li11  1  0.87692696  0.53472738  0.75619233  1
  Li  Li12  1  0.37692696  0.96527262  0.24380767  1
  Li  Li13  1  0.62307304  0.03472738  0.24380767  1
  Li  Li14  1  0.00000000  0.00000000  0.78646581  1
  Li  Li15  1  0.50000000  0.50000000  0.21353419  1
  Li  Li16  1  0.00000000  0.00000000  0.21353419  1
  Li  Li17  1  0.50000000  0.50000000  0.78646581  1
  Te  Te18  1  0.61979134  0.46821867  0.76864088  1
  Te  Te19  1  -0.61979134  -0.46821867  0.76864088  1
  Te  Te20  1  -0.11979134  0.96821867  -0.76864088  1
  Te  Te21  1  1.11979134  0.03178133  -0.76864088  1
  Te  Te22  1  -0.61979134  -0.46821867  -0.76864088  1
  Te  Te23  1  0.61979134  0.46821867  -0.76864088  1
  Te  Te24  1  1.11979134  0.03178133  0.76864088  1
  Te  Te25  1  -0.11979134  0.96821867  0.76864088  1
  Te  Te26  1  0.11809319  0.42970689  0.50000000  1
  Te  Te27  1  0.88190681  0.57029311  0.50000000  1
  Te  Te28  1  0.38190681  0.92970689  0.50000000  1
  Te  Te29  1  0.61809319  0.07029311  0.50000000  1
