# generated using pymatgen
data_Li6Ca(SiS3)4
_symmetry_space_group_name_H-M   'P 1'
_cell_length_a   15.35784726
_cell_length_b   15.35784726
_cell_length_c   15.35784726
_cell_angle_alpha   90.00000000
_cell_angle_beta   90.00000000
_cell_angle_gamma   90.00000000
_symmetry_Int_Tables_number   1
_chemical_formula_structural   Li6Ca(SiS3)4
_chemical_formula_sum   'Li48 Ca8 Si32 S96'
_cell_volume   3622.35518202
_cell_formula_units_Z   8
loop_
 _symmetry_equiv_pos_site_id
 _symmetry_equiv_pos_as_xyz
  1  'x, y, z'
loop_
 _atom_site_type_symbol
 _atom_site_label
 _atom_site_symmetry_multiplicity
 _atom_site_fract_x
 _atom_site_fract_y
 _atom_site_fract_z
 _atom_site_occupancy
  Ca  Ca0  1  0.00000000  0.00000000  0.00000000  1
  Ca  Ca1  1  0.00000000  0.50000000  0.50000000  1
  Ca  Ca2  1  0.50000000  0.00000000  0.50000000  1
  Ca  Ca3  1  0.50000000  0.50000000  0.00000000  1
  Ca  Ca4  1  0.50000000  0.50000000  0.50000000  1
  Ca  Ca5  1  0.50000000  0.00000000  0.00000000  1
  Ca  Ca6  1  0.00000000  0.50000000  0.00000000  1
  Ca  Ca7  1  0.00000000  0.00000000  0.50000000  1
  Li  Li8  1  0.00000000  0.25000000  0.25000000  1
  Li  Li9  1  0.00000000  0.75000000  0.25000000  1
  Li  Li10  1  0.25000000  0.00000000  0.25000000  1
  Li  Li11  1  0.25000000  0.00000000  0.75000000  1
  Li  Li12  1  0.25000000  0.25000000  0.00000000  1
  Li  Li13  1  0.75000000  0.25000000  0.00000000  1
  Li  Li14  1  0.00000000  0.75000000  0.75000000  1
  Li  Li15  1  0.00000000  0.25000000  0.75000000  1
  Li  Li16  1  0.25000000  0.50000000  0.75000000  1
  Li  Li17  1  0.25000000  0.50000000  0.25000000  1
  Li  Li18  1  0.25000000  0.75000000  0.50000000  1
  Li  Li19  1  0.75000000  0.75000000  0.50000000  1
  Li  Li20  1  0.50000000  0.25000000  0.75000000  1
  Li  Li21  1  0.50000000  0.75000000  0.75000000  1
  Li  Li22  1  0.75000000  0.00000000  0.75000000  1
  Li  Li23  1  0.75000000  0.00000000  0.25000000  1
  Li  Li24  1  0.75000000  0.25000000  0.50000000  1
  Li  Li25  1  0.25000000  0.25000000  0.50000000  1
  Li  Li26  1  0.50000000  0.75000000  0.25000000  1
  Li  Li27  1  0.50000000  0.25000000  0.25000000  1
  Li  Li28  1  0.75000000  0.50000000  0.25000000  1
  Li  Li29  1  0.75000000  0.50000000  0.75000000  1
  Li  Li30  1  0.75000000  0.75000000  0.00000000  1
  Li  Li31  1  0.25000000  0.75000000  0.00000000  1
  Li  Li32  1  0.88299333  0.00000000  0.00000000  1
  Li  Li33  1  0.11700667  0.00000000  0.00000000  1
  Li  Li34  1  0.00000000  0.88299333  0.00000000  1
  Li  Li35  1  0.00000000  0.11700667  0.00000000  1
  Li  Li36  1  0.00000000  0.00000000  0.88299333  1
  Li  Li37  1  0.00000000  0.00000000  0.11700667  1
  Li  Li38  1  0.88299333  0.50000000  0.50000000  1
  Li  Li39  1  0.11700667  0.50000000  0.50000000  1
  Li  Li40  1  0.00000000  0.38299333  0.50000000  1
  Li  Li41  1  0.00000000  0.61700667  0.50000000  1
  Li  Li42  1  0.00000000  0.50000000  0.38299333  1
  Li  Li43  1  0.00000000  0.50000000  0.61700667  1
  Li  Li44  1  0.38299333  0.00000000  0.50000000  1
  Li  Li45  1  0.61700667  0.00000000  0.50000000  1
  Li  Li46  1  0.50000000  0.88299333  0.50000000  1
  Li  Li47  1  0.50000000  0.11700667  0.50000000  1
  Li  Li48  1  0.50000000  0.00000000  0.38299333  1
  Li  Li49  1  0.50000000  0.00000000  0.61700667  1
  Li  Li50  1  0.38299333  0.50000000  0.00000000  1
  Li  Li51  1  0.61700667  0.50000000  0.00000000  1
  Li  Li52  1  0.50000000  0.38299333  0.00000000  1
  Li  Li53  1  0.50000000  0.61700667  0.00000000  1
  Li  Li54  1  0.50000000  0.50000000  0.88299333  1
  Li  Li55  1  0.50000000  0.50000000  0.11700667  1
  S  S56  1  0.00000000  0.67326521  0.94014744  1
  S  S57  1  0.00000000  -0.67326521  0.94014744  1
  S  S58  1  0.00000000  0.67326521  -0.94014744  1
  S  S59  1  0.00000000  -0.67326521  -0.94014744  1
  S  S60  1  0.94014744  0.00000000  0.67326521  1
  S  S61  1  0.94014744  0.00000000  -0.67326521  1
  S  S62  1  -0.94014744  0.00000000  0.67326521  1
  S  S63  1  -0.94014744  0.00000000  -0.67326521  1
  S  S64  1  0.67326521  0.94014744  0.00000000  1
  S  S65  1  -0.67326521  0.94014744  -0.00000000  1
  S  S66  1  0.67326521  -0.94014744  0.00000000  1
  S  S67  1  -0.67326521  -0.94014744  0.00000000  1
  S  S68  1  0.67326521  0.00000000  -0.94014744  1
  S  S69  1  -0.67326521  0.00000000  -0.94014744  1
  S  S70  1  0.67326521  0.00000000  0.94014744  1
  S  S71  1  -0.67326521  0.00000000  0.94014744  1
  S  S72  1  0.00000000  0.94014744  -0.67326521  1
  S  S73  1  0.00000000  0.94014744  0.67326521  1
  S  S74  1  0.00000000  -0.94014744  -0.67326521  1
  S  S75  1  0.00000000  -0.94014744  0.67326521  1
  S  S76  1  0.94014744  0.67326521  0.00000000  1
  S  S77  1  0.94014744  -0.67326521  -0.00000000  1
  S  S78  1  -0.94014744  0.67326521  0.00000000  1
  S  S79  1  -0.94014744  -0.67326521  0.00000000  1
  S  S80  1  0.00000000  1.17326521  1.44014744  1
  S  S81  1  0.00000000  -0.17326521  1.44014744  1
  S  S82  1  0.00000000  1.17326521  -0.44014744  1
  S  S83  1  0.00000000  -0.17326521  -0.44014744  1
  S  S84  1  0.94014744  0.50000000  1.17326521  1
  S  S85  1  0.94014744  0.50000000  -0.17326521  1
  S  S86  1  -0.94014744  0.50000000  1.17326521  1
  S  S87  1  -0.94014744  0.50000000  -0.17326521  1
  S  S88  1  0.67326521  1.44014744  0.50000000  1
  S  S89  1  -0.67326521  1.44014744  0.50000000  1
  S  S90  1  0.67326521  -0.44014744  0.50000000  1
  S  S91  1  -0.67326521  -0.44014744  0.50000000  1
  S  S92  1  0.67326521  0.50000000  -0.44014744  1
  S  S93  1  -0.67326521  0.50000000  -0.44014744  1
  S  S94  1  0.67326521  0.50000000  1.44014744  1
  S  S95  1  -0.67326521  0.50000000  1.44014744  1
  S  S96  1  0.00000000  1.44014744  -0.17326521  1
  S  S97  1  0.00000000  1.44014744  1.17326521  1
  S  S98  1  0.00000000  -0.44014744  -0.17326521  1
  S  S99  1  0.00000000  -0.44014744  1.17326521  1
  S  S100  1  0.94014744  1.17326521  0.50000000  1
  S  S101  1  0.94014744  -0.17326521  0.50000000  1
  S  S102  1  -0.94014744  1.17326521  0.50000000  1
  S  S103  1  -0.94014744  -0.17326521  0.50000000  1
  S  S104  1  0.50000000  0.67326521  1.44014744  1
  S  S105  1  0.50000000  -0.67326521  1.44014744  1
  S  S106  1  0.50000000  0.67326521  -0.44014744  1
  S  S107  1  0.50000000  -0.67326521  -0.44014744  1
  S  S108  1  1.44014744  0.00000000  1.17326521  1
  S  S109  1  1.44014744  0.00000000  -0.17326521  1
  S  S110  1  -0.44014744  -0.00000000  1.17326521  1
  S  S111  1  -0.44014744  -0.00000000  -0.17326521  1
  S  S112  1  1.17326521  0.94014744  0.50000000  1
  S  S113  1  -0.17326521  0.94014744  0.50000000  1
  S  S114  1  1.17326521  -0.94014744  0.50000000  1
  S  S115  1  -0.17326521  -0.94014744  0.50000000  1
  S  S116  1  1.17326521  0.00000000  -0.44014744  1
  S  S117  1  -0.17326521  -0.00000000  -0.44014744  1
  S  S118  1  1.17326521  0.00000000  1.44014744  1
  S  S119  1  -0.17326521  -0.00000000  1.44014744  1
  S  S120  1  0.50000000  0.94014744  -0.17326521  1
  S  S121  1  0.50000000  0.94014744  1.17326521  1
  S  S122  1  0.50000000  -0.94014744  -0.17326521  1
  S  S123  1  0.50000000  -0.94014744  1.17326521  1
  S  S124  1  1.44014744  0.67326521  0.50000000  1
  S  S125  1  1.44014744  -0.67326521  0.50000000  1
  S  S126  1  -0.44014744  0.67326521  0.50000000  1
  S  S127  1  -0.44014744  -0.67326521  0.50000000  1
  S  S128  1  0.50000000  1.17326521  0.94014744  1
  S  S129  1  0.50000000  -0.17326521  0.94014744  1
  S  S130  1  0.50000000  1.17326521  -0.94014744  1
  S  S131  1  0.50000000  -0.17326521  -0.94014744  1
  S  S132  1  1.44014744  0.50000000  0.67326521  1
  S  S133  1  1.44014744  0.50000000  -0.67326521  1
  S  S134  1  -0.44014744  0.50000000  0.67326521  1
  S  S135  1  -0.44014744  0.50000000  -0.67326521  1
  S  S136  1  1.17326521  1.44014744  -0.00000000  1
  S  S137  1  -0.17326521  1.44014744  0.00000000  1
  S  S138  1  1.17326521  -0.44014744  0.00000000  1
  S  S139  1  -0.17326521  -0.44014744  0.00000000  1
  S  S140  1  1.17326521  0.50000000  -0.94014744  1
  S  S141  1  -0.17326521  0.50000000  -0.94014744  1
  S  S142  1  1.17326521  0.50000000  0.94014744  1
  S  S143  1  -0.17326521  0.50000000  0.94014744  1
  S  S144  1  0.50000000  1.44014744  -0.67326521  1
  S  S145  1  0.50000000  1.44014744  0.67326521  1
  S  S146  1  0.50000000  -0.44014744  -0.67326521  1
  S  S147  1  0.50000000  -0.44014744  0.67326521  1
  S  S148  1  1.44014744  1.17326521  -0.00000000  1
  S  S149  1  1.44014744  -0.17326521  0.00000000  1
  S  S150  1  -0.44014744  1.17326521  0.00000000  1
  S  S151  1  -0.44014744  -0.17326521  0.00000000  1
  Si  Si152  1  0.40290669  0.00000000  0.00000000  1
  Si  Si153  1  0.59709331  0.00000000  0.00000000  1
  Si  Si154  1  0.00000000  0.40290669  0.00000000  1
  Si  Si155  1  0.00000000  0.59709331  0.00000000  1
  Si  Si156  1  0.00000000  0.00000000  0.40290669  1
  Si  Si157  1  0.00000000  0.00000000  0.59709331  1
  Si  Si158  1  0.40290669  0.50000000  0.50000000  1
  Si  Si159  1  0.59709331  0.50000000  0.50000000  1
  Si  Si160  1  0.00000000  0.90290669  0.50000000  1
  Si  Si161  1  0.00000000  0.09709331  0.50000000  1
  Si  Si162  1  0.00000000  0.50000000  0.90290669  1
  Si  Si163  1  0.00000000  0.50000000  0.09709331  1
  Si  Si164  1  0.90290669  0.00000000  0.50000000  1
  Si  Si165  1  0.09709331  0.00000000  0.50000000  1
  Si  Si166  1  0.50000000  0.40290669  0.50000000  1
  Si  Si167  1  0.50000000  0.59709331  0.50000000  1
  Si  Si168  1  0.50000000  0.00000000  0.90290669  1
  Si  Si169  1  0.50000000  0.00000000  0.09709331  1
  Si  Si170  1  0.90290669  0.50000000  0.00000000  1
  Si  Si171  1  0.09709331  0.50000000  0.00000000  1
  Si  Si172  1  0.50000000  0.90290669  0.00000000  1
  Si  Si173  1  0.50000000  0.09709331  0.00000000  1
  Si  Si174  1  0.50000000  0.50000000  0.40290669  1
  Si  Si175  1  0.50000000  0.50000000  0.59709331  1
  Si  Si176  1  0.25000000  0.25000000  0.25000000  1
  Si  Si177  1  0.25000000  0.25000000  0.75000000  1
  Si  Si178  1  0.25000000  0.75000000  0.75000000  1
  Si  Si179  1  0.25000000  0.75000000  0.25000000  1
  Si  Si180  1  0.75000000  0.25000000  0.75000000  1
  Si  Si181  1  0.75000000  0.25000000  0.25000000  1
  Si  Si182  1  0.75000000  0.75000000  0.25000000  1
  Si  Si183  1  0.75000000  0.75000000  0.75000000  1
