# generated using pymatgen
data_Li5LaGe2Mo3IN
_symmetry_space_group_name_H-M   'P 1'
_cell_length_a   12.41614353
_cell_length_b   11.60745496
_cell_length_c   13.87298929
_cell_angle_alpha   90.00000000
_cell_angle_beta   90.00000000
_cell_angle_gamma   90.00000000
_symmetry_Int_Tables_number   1
_chemical_formula_structural   Li5LaGe2Mo3IN
_chemical_formula_sum   'Li5 La1 Ge2 Mo3 I1 N1'
_cell_volume   1999.37281232
_cell_formula_units_Z   1
loop_
 _symmetry_equiv_pos_site_id
 _symmetry_equiv_pos_as_xyz
  1  'x, y, z'
loop_
 _atom_site_type_symbol
 _atom_site_label
 _atom_site_symmetry_multiplicity
 _atom_site_fract_x
 _atom_site_fract_y
 _atom_site_fract_z
 _atom_site_occupancy
  Li  Li0  1  0.12500000  0.00000000  0.25000000  1
  Li  Li1  1  0.00000000  0.00000000  0.00000000  1
  Li  Li2  1  0.37500000  0.00000000  0.25000000  1
  Li  Li3  1  0.25000000  0.25000000  0.25000000  1
  Li  Li4  1  0.00000000  0.25000000  0.12500000  1
  La  La5  1  0.57165156  0.38104450  0.40744981  1
  Mo  Mo6  1  0.77270230  0.92128485  0.60065297  1
  Mo  Mo7  1  0.18379453  0.89883131  0.55456612  1
  Mo  Mo8  1  0.47677718  0.39623928  0.11555168  1
  Ge  Ge9  1  0.65164151  0.50539584  0.56969570  1
  Ge  Ge10  1  0.49745934  0.27504378  0.68819656  1
  N  N11  1  0.67806963  0.08445284  0.16186953  1
  I  I12  1  0.93209352  0.22374079  0.20401647  1
