# generated using pymatgen
data_KLiO
_symmetry_space_group_name_H-M   'P 1'
_cell_length_a   13.23795670
_cell_length_b   13.23795670
_cell_length_c   9.92460718
_cell_angle_alpha   90.00000000
_cell_angle_beta   90.00000000
_cell_angle_gamma   120.00000000
_symmetry_Int_Tables_number   1
_chemical_formula_structural   KLiO
_chemical_formula_sum   'K12 Li12 O12'
_cell_volume   1506.21119261
_cell_formula_units_Z   12
loop_
 _symmetry_equiv_pos_site_id
 _symmetry_equiv_pos_as_xyz
  1  'x, y, z'
loop_
 _atom_site_type_symbol
 _atom_site_label
 _atom_site_symmetry_multiplicity
 _atom_site_fract_x
 _atom_site_fract_y
 _atom_site_fract_z
 _atom_site_occupancy
  K  K0  1  0.78923207  0.54366723  0.34931037  1
  K  K1  1  -0.54366723  0.24556484  0.34931037  1
  K  K2  1  -0.24556484  -0.78923207  0.34931037  1
  K  K3  1  0.78923207  0.54366723  -0.34931037  1
  K  K4  1  -0.54366723  0.24556484  -0.34931037  1
  K  K5  1  -0.24556484  -0.78923207  -0.34931037  1
  K  K6  1  0.54366723  0.78923207  -0.34931037  1
  K  K7  1  0.24556484  -0.54366723  -0.34931037  1
  K  K8  1  -0.78923207  -0.24556484  -0.34931037  1
  K  K9  1  0.54366723  0.78923207  0.34931037  1
  K  K10  1  0.24556484  -0.54366723  0.34931037  1
  K  K11  1  -0.78923207  -0.24556484  0.34931037  1
  Li  Li12  1  0.33333333  0.66666667  0.50000000  1
  Li  Li13  1  0.66666667  0.33333333  0.50000000  1
  Li  Li14  1  0.21951439  0.82343068  0.00000000  1
  Li  Li15  1  0.17656932  0.39608371  0.00000000  1
  Li  Li16  1  0.60391629  0.78048561  0.00000000  1
  Li  Li17  1  0.82343068  0.21951439  0.00000000  1
  Li  Li18  1  0.39608371  0.17656932  0.00000000  1
  Li  Li19  1  0.78048561  0.60391629  0.00000000  1
  Li  Li20  1  0.33333333  0.66666667  0.22983641  1
  Li  Li21  1  0.33333333  0.66666667  0.77016359  1
  Li  Li22  1  0.66666667  0.33333333  0.77016359  1
  Li  Li23  1  0.66666667  0.33333333  0.22983641  1
  O  O24  1  0.82380171  0.00000000  0.00000000  1
  O  O25  1  0.00000000  0.82380171  -0.00000000  1
  O  O26  1  0.17619829  0.17619829  0.00000000  1
  O  O27  1  0.33333333  0.66666667  0.00000000  1
  O  O28  1  0.66666667  0.33333333  0.00000000  1
  O  O29  1  0.00000000  0.00000000  0.50000000  1
  O  O30  1  0.06385421  0.00000000  0.50000000  1
  O  O31  1  0.00000000  0.06385421  0.50000000  1
  O  O32  1  0.93614579  0.93614579  0.50000000  1
  O  O33  1  0.96394259  -0.00000000  0.00000000  1
  O  O34  1  0.00000000  0.96394259  -0.00000000  1
  O  O35  1  0.03605741  0.03605741  0.00000000  1
