# generated using pymatgen
data_SnS2
_symmetry_space_group_name_H-M   'P 1'
_cell_length_a   10.54544250
_cell_length_b   10.54544250
_cell_length_c   23.47137546
_cell_angle_alpha   90.00000000
_cell_angle_beta   90.00000000
_cell_angle_gamma   120.00000000
_symmetry_Int_Tables_number   1
_chemical_formula_structural   SnS2
_chemical_formula_sum   'Sn36 S72'
_cell_volume   2260.47021382
_cell_formula_units_Z   36
loop_
 _symmetry_equiv_pos_site_id
 _symmetry_equiv_pos_as_xyz
  1  'x, y, z'
loop_
 _atom_site_type_symbol
 _atom_site_label
 _atom_site_symmetry_multiplicity
 _atom_site_fract_x
 _atom_site_fract_y
 _atom_site_fract_z
 _atom_site_occupancy
  S  S0  1  0.13327050  -0.13327050  0.52488245  1
  S  S1  1  0.13327050  0.26654101  0.52488245  1
  S  S2  1  -0.26654101  -0.13327050  0.52488245  1
  S  S3  1  -0.13327050  0.13327050  -0.52488245  1
  S  S4  1  0.26654101  0.13327050  -0.52488245  1
  S  S5  1  -0.13327050  -0.26654101  -0.52488245  1
  S  S6  1  0.79993717  0.20006283  0.85821579  1
  S  S7  1  0.79993717  0.59987434  0.85821579  1
  S  S8  1  0.40012566  0.20006283  0.85821579  1
  S  S9  1  0.53339616  0.46660384  -0.19154912  1
  S  S10  1  0.93320767  0.46660384  -0.19154912  1
  S  S11  1  0.53339616  0.06679233  -0.19154912  1
  S  S12  1  0.46660384  0.53339616  1.19154912  1
  S  S13  1  0.46660384  0.93320767  1.19154912  1
  S  S14  1  0.06679233  0.53339616  1.19154912  1
  S  S15  1  0.20006283  0.79993717  0.14178421  1
  S  S16  1  0.59987434  0.79993717  0.14178421  1
  S  S17  1  0.20006283  0.40012566  0.14178421  1
  S  S18  1  0.50000000  0.00000000  0.50000000  1
  S  S19  1  0.00000000  0.50000000  0.50000000  1
  S  S20  1  0.50000000  0.50000000  0.50000000  1
  S  S21  1  0.16666667  0.33333333  0.83333333  1
  S  S22  1  0.66666667  0.83333333  0.83333333  1
  S  S23  1  0.16666667  0.83333333  0.83333333  1
  S  S24  1  0.83333333  0.66666667  0.16666667  1
  S  S25  1  0.33333333  0.16666667  0.16666667  1
  S  S26  1  0.83333333  0.16666667  0.16666667  1
  S  S27  1  0.78372384  0.21627616  0.47439896  1
  S  S28  1  0.78372384  0.56744768  0.47439896  1
  S  S29  1  0.43255232  0.21627616  0.47439896  1
  S  S30  1  0.21627616  0.78372384  0.52560104  1
  S  S31  1  0.56744768  0.78372384  0.52560104  1
  S  S32  1  0.21627616  0.43255232  0.52560104  1
  S  S33  1  0.45039050  0.54960950  0.80773229  1
  S  S34  1  0.45039050  0.90078101  0.80773229  1
  S  S35  1  0.09921899  0.54960950  0.80773229  1
  S  S36  1  0.88294283  0.11705717  0.85893437  1
  S  S37  1  0.23411434  0.11705717  0.85893437  1
  S  S38  1  0.88294283  0.76588566  0.85893437  1
  S  S39  1  0.11705717  0.88294283  0.14106563  1
  S  S40  1  0.11705717  0.23411434  0.14106563  1
  S  S41  1  0.76588566  0.88294283  0.14106563  1
  S  S42  1  0.54960950  0.45039050  0.19226771  1
  S  S43  1  0.90078101  0.45039050  0.19226771  1
  S  S44  1  0.54960950  0.09921899  0.19226771  1
  S  S45  1  0.00000000  0.00000000  0.24559573  1
  S  S46  1  0.00000000  0.00000000  0.75440427  1
  S  S47  1  0.66666667  0.33333333  0.57892907  1
  S  S48  1  0.66666667  0.33333333  0.08773760  1
  S  S49  1  0.33333333  0.66666667  0.91226240  1
  S  S50  1  0.33333333  0.66666667  0.42107093  1
  S  S51  1  0.53051489  0.46948511  0.37605031  1
  S  S52  1  0.53051489  0.06102977  0.37605031  1
  S  S53  1  0.93897023  0.46948511  0.37605031  1
  S  S54  1  0.46948511  0.53051489  0.62394969  1
  S  S55  1  0.06102977  0.53051489  0.62394969  1
  S  S56  1  0.46948511  0.93897023  0.62394969  1
  S  S57  1  0.19718155  0.80281845  0.70938364  1
  S  S58  1  0.19718155  0.39436311  0.70938364  1
  S  S59  1  0.60563689  0.80281845  0.70938364  1
  S  S60  1  0.13615178  0.86384822  0.95728302  1
  S  S61  1  0.72769644  0.86384822  0.95728302  1
  S  S62  1  0.13615178  0.27230356  0.95728302  1
  S  S63  1  0.86384822  0.13615178  0.04271698  1
  S  S64  1  0.86384822  0.72769644  0.04271698  1
  S  S65  1  0.27230356  0.13615178  0.04271698  1
  S  S66  1  0.80281845  0.19718155  0.29061636  1
  S  S67  1  0.39436311  0.19718155  0.29061636  1
  S  S68  1  0.80281845  0.60563689  0.29061636  1
  S  S69  1  0.00000000  0.00000000  0.00000000  1
  S  S70  1  0.66666667  0.33333333  0.33333333  1
  S  S71  1  0.33333333  0.66666667  0.66666667  1
  Sn  Sn72  1  0.60545639  0.39454361  0.88028990  1
  Sn  Sn73  1  0.60545639  0.21091279  0.88028990  1
  Sn  Sn74  1  0.78908721  0.39454361  0.88028990  1
  Sn  Sn75  1  0.39454361  0.60545639  0.11971010  1
  Sn  Sn76  1  0.21091279  0.60545639  0.11971010  1
  Sn  Sn77  1  0.39454361  0.78908721  0.11971010  1
  Sn  Sn78  1  0.27212306  0.72787694  0.21362323  1
  Sn  Sn79  1  0.27212306  0.54424612  0.21362323  1
  Sn  Sn80  1  0.45575388  0.72787694  0.21362323  1
  Sn  Sn81  1  0.06121027  0.93878973  0.45304343  1
  Sn  Sn82  1  0.87757945  0.93878973  0.45304343  1
  Sn  Sn83  1  0.06121027  0.12242055  0.45304343  1
  Sn  Sn84  1  0.93878973  0.06121027  0.54695657  1
  Sn  Sn85  1  0.93878973  0.87757945  0.54695657  1
  Sn  Sn86  1  0.12242055  0.06121027  0.54695657  1
  Sn  Sn87  1  0.72787694  0.27212306  0.78637677  1
  Sn  Sn88  1  0.54424612  0.27212306  0.78637677  1
  Sn  Sn89  1  0.72787694  0.45575388  0.78637677  1
  Sn  Sn90  1  0.39929152  -0.00000000  0.00000000  1
  Sn  Sn91  1  0.00000000  0.39929152  0.00000000  1
  Sn  Sn92  1  0.60070848  0.60070848  0.00000000  1
  Sn  Sn93  1  0.60070848  0.00000000  0.00000000  1
  Sn  Sn94  1  0.00000000  0.60070848  0.00000000  1
  Sn  Sn95  1  0.39929152  0.39929152  0.00000000  1
  Sn  Sn96  1  0.06595819  0.33333333  0.33333333  1
  Sn  Sn97  1  0.66666667  0.73262485  0.33333333  1
  Sn  Sn98  1  0.26737515  0.93404181  0.33333333  1
  Sn  Sn99  1  0.26737515  0.33333333  0.33333333  1
  Sn  Sn100  1  0.66666667  0.93404181  0.33333333  1
  Sn  Sn101  1  0.06595819  0.73262485  0.33333333  1
  Sn  Sn102  1  0.73262485  0.66666667  0.66666667  1
  Sn  Sn103  1  0.33333333  0.06595819  0.66666667  1
  Sn  Sn104  1  0.93404181  0.26737515  0.66666667  1
  Sn  Sn105  1  0.93404181  0.66666667  0.66666667  1
  Sn  Sn106  1  0.33333333  0.26737515  0.66666667  1
  Sn  Sn107  1  0.73262485  0.06595819  0.66666667  1
