# generated using pymatgen
data_Na4Sr(LiSe2)2
_symmetry_space_group_name_H-M   'P 1'
_cell_length_a   17.17983962
_cell_length_b   17.17983962
_cell_length_c   17.17983962
_cell_angle_alpha   90.00000000
_cell_angle_beta   90.00000000
_cell_angle_gamma   90.00000000
_symmetry_Int_Tables_number   1
_chemical_formula_structural   Na4Sr(LiSe2)2
_chemical_formula_sum   'Na48 Sr12 Li24 Se48'
_cell_volume   5070.57622397
_cell_formula_units_Z   12
loop_
 _symmetry_equiv_pos_site_id
 _symmetry_equiv_pos_as_xyz
  1  'x, y, z'
loop_
 _atom_site_type_symbol
 _atom_site_label
 _atom_site_symmetry_multiplicity
 _atom_site_fract_x
 _atom_site_fract_y
 _atom_site_fract_z
 _atom_site_occupancy
  Li  Li0  1  0.35373643  -0.00000000  0.25000000  1
  Li  Li1  1  0.14626357  -0.00000000  0.75000000  1
  Li  Li2  1  0.25000000  0.35373643  0.00000000  1
  Li  Li3  1  0.75000000  0.14626357  0.00000000  1
  Li  Li4  1  0.00000000  0.25000000  0.35373643  1
  Li  Li5  1  0.00000000  0.75000000  0.14626357  1
  Li  Li6  1  0.75000000  0.60373643  0.00000000  1
  Li  Li7  1  0.75000000  0.39626357  0.50000000  1
  Li  Li8  1  0.10373643  0.50000000  0.25000000  1
  Li  Li9  1  0.89626357  0.00000000  0.25000000  1
  Li  Li10  1  0.00000000  0.25000000  0.89626357  1
  Li  Li11  1  0.50000000  0.25000000  0.10373643  1
  Li  Li12  1  0.85373643  0.50000000  0.75000000  1
  Li  Li13  1  0.64626357  0.50000000  0.25000000  1
  Li  Li14  1  0.75000000  0.85373643  0.50000000  1
  Li  Li15  1  0.25000000  0.64626357  0.50000000  1
  Li  Li16  1  0.50000000  0.75000000  0.85373643  1
  Li  Li17  1  0.50000000  0.25000000  0.64626357  1
  Li  Li18  1  0.25000000  0.10373643  0.50000000  1
  Li  Li19  1  0.25000000  0.89626357  0.00000000  1
  Li  Li20  1  0.60373643  0.00000000  0.75000000  1
  Li  Li21  1  0.39626357  0.50000000  0.75000000  1
  Li  Li22  1  0.50000000  0.75000000  0.39626357  1
  Li  Li23  1  0.00000000  0.75000000  0.60373643  1
  Na  Na24  1  0.52308410  0.82339954  0.26961161  1
  Na  Na25  1  -0.02308410  -0.82339954  0.76961161  1
  Na  Na26  1  -0.52308410  1.32339954  0.23038839  1
  Na  Na27  1  1.02308410  -0.32339954  -0.26961161  1
  Na  Na28  1  0.26961161  0.52308410  0.82339954  1
  Na  Na29  1  0.76961161  -0.02308410  -0.82339954  1
  Na  Na30  1  0.23038839  -0.52308410  1.32339954  1
  Na  Na31  1  -0.26961161  1.02308410  -0.32339954  1
  Na  Na32  1  0.82339954  0.26961161  0.52308410  1
  Na  Na33  1  -0.82339954  0.76961161  -0.02308410  1
  Na  Na34  1  1.32339954  0.23038839  -0.52308410  1
  Na  Na35  1  -0.32339954  -0.26961161  1.02308410  1
  Na  Na36  1  1.57339954  0.77308410  -0.01961161  1
  Na  Na37  1  -0.07339954  0.22691590  0.48038839  1
  Na  Na38  1  1.07339954  -0.27308410  1.01961161  1
  Na  Na39  1  -0.57339954  1.27308410  0.51961161  1
  Na  Na40  1  1.27308410  0.51961161  -0.57339954  1
  Na  Na41  1  -0.27308410  1.01961161  1.07339954  1
  Na  Na42  1  0.22691590  0.48038839  -0.07339954  1
  Na  Na43  1  0.77308410  -0.01961161  1.57339954  1
  Na  Na44  1  1.01961161  1.07339954  -0.27308410  1
  Na  Na45  1  0.51961161  -0.57339954  1.27308410  1
  Na  Na46  1  -0.01961161  1.57339954  0.77308410  1
  Na  Na47  1  0.48038839  -0.07339954  0.22691590  1
  Na  Na48  1  1.02308410  1.32339954  0.76961161  1
  Na  Na49  1  0.47691590  -0.32339954  1.26961161  1
  Na  Na50  1  -0.02308410  1.82339954  0.73038839  1
  Na  Na51  1  1.52308410  0.17660046  0.23038839  1
  Na  Na52  1  0.76961161  1.02308410  1.32339954  1
  Na  Na53  1  1.26961161  0.47691590  -0.32339954  1
  Na  Na54  1  0.73038839  -0.02308410  1.82339954  1
  Na  Na55  1  0.23038839  1.52308410  0.17660046  1
  Na  Na56  1  1.32339954  0.76961161  1.02308410  1
  Na  Na57  1  -0.32339954  1.26961161  0.47691590  1
  Na  Na58  1  1.82339954  0.73038839  -0.02308410  1
  Na  Na59  1  0.17660046  0.23038839  1.52308410  1
  Na  Na60  1  2.07339954  1.27308410  0.48038839  1
  Na  Na61  1  0.42660046  0.72691590  0.98038839  1
  Na  Na62  1  1.57339954  0.22691590  1.51961161  1
  Na  Na63  1  -0.07339954  1.77308410  1.01961161  1
  Na  Na64  1  1.77308410  1.01961161  -0.07339954  1
  Na  Na65  1  0.22691590  1.51961161  1.57339954  1
  Na  Na66  1  0.72691590  0.98038839  0.42660046  1
  Na  Na67  1  1.27308410  0.48038839  2.07339954  1
  Na  Na68  1  1.51961161  1.57339954  0.22691590  1
  Na  Na69  1  1.01961161  -0.07339954  1.77308410  1
  Na  Na70  1  0.48038839  2.07339954  1.27308410  1
  Na  Na71  1  0.98038839  0.42660046  0.72691590  1
  Se  Se72  1  0.27530585  -0.00000000  0.25000000  1
  Se  Se73  1  0.22469415  -0.00000000  0.75000000  1
  Se  Se74  1  0.25000000  0.27530585  0.00000000  1
  Se  Se75  1  0.75000000  0.22469415  0.00000000  1
  Se  Se76  1  0.00000000  0.25000000  0.27530585  1
  Se  Se77  1  0.00000000  0.75000000  0.22469415  1
  Se  Se78  1  0.75000000  0.52530585  0.00000000  1
  Se  Se79  1  0.75000000  0.47469415  0.50000000  1
  Se  Se80  1  0.02530585  0.50000000  0.25000000  1
  Se  Se81  1  0.97469415  0.00000000  0.25000000  1
  Se  Se82  1  0.00000000  0.25000000  0.97469415  1
  Se  Se83  1  0.50000000  0.25000000  0.02530585  1
  Se  Se84  1  0.77530585  0.50000000  0.75000000  1
  Se  Se85  1  0.72469415  0.50000000  0.25000000  1
  Se  Se86  1  0.75000000  0.77530585  0.50000000  1
  Se  Se87  1  0.25000000  0.72469415  0.50000000  1
  Se  Se88  1  0.50000000  0.75000000  0.77530585  1
  Se  Se89  1  0.50000000  0.25000000  0.72469415  1
  Se  Se90  1  0.25000000  0.02530585  0.50000000  1
  Se  Se91  1  0.25000000  0.97469415  -0.00000000  1
  Se  Se92  1  0.52530585  -0.00000000  0.75000000  1
  Se  Se93  1  0.47469415  0.50000000  0.75000000  1
  Se  Se94  1  0.50000000  0.75000000  0.47469415  1
  Se  Se95  1  0.00000000  0.75000000  0.52530585  1
  Se  Se96  1  0.12500000  0.12500000  0.12500000  1
  Se  Se97  1  0.37500000  0.87500000  0.62500000  1
  Se  Se98  1  0.87500000  0.62500000  0.37500000  1
  Se  Se99  1  0.62500000  0.37500000  0.87500000  1
  Se  Se100  1  0.62500000  0.62500000  0.62500000  1
  Se  Se101  1  0.87500000  0.37500000  0.12500000  1
  Se  Se102  1  0.37500000  0.12500000  0.87500000  1
  Se  Se103  1  0.12500000  0.87500000  0.37500000  1
  Se  Se104  1  0.32222230  0.32222230  0.32222230  1
  Se  Se105  1  0.17777770  0.67777770  0.82222230  1
  Se  Se106  1  0.67777770  0.82222230  0.17777770  1
  Se  Se107  1  0.82222230  0.17777770  0.67777770  1
  Se  Se108  1  0.07222230  0.57222230  0.92777770  1
  Se  Se109  1  0.42777770  0.42777770  0.42777770  1
  Se  Se110  1  0.57222230  0.92777770  0.07222230  1
  Se  Se111  1  0.92777770  0.07222230  0.57222230  1
  Se  Se112  1  0.82222230  0.82222230  0.82222230  1
  Se  Se113  1  0.67777770  0.17777770  0.32222230  1
  Se  Se114  1  0.17777770  0.32222230  0.67777770  1
  Se  Se115  1  0.32222230  0.67777770  0.17777770  1
  Se  Se116  1  0.57222230  0.07222230  0.42777770  1
  Se  Se117  1  0.92777770  0.92777770  0.92777770  1
  Se  Se118  1  0.07222230  0.42777770  0.57222230  1
  Se  Se119  1  0.42777770  0.57222230  0.07222230  1
  Sr  Sr120  1  0.62500000  -0.00000000  0.25000000  1
  Sr  Sr121  1  0.87500000  -0.00000000  0.75000000  1
  Sr  Sr122  1  0.25000000  0.62500000  -0.00000000  1
  Sr  Sr123  1  0.75000000  0.87500000  -0.00000000  1
  Sr  Sr124  1  0.00000000  0.25000000  0.62500000  1
  Sr  Sr125  1  0.00000000  0.75000000  0.87500000  1
  Sr  Sr126  1  0.12500000  0.50000000  0.75000000  1
  Sr  Sr127  1  0.37500000  0.50000000  0.25000000  1
  Sr  Sr128  1  0.75000000  0.12500000  0.50000000  1
  Sr  Sr129  1  0.25000000  0.37500000  0.50000000  1
  Sr  Sr130  1  0.50000000  0.75000000  0.12500000  1
  Sr  Sr131  1  0.50000000  0.25000000  0.37500000  1
