# generated using pymatgen
data_KLi2(PS3)3
_symmetry_space_group_name_H-M   'P 1'
_cell_length_a   9.63513090
_cell_length_b   9.63513090
_cell_length_c   23.01924982
_cell_angle_alpha   90.00000000
_cell_angle_beta   90.00000000
_cell_angle_gamma   120.00000000
_symmetry_Int_Tables_number   1
_chemical_formula_structural   KLi2(PS3)3
_chemical_formula_sum   'K6 Li12 P18 S54'
_cell_volume   1850.70430846
_cell_formula_units_Z   6
loop_
 _symmetry_equiv_pos_site_id
 _symmetry_equiv_pos_as_xyz
  1  'x, y, z'
loop_
 _atom_site_type_symbol
 _atom_site_label
 _atom_site_symmetry_multiplicity
 _atom_site_fract_x
 _atom_site_fract_y
 _atom_site_fract_z
 _atom_site_occupancy
  K  K0  1  0.00000000  0.00000000  0.00000000  1
  K  K1  1  0.00000000  0.00000000  0.50000000  1
  K  K2  1  0.66666667  0.33333333  0.33333333  1
  K  K3  1  0.66666667  0.33333333  0.83333333  1
  K  K4  1  0.33333333  0.66666667  0.66666667  1
  K  K5  1  0.33333333  0.66666667  0.16666667  1
  Li  Li6  1  0.00000000  0.00000000  0.10853008  1
  Li  Li7  1  0.00000000  0.00000000  0.39146992  1
  Li  Li8  1  0.00000000  0.00000000  0.89146992  1
  Li  Li9  1  0.00000000  0.00000000  0.60853008  1
  Li  Li10  1  0.66666667  0.33333333  0.44186341  1
  Li  Li11  1  0.66666667  0.33333333  0.72480325  1
  Li  Li12  1  0.66666667  0.33333333  0.22480325  1
  Li  Li13  1  0.66666667  0.33333333  0.94186341  1
  Li  Li14  1  0.33333333  0.66666667  0.77519675  1
  Li  Li15  1  0.33333333  0.66666667  0.05813659  1
  Li  Li16  1  0.33333333  0.66666667  0.55813659  1
  Li  Li17  1  0.33333333  0.66666667  0.27519675  1
  P  P18  1  0.89680206  0.00000000  0.25000000  1
  P  P19  1  0.00000000  0.89680206  0.25000000  1
  P  P20  1  0.10319794  0.10319794  0.25000000  1
  P  P21  1  0.10319794  0.00000000  0.75000000  1
  P  P22  1  0.00000000  0.10319794  0.75000000  1
  P  P23  1  0.89680206  0.89680206  0.75000000  1
  P  P24  1  0.56346872  0.33333333  0.58333333  1
  P  P25  1  0.66666667  0.23013539  0.58333333  1
  P  P26  1  0.76986461  0.43653128  0.58333333  1
  P  P27  1  0.76986461  0.33333333  0.08333333  1
  P  P28  1  0.66666667  0.43653128  0.08333333  1
  P  P29  1  0.56346872  0.23013539  0.08333333  1
  P  P30  1  0.23013539  0.66666667  0.91666667  1
  P  P31  1  0.33333333  0.56346872  0.91666667  1
  P  P32  1  0.43653128  0.76986461  0.91666667  1
  P  P33  1  0.43653128  0.66666667  0.41666667  1
  P  P34  1  0.33333333  0.76986461  0.41666667  1
  P  P35  1  0.23013539  0.56346872  0.41666667  1
  S  S36  1  0.50000000  0.00000000  -0.00000000  1
  S  S37  1  0.00000000  0.50000000  0.00000000  1
  S  S38  1  0.50000000  0.50000000  -0.00000000  1
  S  S39  1  0.00000000  0.50000000  0.50000000  1
  S  S40  1  0.50000000  0.00000000  0.50000000  1
  S  S41  1  0.50000000  0.50000000  0.50000000  1
  S  S42  1  0.16666667  0.33333333  0.33333333  1
  S  S43  1  0.66666667  0.83333333  0.33333333  1
  S  S44  1  0.16666667  0.83333333  0.33333333  1
  S  S45  1  0.66666667  0.83333333  0.83333333  1
  S  S46  1  0.16666667  0.33333333  0.83333333  1
  S  S47  1  0.16666667  0.83333333  0.83333333  1
  S  S48  1  0.83333333  0.66666667  0.66666667  1
  S  S49  1  0.33333333  0.16666667  0.66666667  1
  S  S50  1  0.83333333  0.16666667  0.66666667  1
  S  S51  1  0.33333333  0.16666667  0.16666667  1
  S  S52  1  0.83333333  0.66666667  0.16666667  1
  S  S53  1  0.83333333  0.16666667  0.16666667  1
  S  S54  1  0.27327687  0.46802898  0.75388071  1
  S  S55  1  -0.46802898  -0.19475211  0.75388071  1
  S  S56  1  0.19475211  -0.27327687  0.75388071  1
  S  S57  1  0.46802898  0.27327687  -0.25388071  1
  S  S58  1  -0.19475211  -0.46802898  -0.25388071  1
  S  S59  1  -0.27327687  0.19475211  -0.25388071  1
  S  S60  1  -0.27327687  -0.46802898  -0.75388071  1
  S  S61  1  0.46802898  0.19475211  -0.75388071  1
  S  S62  1  -0.19475211  0.27327687  -0.75388071  1
  S  S63  1  -0.46802898  -0.27327687  1.25388071  1
  S  S64  1  0.19475211  0.46802898  1.25388071  1
  S  S65  1  0.27327687  -0.19475211  1.25388071  1
  S  S66  1  0.93994354  0.80136232  1.08721405  1
  S  S67  1  0.19863768  0.13858122  1.08721405  1
  S  S68  1  0.86141878  0.06005646  1.08721405  1
  S  S69  1  1.13469565  0.60661020  0.07945262  1
  S  S70  1  0.47191455  -0.13469565  0.07945262  1
  S  S71  1  0.39338980  0.52808545  0.07945262  1
  S  S72  1  0.39338980  -0.13469565  -0.42054738  1
  S  S73  1  1.13469565  0.52808545  -0.42054738  1
  S  S74  1  0.47191455  0.60661020  -0.42054738  1
  S  S75  1  0.19863768  0.06005646  1.58721405  1
  S  S76  1  0.86141878  0.80136232  1.58721405  1
  S  S77  1  0.93994354  0.13858122  1.58721405  1
  S  S78  1  0.60661020  1.13469565  1.42054738  1
  S  S79  1  -0.13469565  0.47191455  1.42054738  1
  S  S80  1  0.52808545  0.39338980  1.42054738  1
  S  S81  1  0.80136232  0.93994354  0.41278595  1
  S  S82  1  0.13858122  0.19863768  0.41278595  1
  S  S83  1  0.06005646  0.86141878  0.41278595  1
  S  S84  1  0.06005646  0.19863768  -0.08721405  1
  S  S85  1  0.80136232  0.86141878  -0.08721405  1
  S  S86  1  0.13858122  0.93994354  -0.08721405  1
  S  S87  1  -0.13469565  0.39338980  1.92054738  1
  S  S88  1  0.52808545  1.13469565  1.92054738  1
  S  S89  1  0.60661020  0.47191455  1.92054738  1
