# generated using pymatgen
data_Li3TiIOF
_symmetry_space_group_name_H-M   'P 1'
_cell_length_a   3.96704863
_cell_length_b   3.23821441
_cell_length_c   4.07584674
_cell_angle_alpha   86.56070860
_cell_angle_beta   89.80592382
_cell_angle_gamma   90.20707005
_symmetry_Int_Tables_number   1
_chemical_formula_structural   Li3TiIOF
_chemical_formula_sum   'Li3 Ti1 I1 O1 F1'
_cell_volume   52.26397046
_cell_formula_units_Z   1
loop_
 _symmetry_equiv_pos_site_id
 _symmetry_equiv_pos_as_xyz
  1  'x, y, z'
loop_
 _atom_site_type_symbol
 _atom_site_label
 _atom_site_symmetry_multiplicity
 _atom_site_fract_x
 _atom_site_fract_y
 _atom_site_fract_z
 _atom_site_occupancy
  Li  Li0  1  0.00000000  0.00000000  0.00000000  1
  Li  Li1  1  0.50000000  0.50000000  0.50000000  1
  Li  Li2  1  0.50000000  0.50000000  0.00000000  1
  Ti  Ti3  1  0.50000000  0.00000000  0.50000000  1
  I  I4  1  0.00000000  0.50000000  0.50000000  1
  O  O5  1  0.28233668  0.99864367  0.64769852  1
  F  F6  1  0.72844119  0.89981908  0.05268497  1
