# generated using pymatgen
data_Ti3Si2Se4(IO)4
_symmetry_space_group_name_H-M   'P 1'
_cell_length_a   22.42068138
_cell_length_b   22.42068138
_cell_length_c   9.63812771
_cell_angle_alpha   90.00000000
_cell_angle_beta   90.00000000
_cell_angle_gamma   90.00000000
_symmetry_Int_Tables_number   1
_chemical_formula_structural   Ti3Si2Se4(IO)4
_chemical_formula_sum   'Ti48 Si32 Se64 I64 O64'
_cell_volume   4844.96105619
_cell_formula_units_Z   16
loop_
 _symmetry_equiv_pos_site_id
 _symmetry_equiv_pos_as_xyz
  1  'x, y, z'
loop_
 _atom_site_type_symbol
 _atom_site_label
 _atom_site_symmetry_multiplicity
 _atom_site_fract_x
 _atom_site_fract_y
 _atom_site_fract_z
 _atom_site_occupancy
  I  I0  1  0.77949034  -0.00000000  -0.00000000  1
  I  I1  1  0.72050966  -0.00000000  0.50000000  1
  I  I2  1  0.25000000  0.52949034  0.25000000  1
  I  I3  1  0.25000000  0.47050966  0.75000000  1
  I  I4  1  0.22050966  0.00000000  -0.00000000  1
  I  I5  1  0.27949034  0.00000000  0.50000000  1
  I  I6  1  0.75000000  0.47050966  0.75000000  1
  I  I7  1  0.75000000  0.52949034  0.25000000  1
  I  I8  1  0.27949034  0.50000000  0.50000000  1
  I  I9  1  0.22050966  0.50000000  -0.00000000  1
  I  I10  1  0.75000000  0.02949034  0.75000000  1
  I  I11  1  0.75000000  0.97050966  0.25000000  1
  I  I12  1  0.72050966  0.50000000  0.50000000  1
  I  I13  1  0.77949034  0.50000000  -0.00000000  1
  I  I14  1  0.25000000  0.97050966  0.25000000  1
  I  I15  1  0.25000000  0.02949034  0.75000000  1
  I  I16  1  0.00000000  0.00000000  0.50000000  1
  I  I17  1  0.50000000  0.00000000  0.00000000  1
  I  I18  1  0.25000000  0.75000000  0.75000000  1
  I  I19  1  0.25000000  0.25000000  0.25000000  1
  I  I20  1  0.50000000  0.50000000  0.00000000  1
  I  I21  1  0.00000000  0.50000000  0.50000000  1
  I  I22  1  0.75000000  0.25000000  0.25000000  1
  I  I23  1  0.75000000  0.75000000  0.75000000  1
  I  I24  1  0.64037797  0.47111214  0.29752689  1
  I  I25  1  0.85962203  0.52888786  0.79752689  1
  I  I26  1  0.77888786  0.39037797  0.54752689  1
  I  I27  1  0.72111214  0.60962203  0.04752689  1
  I  I28  1  0.85962203  0.47111214  0.20247311  1
  I  I29  1  0.64037797  0.52888786  0.70247311  1
  I  I30  1  0.72111214  0.39037797  0.95247311  1
  I  I31  1  0.77888786  0.60962203  0.45247311  1
  I  I32  1  0.35962203  0.52888786  0.70247311  1
  I  I33  1  0.14037797  0.47111214  0.20247311  1
  I  I34  1  0.22111214  0.60962203  0.45247311  1
  I  I35  1  0.27888786  0.39037797  0.95247311  1
  I  I36  1  0.14037797  0.52888786  0.79752689  1
  I  I37  1  0.35962203  0.47111214  0.29752689  1
  I  I38  1  0.27888786  0.60962203  0.04752689  1
  I  I39  1  0.22111214  0.39037797  0.54752689  1
  I  I40  1  0.14037797  0.97111214  0.79752689  1
  I  I41  1  0.35962203  0.02888786  0.29752689  1
  I  I42  1  0.27888786  0.89037797  0.04752689  1
  I  I43  1  0.22111214  0.10962203  0.54752689  1
  I  I44  1  0.35962203  0.97111214  0.70247311  1
  I  I45  1  0.14037797  0.02888786  0.20247311  1
  I  I46  1  0.22111214  0.89037797  0.45247311  1
  I  I47  1  0.27888786  0.10962203  0.95247311  1
  I  I48  1  0.85962203  0.02888786  0.20247311  1
  I  I49  1  0.64037797  0.97111214  0.70247311  1
  I  I50  1  0.72111214  0.10962203  0.95247311  1
  I  I51  1  0.77888786  0.89037797  0.45247311  1
  I  I52  1  0.64037797  0.02888786  0.29752689  1
  I  I53  1  0.85962203  0.97111214  0.79752689  1
  I  I54  1  0.77888786  0.10962203  0.54752689  1
  I  I55  1  0.72111214  0.89037797  0.04752689  1
  I  I56  1  0.00000000  0.25000000  0.15486041  1
  I  I57  1  0.00000000  0.75000000  0.40486041  1
  I  I58  1  0.50000000  0.25000000  0.34513959  1
  I  I59  1  0.50000000  0.75000000  0.09513959  1
  I  I60  1  0.50000000  0.75000000  0.65486041  1
  I  I61  1  0.50000000  0.25000000  0.90486041  1
  I  I62  1  0.00000000  0.75000000  0.84513959  1
  I  I63  1  0.00000000  0.25000000  0.59513959  1
  O  O64  1  0.16019935  0.00000000  -0.00000000  1
  O  O65  1  0.33980065  0.00000000  0.50000000  1
  O  O66  1  0.25000000  0.91019935  0.25000000  1
  O  O67  1  0.25000000  0.08980065  0.75000000  1
  O  O68  1  0.83980065  0.00000000  0.00000000  1
  O  O69  1  0.66019935  0.00000000  0.50000000  1
  O  O70  1  0.75000000  0.08980065  0.75000000  1
  O  O71  1  0.75000000  0.91019935  0.25000000  1
  O  O72  1  0.66019935  0.50000000  0.50000000  1
  O  O73  1  0.83980065  0.50000000  -0.00000000  1
  O  O74  1  0.75000000  0.41019935  0.75000000  1
  O  O75  1  0.75000000  0.58980065  0.25000000  1
  O  O76  1  0.33980065  0.50000000  0.50000000  1
  O  O77  1  0.16019935  0.50000000  0.00000000  1
  O  O78  1  0.25000000  0.58980065  0.25000000  1
  O  O79  1  0.25000000  0.41019935  0.75000000  1
  O  O80  1  0.11833192  0.40703845  0.92824965  1
  O  O81  1  0.38166808  0.59296155  0.42824965  1
  O  O82  1  0.84296155  0.86833192  0.17824965  1
  O  O83  1  0.65703845  0.13166808  0.67824965  1
  O  O84  1  0.38166808  0.40703845  0.57175035  1
  O  O85  1  0.11833192  0.59296155  0.07175035  1
  O  O86  1  0.65703845  0.86833192  0.32175035  1
  O  O87  1  0.84296155  0.13166808  0.82175035  1
  O  O88  1  0.88166808  0.59296155  0.07175035  1
  O  O89  1  0.61833192  0.40703845  0.57175035  1
  O  O90  1  0.15703845  0.13166808  0.82175035  1
  O  O91  1  0.34296155  0.86833192  0.32175035  1
  O  O92  1  0.61833192  0.59296155  0.42824965  1
  O  O93  1  0.88166808  0.40703845  0.92824965  1
  O  O94  1  0.34296155  0.13166808  0.67824965  1
  O  O95  1  0.15703845  0.86833192  0.17824965  1
  O  O96  1  0.61833192  0.90703845  0.42824965  1
  O  O97  1  0.88166808  0.09296155  0.92824965  1
  O  O98  1  0.34296155  0.36833192  0.67824965  1
  O  O99  1  0.15703845  0.63166808  0.17824965  1
  O  O100  1  0.88166808  0.90703845  0.07175035  1
  O  O101  1  0.61833192  0.09296155  0.57175035  1
  O  O102  1  0.15703845  0.36833192  0.82175035  1
  O  O103  1  0.34296155  0.63166808  0.32175035  1
  O  O104  1  0.38166808  0.09296155  0.57175035  1
  O  O105  1  0.11833192  0.90703845  0.07175035  1
  O  O106  1  0.65703845  0.63166808  0.32175035  1
  O  O107  1  0.84296155  0.36833192  0.82175035  1
  O  O108  1  0.11833192  0.09296155  0.92824965  1
  O  O109  1  0.38166808  0.90703845  0.42824965  1
  O  O110  1  0.84296155  0.63166808  0.17824965  1
  O  O111  1  0.65703845  0.36833192  0.67824965  1
  O  O112  1  0.41976402  0.66976402  0.87500000  1
  O  O113  1  0.08023598  0.33023598  0.37500000  1
  O  O114  1  0.58023598  0.16976402  0.12500000  1
  O  O115  1  0.91976402  0.83023598  0.62500000  1
  O  O116  1  0.58023598  0.33023598  0.12500000  1
  O  O117  1  0.91976402  0.66976402  0.62500000  1
  O  O118  1  0.41976402  0.83023598  0.87500000  1
  O  O119  1  0.08023598  0.16976402  0.37500000  1
  O  O120  1  0.91976402  0.16976402  0.37500000  1
  O  O121  1  0.58023598  0.83023598  0.87500000  1
  O  O122  1  0.08023598  0.66976402  0.62500000  1
  O  O123  1  0.41976402  0.33023598  0.12500000  1
  O  O124  1  0.08023598  0.83023598  0.62500000  1
  O  O125  1  0.41976402  0.16976402  0.12500000  1
  O  O126  1  0.91976402  0.33023598  0.37500000  1
  O  O127  1  0.58023598  0.66976402  0.87500000  1
  Se  Se128  1  0.03812971  0.00735460  0.85801494  1
  Se  Se129  1  0.46187029  0.99264540  0.35801494  1
  Se  Se130  1  0.24264540  0.78812971  0.10801494  1
  Se  Se131  1  0.25735460  0.21187029  0.60801494  1
  Se  Se132  1  0.46187029  0.00735460  0.64198506  1
  Se  Se133  1  0.03812971  0.99264540  0.14198506  1
  Se  Se134  1  0.25735460  0.78812971  0.39198506  1
  Se  Se135  1  0.24264540  0.21187029  0.89198506  1
  Se  Se136  1  0.96187029  0.99264540  0.14198506  1
  Se  Se137  1  0.53812971  0.00735460  0.64198506  1
  Se  Se138  1  0.75735460  0.21187029  0.89198506  1
  Se  Se139  1  0.74264540  0.78812971  0.39198506  1
  Se  Se140  1  0.53812971  0.99264540  0.35801494  1
  Se  Se141  1  0.96187029  0.00735460  0.85801494  1
  Se  Se142  1  0.74264540  0.21187029  0.60801494  1
  Se  Se143  1  0.75735460  0.78812971  0.10801494  1
  Se  Se144  1  0.53812971  0.50735460  0.35801494  1
  Se  Se145  1  0.96187029  0.49264540  0.85801494  1
  Se  Se146  1  0.74264540  0.28812971  0.60801494  1
  Se  Se147  1  0.75735460  0.71187029  0.10801494  1
  Se  Se148  1  0.96187029  0.50735460  0.14198506  1
  Se  Se149  1  0.53812971  0.49264540  0.64198506  1
  Se  Se150  1  0.75735460  0.28812971  0.89198506  1
  Se  Se151  1  0.74264540  0.71187029  0.39198506  1
  Se  Se152  1  0.46187029  0.49264540  0.64198506  1
  Se  Se153  1  0.03812971  0.50735460  0.14198506  1
  Se  Se154  1  0.25735460  0.71187029  0.39198506  1
  Se  Se155  1  0.24264540  0.28812971  0.89198506  1
  Se  Se156  1  0.03812971  0.49264540  0.85801494  1
  Se  Se157  1  0.46187029  0.50735460  0.35801494  1
  Se  Se158  1  0.24264540  0.71187029  0.10801494  1
  Se  Se159  1  0.25735460  0.28812971  0.60801494  1
  Se  Se160  1  0.00000000  0.96102954  0.88478171  1
  Se  Se161  1  0.50000000  0.03897046  0.38478171  1
  Se  Se162  1  0.28897046  0.75000000  0.13478171  1
  Se  Se163  1  0.21102954  0.25000000  0.63478171  1
  Se  Se164  1  0.50000000  0.96102954  0.61521829  1
  Se  Se165  1  0.00000000  0.03897046  0.11521829  1
  Se  Se166  1  0.21102954  0.75000000  0.36521829  1
  Se  Se167  1  0.28897046  0.25000000  0.86521829  1
  Se  Se168  1  0.50000000  0.46102954  0.38478171  1
  Se  Se169  1  0.00000000  0.53897046  0.88478171  1
  Se  Se170  1  0.78897046  0.25000000  0.63478171  1
  Se  Se171  1  0.71102954  0.75000000  0.13478171  1
  Se  Se172  1  0.00000000  0.46102954  0.11521829  1
  Se  Se173  1  0.50000000  0.53897046  0.61521829  1
  Se  Se174  1  0.71102954  0.25000000  0.86521829  1
  Se  Se175  1  0.78897046  0.75000000  0.36521829  1
  Se  Se176  1  0.06289918  0.31289918  0.87500000  1
  Se  Se177  1  0.43710082  0.68710082  0.37500000  1
  Se  Se178  1  0.93710082  0.81289918  0.12500000  1
  Se  Se179  1  0.56289918  0.18710082  0.62500000  1
  Se  Se180  1  0.93710082  0.68710082  0.12500000  1
  Se  Se181  1  0.56289918  0.31289918  0.62500000  1
  Se  Se182  1  0.06289918  0.18710082  0.87500000  1
  Se  Se183  1  0.43710082  0.81289918  0.37500000  1
  Se  Se184  1  0.56289918  0.81289918  0.37500000  1
  Se  Se185  1  0.93710082  0.18710082  0.87500000  1
  Se  Se186  1  0.43710082  0.31289918  0.62500000  1
  Se  Se187  1  0.06289918  0.68710082  0.12500000  1
  Se  Se188  1  0.43710082  0.18710082  0.62500000  1
  Se  Se189  1  0.06289918  0.81289918  0.12500000  1
  Se  Se190  1  0.56289918  0.68710082  0.37500000  1
  Se  Se191  1  0.93710082  0.31289918  0.87500000  1
  Si  Si192  1  0.60877949  0.66529308  0.15693032  1
  Si  Si193  1  -0.10877949  -0.66529308  0.65693032  1
  Si  Si194  1  -0.41529308  1.35877949  0.40693032  1
  Si  Si195  1  0.91529308  -0.35877949  0.90693032  1
  Si  Si196  1  -0.10877949  0.66529308  0.34306968  1
  Si  Si197  1  0.60877949  -0.66529308  -0.15693032  1
  Si  Si198  1  0.91529308  1.35877949  0.09306968  1
  Si  Si199  1  -0.41529308  -0.35877949  0.59306968  1
  Si  Si200  1  -0.60877949  -0.66529308  -0.15693032  1
  Si  Si201  1  1.10877949  0.66529308  0.34306968  1
  Si  Si202  1  1.41529308  -0.35877949  0.59306968  1
  Si  Si203  1  0.08470692  1.35877949  0.09306968  1
  Si  Si204  1  1.10877949  -0.66529308  0.65693032  1
  Si  Si205  1  -0.60877949  0.66529308  0.15693032  1
  Si  Si206  1  0.08470692  -0.35877949  0.90693032  1
  Si  Si207  1  1.41529308  1.35877949  0.40693032  1
  Si  Si208  1  1.10877949  1.16529308  0.65693032  1
  Si  Si209  1  0.39122051  -0.16529308  1.15693032  1
  Si  Si210  1  0.08470692  1.85877949  0.90693032  1
  Si  Si211  1  1.41529308  0.14122051  1.40693032  1
  Si  Si212  1  0.39122051  1.16529308  0.84306968  1
  Si  Si213  1  1.10877949  -0.16529308  0.34306968  1
  Si  Si214  1  1.41529308  1.85877949  0.59306968  1
  Si  Si215  1  0.08470692  0.14122051  1.09306968  1
  Si  Si216  1  -0.10877949  -0.16529308  0.34306968  1
  Si  Si217  1  1.60877949  1.16529308  0.84306968  1
  Si  Si218  1  1.91529308  0.14122051  1.09306968  1
  Si  Si219  1  0.58470692  1.85877949  0.59306968  1
  Si  Si220  1  1.60877949  -0.16529308  1.15693032  1
  Si  Si221  1  -0.10877949  1.16529308  0.65693032  1
  Si  Si222  1  0.58470692  0.14122051  1.40693032  1
  Si  Si223  1  1.91529308  1.85877949  0.90693032  1
  Ti  Ti224  1  0.03737343  0.12516614  0.63167224  1
  Ti  Ti225  1  0.46262657  0.87483386  0.13167224  1
  Ti  Ti226  1  0.12483386  0.78737343  0.88167224  1
  Ti  Ti227  1  0.37516614  0.21262657  0.38167224  1
  Ti  Ti228  1  0.46262657  0.12516614  0.86832776  1
  Ti  Ti229  1  0.03737343  0.87483386  0.36832776  1
  Ti  Ti230  1  0.37516614  0.78737343  0.61832776  1
  Ti  Ti231  1  0.12483386  0.21262657  0.11832776  1
  Ti  Ti232  1  0.96262657  0.87483386  0.36832776  1
  Ti  Ti233  1  0.53737343  0.12516614  0.86832776  1
  Ti  Ti234  1  0.87516614  0.21262657  0.11832776  1
  Ti  Ti235  1  0.62483386  0.78737343  0.61832776  1
  Ti  Ti236  1  0.53737343  0.87483386  0.13167224  1
  Ti  Ti237  1  0.96262657  0.12516614  0.63167224  1
  Ti  Ti238  1  0.62483386  0.21262657  0.38167224  1
  Ti  Ti239  1  0.87516614  0.78737343  0.88167224  1
  Ti  Ti240  1  0.53737343  0.62516614  0.13167224  1
  Ti  Ti241  1  0.96262657  0.37483386  0.63167224  1
  Ti  Ti242  1  0.62483386  0.28737343  0.38167224  1
  Ti  Ti243  1  0.87516614  0.71262657  0.88167224  1
  Ti  Ti244  1  0.96262657  0.62516614  0.36832776  1
  Ti  Ti245  1  0.53737343  0.37483386  0.86832776  1
  Ti  Ti246  1  0.87516614  0.28737343  0.11832776  1
  Ti  Ti247  1  0.62483386  0.71262657  0.61832776  1
  Ti  Ti248  1  0.46262657  0.37483386  0.86832776  1
  Ti  Ti249  1  0.03737343  0.62516614  0.36832776  1
  Ti  Ti250  1  0.37516614  0.71262657  0.61832776  1
  Ti  Ti251  1  0.12483386  0.28737343  0.11832776  1
  Ti  Ti252  1  0.03737343  0.37483386  0.63167224  1
  Ti  Ti253  1  0.46262657  0.62516614  0.13167224  1
  Ti  Ti254  1  0.12483386  0.71262657  0.88167224  1
  Ti  Ti255  1  0.37516614  0.28737343  0.38167224  1
  Ti  Ti256  1  0.00000000  0.75000000  0.12500000  1
  Ti  Ti257  1  0.50000000  0.75000000  0.37500000  1
  Ti  Ti258  1  0.50000000  0.25000000  0.62500000  1
  Ti  Ti259  1  0.00000000  0.25000000  0.87500000  1
  Ti  Ti260  1  0.00000000  0.25000000  0.37500000  1
  Ti  Ti261  1  0.00000000  0.75000000  0.62500000  1
  Ti  Ti262  1  0.50000000  0.75000000  0.87500000  1
  Ti  Ti263  1  0.50000000  0.25000000  0.12500000  1
  Ti  Ti264  1  0.00000000  0.00000000  0.00000000  1
  Ti  Ti265  1  0.50000000  0.00000000  0.50000000  1
  Ti  Ti266  1  0.25000000  0.75000000  0.25000000  1
  Ti  Ti267  1  0.25000000  0.25000000  0.75000000  1
  Ti  Ti268  1  0.50000000  0.50000000  0.50000000  1
  Ti  Ti269  1  0.00000000  0.50000000  0.00000000  1
  Ti  Ti270  1  0.75000000  0.25000000  0.75000000  1
  Ti  Ti271  1  0.75000000  0.75000000  0.25000000  1
