# generated using pymatgen
data_Li2TiI6
_symmetry_space_group_name_H-M   'P 1'
_cell_length_a   19.03109337
_cell_length_b   19.03109337
_cell_length_c   19.03109337
_cell_angle_alpha   90.00000000
_cell_angle_beta   90.00000000
_cell_angle_gamma   90.00000000
_symmetry_Int_Tables_number   1
_chemical_formula_structural   Li2TiI6
_chemical_formula_sum   'Li48 Ti24 I144'
_cell_volume   6892.72925654
_cell_formula_units_Z   24
loop_
 _symmetry_equiv_pos_site_id
 _symmetry_equiv_pos_as_xyz
  1  'x, y, z'
loop_
 _atom_site_type_symbol
 _atom_site_label
 _atom_site_symmetry_multiplicity
 _atom_site_fract_x
 _atom_site_fract_y
 _atom_site_fract_z
 _atom_site_occupancy
  I  I0  1  0.87370118  0.42233110  0.49981848  1
  I  I1  1  -0.37370118  -0.42233110  0.99981848  1
  I  I2  1  -0.87370118  0.92233110  0.00018152  1
  I  I3  1  1.37370118  0.07766890  -0.49981848  1
  I  I4  1  0.49981848  0.87370118  0.42233110  1
  I  I5  1  0.99981848  -0.37370118  -0.42233110  1
  I  I6  1  0.00018152  -0.87370118  0.92233110  1
  I  I7  1  -0.49981848  1.37370118  0.07766890  1
  I  I8  1  0.42233110  0.49981848  0.87370118  1
  I  I9  1  -0.42233110  0.99981848  -0.37370118  1
  I  I10  1  0.92233110  0.00018152  -0.87370118  1
  I  I11  1  0.07766890  -0.49981848  1.37370118  1
  I  I12  1  1.17233110  1.12370118  -0.24981848  1
  I  I13  1  0.32766890  -0.12370118  0.25018152  1
  I  I14  1  0.67233110  -0.62370118  1.24981848  1
  I  I15  1  -0.17233110  1.62370118  0.74981848  1
  I  I16  1  1.62370118  0.74981848  -0.17233110  1
  I  I17  1  -0.62370118  1.24981848  0.67233110  1
  I  I18  1  -0.12370118  0.25018152  0.32766890  1
  I  I19  1  1.12370118  -0.24981848  1.17233110  1
  I  I20  1  1.24981848  0.67233110  -0.62370118  1
  I  I21  1  0.74981848  -0.17233110  1.62370118  1
  I  I22  1  -0.24981848  1.17233110  1.12370118  1
  I  I23  1  0.25018152  0.32766890  -0.12370118  1
  I  I24  1  1.37370118  0.92233110  0.99981848  1
  I  I25  1  0.12629882  0.07766890  1.49981848  1
  I  I26  1  -0.37370118  1.42233110  0.50018152  1
  I  I27  1  1.87370118  0.57766890  0.00018152  1
  I  I28  1  0.99981848  1.37370118  0.92233110  1
  I  I29  1  1.49981848  0.12629882  0.07766890  1
  I  I30  1  0.50018152  -0.37370118  1.42233110  1
  I  I31  1  0.00018152  1.87370118  0.57766890  1
  I  I32  1  0.92233110  0.99981848  1.37370118  1
  I  I33  1  0.07766890  1.49981848  0.12629882  1
  I  I34  1  1.42233110  0.50018152  -0.37370118  1
  I  I35  1  0.57766890  0.00018152  1.87370118  1
  I  I36  1  1.67233110  1.62370118  0.25018152  1
  I  I37  1  0.82766890  0.37629882  0.75018152  1
  I  I38  1  1.17233110  -0.12370118  1.74981848  1
  I  I39  1  0.32766890  2.12370118  1.24981848  1
  I  I40  1  2.12370118  1.24981848  0.32766890  1
  I  I41  1  -0.12370118  1.74981848  1.17233110  1
  I  I42  1  0.37629882  0.75018152  0.82766890  1
  I  I43  1  1.62370118  0.25018152  1.67233110  1
  I  I44  1  1.74981848  1.17233110  -0.12370118  1
  I  I45  1  1.24981848  0.32766890  2.12370118  1
  I  I46  1  0.25018152  1.67233110  1.62370118  1
  I  I47  1  0.75018152  0.82766890  0.37629882  1
  I  I48  1  0.40746381  0.15731192  0.11395940  1
  I  I49  1  0.09253619  0.84268808  0.61395940  1
  I  I50  1  0.59253619  0.65731192  0.38604060  1
  I  I51  1  0.90746381  0.34268808  0.88604060  1
  I  I52  1  0.11395940  0.40746381  0.15731192  1
  I  I53  1  0.61395940  0.09253619  0.84268808  1
  I  I54  1  0.38604060  0.59253619  0.65731192  1
  I  I55  1  0.88604060  0.90746381  0.34268808  1
  I  I56  1  0.15731192  0.11395940  0.40746381  1
  I  I57  1  0.84268808  0.61395940  0.09253619  1
  I  I58  1  0.65731192  0.38604060  0.59253619  1
  I  I59  1  0.34268808  0.88604060  0.90746381  1
  I  I60  1  0.90731192  0.65746381  0.13604060  1
  I  I61  1  0.59268808  0.34253619  0.63604060  1
  I  I62  1  0.40731192  0.84253619  0.86395940  1
  I  I63  1  0.09268808  0.15746381  0.36395940  1
  I  I64  1  0.15746381  0.36395940  0.09268808  1
  I  I65  1  0.84253619  0.86395940  0.40731192  1
  I  I66  1  0.34253619  0.63604060  0.59268808  1
  I  I67  1  0.65746381  0.13604060  0.90731192  1
  I  I68  1  0.86395940  0.40731192  0.84253619  1
  I  I69  1  0.36395940  0.09268808  0.15746381  1
  I  I70  1  0.13604060  0.90731192  0.65746381  1
  I  I71  1  0.63604060  0.59268808  0.34253619  1
  I  I72  1  0.90746381  0.65731192  0.61395940  1
  I  I73  1  0.59253619  0.34268808  0.11395940  1
  I  I74  1  0.09253619  0.15731192  0.88604060  1
  I  I75  1  0.40746381  0.84268808  0.38604060  1
  I  I76  1  0.61395940  0.90746381  0.65731192  1
  I  I77  1  0.11395940  0.59253619  0.34268808  1
  I  I78  1  0.88604060  0.09253619  0.15731192  1
  I  I79  1  0.38604060  0.40746381  0.84268808  1
  I  I80  1  0.65731192  0.61395940  0.90746381  1
  I  I81  1  0.34268808  0.11395940  0.59253619  1
  I  I82  1  0.15731192  0.88604060  0.09253619  1
  I  I83  1  0.84268808  0.38604060  0.40746381  1
  I  I84  1  0.40731192  0.15746381  0.63604060  1
  I  I85  1  0.09268808  0.84253619  0.13604060  1
  I  I86  1  0.90731192  0.34253619  0.36395940  1
  I  I87  1  0.59268808  0.65746381  0.86395940  1
  I  I88  1  0.65746381  0.86395940  0.59268808  1
  I  I89  1  0.34253619  0.36395940  0.90731192  1
  I  I90  1  0.84253619  0.13604060  0.09268808  1
  I  I91  1  0.15746381  0.63604060  0.40731192  1
  I  I92  1  0.36395940  0.90731192  0.34253619  1
  I  I93  1  0.86395940  0.59268808  0.65746381  1
  I  I94  1  0.63604060  0.40731192  0.15746381  1
  I  I95  1  0.13604060  0.09268808  0.84253619  1
  I  I96  1  0.06935904  0.76541966  0.06124895  1
  I  I97  1  0.43064096  0.23458034  0.56124895  1
  I  I98  1  0.93064096  0.26541966  0.43875105  1
  I  I99  1  0.56935904  0.73458034  0.93875105  1
  I  I100  1  0.06124895  0.06935904  0.76541966  1
  I  I101  1  0.56124895  0.43064096  0.23458034  1
  I  I102  1  0.43875105  0.93064096  0.26541966  1
  I  I103  1  0.93875105  0.56935904  0.73458034  1
  I  I104  1  0.76541966  0.06124895  0.06935904  1
  I  I105  1  0.23458034  0.56124895  0.43064096  1
  I  I106  1  0.26541966  0.43875105  0.93064096  1
  I  I107  1  0.73458034  0.93875105  0.56935904  1
  I  I108  1  0.51541966  0.31935904  0.18875105  1
  I  I109  1  0.98458034  0.68064096  0.68875105  1
  I  I110  1  0.01541966  0.18064096  0.81124895  1
  I  I111  1  0.48458034  0.81935904  0.31124895  1
  I  I112  1  0.81935904  0.31124895  0.48458034  1
  I  I113  1  0.18064096  0.81124895  0.01541966  1
  I  I114  1  0.68064096  0.68875105  0.98458034  1
  I  I115  1  0.31935904  0.18875105  0.51541966  1
  I  I116  1  0.81124895  0.01541966  0.18064096  1
  I  I117  1  0.31124895  0.48458034  0.81935904  1
  I  I118  1  0.18875105  0.51541966  0.31935904  1
  I  I119  1  0.68875105  0.98458034  0.68064096  1
  I  I120  1  0.56935904  0.26541966  0.56124895  1
  I  I121  1  0.93064096  0.73458034  0.06124895  1
  I  I122  1  0.43064096  0.76541966  0.93875105  1
  I  I123  1  0.06935904  0.23458034  0.43875105  1
  I  I124  1  0.56124895  0.56935904  0.26541966  1
  I  I125  1  0.06124895  0.93064096  0.73458034  1
  I  I126  1  0.93875105  0.43064096  0.76541966  1
  I  I127  1  0.43875105  0.06935904  0.23458034  1
  I  I128  1  0.26541966  0.56124895  0.56935904  1
  I  I129  1  0.73458034  0.06124895  0.93064096  1
  I  I130  1  0.76541966  0.93875105  0.43064096  1
  I  I131  1  0.23458034  0.43875105  0.06935904  1
  I  I132  1  0.01541966  0.81935904  0.68875105  1
  I  I133  1  0.48458034  0.18064096  0.18875105  1
  I  I134  1  0.51541966  0.68064096  0.31124895  1
  I  I135  1  0.98458034  0.31935904  0.81124895  1
  I  I136  1  0.31935904  0.81124895  0.98458034  1
  I  I137  1  0.68064096  0.31124895  0.51541966  1
  I  I138  1  0.18064096  0.18875105  0.48458034  1
  I  I139  1  0.81935904  0.68875105  0.01541966  1
  I  I140  1  0.31124895  0.51541966  0.68064096  1
  I  I141  1  0.81124895  0.98458034  0.31935904  1
  I  I142  1  0.68875105  0.01541966  0.81935904  1
  I  I143  1  0.18875105  0.48458034  0.18064096  1
  Li  Li144  1  0.62500000  0.00000000  0.25000000  1
  Li  Li145  1  0.87500000  -0.00000000  0.75000000  1
  Li  Li146  1  0.25000000  0.62500000  0.00000000  1
  Li  Li147  1  0.75000000  0.87500000  -0.00000000  1
  Li  Li148  1  0.00000000  0.25000000  0.62500000  1
  Li  Li149  1  0.00000000  0.75000000  0.87500000  1
  Li  Li150  1  0.12500000  0.50000000  0.75000000  1
  Li  Li151  1  0.37500000  0.50000000  0.25000000  1
  Li  Li152  1  0.75000000  0.12500000  0.50000000  1
  Li  Li153  1  0.25000000  0.37500000  0.50000000  1
  Li  Li154  1  0.50000000  0.75000000  0.12500000  1
  Li  Li155  1  0.50000000  0.25000000  0.37500000  1
  Li  Li156  1  0.12500000  0.23025768  0.01974232  1
  Li  Li157  1  0.37500000  0.76974232  0.51974232  1
  Li  Li158  1  0.87500000  0.73025768  0.48025768  1
  Li  Li159  1  0.62500000  0.26974232  0.98025768  1
  Li  Li160  1  0.01974232  0.12500000  0.23025768  1
  Li  Li161  1  0.51974232  0.37500000  0.76974232  1
  Li  Li162  1  0.48025768  0.87500000  0.73025768  1
  Li  Li163  1  0.98025768  0.62500000  0.26974232  1
  Li  Li164  1  0.23025768  0.01974232  0.12500000  1
  Li  Li165  1  0.76974232  0.51974232  0.37500000  1
  Li  Li166  1  0.73025768  0.48025768  0.87500000  1
  Li  Li167  1  0.26974232  0.98025768  0.62500000  1
  Li  Li168  1  0.62500000  0.73025768  0.51974232  1
  Li  Li169  1  0.87500000  0.26974232  0.01974232  1
  Li  Li170  1  0.37500000  0.23025768  0.98025768  1
  Li  Li171  1  0.12500000  0.76974232  0.48025768  1
  Li  Li172  1  0.51974232  0.62500000  0.73025768  1
  Li  Li173  1  0.01974232  0.87500000  0.26974232  1
  Li  Li174  1  0.98025768  0.37500000  0.23025768  1
  Li  Li175  1  0.48025768  0.12500000  0.76974232  1
  Li  Li176  1  0.73025768  0.51974232  0.62500000  1
  Li  Li177  1  0.26974232  0.01974232  0.87500000  1
  Li  Li178  1  0.23025768  0.98025768  0.37500000  1
  Li  Li179  1  0.76974232  0.48025768  0.12500000  1
  Li  Li180  1  0.12500000  0.00000000  0.25000000  1
  Li  Li181  1  0.37500000  -0.00000000  0.75000000  1
  Li  Li182  1  0.25000000  0.12500000  -0.00000000  1
  Li  Li183  1  0.75000000  0.37500000  -0.00000000  1
  Li  Li184  1  0.00000000  0.25000000  0.12500000  1
  Li  Li185  1  0.00000000  0.75000000  0.37500000  1
  Li  Li186  1  0.62500000  0.50000000  0.75000000  1
  Li  Li187  1  0.87500000  0.50000000  0.25000000  1
  Li  Li188  1  0.75000000  0.62500000  0.50000000  1
  Li  Li189  1  0.25000000  0.87500000  0.50000000  1
  Li  Li190  1  0.50000000  0.75000000  0.62500000  1
  Li  Li191  1  0.50000000  0.25000000  0.87500000  1
  Ti  Ti192  1  0.12500000  0.68006927  0.56993073  1
  Ti  Ti193  1  0.37500000  0.31993073  0.06993073  1
  Ti  Ti194  1  0.87500000  0.18006927  0.93006927  1
  Ti  Ti195  1  0.62500000  0.81993073  0.43006927  1
  Ti  Ti196  1  0.56993073  0.12500000  0.68006927  1
  Ti  Ti197  1  0.06993073  0.37500000  0.31993073  1
  Ti  Ti198  1  0.93006927  0.87500000  0.18006927  1
  Ti  Ti199  1  0.43006927  0.62500000  0.81993073  1
  Ti  Ti200  1  0.68006927  0.56993073  0.12500000  1
  Ti  Ti201  1  0.31993073  0.06993073  0.37500000  1
  Ti  Ti202  1  0.18006927  0.93006927  0.87500000  1
  Ti  Ti203  1  0.81993073  0.43006927  0.62500000  1
  Ti  Ti204  1  0.62500000  0.18006927  0.06993073  1
  Ti  Ti205  1  0.87500000  0.81993073  0.56993073  1
  Ti  Ti206  1  0.37500000  0.68006927  0.43006927  1
  Ti  Ti207  1  0.12500000  0.31993073  0.93006927  1
  Ti  Ti208  1  0.06993073  0.62500000  0.18006927  1
  Ti  Ti209  1  0.56993073  0.87500000  0.81993073  1
  Ti  Ti210  1  0.43006927  0.37500000  0.68006927  1
  Ti  Ti211  1  0.93006927  0.12500000  0.31993073  1
  Ti  Ti212  1  0.18006927  0.06993073  0.62500000  1
  Ti  Ti213  1  0.81993073  0.56993073  0.87500000  1
  Ti  Ti214  1  0.68006927  0.43006927  0.37500000  1
  Ti  Ti215  1  0.31993073  0.93006927  0.12500000  1
