# generated using pymatgen
data_K12SrS3I2O3
_symmetry_space_group_name_H-M   'P 1'
_cell_length_a   10.05047808
_cell_length_b   13.29161787
_cell_length_c   12.31956258
_cell_angle_alpha   90.00000000
_cell_angle_beta   90.00000000
_cell_angle_gamma   90.00000000
_symmetry_Int_Tables_number   1
_chemical_formula_structural   K12SrS3I2O3
_chemical_formula_sum   'K24 Sr2 S6 I4 O6'
_cell_volume   1645.73481234
_cell_formula_units_Z   2
loop_
 _symmetry_equiv_pos_site_id
 _symmetry_equiv_pos_as_xyz
  1  'x, y, z'
loop_
 _atom_site_type_symbol
 _atom_site_label
 _atom_site_symmetry_multiplicity
 _atom_site_fract_x
 _atom_site_fract_y
 _atom_site_fract_z
 _atom_site_occupancy
  I  I0  1  0.45288939  0.69362467  -0.00000000  1
  I  I1  1  0.54711061  0.30637533  -0.00000000  1
  I  I2  1  0.04711061  0.19362467  0.50000000  1
  I  I3  1  0.95288939  0.80637533  0.50000000  1
  K  K4  1  0.16228168  0.98927421  0.00000000  1
  K  K5  1  0.83771832  0.01072579  0.00000000  1
  K  K6  1  0.33771832  0.48927421  0.50000000  1
  K  K7  1  0.66228168  0.51072579  0.50000000  1
  K  K8  1  0.59381597  0.65178305  0.19107579  1
  K  K9  1  -0.59381597  -0.65178305  0.19107579  1
  K  K10  1  -0.09381597  1.15178305  0.30892421  1
  K  K11  1  1.09381597  -0.15178305  0.30892421  1
  K  K12  1  -0.59381597  -0.65178305  -0.19107579  1
  K  K13  1  0.59381597  0.65178305  -0.19107579  1
  K  K14  1  1.09381597  -0.15178305  0.69107579  1
  K  K15  1  -0.09381597  1.15178305  0.69107579  1
  K  K16  1  0.63897820  0.19034034  0.00000000  1
  K  K17  1  0.36102180  0.80965966  0.00000000  1
  K  K18  1  0.86102180  0.69034034  0.50000000  1
  K  K19  1  0.13897820  0.30965966  0.50000000  1
  K  K20  1  0.04536507  0.19665142  0.00000000  1
  K  K21  1  0.95463493  0.80334858  0.00000000  1
  K  K22  1  0.45463493  0.69665142  0.50000000  1
  K  K23  1  0.54536507  0.30334858  0.50000000  1
  K  K24  1  0.00000000  0.00000000  0.75261613  1
  K  K25  1  0.50000000  0.50000000  0.74738387  1
  K  K26  1  0.00000000  0.00000000  0.24738387  1
  K  K27  1  0.50000000  0.50000000  0.25261613  1
  O  O28  1  0.00000000  0.00000000  0.06462877  1
  O  O29  1  0.50000000  0.50000000  0.43537123  1
  O  O30  1  0.00000000  0.00000000  0.93537123  1
  O  O31  1  0.50000000  0.50000000  0.56462877  1
  O  O32  1  0.00000000  0.50000000  0.50000000  1
  O  O33  1  0.50000000  -0.00000000  0.00000000  1
  S  S34  1  0.00000000  0.50000000  0.74945502  1
  S  S35  1  0.50000000  -0.00000000  0.75054498  1
  S  S36  1  0.00000000  0.50000000  0.25054498  1
  S  S37  1  0.50000000  -0.00000000  0.24945502  1
  S  S38  1  0.00000000  0.00000000  0.50000000  1
  S  S39  1  0.50000000  0.50000000  -0.00000000  1
  Sr  Sr40  1  0.00000000  0.50000000  0.00000000  1
  Sr  Sr41  1  0.50000000  -0.00000000  0.50000000  1
