# generated using pymatgen
data_TiO2
_symmetry_space_group_name_H-M   'P 1'
_cell_length_a   5.38973079
_cell_length_b   6.09242592
_cell_length_c   7.14527756
_cell_angle_alpha   90.00000000
_cell_angle_beta   90.00000000
_cell_angle_gamma   90.00000000
_symmetry_Int_Tables_number   1
_chemical_formula_structural   TiO2
_chemical_formula_sum   'Ti4 O8'
_cell_volume   234.62616088
_cell_formula_units_Z   4
loop_
 _symmetry_equiv_pos_site_id
 _symmetry_equiv_pos_as_xyz
  1  'x, y, z'
loop_
 _atom_site_type_symbol
 _atom_site_label
 _atom_site_symmetry_multiplicity
 _atom_site_fract_x
 _atom_site_fract_y
 _atom_site_fract_z
 _atom_site_occupancy
  O  O0  1  0.31320798  0.82155455  0.92097979  1
  O  O1  1  -0.31320798  -0.82155455  0.92097979  1
  O  O2  1  0.18679202  1.32155455  -0.92097979  1
  O  O3  1  0.81320798  -0.32155455  -0.92097979  1
  O  O4  1  -0.31320798  -0.82155455  -0.92097979  1
  O  O5  1  0.31320798  0.82155455  -0.92097979  1
  O  O6  1  0.81320798  -0.32155455  0.92097979  1
  O  O7  1  0.18679202  1.32155455  0.92097979  1
  Ti  Ti8  1  0.58630798  0.66966026  -0.00000000  1
  Ti  Ti9  1  0.41369202  0.33033974  0.00000000  1
  Ti  Ti10  1  0.91369202  0.16966026  -0.00000000  1
  Ti  Ti11  1  0.08630798  0.83033974  0.00000000  1
