# generated using pymatgen
data_LiCl
_symmetry_space_group_name_H-M   'P 1'
_cell_length_a   17.87392564
_cell_length_b   17.87392564
_cell_length_c   9.24636785
_cell_angle_alpha   90.00000000
_cell_angle_beta   90.00000000
_cell_angle_gamma   120.00000000
_symmetry_Int_Tables_number   1
_chemical_formula_structural   LiCl
_chemical_formula_sum   'Li72 Cl72'
_cell_volume   2558.24240059
_cell_formula_units_Z   72
loop_
 _symmetry_equiv_pos_site_id
 _symmetry_equiv_pos_as_xyz
  1  'x, y, z'
loop_
 _atom_site_type_symbol
 _atom_site_label
 _atom_site_symmetry_multiplicity
 _atom_site_fract_x
 _atom_site_fract_y
 _atom_site_fract_z
 _atom_site_occupancy
  Cl  Cl0  1  0.44464334  0.97866321  0.88313521  1
  Cl  Cl1  1  -0.97866321  -0.53401987  0.88313521  1
  Cl  Cl2  1  0.53401987  -0.44464334  0.88313521  1
  Cl  Cl3  1  0.97866321  0.44464334  -0.38313521  1
  Cl  Cl4  1  -0.53401987  -0.97866321  -0.38313521  1
  Cl  Cl5  1  -0.44464334  0.53401987  -0.38313521  1
  Cl  Cl6  1  -0.44464334  -0.97866321  -0.88313521  1
  Cl  Cl7  1  0.97866321  0.53401987  -0.88313521  1
  Cl  Cl8  1  -0.53401987  0.44464334  -0.88313521  1
  Cl  Cl9  1  -0.97866321  -0.44464334  1.38313521  1
  Cl  Cl10  1  0.53401987  0.97866321  1.38313521  1
  Cl  Cl11  1  0.44464334  -0.53401987  1.38313521  1
  Cl  Cl12  1  1.11131001  1.31199654  1.21646854  1
  Cl  Cl13  1  -0.31199654  -0.20068653  1.21646854  1
  Cl  Cl14  1  1.20068653  -0.11131001  1.21646854  1
  Cl  Cl15  1  1.64532988  0.77797668  -0.04980188  1
  Cl  Cl16  1  0.13264680  -0.64532988  -0.04980188  1
  Cl  Cl17  1  0.22202332  0.86735320  -0.04980188  1
  Cl  Cl18  1  0.22202332  -0.64532988  -0.54980188  1
  Cl  Cl19  1  1.64532988  0.86735320  -0.54980188  1
  Cl  Cl20  1  0.13264680  0.77797668  -0.54980188  1
  Cl  Cl21  1  -0.31199654  -0.11131001  1.71646854  1
  Cl  Cl22  1  1.20068653  1.31199654  1.71646854  1
  Cl  Cl23  1  1.11131001  -0.20068653  1.71646854  1
  Cl  Cl24  1  0.77797668  1.64532988  1.54980188  1
  Cl  Cl25  1  -0.64532988  0.13264680  1.54980188  1
  Cl  Cl26  1  0.86735320  0.22202332  1.54980188  1
  Cl  Cl27  1  1.31199654  1.11131001  0.28353146  1
  Cl  Cl28  1  -0.20068653  -0.31199654  0.28353146  1
  Cl  Cl29  1  -0.11131001  1.20068653  0.28353146  1
  Cl  Cl30  1  -0.11131001  -0.31199654  -0.21646854  1
  Cl  Cl31  1  1.31199654  1.20068653  -0.21646854  1
  Cl  Cl32  1  -0.20068653  1.11131001  -0.21646854  1
  Cl  Cl33  1  -0.64532988  0.22202332  2.04980188  1
  Cl  Cl34  1  0.86735320  1.64532988  2.04980188  1
  Cl  Cl35  1  0.77797668  0.13264680  2.04980188  1
  Cl  Cl36  1  0.59815854  0.18828122  0.07954877  1
  Cl  Cl37  1  0.81171878  0.40987731  0.07954877  1
  Cl  Cl38  1  0.59012269  0.40184146  0.07954877  1
  Cl  Cl39  1  0.18828122  0.59815854  0.42045123  1
  Cl  Cl40  1  0.40987731  0.81171878  0.42045123  1
  Cl  Cl41  1  0.40184146  0.59012269  0.42045123  1
  Cl  Cl42  1  0.40184146  0.81171878  0.92045123  1
  Cl  Cl43  1  0.18828122  0.59012269  0.92045123  1
  Cl  Cl44  1  0.40987731  0.59815854  0.92045123  1
  Cl  Cl45  1  0.81171878  0.40184146  0.57954877  1
  Cl  Cl46  1  0.59012269  0.18828122  0.57954877  1
  Cl  Cl47  1  0.59815854  0.40987731  0.57954877  1
  Cl  Cl48  1  0.26482521  0.52161456  0.41288210  1
  Cl  Cl49  1  0.47838544  0.74321065  0.41288210  1
  Cl  Cl50  1  0.25678935  0.73517479  0.41288210  1
  Cl  Cl51  1  0.85494789  0.93149187  0.75378456  1
  Cl  Cl52  1  0.07654398  0.14505211  0.75378456  1
  Cl  Cl53  1  0.06850813  0.92345602  0.75378456  1
  Cl  Cl54  1  0.06850813  0.14505211  0.25378456  1
  Cl  Cl55  1  0.85494789  0.92345602  0.25378456  1
  Cl  Cl56  1  0.07654398  0.93149187  0.25378456  1
  Cl  Cl57  1  0.47838544  0.73517479  0.91288210  1
  Cl  Cl58  1  0.25678935  0.52161456  0.91288210  1
  Cl  Cl59  1  0.26482521  0.74321065  0.91288210  1
  Cl  Cl60  1  0.93149187  0.85494789  0.74621544  1
  Cl  Cl61  1  0.14505211  0.07654398  0.74621544  1
  Cl  Cl62  1  0.92345602  0.06850813  0.74621544  1
  Cl  Cl63  1  0.52161456  0.26482521  0.08711790  1
  Cl  Cl64  1  0.74321065  0.47838544  0.08711790  1
  Cl  Cl65  1  0.73517479  0.25678935  0.08711790  1
  Cl  Cl66  1  0.73517479  0.47838544  0.58711790  1
  Cl  Cl67  1  0.52161456  0.25678935  0.58711790  1
  Cl  Cl68  1  0.74321065  0.26482521  0.58711790  1
  Cl  Cl69  1  0.14505211  0.06850813  0.24621544  1
  Cl  Cl70  1  0.92345602  0.85494789  0.24621544  1
  Cl  Cl71  1  0.93149187  0.07654398  0.24621544  1
  Li  Li72  1  0.65119214  0.07183637  0.78431414  1
  Li  Li73  1  0.92816363  0.57935577  0.78431414  1
  Li  Li74  1  0.42064423  0.34880786  0.78431414  1
  Li  Li75  1  0.07183637  0.65119214  0.71568586  1
  Li  Li76  1  0.57935577  0.92816363  0.71568586  1
  Li  Li77  1  0.34880786  0.42064423  0.71568586  1
  Li  Li78  1  0.34880786  0.92816363  0.21568586  1
  Li  Li79  1  0.07183637  0.42064423  0.21568586  1
  Li  Li80  1  0.57935577  0.65119214  0.21568586  1
  Li  Li81  1  0.92816363  0.34880786  0.28431414  1
  Li  Li82  1  0.42064423  0.07183637  0.28431414  1
  Li  Li83  1  0.65119214  0.57935577  0.28431414  1
  Li  Li84  1  0.31785880  0.40516970  0.11764747  1
  Li  Li85  1  0.59483030  0.91268910  0.11764747  1
  Li  Li86  1  0.08731090  0.68214120  0.11764747  1
  Li  Li87  1  0.73850303  0.98452547  0.04901920  1
  Li  Li88  1  0.24602243  0.26149697  0.04901920  1
  Li  Li89  1  0.01547453  0.75397757  0.04901920  1
  Li  Li90  1  0.01547453  0.26149697  0.54901920  1
  Li  Li91  1  0.73850303  0.75397757  0.54901920  1
  Li  Li92  1  0.24602243  0.98452547  0.54901920  1
  Li  Li93  1  0.59483030  0.68214120  0.61764747  1
  Li  Li94  1  0.08731090  0.40516970  0.61764747  1
  Li  Li95  1  0.31785880  0.91268910  0.61764747  1
  Li  Li96  1  0.98452547  0.73850303  0.45098080  1
  Li  Li97  1  0.26149697  0.24602243  0.45098080  1
  Li  Li98  1  0.75397757  0.01547453  0.45098080  1
  Li  Li99  1  0.40516970  0.31785880  0.38235253  1
  Li  Li100  1  0.91268910  0.59483030  0.38235253  1
  Li  Li101  1  0.68214120  0.08731090  0.38235253  1
  Li  Li102  1  0.68214120  0.59483030  0.88235253  1
  Li  Li103  1  0.40516970  0.08731090  0.88235253  1
  Li  Li104  1  0.91268910  0.31785880  0.88235253  1
  Li  Li105  1  0.26149697  0.01547453  0.95098080  1
  Li  Li106  1  0.75397757  0.73850303  0.95098080  1
  Li  Li107  1  0.98452547  0.24602243  0.95098080  1
  Li  Li108  1  0.77968358  0.33685206  0.27278885  1
  Li  Li109  1  0.66314794  0.44283152  0.27278885  1
  Li  Li110  1  0.55716848  0.22031642  0.27278885  1
  Li  Li111  1  0.33685206  0.77968358  0.22721115  1
  Li  Li112  1  0.44283152  0.66314794  0.22721115  1
  Li  Li113  1  0.22031642  0.55716848  0.22721115  1
  Li  Li114  1  0.22031642  0.66314794  0.72721115  1
  Li  Li115  1  0.33685206  0.55716848  0.72721115  1
  Li  Li116  1  0.44283152  0.77968358  0.72721115  1
  Li  Li117  1  0.66314794  0.22031642  0.77278885  1
  Li  Li118  1  0.55716848  0.33685206  0.77278885  1
  Li  Li119  1  0.77968358  0.44283152  0.77278885  1
  Li  Li120  1  0.44635025  0.67018539  0.60612219  1
  Li  Li121  1  0.32981461  0.77616486  0.60612219  1
  Li  Li122  1  0.22383514  0.55364975  0.60612219  1
  Li  Li123  1  0.00351872  0.11301691  0.56054448  1
  Li  Li124  1  0.10949819  0.99648128  0.56054448  1
  Li  Li125  1  0.88698309  0.89050181  0.56054448  1
  Li  Li126  1  0.88698309  0.99648128  0.06054448  1
  Li  Li127  1  0.00351872  0.89050181  0.06054448  1
  Li  Li128  1  0.10949819  0.11301691  0.06054448  1
  Li  Li129  1  0.32981461  0.55364975  0.10612219  1
  Li  Li130  1  0.22383514  0.67018539  0.10612219  1
  Li  Li131  1  0.44635025  0.77616486  0.10612219  1
  Li  Li132  1  0.11301691  0.00351872  0.93945552  1
  Li  Li133  1  0.99648128  0.10949819  0.93945552  1
  Li  Li134  1  0.89050181  0.88698309  0.93945552  1
  Li  Li135  1  0.67018539  0.44635025  0.89387781  1
  Li  Li136  1  0.77616486  0.32981461  0.89387781  1
  Li  Li137  1  0.55364975  0.22383514  0.89387781  1
  Li  Li138  1  0.55364975  0.32981461  0.39387781  1
  Li  Li139  1  0.67018539  0.22383514  0.39387781  1
  Li  Li140  1  0.77616486  0.44635025  0.39387781  1
  Li  Li141  1  0.99648128  0.88698309  0.43945552  1
  Li  Li142  1  0.89050181  0.00351872  0.43945552  1
  Li  Li143  1  0.11301691  0.10949819  0.43945552  1
