# generated using pymatgen
data_LiAlTe2
_symmetry_space_group_name_H-M   'P 1'
_cell_length_a   10.92134271
_cell_length_b   10.92134271
_cell_length_c   4.89386265
_cell_angle_alpha   90.00000000
_cell_angle_beta   90.00000000
_cell_angle_gamma   120.00000000
_symmetry_Int_Tables_number   1
_chemical_formula_structural   LiAlTe2
_chemical_formula_sum   'Li6 Al6 Te12'
_cell_volume   505.51550229
_cell_formula_units_Z   6
loop_
 _symmetry_equiv_pos_site_id
 _symmetry_equiv_pos_as_xyz
  1  'x, y, z'
loop_
 _atom_site_type_symbol
 _atom_site_label
 _atom_site_symmetry_multiplicity
 _atom_site_fract_x
 _atom_site_fract_y
 _atom_site_fract_z
 _atom_site_occupancy
  Al  Al0  1  0.61900630  0.23801260  0.25000000  1
  Al  Al1  1  0.76198740  0.38099370  0.25000000  1
  Al  Al2  1  0.61900630  0.38099370  0.25000000  1
  Al  Al3  1  0.38099370  0.76198740  0.75000000  1
  Al  Al4  1  0.23801260  0.61900630  0.75000000  1
  Al  Al5  1  0.38099370  0.61900630  0.75000000  1
  Li  Li6  1  0.49396784  0.98793568  0.25000000  1
  Li  Li7  1  0.01206432  0.50603216  0.25000000  1
  Li  Li8  1  0.49396784  0.50603216  0.25000000  1
  Li  Li9  1  0.50603216  0.01206432  0.75000000  1
  Li  Li10  1  0.98793568  0.49396784  0.75000000  1
  Li  Li11  1  0.50603216  0.49396784  0.75000000  1
  Te  Te12  1  0.32397153  0.00000000  0.00000000  1
  Te  Te13  1  0.00000000  0.32397153  0.00000000  1
  Te  Te14  1  -0.32397153  -0.32397153  -0.00000000  1
  Te  Te15  1  -0.32397153  0.00000000  0.50000000  1
  Te  Te16  1  0.00000000  -0.32397153  0.50000000  1
  Te  Te17  1  0.32397153  0.32397153  0.50000000  1
  Te  Te18  1  -0.32397153  0.00000000  -0.00000000  1
  Te  Te19  1  0.00000000  -0.32397153  -0.00000000  1
  Te  Te20  1  0.32397153  0.32397153  0.00000000  1
  Te  Te21  1  0.32397153  0.00000000  0.50000000  1
  Te  Te22  1  0.00000000  0.32397153  0.50000000  1
  Te  Te23  1  -0.32397153  -0.32397153  0.50000000  1
