# generated using pymatgen
data_K3LiSe2
_symmetry_space_group_name_H-M   'P 1'
_cell_length_a   16.46911209
_cell_length_b   16.46911209
_cell_length_c   16.46911209
_cell_angle_alpha   90.00000000
_cell_angle_beta   90.00000000
_cell_angle_gamma   90.00000000
_symmetry_Int_Tables_number   1
_chemical_formula_structural   K3LiSe2
_chemical_formula_sum   'K72 Li24 Se48'
_cell_volume   4466.94449922
_cell_formula_units_Z   24
loop_
 _symmetry_equiv_pos_site_id
 _symmetry_equiv_pos_as_xyz
  1  'x, y, z'
loop_
 _atom_site_type_symbol
 _atom_site_label
 _atom_site_symmetry_multiplicity
 _atom_site_fract_x
 _atom_site_fract_y
 _atom_site_fract_z
 _atom_site_occupancy
  K  K0  1  0.22379803  0.00000000  0.25000000  1
  K  K1  1  0.27620197  -0.00000000  0.75000000  1
  K  K2  1  0.25000000  0.22379803  0.00000000  1
  K  K3  1  0.75000000  0.27620197  0.00000000  1
  K  K4  1  0.00000000  0.25000000  0.22379803  1
  K  K5  1  0.00000000  0.75000000  0.27620197  1
  K  K6  1  0.75000000  0.47379803  0.00000000  1
  K  K7  1  0.75000000  0.52620197  0.50000000  1
  K  K8  1  0.97379803  0.50000000  0.25000000  1
  K  K9  1  0.02620197  0.00000000  0.25000000  1
  K  K10  1  0.00000000  0.25000000  0.02620197  1
  K  K11  1  0.50000000  0.25000000  0.97379803  1
  K  K12  1  0.72379803  0.50000000  0.75000000  1
  K  K13  1  0.77620197  0.50000000  1.25000000  1
  K  K14  1  0.75000000  0.72379803  0.50000000  1
  K  K15  1  1.25000000  0.77620197  0.50000000  1
  K  K16  1  0.50000000  0.75000000  0.72379803  1
  K  K17  1  0.50000000  1.25000000  0.77620197  1
  K  K18  1  1.25000000  0.97379803  0.50000000  1
  K  K19  1  1.25000000  1.02620197  1.00000000  1
  K  K20  1  1.47379803  1.00000000  0.75000000  1
  K  K21  1  0.52620197  0.50000000  0.75000000  1
  K  K22  1  0.50000000  0.75000000  0.52620197  1
  K  K23  1  1.00000000  0.75000000  1.47379803  1
  K  K24  1  0.12500000  0.74866965  0.99866965  1
  K  K25  1  0.37500000  0.25133035  0.49866965  1
  K  K26  1  0.87500000  0.24866965  0.50133035  1
  K  K27  1  0.62500000  0.75133035  0.00133035  1
  K  K28  1  0.99866965  0.12500000  0.74866965  1
  K  K29  1  0.49866965  0.37500000  0.25133035  1
  K  K30  1  0.50133035  0.87500000  0.24866965  1
  K  K31  1  0.00133035  0.62500000  0.75133035  1
  K  K32  1  0.74866965  0.99866965  0.12500000  1
  K  K33  1  0.25133035  0.49866965  0.37500000  1
  K  K34  1  0.24866965  0.50133035  0.87500000  1
  K  K35  1  0.75133035  0.00133035  0.62500000  1
  K  K36  1  0.62500000  0.24866965  0.49866965  1
  K  K37  1  0.87500000  0.75133035  0.99866965  1
  K  K38  1  0.37500000  0.74866965  0.00133035  1
  K  K39  1  0.12500000  0.25133035  0.50133035  1
  K  K40  1  0.49866965  0.62500000  0.24866965  1
  K  K41  1  0.99866965  0.87500000  0.75133035  1
  K  K42  1  0.00133035  0.37500000  0.74866965  1
  K  K43  1  0.50133035  0.12500000  0.25133035  1
  K  K44  1  0.24866965  0.49866965  0.62500000  1
  K  K45  1  0.75133035  0.99866965  0.87500000  1
  K  K46  1  0.74866965  0.00133035  0.37500000  1
  K  K47  1  0.25133035  0.50133035  0.12500000  1
  K  K48  1  0.12500000  0.12500000  0.12500000  1
  K  K49  1  0.37500000  0.87500000  0.62500000  1
  K  K50  1  0.87500000  0.62500000  0.37500000  1
  K  K51  1  0.62500000  0.37500000  0.87500000  1
  K  K52  1  0.62500000  0.62500000  0.62500000  1
  K  K53  1  0.87500000  0.37500000  0.12500000  1
  K  K54  1  0.37500000  0.12500000  0.87500000  1
  K  K55  1  0.12500000  0.87500000  0.37500000  1
  K  K56  1  0.49794820  0.49794820  0.49794820  1
  K  K57  1  0.00205180  0.50205180  0.99794820  1
  K  K58  1  0.50205180  0.99794820  0.00205180  1
  K  K59  1  0.99794820  0.00205180  0.50205180  1
  K  K60  1  0.24794820  0.74794820  0.75205180  1
  K  K61  1  0.25205180  0.25205180  0.25205180  1
  K  K62  1  0.74794820  0.75205180  0.24794820  1
  K  K63  1  0.75205180  0.24794820  0.74794820  1
  K  K64  1  0.99794820  0.99794820  0.99794820  1
  K  K65  1  0.50205180  0.00205180  0.49794820  1
  K  K66  1  0.00205180  0.49794820  0.50205180  1
  K  K67  1  0.49794820  0.50205180  0.00205180  1
  K  K68  1  0.74794820  0.24794820  0.25205180  1
  K  K69  1  0.75205180  0.75205180  0.75205180  1
  K  K70  1  0.24794820  0.25205180  0.74794820  1
  K  K71  1  0.25205180  0.74794820  0.24794820  1
  Li  Li72  1  0.12500000  0.70580192  0.54419808  1
  Li  Li73  1  0.37500000  0.29419808  0.04419808  1
  Li  Li74  1  0.87500000  0.20580192  0.95580192  1
  Li  Li75  1  0.62500000  0.79419808  0.45580192  1
  Li  Li76  1  0.54419808  0.12500000  0.70580192  1
  Li  Li77  1  0.04419808  0.37500000  0.29419808  1
  Li  Li78  1  0.95580192  0.87500000  0.20580192  1
  Li  Li79  1  0.45580192  0.62500000  0.79419808  1
  Li  Li80  1  0.70580192  0.54419808  0.12500000  1
  Li  Li81  1  0.29419808  0.04419808  0.37500000  1
  Li  Li82  1  0.20580192  0.95580192  0.87500000  1
  Li  Li83  1  0.79419808  0.45580192  0.62500000  1
  Li  Li84  1  0.62500000  0.20580192  0.04419808  1
  Li  Li85  1  0.87500000  0.79419808  0.54419808  1
  Li  Li86  1  0.37500000  0.70580192  0.45580192  1
  Li  Li87  1  0.12500000  0.29419808  0.95580192  1
  Li  Li88  1  0.04419808  0.62500000  0.20580192  1
  Li  Li89  1  0.54419808  0.87500000  0.79419808  1
  Li  Li90  1  0.45580192  0.37500000  0.70580192  1
  Li  Li91  1  0.95580192  0.12500000  0.29419808  1
  Li  Li92  1  0.20580192  0.04419808  0.62500000  1
  Li  Li93  1  0.79419808  0.54419808  0.87500000  1
  Li  Li94  1  0.70580192  0.45580192  0.37500000  1
  Li  Li95  1  0.29419808  0.95580192  0.12500000  1
  Se  Se96  1  0.77879397  0.00000000  0.25000000  1
  Se  Se97  1  0.72120603  0.00000000  0.75000000  1
  Se  Se98  1  0.25000000  0.77879397  0.00000000  1
  Se  Se99  1  0.75000000  0.72120603  0.00000000  1
  Se  Se100  1  0.00000000  0.25000000  0.77879397  1
  Se  Se101  1  0.00000000  0.75000000  0.72120603  1
  Se  Se102  1  0.75000000  0.02879397  0.00000000  1
  Se  Se103  1  0.75000000  0.97120603  0.50000000  1
  Se  Se104  1  0.52879397  0.50000000  0.25000000  1
  Se  Se105  1  0.47120603  0.00000000  0.25000000  1
  Se  Se106  1  0.00000000  0.25000000  0.47120603  1
  Se  Se107  1  0.50000000  0.25000000  0.52879397  1
  Se  Se108  1  0.27879397  0.50000000  0.75000000  1
  Se  Se109  1  0.22120603  0.50000000  0.25000000  1
  Se  Se110  1  0.75000000  0.27879397  0.50000000  1
  Se  Se111  1  0.25000000  0.22120603  0.50000000  1
  Se  Se112  1  0.50000000  0.75000000  0.27879397  1
  Se  Se113  1  0.50000000  0.25000000  0.22120603  1
  Se  Se114  1  0.25000000  0.52879397  0.50000000  1
  Se  Se115  1  0.25000000  0.47120603  0.00000000  1
  Se  Se116  1  0.02879397  0.00000000  0.75000000  1
  Se  Se117  1  0.97120603  0.50000000  0.75000000  1
  Se  Se118  1  0.50000000  0.75000000  0.97120603  1
  Se  Se119  1  0.00000000  0.75000000  0.02879397  1
  Se  Se120  1  0.62500000  0.00000000  0.25000000  1
  Se  Se121  1  0.87500000  0.00000000  0.75000000  1
  Se  Se122  1  0.25000000  0.62500000  0.00000000  1
  Se  Se123  1  0.75000000  0.87500000  0.00000000  1
  Se  Se124  1  0.00000000  0.25000000  0.62500000  1
  Se  Se125  1  0.00000000  0.75000000  0.87500000  1
  Se  Se126  1  0.12500000  0.50000000  0.75000000  1
  Se  Se127  1  0.37500000  0.50000000  0.25000000  1
  Se  Se128  1  0.75000000  0.12500000  0.50000000  1
  Se  Se129  1  0.25000000  0.37500000  0.50000000  1
  Se  Se130  1  0.50000000  0.75000000  0.12500000  1
  Se  Se131  1  0.50000000  0.25000000  0.37500000  1
  Se  Se132  1  0.12500000  0.00000000  0.25000000  1
  Se  Se133  1  0.37500000  0.00000000  0.75000000  1
  Se  Se134  1  0.25000000  0.12500000  0.00000000  1
  Se  Se135  1  0.75000000  0.37500000  -0.00000000  1
  Se  Se136  1  0.00000000  0.25000000  0.12500000  1
  Se  Se137  1  0.00000000  0.75000000  0.37500000  1
  Se  Se138  1  0.62500000  0.50000000  0.75000000  1
  Se  Se139  1  0.87500000  0.50000000  0.25000000  1
  Se  Se140  1  0.75000000  0.62500000  0.50000000  1
  Se  Se141  1  0.25000000  0.87500000  0.50000000  1
  Se  Se142  1  0.50000000  0.75000000  0.62500000  1
  Se  Se143  1  0.50000000  0.25000000  0.87500000  1
