# generated using pymatgen
data_LiCl
_symmetry_space_group_name_H-M   'P 1'
_cell_length_a   7.87088033
_cell_length_b   5.34673837
_cell_length_c   6.34004916
_cell_angle_alpha   90.00000000
_cell_angle_beta   90.00000000
_cell_angle_gamma   90.00000000
_symmetry_Int_Tables_number   1
_chemical_formula_structural   LiCl
_chemical_formula_sum   'Li8 Cl8'
_cell_volume   266.81169902
_cell_formula_units_Z   8
loop_
 _symmetry_equiv_pos_site_id
 _symmetry_equiv_pos_as_xyz
  1  'x, y, z'
loop_
 _atom_site_type_symbol
 _atom_site_label
 _atom_site_symmetry_multiplicity
 _atom_site_fract_x
 _atom_site_fract_y
 _atom_site_fract_z
 _atom_site_occupancy
  Cl  Cl0  1  0.13281778  0.25000000  0.16637951  1
  Cl  Cl1  1  0.36718222  0.75000000  0.66637951  1
  Cl  Cl2  1  -0.13281778  0.75000000  -0.16637951  1
  Cl  Cl3  1  0.63281778  0.25000000  0.33362049  1
  Cl  Cl4  1  0.00000000  0.00000000  0.00000000  1
  Cl  Cl5  1  0.50000000  0.00000000  0.50000000  1
  Cl  Cl6  1  0.00000000  0.50000000  0.00000000  1
  Cl  Cl7  1  0.50000000  0.50000000  0.50000000  1
  Li  Li8  1  0.00000000  0.00000000  0.50000000  1
  Li  Li9  1  0.50000000  0.00000000  -0.00000000  1
  Li  Li10  1  0.00000000  0.50000000  0.50000000  1
  Li  Li11  1  0.50000000  0.50000000  0.00000000  1
  Li  Li12  1  0.85990542  0.25000000  0.53821814  1
  Li  Li13  1  0.64009458  0.75000000  0.03821814  1
  Li  Li14  1  0.14009458  0.75000000  0.46178186  1
  Li  Li15  1  0.35990542  0.25000000  0.96178186  1
