# generated using pymatgen
data_LiBr
_symmetry_space_group_name_H-M   'P 1'
_cell_length_a   6.75921489
_cell_length_b   6.75921489
_cell_length_c   11.11080826
_cell_angle_alpha   90.00000000
_cell_angle_beta   90.00000000
_cell_angle_gamma   120.00000000
_symmetry_Int_Tables_number   1
_chemical_formula_structural   LiBr
_chemical_formula_sum   'Li12 Br12'
_cell_volume   439.61124419
_cell_formula_units_Z   12
loop_
 _symmetry_equiv_pos_site_id
 _symmetry_equiv_pos_as_xyz
  1  'x, y, z'
loop_
 _atom_site_type_symbol
 _atom_site_label
 _atom_site_symmetry_multiplicity
 _atom_site_fract_x
 _atom_site_fract_y
 _atom_site_fract_z
 _atom_site_occupancy
  Br  Br0  1  0.33333333  0.66666667  0.00000000  1
  Br  Br1  1  0.66666667  0.33333333  -0.00000000  1
  Br  Br2  1  0.33333333  0.66666667  0.50000000  1
  Br  Br3  1  0.66666667  0.33333333  0.50000000  1
  Br  Br4  1  0.46603254  0.00000000  -0.00000000  1
  Br  Br5  1  0.00000000  0.46603254  0.00000000  1
  Br  Br6  1  0.53396746  0.53396746  0.00000000  1
  Br  Br7  1  0.00000000  0.00000000  0.00000000  1
  Br  Br8  1  0.33333333  0.66666667  0.88363194  1
  Br  Br9  1  0.33333333  0.66666667  0.11636806  1
  Br  Br10  1  0.66666667  0.33333333  0.11636806  1
  Br  Br11  1  0.66666667  0.33333333  0.88363194  1
  Li  Li12  1  0.12911340  0.36072534  0.50000000  1
  Li  Li13  1  -0.36072534  -0.23161195  0.50000000  1
  Li  Li14  1  0.23161195  -0.12911340  0.50000000  1
  Li  Li15  1  0.36072534  0.12911340  0.50000000  1
  Li  Li16  1  -0.23161195  -0.36072534  0.50000000  1
  Li  Li17  1  -0.12911340  0.23161195  0.50000000  1
  Li  Li18  1  0.00000000  0.00000000  0.79939419  1
  Li  Li19  1  0.00000000  0.00000000  0.20060581  1
  Li  Li20  1  0.33333333  0.66666667  0.75438556  1
  Li  Li21  1  0.33333333  0.66666667  0.24561444  1
  Li  Li22  1  0.66666667  0.33333333  0.24561444  1
  Li  Li23  1  0.66666667  0.33333333  0.75438556  1
