# generated using pymatgen
data_Sr3LiPSe6
_symmetry_space_group_name_H-M   'P 1'
_cell_length_a   17.00261959
_cell_length_b   17.00261959
_cell_length_c   17.00261959
_cell_angle_alpha   90.00000000
_cell_angle_beta   90.00000000
_cell_angle_gamma   90.00000000
_symmetry_Int_Tables_number   1
_chemical_formula_structural   Sr3LiPSe6
_chemical_formula_sum   'Sr48 Li16 P16 Se96'
_cell_volume   4915.27153597
_cell_formula_units_Z   16
loop_
 _symmetry_equiv_pos_site_id
 _symmetry_equiv_pos_as_xyz
  1  'x, y, z'
loop_
 _atom_site_type_symbol
 _atom_site_label
 _atom_site_symmetry_multiplicity
 _atom_site_fract_x
 _atom_site_fract_y
 _atom_site_fract_z
 _atom_site_occupancy
  Li  Li0  1  0.50000000  0.50000000  0.50000000  1
  Li  Li1  1  0.25000000  0.75000000  0.00000000  1
  Li  Li2  1  0.75000000  0.00000000  0.25000000  1
  Li  Li3  1  0.00000000  0.25000000  0.75000000  1
  Li  Li4  1  0.50000000  0.00000000  0.00000000  1
  Li  Li5  1  0.25000000  0.25000000  0.50000000  1
  Li  Li6  1  0.75000000  0.50000000  0.75000000  1
  Li  Li7  1  0.00000000  0.75000000  0.25000000  1
  Li  Li8  1  0.00000000  0.50000000  0.00000000  1
  Li  Li9  1  0.75000000  0.75000000  0.50000000  1
  Li  Li10  1  0.25000000  0.00000000  0.75000000  1
  Li  Li11  1  0.50000000  0.25000000  0.25000000  1
  Li  Li12  1  0.00000000  0.00000000  0.50000000  1
  Li  Li13  1  0.75000000  0.25000000  0.00000000  1
  Li  Li14  1  0.25000000  0.50000000  0.25000000  1
  Li  Li15  1  0.50000000  0.75000000  0.75000000  1
  P  P16  1  0.37500000  0.37500000  0.37500000  1
  P  P17  1  0.12500000  0.62500000  0.12500000  1
  P  P18  1  0.37500000  0.87500000  0.87500000  1
  P  P19  1  0.12500000  0.12500000  0.62500000  1
  P  P20  1  0.87500000  0.37500000  0.87500000  1
  P  P21  1  0.62500000  0.62500000  0.62500000  1
  P  P22  1  0.87500000  0.87500000  0.37500000  1
  P  P23  1  0.62500000  0.12500000  0.12500000  1
  P  P24  1  0.12500000  0.12500000  0.12500000  1
  P  P25  1  0.87500000  0.37500000  0.37500000  1
  P  P26  1  0.12500000  0.62500000  0.62500000  1
  P  P27  1  0.87500000  0.87500000  0.87500000  1
  P  P28  1  0.62500000  0.12500000  0.62500000  1
  P  P29  1  0.37500000  0.37500000  0.87500000  1
  P  P30  1  0.62500000  0.62500000  0.12500000  1
  P  P31  1  0.37500000  0.87500000  0.37500000  1
  Se  Se32  1  0.00000000  0.00000000  0.00000000  1
  Se  Se33  1  0.75000000  0.25000000  0.50000000  1
  Se  Se34  1  0.25000000  0.50000000  0.75000000  1
  Se  Se35  1  0.50000000  0.75000000  0.25000000  1
  Se  Se36  1  0.00000000  0.50000000  0.50000000  1
  Se  Se37  1  0.75000000  0.75000000  0.00000000  1
  Se  Se38  1  0.25000000  0.00000000  0.25000000  1
  Se  Se39  1  0.50000000  0.25000000  0.75000000  1
  Se  Se40  1  0.50000000  0.00000000  0.50000000  1
  Se  Se41  1  0.25000000  0.25000000  0.00000000  1
  Se  Se42  1  0.75000000  0.50000000  0.25000000  1
  Se  Se43  1  0.00000000  0.75000000  0.75000000  1
  Se  Se44  1  0.50000000  0.50000000  0.00000000  1
  Se  Se45  1  0.25000000  0.75000000  0.50000000  1
  Se  Se46  1  0.75000000  0.00000000  0.75000000  1
  Se  Se47  1  0.00000000  0.25000000  0.25000000  1
  Se  Se48  1  0.81605037  0.12500000  0.12500000  1
  Se  Se49  1  0.93394963  0.12500000  0.62500000  1
  Se  Se50  1  0.12500000  0.81605037  0.12500000  1
  Se  Se51  1  0.62500000  0.93394963  0.12500000  1
  Se  Se52  1  0.12500000  0.12500000  0.81605037  1
  Se  Se53  1  0.12500000  0.62500000  0.93394963  1
  Se  Se54  1  0.87500000  0.06605037  0.37500000  1
  Se  Se55  1  0.87500000  0.18394963  0.87500000  1
  Se  Se56  1  0.56605037  0.37500000  0.37500000  1
  Se  Se57  1  0.68394963  0.87500000  0.37500000  1
  Se  Se58  1  0.87500000  0.37500000  0.68394963  1
  Se  Se59  1  0.37500000  0.37500000  0.56605037  1
  Se  Se60  1  0.81605037  0.62500000  0.62500000  1
  Se  Se61  1  0.93394963  0.62500000  0.12500000  1
  Se  Se62  1  0.12500000  0.31605037  0.62500000  1
  Se  Se63  1  0.62500000  0.43394963  0.62500000  1
  Se  Se64  1  0.12500000  0.62500000  0.31605037  1
  Se  Se65  1  0.12500000  0.12500000  0.43394963  1
  Se  Se66  1  0.87500000  0.56605037  0.87500000  1
  Se  Se67  1  0.87500000  0.68394963  0.37500000  1
  Se  Se68  1  0.56605037  0.87500000  0.87500000  1
  Se  Se69  1  0.68394963  0.37500000  0.87500000  1
  Se  Se70  1  0.87500000  0.87500000  0.18394963  1
  Se  Se71  1  0.37500000  0.87500000  0.06605037  1
  Se  Se72  1  0.31605037  0.12500000  0.62500000  1
  Se  Se73  1  0.43394963  0.12500000  0.12500000  1
  Se  Se74  1  0.62500000  0.81605037  0.62500000  1
  Se  Se75  1  0.12500000  0.93394963  0.62500000  1
  Se  Se76  1  0.62500000  0.12500000  0.31605037  1
  Se  Se77  1  0.62500000  0.62500000  0.43394963  1
  Se  Se78  1  0.37500000  0.06605037  0.87500000  1
  Se  Se79  1  0.37500000  0.18394963  0.37500000  1
  Se  Se80  1  0.06605037  0.37500000  0.87500000  1
  Se  Se81  1  0.18394963  0.87500000  0.87500000  1
  Se  Se82  1  0.37500000  0.37500000  0.18394963  1
  Se  Se83  1  0.87500000  0.37500000  0.06605037  1
  Se  Se84  1  0.31605037  0.62500000  0.12500000  1
  Se  Se85  1  0.43394963  0.62500000  0.62500000  1
  Se  Se86  1  0.62500000  0.31605037  0.12500000  1
  Se  Se87  1  0.12500000  0.43394963  0.12500000  1
  Se  Se88  1  0.62500000  0.62500000  0.81605037  1
  Se  Se89  1  0.62500000  0.12500000  0.93394963  1
  Se  Se90  1  0.37500000  0.56605037  0.37500000  1
  Se  Se91  1  0.37500000  0.68394963  0.87500000  1
  Se  Se92  1  0.06605037  0.87500000  0.37500000  1
  Se  Se93  1  0.18394963  0.37500000  0.37500000  1
  Se  Se94  1  0.37500000  0.87500000  0.68394963  1
  Se  Se95  1  0.87500000  0.87500000  0.56605037  1
  Se  Se96  1  0.57253002  0.57253002  0.57253002  1
  Se  Se97  1  0.17746998  0.67746998  0.07253002  1
  Se  Se98  1  0.67746998  0.07253002  0.17746998  1
  Se  Se99  1  0.07253002  0.17746998  0.67746998  1
  Se  Se100  1  0.32253002  0.82253002  0.92746998  1
  Se  Se101  1  0.42746998  0.42746998  0.42746998  1
  Se  Se102  1  0.82253002  0.92746998  0.32253002  1
  Se  Se103  1  0.92746998  0.32253002  0.82253002  1
  Se  Se104  1  0.57253002  0.07253002  0.07253002  1
  Se  Se105  1  0.17746998  0.17746998  0.57253002  1
  Se  Se106  1  0.67746998  0.57253002  0.67746998  1
  Se  Se107  1  0.07253002  0.67746998  0.17746998  1
  Se  Se108  1  0.32253002  0.32253002  0.42746998  1
  Se  Se109  1  0.42746998  0.92746998  0.92746998  1
  Se  Se110  1  0.82253002  0.42746998  0.82253002  1
  Se  Se111  1  0.92746998  0.82253002  0.32253002  1
  Se  Se112  1  0.07253002  0.57253002  0.07253002  1
  Se  Se113  1  0.67746998  0.67746998  0.57253002  1
  Se  Se114  1  0.17746998  0.07253002  0.67746998  1
  Se  Se115  1  0.57253002  0.17746998  0.17746998  1
  Se  Se116  1  0.82253002  0.82253002  0.42746998  1
  Se  Se117  1  0.92746998  0.42746998  0.92746998  1
  Se  Se118  1  0.32253002  0.92746998  0.82253002  1
  Se  Se119  1  0.42746998  0.32253002  0.32253002  1
  Se  Se120  1  0.07253002  0.07253002  0.57253002  1
  Se  Se121  1  0.67746998  0.17746998  0.07253002  1
  Se  Se122  1  0.17746998  0.57253002  0.17746998  1
  Se  Se123  1  0.57253002  0.67746998  0.67746998  1
  Se  Se124  1  0.82253002  0.32253002  0.92746998  1
  Se  Se125  1  0.92746998  0.92746998  0.42746998  1
  Se  Se126  1  0.32253002  0.42746998  0.32253002  1
  Se  Se127  1  0.42746998  0.82253002  0.82253002  1
  Sr  Sr128  1  0.25690232  0.12500000  0.12500000  1
  Sr  Sr129  1  0.49309768  0.12500000  0.62500000  1
  Sr  Sr130  1  0.12500000  0.25690232  0.12500000  1
  Sr  Sr131  1  0.62500000  0.49309768  0.12500000  1
  Sr  Sr132  1  0.12500000  0.12500000  0.25690232  1
  Sr  Sr133  1  0.12500000  0.62500000  0.49309768  1
  Sr  Sr134  1  0.87500000  0.50690232  0.37500000  1
  Sr  Sr135  1  0.87500000  -0.25690232  0.87500000  1
  Sr  Sr136  1  1.00690232  0.37500000  0.37500000  1
  Sr  Sr137  1  0.24309768  0.87500000  0.37500000  1
  Sr  Sr138  1  0.87500000  0.37500000  0.24309768  1
  Sr  Sr139  1  0.37500000  0.37500000  1.00690232  1
  Sr  Sr140  1  0.25690232  0.62500000  0.62500000  1
  Sr  Sr141  1  0.49309768  0.62500000  1.12500000  1
  Sr  Sr142  1  0.12500000  0.75690232  0.62500000  1
  Sr  Sr143  1  0.62500000  0.99309768  0.62500000  1
  Sr  Sr144  1  0.12500000  0.62500000  0.75690232  1
  Sr  Sr145  1  0.12500000  1.12500000  0.99309768  1
  Sr  Sr146  1  0.87500000  1.00690232  0.87500000  1
  Sr  Sr147  1  0.87500000  0.24309768  1.37500000  1
  Sr  Sr148  1  1.00690232  0.87500000  0.87500000  1
  Sr  Sr149  1  0.24309768  1.37500000  0.87500000  1
  Sr  Sr150  1  0.87500000  0.87500000  0.74309768  1
  Sr  Sr151  1  0.37500000  0.87500000  1.50690232  1
  Sr  Sr152  1  0.75690232  0.12500000  0.62500000  1
  Sr  Sr153  1  0.99309768  0.12500000  1.12500000  1
  Sr  Sr154  1  0.62500000  0.25690232  0.62500000  1
  Sr  Sr155  1  1.12500000  0.49309768  0.62500000  1
  Sr  Sr156  1  0.62500000  0.12500000  0.75690232  1
  Sr  Sr157  1  0.62500000  0.62500000  0.99309768  1
  Sr  Sr158  1  1.37500000  0.50690232  0.87500000  1
  Sr  Sr159  1  1.37500000  -0.25690232  1.37500000  1
  Sr  Sr160  1  1.50690232  0.37500000  0.87500000  1
  Sr  Sr161  1  0.74309768  0.87500000  0.87500000  1
  Sr  Sr162  1  1.37500000  0.37500000  0.74309768  1
  Sr  Sr163  1  0.87500000  0.37500000  1.50690232  1
  Sr  Sr164  1  0.75690232  0.62500000  0.12500000  1
  Sr  Sr165  1  0.99309768  0.62500000  0.62500000  1
  Sr  Sr166  1  0.62500000  0.75690232  0.12500000  1
  Sr  Sr167  1  1.12500000  0.99309768  0.12500000  1
  Sr  Sr168  1  0.62500000  0.62500000  0.25690232  1
  Sr  Sr169  1  0.62500000  1.12500000  0.49309768  1
  Sr  Sr170  1  1.37500000  1.00690232  0.37500000  1
  Sr  Sr171  1  1.37500000  0.24309768  0.87500000  1
  Sr  Sr172  1  1.50690232  0.87500000  0.37500000  1
  Sr  Sr173  1  0.74309768  1.37500000  0.37500000  1
  Sr  Sr174  1  1.37500000  0.87500000  0.24309768  1
  Sr  Sr175  1  0.87500000  0.87500000  1.00690232  1
