# generated using pymatgen
data_Li3La3CuSi2O3
_symmetry_space_group_name_H-M   'P 1'
_cell_length_a   12.11085305
_cell_length_b   10.70848712
_cell_length_c   13.39152498
_cell_angle_alpha   90.00000000
_cell_angle_beta   90.00000000
_cell_angle_gamma   90.00000000
_symmetry_Int_Tables_number   1
_chemical_formula_structural   Li3La3CuSi2O3
_chemical_formula_sum   'Li3 La3 Cu1 Si2 O3'
_cell_volume   1736.73233088
_cell_formula_units_Z   1
loop_
 _symmetry_equiv_pos_site_id
 _symmetry_equiv_pos_as_xyz
  1  'x, y, z'
loop_
 _atom_site_type_symbol
 _atom_site_label
 _atom_site_symmetry_multiplicity
 _atom_site_fract_x
 _atom_site_fract_y
 _atom_site_fract_z
 _atom_site_occupancy
  Li  Li0  1  0.12500000  0.00000000  0.25000000  1
  Li  Li1  1  0.00000000  0.00000000  0.00000000  1
  Li  Li2  1  0.37500000  0.00000000  0.25000000  1
  La  La3  1  0.25000000  0.25000000  0.25000000  1
  La  La4  1  0.00000000  0.25000000  0.12500000  1
  La  La5  1  0.53397853  0.40983791  0.68383300  1
  Cu  Cu6  1  0.85760068  0.42604176  0.98879455  1
  Si  Si7  1  0.69546247  0.56628602  0.43163163  1
  Si  Si8  1  0.75989184  0.29248757  0.57472858  1
  O  O9  1  0.75817808  0.16560028  0.56960823  1
  O  O10  1  0.36510124  0.37566927  0.02144633  1
  O  O11  1  0.13934412  0.95149011  0.07760807  1
