# generated using pymatgen
data_Li2Te
_symmetry_space_group_name_H-M   'P 1'
_cell_length_a   8.72497583
_cell_length_b   8.72497583
_cell_length_c   8.72497583
_cell_angle_alpha   90.00000000
_cell_angle_beta   90.00000000
_cell_angle_gamma   90.00000000
_symmetry_Int_Tables_number   1
_chemical_formula_structural   Li2Te
_chemical_formula_sum   'Li16 Te8'
_cell_volume   664.19055785
_cell_formula_units_Z   8
loop_
 _symmetry_equiv_pos_site_id
 _symmetry_equiv_pos_as_xyz
  1  'x, y, z'
loop_
 _atom_site_type_symbol
 _atom_site_label
 _atom_site_symmetry_multiplicity
 _atom_site_fract_x
 _atom_site_fract_y
 _atom_site_fract_z
 _atom_site_occupancy
  Li  Li0  1  0.02279543  0.02279543  0.02279543  1
  Li  Li1  1  0.47720457  -0.02279543  0.52279543  1
  Li  Li2  1  -0.02279543  0.52279543  0.47720457  1
  Li  Li3  1  0.52279543  0.47720457  -0.02279543  1
  Li  Li4  1  0.77279543  0.27279543  0.22720457  1
  Li  Li5  1  0.72720457  0.72720457  0.72720457  1
  Li  Li6  1  0.27279543  0.22720457  0.77279543  1
  Li  Li7  1  0.22720457  0.77279543  0.27279543  1
  Li  Li8  1  0.52279543  0.52279543  0.52279543  1
  Li  Li9  1  0.97720457  0.47720457  1.02279543  1
  Li  Li10  1  0.47720457  1.02279543  0.97720457  1
  Li  Li11  1  1.02279543  0.97720457  0.47720457  1
  Li  Li12  1  1.27279543  0.77279543  0.72720457  1
  Li  Li13  1  1.22720457  1.22720457  1.22720457  1
  Li  Li14  1  0.77279543  0.72720457  1.27279543  1
  Li  Li15  1  0.72720457  1.27279543  0.77279543  1
  Te  Te16  1  0.12500000  0.12500000  0.12500000  1
  Te  Te17  1  0.37500000  0.87500000  0.62500000  1
  Te  Te18  1  0.87500000  0.62500000  0.37500000  1
  Te  Te19  1  0.62500000  0.37500000  0.87500000  1
  Te  Te20  1  0.62500000  0.62500000  0.62500000  1
  Te  Te21  1  0.87500000  0.37500000  0.12500000  1
  Te  Te22  1  0.37500000  0.12500000  0.87500000  1
  Te  Te23  1  0.12500000  0.87500000  0.37500000  1
