# generated using pymatgen
data_K2Na2Li3Te6P
_symmetry_space_group_name_H-M   'P 1'
_cell_length_a   13.60755827
_cell_length_b   13.60755827
_cell_length_c   22.58443834
_cell_angle_alpha   90.00000000
_cell_angle_beta   90.00000000
_cell_angle_gamma   90.00000000
_symmetry_Int_Tables_number   1
_chemical_formula_structural   K2Na2Li3Te6P
_chemical_formula_sum   'K16 Na16 Li24 Te48 P8'
_cell_volume   4181.86202362
_cell_formula_units_Z   8
loop_
 _symmetry_equiv_pos_site_id
 _symmetry_equiv_pos_as_xyz
  1  'x, y, z'
loop_
 _atom_site_type_symbol
 _atom_site_label
 _atom_site_symmetry_multiplicity
 _atom_site_fract_x
 _atom_site_fract_y
 _atom_site_fract_z
 _atom_site_occupancy
  K  K0  1  0.20822747  0.45822747  0.87500000  1
  K  K1  1  0.29177253  0.54177253  0.37500000  1
  K  K2  1  0.79177253  0.95822747  0.12500000  1
  K  K3  1  0.70822747  0.04177253  0.62500000  1
  K  K4  1  0.79177253  0.54177253  0.12500000  1
  K  K5  1  0.70822747  0.45822747  0.62500000  1
  K  K6  1  0.20822747  0.04177253  0.87500000  1
  K  K7  1  0.29177253  0.95822747  0.37500000  1
  K  K8  1  0.70822747  0.95822747  0.37500000  1
  K  K9  1  0.79177253  0.04177253  0.87500000  1
  K  K10  1  0.29177253  0.45822747  0.62500000  1
  K  K11  1  0.20822747  0.54177253  0.12500000  1
  K  K12  1  0.29177253  0.04177253  0.62500000  1
  K  K13  1  0.20822747  0.95822747  0.12500000  1
  K  K14  1  0.70822747  0.54177253  0.37500000  1
  K  K15  1  0.79177253  0.45822747  0.87500000  1
  Li  Li16  1  0.00000000  0.00000000  0.00000000  1
  Li  Li17  1  0.50000000  0.00000000  0.50000000  1
  Li  Li18  1  0.25000000  0.75000000  0.25000000  1
  Li  Li19  1  0.25000000  0.25000000  0.75000000  1
  Li  Li20  1  0.50000000  0.50000000  0.50000000  1
  Li  Li21  1  0.00000000  0.50000000  0.00000000  1
  Li  Li22  1  0.75000000  0.25000000  0.75000000  1
  Li  Li23  1  0.75000000  0.75000000  0.25000000  1
  Li  Li24  1  0.67616465  0.00000000  0.00000000  1
  Li  Li25  1  0.82383535  0.00000000  0.50000000  1
  Li  Li26  1  0.25000000  0.42616465  0.25000000  1
  Li  Li27  1  0.25000000  0.57383535  0.75000000  1
  Li  Li28  1  0.32383535  0.00000000  0.00000000  1
  Li  Li29  1  0.17616465  0.00000000  0.50000000  1
  Li  Li30  1  0.75000000  0.57383535  0.75000000  1
  Li  Li31  1  0.75000000  0.42616465  0.25000000  1
  Li  Li32  1  0.17616465  0.50000000  0.50000000  1
  Li  Li33  1  0.32383535  0.50000000  0.00000000  1
  Li  Li34  1  0.75000000  0.92616465  0.75000000  1
  Li  Li35  1  0.75000000  0.07383535  0.25000000  1
  Li  Li36  1  0.82383535  0.50000000  0.50000000  1
  Li  Li37  1  0.67616465  0.50000000  0.00000000  1
  Li  Li38  1  0.25000000  0.07383535  0.25000000  1
  Li  Li39  1  0.25000000  0.92616465  0.75000000  1
  Na  Na40  1  0.00000000  0.75000000  0.12500000  1
  Na  Na41  1  0.50000000  0.75000000  0.37500000  1
  Na  Na42  1  0.50000000  0.25000000  0.62500000  1
  Na  Na43  1  0.00000000  0.25000000  0.87500000  1
  Na  Na44  1  0.00000000  0.00000000  0.50000000  1
  Na  Na45  1  0.50000000  0.00000000  0.00000000  1
  Na  Na46  1  0.25000000  0.75000000  0.75000000  1
  Na  Na47  1  0.25000000  0.25000000  0.25000000  1
  Na  Na48  1  0.50000000  0.50000000  0.00000000  1
  Na  Na49  1  0.00000000  0.50000000  0.50000000  1
  Na  Na50  1  0.75000000  0.25000000  0.25000000  1
  Na  Na51  1  0.75000000  0.75000000  0.75000000  1
  Na  Na52  1  0.00000000  0.25000000  0.37500000  1
  Na  Na53  1  0.00000000  0.75000000  0.62500000  1
  Na  Na54  1  0.50000000  0.75000000  0.87500000  1
  Na  Na55  1  0.50000000  0.25000000  0.12500000  1
  P  P56  1  0.00000000  0.25000000  0.66600739  1
  P  P57  1  0.00000000  0.75000000  0.91600739  1
  P  P58  1  0.50000000  0.25000000  0.83399261  1
  P  P59  1  0.50000000  0.75000000  0.58399261  1
  P  P60  1  0.50000000  0.75000000  0.16600739  1
  P  P61  1  0.50000000  0.25000000  0.41600739  1
  P  P62  1  0.00000000  0.75000000  0.33399261  1
  P  P63  1  0.00000000  0.25000000  0.08399261  1
  Te  Te64  1  0.36845392  0.93904545  0.08566343  1
  Te  Te65  1  0.13154608  -0.93904545  0.58566343  1
  Te  Te66  1  -0.68904545  1.11845392  0.33566343  1
  Te  Te67  1  1.18904545  -0.11845392  0.83566343  1
  Te  Te68  1  0.13154608  0.93904545  0.41433657  1
  Te  Te69  1  0.36845392  -0.93904545  -0.08566343  1
  Te  Te70  1  1.18904545  1.11845392  0.16433657  1
  Te  Te71  1  -0.68904545  -0.11845392  0.66433657  1
  Te  Te72  1  -0.36845392  -0.93904545  -0.08566343  1
  Te  Te73  1  0.86845392  0.93904545  0.41433657  1
  Te  Te74  1  1.68904545  -0.11845392  0.66433657  1
  Te  Te75  1  -0.18904545  1.11845392  0.16433657  1
  Te  Te76  1  0.86845392  -0.93904545  0.58566343  1
  Te  Te77  1  -0.36845392  0.93904545  0.08566343  1
  Te  Te78  1  -0.18904545  -0.11845392  0.83566343  1
  Te  Te79  1  1.68904545  1.11845392  0.33566343  1
  Te  Te80  1  0.86845392  1.43904545  0.58566343  1
  Te  Te81  1  0.63154608  -0.43904545  1.08566343  1
  Te  Te82  1  -0.18904545  1.61845392  0.83566343  1
  Te  Te83  1  1.68904545  0.38154608  1.33566343  1
  Te  Te84  1  0.63154608  1.43904545  0.91433657  1
  Te  Te85  1  0.86845392  -0.43904545  0.41433657  1
  Te  Te86  1  1.68904545  1.61845392  0.66433657  1
  Te  Te87  1  -0.18904545  0.38154608  1.16433657  1
  Te  Te88  1  0.13154608  -0.43904545  0.41433657  1
  Te  Te89  1  1.36845392  1.43904545  0.91433657  1
  Te  Te90  1  2.18904545  0.38154608  1.16433657  1
  Te  Te91  1  0.31095455  1.61845392  0.66433657  1
  Te  Te92  1  1.36845392  -0.43904545  1.08566343  1
  Te  Te93  1  0.13154608  1.43904545  0.58566343  1
  Te  Te94  1  0.31095455  0.38154608  1.33566343  1
  Te  Te95  1  2.18904545  1.61845392  0.83566343  1
  Te  Te96  1  0.00000000  0.84110200  0.71043690  1
  Te  Te97  1  0.50000000  0.15889800  0.21043690  1
  Te  Te98  1  0.40889800  0.75000000  0.96043690  1
  Te  Te99  1  0.09110200  0.25000000  0.46043690  1
  Te  Te100  1  0.50000000  0.84110200  0.78956310  1
  Te  Te101  1  0.00000000  0.15889800  0.28956310  1
  Te  Te102  1  0.09110200  0.75000000  0.53956310  1
  Te  Te103  1  0.40889800  0.25000000  0.03956310  1
  Te  Te104  1  0.50000000  0.34110200  0.21043690  1
  Te  Te105  1  0.00000000  0.65889800  0.71043690  1
  Te  Te106  1  0.90889800  0.25000000  0.46043690  1
  Te  Te107  1  0.59110200  0.75000000  0.96043690  1
  Te  Te108  1  0.00000000  0.34110200  0.28956310  1
  Te  Te109  1  0.50000000  0.65889800  0.78956310  1
  Te  Te110  1  0.59110200  0.25000000  0.03956310  1
  Te  Te111  1  0.90889800  0.75000000  0.53956310  1
