# generated using pymatgen
data_Li2LaSO2
_symmetry_space_group_name_H-M   'P 1'
_cell_length_a   4.39618463
_cell_length_b   3.87917046
_cell_length_c   4.37712972
_cell_angle_alpha   94.42698266
_cell_angle_beta   90.20662524
_cell_angle_gamma   90.12108801
_symmetry_Int_Tables_number   1
_chemical_formula_structural   Li2LaSO2
_chemical_formula_sum   'Li2 La1 S1 O2'
_cell_volume   74.42219638
_cell_formula_units_Z   1
loop_
 _symmetry_equiv_pos_site_id
 _symmetry_equiv_pos_as_xyz
  1  'x, y, z'
loop_
 _atom_site_type_symbol
 _atom_site_label
 _atom_site_symmetry_multiplicity
 _atom_site_fract_x
 _atom_site_fract_y
 _atom_site_fract_z
 _atom_site_occupancy
  Li  Li0  1  0.00000000  0.00000000  0.00000000  1
  Li  Li1  1  0.50000000  0.50000000  0.50000000  1
  La  La2  1  0.50000000  0.50000000  0.00000000  1
  O  O3  1  0.50000000  0.00000000  0.50000000  1
  O  O4  1  0.00000000  0.50000000  0.50000000  1
  S  S5  1  0.45260920  0.02451379  0.40912105  1
