# generated using pymatgen
data_Li3SeBr
_symmetry_space_group_name_H-M   'P 1'
_cell_length_a   15.67818139
_cell_length_b   15.67818139
_cell_length_c   3.99483550
_cell_angle_alpha   90.00000000
_cell_angle_beta   90.00000000
_cell_angle_gamma   90.00000000
_symmetry_Int_Tables_number   1
_chemical_formula_structural   Li3SeBr
_chemical_formula_sum   'Li48 Se16 Br16'
_cell_volume   981.95202357
_cell_formula_units_Z   16
loop_
 _symmetry_equiv_pos_site_id
 _symmetry_equiv_pos_as_xyz
  1  'x, y, z'
loop_
 _atom_site_type_symbol
 _atom_site_label
 _atom_site_symmetry_multiplicity
 _atom_site_fract_x
 _atom_site_fract_y
 _atom_site_fract_z
 _atom_site_occupancy
  Br  Br0  1  0.07941493  -0.00000000  0.25000000  1
  Br  Br1  1  0.42058507  -0.00000000  0.75000000  1
  Br  Br2  1  0.25000000  0.82941493  0.50000000  1
  Br  Br3  1  0.25000000  0.17058507  -0.00000000  1
  Br  Br4  1  0.92058507  0.00000000  0.75000000  1
  Br  Br5  1  0.57941493  -0.00000000  0.25000000  1
  Br  Br6  1  0.75000000  0.17058507  0.50000000  1
  Br  Br7  1  0.75000000  0.82941493  -0.00000000  1
  Br  Br8  1  0.57941493  0.50000000  0.75000000  1
  Br  Br9  1  0.92058507  0.50000000  0.25000000  1
  Br  Br10  1  0.75000000  0.32941493  -0.00000000  1
  Br  Br11  1  0.75000000  0.67058507  0.50000000  1
  Br  Br12  1  0.42058507  0.50000000  0.25000000  1
  Br  Br13  1  0.07941493  0.50000000  0.75000000  1
  Br  Br14  1  0.25000000  0.67058507  -0.00000000  1
  Br  Br15  1  0.25000000  0.32941493  0.50000000  1
  Li  Li16  1  0.93260687  0.09576841  0.67607265  1
  Li  Li17  1  -0.43260687  -0.09576841  1.17607265  1
  Li  Li18  1  0.15423159  1.68260687  0.92607265  1
  Li  Li19  1  0.34576841  -0.68260687  1.42607265  1
  Li  Li20  1  -0.43260687  0.09576841  -0.67607265  1
  Li  Li21  1  0.93260687  -0.09576841  -0.17607265  1
  Li  Li22  1  0.34576841  1.68260687  0.07392735  1
  Li  Li23  1  0.15423159  -0.68260687  -0.42607265  1
  Li  Li24  1  -0.93260687  -0.09576841  -0.67607265  1
  Li  Li25  1  1.43260687  0.09576841  -0.17607265  1
  Li  Li26  1  0.84576841  -0.68260687  0.07392735  1
  Li  Li27  1  0.65423159  1.68260687  -0.42607265  1
  Li  Li28  1  1.43260687  -0.09576841  0.67607265  1
  Li  Li29  1  -0.93260687  0.09576841  1.17607265  1
  Li  Li30  1  0.65423159  -0.68260687  0.92607265  1
  Li  Li31  1  0.84576841  1.68260687  1.42607265  1
  Li  Li32  1  1.43260687  0.59576841  1.17607265  1
  Li  Li33  1  0.06739313  0.40423159  1.67607265  1
  Li  Li34  1  0.65423159  2.18260687  1.42607265  1
  Li  Li35  1  0.84576841  -0.18260687  1.92607265  1
  Li  Li36  1  0.06739313  0.59576841  -0.17607265  1
  Li  Li37  1  1.43260687  0.40423159  0.32392735  1
  Li  Li38  1  0.84576841  2.18260687  0.57392735  1
  Li  Li39  1  0.65423159  -0.18260687  0.07392735  1
  Li  Li40  1  -0.43260687  0.40423159  -0.17607265  1
  Li  Li41  1  1.93260687  0.59576841  0.32392735  1
  Li  Li42  1  1.34576841  -0.18260687  0.57392735  1
  Li  Li43  1  1.15423159  2.18260687  0.07392735  1
  Li  Li44  1  1.93260687  0.40423159  1.17607265  1
  Li  Li45  1  -0.43260687  0.59576841  1.67607265  1
  Li  Li46  1  1.15423159  -0.18260687  1.42607265  1
  Li  Li47  1  1.34576841  2.18260687  1.92607265  1
  Li  Li48  1  0.00000000  0.00000000  0.00000000  1
  Li  Li49  1  0.50000000  0.00000000  0.50000000  1
  Li  Li50  1  0.25000000  0.75000000  0.25000000  1
  Li  Li51  1  0.25000000  0.25000000  0.75000000  1
  Li  Li52  1  0.50000000  0.00000000  0.00000000  1
  Li  Li53  1  0.00000000  0.00000000  0.50000000  1
  Li  Li54  1  0.25000000  0.75000000  0.75000000  1
  Li  Li55  1  0.25000000  0.25000000  0.25000000  1
  Li  Li56  1  0.50000000  0.50000000  0.50000000  1
  Li  Li57  1  0.00000000  0.50000000  0.00000000  1
  Li  Li58  1  0.75000000  0.25000000  0.75000000  1
  Li  Li59  1  0.75000000  0.75000000  0.25000000  1
  Li  Li60  1  0.00000000  0.50000000  0.50000000  1
  Li  Li61  1  0.50000000  0.50000000  0.00000000  1
  Li  Li62  1  0.75000000  0.25000000  0.25000000  1
  Li  Li63  1  0.75000000  0.75000000  0.75000000  1
  Se  Se64  1  0.19684327  -0.00000000  0.25000000  1
  Se  Se65  1  0.30315673  0.00000000  0.75000000  1
  Se  Se66  1  0.25000000  0.94684327  0.50000000  1
  Se  Se67  1  0.25000000  0.05315673  -0.00000000  1
  Se  Se68  1  0.80315673  -0.00000000  0.75000000  1
  Se  Se69  1  0.69684327  -0.00000000  0.25000000  1
  Se  Se70  1  0.75000000  0.05315673  0.50000000  1
  Se  Se71  1  0.75000000  0.94684327  -0.00000000  1
  Se  Se72  1  0.69684327  0.50000000  0.75000000  1
  Se  Se73  1  0.80315673  0.50000000  0.25000000  1
  Se  Se74  1  0.75000000  0.44684327  -0.00000000  1
  Se  Se75  1  0.75000000  0.55315673  0.50000000  1
  Se  Se76  1  0.30315673  0.50000000  0.25000000  1
  Se  Se77  1  0.19684327  0.50000000  0.75000000  1
  Se  Se78  1  0.25000000  0.55315673  -0.00000000  1
  Se  Se79  1  0.25000000  0.44684327  0.50000000  1
