# generated using pymatgen
data_K4Li6Ti(Se2F3)2
_symmetry_space_group_name_H-M   'P 1'
_cell_length_a   12.53317919
_cell_length_b   15.78176017
_cell_length_c   13.67756485
_cell_angle_alpha   90.00000000
_cell_angle_beta   90.00000000
_cell_angle_gamma   90.00000000
_symmetry_Int_Tables_number   1
_chemical_formula_structural   K4Li6Ti(Se2F3)2
_chemical_formula_sum   'K16 Li24 Ti4 Se16 F24'
_cell_volume   2705.36253105
_cell_formula_units_Z   4
loop_
 _symmetry_equiv_pos_site_id
 _symmetry_equiv_pos_as_xyz
  1  'x, y, z'
loop_
 _atom_site_type_symbol
 _atom_site_label
 _atom_site_symmetry_multiplicity
 _atom_site_fract_x
 _atom_site_fract_y
 _atom_site_fract_z
 _atom_site_occupancy
  F  F0  1  0.98601851  0.47580018  0.41521959  1
  F  F1  1  0.51398149  0.52419982  0.91521959  1
  F  F2  1  0.01398149  0.97580018  0.58478041  1
  F  F3  1  0.48601851  0.02419982  0.08478041  1
  F  F4  1  0.01398149  0.52419982  0.58478041  1
  F  F5  1  0.48601851  0.47580018  0.08478041  1
  F  F6  1  0.98601851  0.02419982  0.41521959  1
  F  F7  1  0.51398149  0.97580018  0.91521959  1
  F  F8  1  0.16853000  0.57533908  0.87109272  1
  F  F9  1  0.33147000  0.42466092  0.37109272  1
  F  F10  1  0.83147000  0.07533908  0.12890728  1
  F  F11  1  0.66853000  0.92466092  0.62890728  1
  F  F12  1  0.83147000  0.42466092  0.12890728  1
  F  F13  1  0.66853000  0.57533908  0.62890728  1
  F  F14  1  0.16853000  0.92466092  0.87109272  1
  F  F15  1  0.33147000  0.07533908  0.37109272  1
  F  F16  1  0.01520121  0.99361522  0.37338148  1
  F  F17  1  0.48479879  0.00638478  0.87338148  1
  F  F18  1  0.98479879  0.49361522  0.62661852  1
  F  F19  1  0.51520121  0.50638478  0.12661852  1
  F  F20  1  0.98479879  0.00638478  0.62661852  1
  F  F21  1  0.51520121  0.99361522  0.12661852  1
  F  F22  1  0.01520121  0.50638478  0.37338148  1
  F  F23  1  0.48479879  0.49361522  0.87338148  1
  K  K24  1  0.79337208  0.25000000  0.45462664  1
  K  K25  1  0.70662792  0.75000000  0.95462664  1
  K  K26  1  0.20662792  0.75000000  0.54537336  1
  K  K27  1  0.29337208  0.25000000  0.04537336  1
  K  K28  1  0.00000000  0.00000000  0.00000000  1
  K  K29  1  0.50000000  0.00000000  0.50000000  1
  K  K30  1  0.00000000  0.50000000  0.00000000  1
  K  K31  1  0.50000000  0.50000000  0.50000000  1
  K  K32  1  0.27526921  0.99329711  0.10635211  1
  K  K33  1  0.22473079  0.00670289  0.60635211  1
  K  K34  1  0.72473079  0.49329711  0.89364789  1
  K  K35  1  0.77526921  0.50670289  0.39364789  1
  K  K36  1  0.72473079  0.00670289  0.89364789  1
  K  K37  1  0.77526921  0.99329711  0.39364789  1
  K  K38  1  0.27526921  0.50670289  0.10635211  1
  K  K39  1  0.22473079  0.49329711  0.60635211  1
  Li  Li40  1  0.03664213  0.31194963  0.39303551  1
  Li  Li41  1  0.46335787  -0.31194963  0.89303551  1
  Li  Li42  1  -0.03664213  0.81194963  -0.39303551  1
  Li  Li43  1  0.53664213  0.18805037  0.10696449  1
  Li  Li44  1  -0.03664213  -0.31194963  -0.39303551  1
  Li  Li45  1  0.53664213  0.31194963  0.10696449  1
  Li  Li46  1  0.03664213  0.18805037  0.39303551  1
  Li  Li47  1  0.46335787  0.81194963  0.89303551  1
  Li  Li48  1  0.29430933  0.02596837  0.81428508  1
  Li  Li49  1  0.20569067  0.97403163  0.31428508  1
  Li  Li50  1  0.70569067  0.52596837  0.18571492  1
  Li  Li51  1  0.79430933  0.47403163  0.68571492  1
  Li  Li52  1  0.70569067  0.97403163  0.18571492  1
  Li  Li53  1  0.79430933  0.02596837  0.68571492  1
  Li  Li54  1  0.29430933  0.47403163  0.81428508  1
  Li  Li55  1  0.20569067  0.52596837  0.31428508  1
  Li  Li56  1  0.25381979  0.66469616  0.42846804  1
  Li  Li57  1  0.24618021  0.33530384  0.92846804  1
  Li  Li58  1  0.74618021  0.16469616  0.57153196  1
  Li  Li59  1  0.75381979  0.83530384  0.07153196  1
  Li  Li60  1  0.74618021  0.33530384  0.57153196  1
  Li  Li61  1  0.75381979  0.66469616  0.07153196  1
  Li  Li62  1  0.25381979  0.83530384  0.42846804  1
  Li  Li63  1  0.24618021  0.16469616  0.92846804  1
  Se  Se64  1  0.26758533  0.90881479  0.48087889  1
  Se  Se65  1  0.23241467  0.09118521  0.98087889  1
  Se  Se66  1  0.73241467  0.40881479  0.51912111  1
  Se  Se67  1  0.76758533  0.59118521  0.01912111  1
  Se  Se68  1  0.73241467  0.09118521  0.51912111  1
  Se  Se69  1  0.76758533  0.90881479  0.01912111  1
  Se  Se70  1  0.26758533  0.59118521  0.48087889  1
  Se  Se71  1  0.23241467  0.40881479  0.98087889  1
  Se  Se72  1  0.64456267  0.25000000  0.89275062  1
  Se  Se73  1  0.85543733  0.75000000  0.39275062  1
  Se  Se74  1  0.35543733  0.75000000  0.10724938  1
  Se  Se75  1  0.14456267  0.25000000  0.60724938  1
  Se  Se76  1  0.00000000  0.00000000  0.50000000  1
  Se  Se77  1  0.50000000  0.00000000  0.00000000  1
  Se  Se78  1  0.00000000  0.50000000  0.50000000  1
  Se  Se79  1  0.50000000  0.50000000  0.00000000  1
  Ti  Ti80  1  0.16219338  0.25000000  0.28131050  1
  Ti  Ti81  1  0.33780662  0.75000000  0.78131050  1
  Ti  Ti82  1  0.83780662  0.75000000  0.71868950  1
  Ti  Ti83  1  0.66219338  0.25000000  0.21868950  1
