# generated using pymatgen
data_Na2Mg2Sn(S2Br)2
_symmetry_space_group_name_H-M   'P 1'
_cell_length_a   13.17856756
_cell_length_b   10.59754708
_cell_length_c   28.22195994
_cell_angle_alpha   90.00000000
_cell_angle_beta   90.00000000
_cell_angle_gamma   90.00000000
_symmetry_Int_Tables_number   1
_chemical_formula_structural   Na2Mg2Sn(S2Br)2
_chemical_formula_sum   'Na32 Mg32 Sn16 S64 Br32'
_cell_volume   3941.49276164
_cell_formula_units_Z   16
loop_
 _symmetry_equiv_pos_site_id
 _symmetry_equiv_pos_as_xyz
  1  'x, y, z'
loop_
 _atom_site_type_symbol
 _atom_site_label
 _atom_site_symmetry_multiplicity
 _atom_site_fract_x
 _atom_site_fract_y
 _atom_site_fract_z
 _atom_site_occupancy
  Br  Br0  1  0.32517978  0.00577905  0.76643095  1
  Br  Br1  1  0.42482022  0.74422095  0.76643095  1
  Br  Br2  1  0.42482022  0.00577905  0.98356905  1
  Br  Br3  1  0.32517978  0.74422095  0.98356905  1
  Br  Br4  1  0.67482022  0.99422095  0.23356905  1
  Br  Br5  1  0.57517978  0.25577905  0.23356905  1
  Br  Br6  1  0.57517978  0.99422095  0.01643095  1
  Br  Br7  1  0.67482022  0.25577905  0.01643095  1
  Br  Br8  1  0.32517978  0.50577905  0.26643095  1
  Br  Br9  1  0.42482022  0.24422095  0.26643095  1
  Br  Br10  1  0.42482022  0.50577905  0.48356905  1
  Br  Br11  1  0.32517978  0.24422095  0.48356905  1
  Br  Br12  1  0.67482022  0.49422095  0.73356905  1
  Br  Br13  1  0.57517978  0.75577905  0.73356905  1
  Br  Br14  1  0.57517978  0.49422095  0.51643095  1
  Br  Br15  1  0.67482022  0.75577905  0.51643095  1
  Br  Br16  1  0.82517978  0.00577905  0.26643095  1
  Br  Br17  1  0.92482022  0.74422095  0.26643095  1
  Br  Br18  1  0.92482022  0.00577905  0.48356905  1
  Br  Br19  1  0.82517978  0.74422095  0.48356905  1
  Br  Br20  1  0.17482022  0.99422095  0.73356905  1
  Br  Br21  1  0.07517978  0.25577905  0.73356905  1
  Br  Br22  1  0.07517978  0.99422095  0.51643095  1
  Br  Br23  1  0.17482022  0.25577905  0.51643095  1
  Br  Br24  1  0.82517978  0.50577905  0.76643095  1
  Br  Br25  1  0.92482022  0.24422095  0.76643095  1
  Br  Br26  1  0.92482022  0.50577905  0.98356905  1
  Br  Br27  1  0.82517978  0.24422095  0.98356905  1
  Br  Br28  1  0.17482022  0.49422095  0.23356905  1
  Br  Br29  1  0.07517978  0.75577905  0.23356905  1
  Br  Br30  1  0.07517978  0.49422095  0.01643095  1
  Br  Br31  1  0.17482022  0.75577905  0.01643095  1
  Mg  Mg32  1  0.68147981  0.97578476  0.39313113  1
  Mg  Mg33  1  0.06852019  0.77421524  0.39313113  1
  Mg  Mg34  1  0.06852019  0.97578476  0.35686887  1
  Mg  Mg35  1  0.68147981  0.77421524  0.35686887  1
  Mg  Mg36  1  0.31852019  0.02421524  0.60686887  1
  Mg  Mg37  1  0.93147981  0.22578476  0.60686887  1
  Mg  Mg38  1  0.93147981  0.02421524  0.64313113  1
  Mg  Mg39  1  0.31852019  0.22578476  0.64313113  1
  Mg  Mg40  1  0.68147981  0.47578476  0.89313113  1
  Mg  Mg41  1  0.06852019  0.27421524  0.89313113  1
  Mg  Mg42  1  0.06852019  0.47578476  0.85686887  1
  Mg  Mg43  1  0.68147981  0.27421524  0.85686887  1
  Mg  Mg44  1  0.31852019  0.52421524  0.10686887  1
  Mg  Mg45  1  0.93147981  0.72578476  0.10686887  1
  Mg  Mg46  1  0.93147981  0.52421524  0.14313113  1
  Mg  Mg47  1  0.31852019  0.72578476  0.14313113  1
  Mg  Mg48  1  0.18147981  0.97578476  0.89313113  1
  Mg  Mg49  1  0.56852019  0.77421524  0.89313113  1
  Mg  Mg50  1  0.56852019  0.97578476  0.85686887  1
  Mg  Mg51  1  0.18147981  0.77421524  0.85686887  1
  Mg  Mg52  1  0.81852019  0.02421524  0.10686887  1
  Mg  Mg53  1  0.43147981  0.22578476  0.10686887  1
  Mg  Mg54  1  0.43147981  0.02421524  0.14313113  1
  Mg  Mg55  1  0.81852019  0.22578476  0.14313113  1
  Mg  Mg56  1  0.18147981  0.47578476  0.39313113  1
  Mg  Mg57  1  0.56852019  0.27421524  0.39313113  1
  Mg  Mg58  1  0.56852019  0.47578476  0.35686887  1
  Mg  Mg59  1  0.18147981  0.27421524  0.35686887  1
  Mg  Mg60  1  0.81852019  0.52421524  0.60686887  1
  Mg  Mg61  1  0.43147981  0.72578476  0.60686887  1
  Mg  Mg62  1  0.43147981  0.52421524  0.64313113  1
  Mg  Mg63  1  0.81852019  0.72578476  0.64313113  1
  Na  Na64  1  0.20979886  0.29740144  0.24501104  1
  Na  Na65  1  0.54020114  0.45259856  0.24501104  1
  Na  Na66  1  0.54020114  0.29740144  0.50498896  1
  Na  Na67  1  0.20979886  0.45259856  0.50498896  1
  Na  Na68  1  -0.20979886  -0.29740144  -0.24501104  1
  Na  Na69  1  0.45979886  0.54740144  -0.24501104  1
  Na  Na70  1  0.45979886  -0.29740144  0.49501104  1
  Na  Na71  1  -0.20979886  0.54740144  0.49501104  1
  Na  Na72  1  0.20979886  0.79740144  0.74501104  1
  Na  Na73  1  0.54020114  0.95259856  0.74501104  1
  Na  Na74  1  0.54020114  0.79740144  1.00498896  1
  Na  Na75  1  0.20979886  0.95259856  1.00498896  1
  Na  Na76  1  -0.20979886  0.20259856  0.25498896  1
  Na  Na77  1  0.45979886  1.04740144  0.25498896  1
  Na  Na78  1  0.45979886  0.20259856  0.99501104  1
  Na  Na79  1  -0.20979886  1.04740144  0.99501104  1
  Na  Na80  1  0.70979886  0.29740144  0.74501104  1
  Na  Na81  1  1.04020114  0.45259856  0.74501104  1
  Na  Na82  1  1.04020114  0.29740144  1.00498896  1
  Na  Na83  1  0.70979886  0.45259856  1.00498896  1
  Na  Na84  1  0.29020114  -0.29740144  0.25498896  1
  Na  Na85  1  0.95979886  0.54740144  0.25498896  1
  Na  Na86  1  0.95979886  -0.29740144  0.99501104  1
  Na  Na87  1  0.29020114  0.54740144  0.99501104  1
  Na  Na88  1  0.70979886  0.79740144  0.24501104  1
  Na  Na89  1  1.04020114  0.95259856  0.24501104  1
  Na  Na90  1  1.04020114  0.79740144  0.50498896  1
  Na  Na91  1  0.70979886  0.95259856  0.50498896  1
  Na  Na92  1  0.29020114  0.20259856  -0.24501104  1
  Na  Na93  1  0.95979886  1.04740144  -0.24501104  1
  Na  Na94  1  0.95979886  0.20259856  0.49501104  1
  Na  Na95  1  0.29020114  1.04740144  0.49501104  1
  S  S96  1  0.05378483  0.92568806  0.12653156  1
  S  S97  1  0.69621517  0.82431194  0.12653156  1
  S  S98  1  0.69621517  0.92568806  0.62346844  1
  S  S99  1  0.05378483  0.82431194  0.62346844  1
  S  S100  1  0.94621517  0.07431194  0.87346844  1
  S  S101  1  0.30378483  0.17568806  0.87346844  1
  S  S102  1  0.30378483  0.07431194  0.37653156  1
  S  S103  1  0.94621517  0.17568806  0.37653156  1
  S  S104  1  0.05378483  0.42568806  0.62653156  1
  S  S105  1  0.69621517  0.32431194  0.62653156  1
  S  S106  1  0.69621517  0.42568806  0.12346844  1
  S  S107  1  0.05378483  0.32431194  0.12346844  1
  S  S108  1  0.94621517  0.57431194  0.37346844  1
  S  S109  1  0.30378483  0.67568806  0.37346844  1
  S  S110  1  0.30378483  0.57431194  0.87653156  1
  S  S111  1  0.94621517  0.67568806  0.87653156  1
  S  S112  1  0.55378483  0.92568806  0.62653156  1
  S  S113  1  0.19621517  0.82431194  0.62653156  1
  S  S114  1  0.19621517  0.92568806  0.12346844  1
  S  S115  1  0.55378483  0.82431194  0.12346844  1
  S  S116  1  0.44621517  0.07431194  0.37346844  1
  S  S117  1  0.80378483  0.17568806  0.37346844  1
  S  S118  1  0.80378483  0.07431194  0.87653156  1
  S  S119  1  0.44621517  0.17568806  0.87653156  1
  S  S120  1  0.55378483  0.42568806  0.12653156  1
  S  S121  1  0.19621517  0.32431194  0.12653156  1
  S  S122  1  0.19621517  0.42568806  0.62346844  1
  S  S123  1  0.55378483  0.32431194  0.62346844  1
  S  S124  1  0.44621517  0.57431194  0.87346844  1
  S  S125  1  0.80378483  0.67568806  0.87346844  1
  S  S126  1  0.80378483  0.57431194  0.37653156  1
  S  S127  1  0.44621517  0.67568806  0.37653156  1
  S  S128  1  0.00000000  0.00000000  0.00000000  1
  S  S129  1  0.75000000  0.75000000  0.00000000  1
  S  S130  1  0.75000000  0.00000000  0.75000000  1
  S  S131  1  0.00000000  0.75000000  0.75000000  1
  S  S132  1  0.00000000  0.50000000  0.50000000  1
  S  S133  1  0.75000000  0.25000000  0.50000000  1
  S  S134  1  0.75000000  0.50000000  0.25000000  1
  S  S135  1  0.00000000  0.25000000  0.25000000  1
  S  S136  1  0.50000000  0.00000000  0.50000000  1
  S  S137  1  0.25000000  0.75000000  0.50000000  1
  S  S138  1  0.25000000  0.00000000  0.25000000  1
  S  S139  1  0.50000000  0.75000000  0.25000000  1
  S  S140  1  0.50000000  0.50000000  0.00000000  1
  S  S141  1  0.25000000  0.25000000  0.00000000  1
  S  S142  1  0.25000000  0.50000000  0.75000000  1
  S  S143  1  0.50000000  0.25000000  0.75000000  1
  S  S144  1  0.12500000  0.12500000  0.00753683  1
  S  S145  1  0.62500000  0.12500000  0.74246317  1
  S  S146  1  0.87500000  0.87500000  0.99246317  1
  S  S147  1  0.37500000  0.87500000  0.25753683  1
  S  S148  1  0.12500000  0.62500000  0.50753683  1
  S  S149  1  0.62500000  0.62500000  0.24246317  1
  S  S150  1  0.87500000  0.37500000  0.49246317  1
  S  S151  1  0.37500000  0.37500000  0.75753683  1
  S  S152  1  0.62500000  0.12500000  0.50753683  1
  S  S153  1  0.12500000  0.12500000  0.24246317  1
  S  S154  1  0.37500000  0.87500000  0.49246317  1
  S  S155  1  0.87500000  0.87500000  0.75753683  1
  S  S156  1  0.62500000  0.62500000  0.00753683  1
  S  S157  1  0.12500000  0.62500000  0.74246317  1
  S  S158  1  0.37500000  0.37500000  0.99246317  1
  S  S159  1  0.87500000  0.37500000  0.25753683  1
  Sn  Sn160  1  0.12500000  0.12500000  0.12500000  1
  Sn  Sn161  1  0.87500000  0.87500000  0.87500000  1
  Sn  Sn162  1  0.12500000  0.62500000  0.62500000  1
  Sn  Sn163  1  0.87500000  0.37500000  0.37500000  1
  Sn  Sn164  1  0.62500000  0.12500000  0.62500000  1
  Sn  Sn165  1  0.37500000  0.87500000  0.37500000  1
  Sn  Sn166  1  0.62500000  0.62500000  0.12500000  1
  Sn  Sn167  1  0.37500000  0.37500000  0.87500000  1
  Sn  Sn168  1  0.12500000  0.12500000  0.62500000  1
  Sn  Sn169  1  0.87500000  0.87500000  0.37500000  1
  Sn  Sn170  1  0.12500000  0.62500000  0.12500000  1
  Sn  Sn171  1  0.87500000  0.37500000  0.87500000  1
  Sn  Sn172  1  0.62500000  0.12500000  0.12500000  1
  Sn  Sn173  1  0.37500000  0.87500000  0.87500000  1
  Sn  Sn174  1  0.62500000  0.62500000  0.62500000  1
  Sn  Sn175  1  0.37500000  0.37500000  0.37500000  1
