# generated using pymatgen
data_Li3Ca2IBr6
_symmetry_space_group_name_H-M   'P 1'
_cell_length_a   12.53062642
_cell_length_b   12.53062642
_cell_length_c   4.18585345
_cell_angle_alpha   90.00000000
_cell_angle_beta   90.00000000
_cell_angle_gamma   120.00000000
_symmetry_Int_Tables_number   1
_chemical_formula_structural   Li3Ca2IBr6
_chemical_formula_sum   'Li6 Ca4 I2 Br12'
_cell_volume   569.19387211
_cell_formula_units_Z   2
loop_
 _symmetry_equiv_pos_site_id
 _symmetry_equiv_pos_as_xyz
  1  'x, y, z'
loop_
 _atom_site_type_symbol
 _atom_site_label
 _atom_site_symmetry_multiplicity
 _atom_site_fract_x
 _atom_site_fract_y
 _atom_site_fract_z
 _atom_site_occupancy
  Br  Br0  1  0.76132211  0.26347127  0.23921291  1
  Br  Br1  1  -0.26347127  0.49785084  0.23921291  1
  Br  Br2  1  -0.49785084  -0.76132211  0.23921291  1
  Br  Br3  1  0.76132211  0.26347127  -0.23921291  1
  Br  Br4  1  -0.26347127  0.49785084  -0.23921291  1
  Br  Br5  1  -0.49785084  -0.76132211  -0.23921291  1
  Br  Br6  1  0.26347127  0.76132211  -0.23921291  1
  Br  Br7  1  0.49785084  -0.26347127  -0.23921291  1
  Br  Br8  1  -0.76132211  -0.49785084  -0.23921291  1
  Br  Br9  1  0.26347127  0.76132211  0.23921291  1
  Br  Br10  1  0.49785084  -0.26347127  0.23921291  1
  Br  Br11  1  -0.76132211  -0.49785084  0.23921291  1
  Ca  Ca12  1  0.33333333  0.66666667  0.00000000  1
  Ca  Ca13  1  0.66666667  0.33333333  0.00000000  1
  Ca  Ca14  1  0.33333333  0.66666667  0.50000000  1
  Ca  Ca15  1  0.66666667  0.33333333  0.50000000  1
  I  I16  1  0.00000000  0.00000000  0.00000000  1
  I  I17  1  0.00000000  0.00000000  0.50000000  1
  Li  Li18  1  0.44777618  0.00000000  0.82832056  1
  Li  Li19  1  0.00000000  0.44777618  0.82832056  1
  Li  Li20  1  0.55222382  0.55222382  0.82832056  1
  Li  Li21  1  0.44777618  0.00000000  0.17167944  1
  Li  Li22  1  0.00000000  0.44777618  0.17167944  1
  Li  Li23  1  0.55222382  0.55222382  0.17167944  1
