# generated using pymatgen
data_Li12Ca6Sb2(S4O)3
_symmetry_space_group_name_H-M   'P 1'
_cell_length_a   8.84387391
_cell_length_b   8.84387391
_cell_length_c   11.52492923
_cell_angle_alpha   90.00000000
_cell_angle_beta   90.00000000
_cell_angle_gamma   120.00000000
_symmetry_Int_Tables_number   1
_chemical_formula_structural   Li12Ca6Sb2(S4O)3
_chemical_formula_sum   'Li12 Ca6 Sb2 S12 O3'
_cell_volume   780.64572030
_cell_formula_units_Z   1
loop_
 _symmetry_equiv_pos_site_id
 _symmetry_equiv_pos_as_xyz
  1  'x, y, z'
loop_
 _atom_site_type_symbol
 _atom_site_label
 _atom_site_symmetry_multiplicity
 _atom_site_fract_x
 _atom_site_fract_y
 _atom_site_fract_z
 _atom_site_occupancy
  Ca  Ca0  1  0.46848823  0.00000000  0.50000000  1
  Ca  Ca1  1  0.00000000  0.46848823  0.50000000  1
  Ca  Ca2  1  0.53151177  0.53151177  0.50000000  1
  Ca  Ca3  1  0.61608359  -0.00000000  0.00000000  1
  Ca  Ca4  1  0.00000000  0.61608359  0.00000000  1
  Ca  Ca5  1  0.38391641  0.38391641  0.00000000  1
  Li  Li6  1  0.39457585  0.90550019  0.16790277  1
  Li  Li7  1  -0.90550019  -0.51092434  0.16790277  1
  Li  Li8  1  0.51092434  -0.39457585  0.16790277  1
  Li  Li9  1  0.39457585  0.90550019  -0.16790277  1
  Li  Li10  1  -0.90550019  -0.51092434  -0.16790277  1
  Li  Li11  1  0.51092434  -0.39457585  -0.16790277  1
  Li  Li12  1  0.90550019  0.39457585  -0.16790277  1
  Li  Li13  1  -0.51092434  -0.90550019  -0.16790277  1
  Li  Li14  1  -0.39457585  0.51092434  -0.16790277  1
  Li  Li15  1  0.90550019  0.39457585  0.16790277  1
  Li  Li16  1  -0.51092434  -0.90550019  0.16790277  1
  Li  Li17  1  -0.39457585  0.51092434  0.16790277  1
  O  O18  1  0.33333333  0.66666667  0.00000000  1
  O  O19  1  0.66666667  0.33333333  0.00000000  1
  O  O20  1  0.00000000  0.00000000  0.00000000  1
  S  S21  1  0.33516613  0.44340507  0.39101632  1
  S  S22  1  0.55659493  0.89176105  0.39101632  1
  S  S23  1  0.10823895  0.66483387  0.39101632  1
  S  S24  1  0.33516613  0.44340507  0.60898368  1
  S  S25  1  0.55659493  0.89176105  0.60898368  1
  S  S26  1  0.10823895  0.66483387  0.60898368  1
  S  S27  1  0.44340507  0.33516613  0.60898368  1
  S  S28  1  0.89176105  0.55659493  0.60898368  1
  S  S29  1  0.66483387  0.10823895  0.60898368  1
  S  S30  1  0.44340507  0.33516613  0.39101632  1
  S  S31  1  0.89176105  0.55659493  0.39101632  1
  S  S32  1  0.66483387  0.10823895  0.39101632  1
  Sb  Sb33  1  0.00000000  0.00000000  0.37306379  1
  Sb  Sb34  1  0.00000000  0.00000000  0.62693621  1
