# generated using pymatgen
data_Sr8Li2Sn3(TeO4)3
_symmetry_space_group_name_H-M   'P 1'
_cell_length_a   18.98223288
_cell_length_b   18.98223288
_cell_length_c   21.02135482
_cell_angle_alpha   90.00000000
_cell_angle_beta   90.00000000
_cell_angle_gamma   120.00000000
_symmetry_Int_Tables_number   1
_chemical_formula_structural   Sr8Li2Sn3(TeO4)3
_chemical_formula_sum   'Sr72 Li18 Sn27 Te27 O108'
_cell_volume   6559.72946553
_cell_formula_units_Z   9
loop_
 _symmetry_equiv_pos_site_id
 _symmetry_equiv_pos_as_xyz
  1  'x, y, z'
loop_
 _atom_site_type_symbol
 _atom_site_label
 _atom_site_symmetry_multiplicity
 _atom_site_fract_x
 _atom_site_fract_y
 _atom_site_fract_z
 _atom_site_occupancy
  Li  Li0  1  0.22461965  0.77538035  0.51263949  1
  Li  Li1  1  0.22461965  0.44923929  0.51263949  1
  Li  Li2  1  0.55076071  0.77538035  0.51263949  1
  Li  Li3  1  0.77538035  0.22461965  0.48736051  1
  Li  Li4  1  0.44923929  0.22461965  0.48736051  1
  Li  Li5  1  0.77538035  0.55076071  0.48736051  1
  Li  Li6  1  0.89128631  0.10871369  0.84597283  1
  Li  Li7  1  0.89128631  0.78257263  0.84597283  1
  Li  Li8  1  0.21742737  0.10871369  0.84597283  1
  Li  Li9  1  0.44204702  0.55795298  0.82069384  1
  Li  Li10  1  0.11590596  0.55795298  0.82069384  1
  Li  Li11  1  0.44204702  0.88409404  0.82069384  1
  Li  Li12  1  0.55795298  0.44204702  0.17930616  1
  Li  Li13  1  0.55795298  0.11590596  0.17930616  1
  Li  Li14  1  0.88409404  0.44204702  0.17930616  1
  Li  Li15  1  0.10871369  0.89128631  0.15402717  1
  Li  Li16  1  0.78257263  0.89128631  0.15402717  1
  Li  Li17  1  0.10871369  0.21742737  0.15402717  1
  O  O18  1  0.54002088  0.74935058  0.77929992  1
  O  O19  1  0.25064942  0.79067030  0.77929992  1
  O  O20  1  0.20932970  0.45997912  0.77929992  1
  O  O21  1  0.74935058  0.54002088  0.22070008  1
  O  O22  1  0.79067030  0.25064942  0.22070008  1
  O  O23  1  0.45997912  0.20932970  0.22070008  1
  O  O24  1  0.45997912  0.25064942  0.22070008  1
  O  O25  1  0.74935058  0.20932970  0.22070008  1
  O  O26  1  0.79067030  0.54002088  0.22070008  1
  O  O27  1  0.25064942  0.45997912  0.77929992  1
  O  O28  1  0.20932970  0.74935058  0.77929992  1
  O  O29  1  0.54002088  0.79067030  0.77929992  1
  O  O30  1  0.20668755  0.08268392  0.11263326  1
  O  O31  1  0.91731608  0.12400363  0.11263326  1
  O  O32  1  0.87599637  0.79331245  0.11263326  1
  O  O33  1  0.41601725  0.87335422  0.55403341  1
  O  O34  1  0.45733696  0.58398275  0.55403341  1
  O  O35  1  0.12664578  0.54266304  0.55403341  1
  O  O36  1  0.12664578  0.58398275  0.55403341  1
  O  O37  1  0.41601725  0.54266304  0.55403341  1
  O  O38  1  0.45733696  0.87335422  0.55403341  1
  O  O39  1  0.91731608  0.79331245  0.11263326  1
  O  O40  1  0.87599637  0.08268392  0.11263326  1
  O  O41  1  0.20668755  0.12400363  0.11263326  1
  O  O42  1  0.87335422  0.41601725  0.44596659  1
  O  O43  1  0.58398275  0.45733696  0.44596659  1
  O  O44  1  0.54266304  0.12664578  0.44596659  1
  O  O45  1  0.08268392  0.20668755  0.88736674  1
  O  O46  1  0.12400363  0.91731608  0.88736674  1
  O  O47  1  0.79331245  0.87599637  0.88736674  1
  O  O48  1  0.79331245  0.91731608  0.88736674  1
  O  O49  1  0.08268392  0.87599637  0.88736674  1
  O  O50  1  0.12400363  0.20668755  0.88736674  1
  O  O51  1  0.58398275  0.12664578  0.44596659  1
  O  O52  1  0.54266304  0.41601725  0.44596659  1
  O  O53  1  0.87335422  0.45733696  0.44596659  1
  O  O54  1  0.12672371  0.29044560  0.00800462  1
  O  O55  1  0.70955440  0.83627811  0.00800462  1
  O  O56  1  0.16372189  0.87327629  0.00800462  1
  O  O57  1  0.29044560  0.12672371  0.99199538  1
  O  O58  1  0.83627811  0.70955440  0.99199538  1
  O  O59  1  0.87327629  0.16372189  0.99199538  1
  O  O60  1  0.87327629  0.70955440  0.99199538  1
  O  O61  1  0.29044560  0.16372189  0.99199538  1
  O  O62  1  0.83627811  0.12672371  0.99199538  1
  O  O63  1  0.70955440  0.87327629  0.00800462  1
  O  O64  1  0.16372189  0.29044560  0.00800462  1
  O  O65  1  0.12672371  0.83627811  0.00800462  1
  O  O66  1  0.79339038  0.62377894  0.34133796  1
  O  O67  1  0.37622106  0.16961144  0.34133796  1
  O  O68  1  0.83038856  0.20660962  0.34133796  1
  O  O69  1  0.95711227  0.46005705  0.32532871  1
  O  O70  1  0.50294477  0.04288773  0.32532871  1
  O  O71  1  0.53994295  0.49705523  0.32532871  1
  O  O72  1  0.53994295  0.04288773  0.32532871  1
  O  O73  1  0.95711227  0.49705523  0.32532871  1
  O  O74  1  0.50294477  0.46005705  0.32532871  1
  O  O75  1  0.37622106  0.20660962  0.34133796  1
  O  O76  1  0.83038856  0.62377894  0.34133796  1
  O  O77  1  0.79339038  0.16961144  0.34133796  1
  O  O78  1  0.46005705  0.95711227  0.67467129  1
  O  O79  1  0.04288773  0.50294477  0.67467129  1
  O  O80  1  0.49705523  0.53994295  0.67467129  1
  O  O81  1  0.62377894  0.79339038  0.65866204  1
  O  O82  1  0.16961144  0.37622106  0.65866204  1
  O  O83  1  0.20660962  0.83038856  0.65866204  1
  O  O84  1  0.20660962  0.37622106  0.65866204  1
  O  O85  1  0.62377894  0.83038856  0.65866204  1
  O  O86  1  0.16961144  0.79339038  0.65866204  1
  O  O87  1  0.04288773  0.53994295  0.67467129  1
  O  O88  1  0.49705523  0.95711227  0.67467129  1
  O  O89  1  0.46005705  0.50294477  0.67467129  1
  O  O90  1  0.57343904  0.42656096  0.28753352  1
  O  O91  1  0.57343904  0.14687808  0.28753352  1
  O  O92  1  0.85312192  0.42656096  0.28753352  1
  O  O93  1  0.42656096  0.57343904  0.71246648  1
  O  O94  1  0.14687808  0.57343904  0.71246648  1
  O  O95  1  0.42656096  0.85312192  0.71246648  1
  O  O96  1  0.24010571  0.75989429  0.62086686  1
  O  O97  1  0.24010571  0.48021141  0.62086686  1
  O  O98  1  0.51978859  0.75989429  0.62086686  1
  O  O99  1  0.09322763  0.90677237  0.04579981  1
  O  O100  1  0.81354475  0.90677237  0.04579981  1
  O  O101  1  0.09322763  0.18645525  0.04579981  1
  O  O102  1  0.90677237  0.09322763  0.95420019  1
  O  O103  1  0.90677237  0.81354475  0.95420019  1
  O  O104  1  0.18645525  0.09322763  0.95420019  1
  O  O105  1  0.75989429  0.24010571  0.37913314  1
  O  O106  1  0.48021141  0.24010571  0.37913314  1
  O  O107  1  0.75989429  0.51978859  0.37913314  1
  O  O108  1  0.59202458  0.00000000  0.50000000  1
  O  O109  1  0.00000000  0.59202458  0.50000000  1
  O  O110  1  0.40797542  0.40797542  0.50000000  1
  O  O111  1  0.40797542  -0.00000000  0.50000000  1
  O  O112  1  0.00000000  0.40797542  0.50000000  1
  O  O113  1  0.59202458  0.59202458  0.50000000  1
  O  O114  1  0.25869125  0.33333333  0.83333333  1
  O  O115  1  0.66666667  0.92535792  0.83333333  1
  O  O116  1  0.07464208  0.74130875  0.83333333  1
  O  O117  1  0.07464208  0.33333333  0.83333333  1
  O  O118  1  0.66666667  0.74130875  0.83333333  1
  O  O119  1  0.25869125  0.92535792  0.83333333  1
  O  O120  1  0.92535792  0.66666667  0.16666667  1
  O  O121  1  0.33333333  0.25869125  0.16666667  1
  O  O122  1  0.74130875  0.07464208  0.16666667  1
  O  O123  1  0.74130875  0.66666667  0.16666667  1
  O  O124  1  0.33333333  0.07464208  0.16666667  1
  O  O125  1  0.92535792  0.25869125  0.16666667  1
  Sn  Sn126  1  0.00000000  0.00000000  0.00000000  1
  Sn  Sn127  1  0.66666667  0.33333333  0.33333333  1
  Sn  Sn128  1  0.33333333  0.66666667  0.66666667  1
  Sn  Sn129  1  0.00000000  0.00000000  0.65191099  1
  Sn  Sn130  1  0.00000000  0.00000000  0.34808901  1
  Sn  Sn131  1  0.66666667  0.33333333  0.98524432  1
  Sn  Sn132  1  0.66666667  0.33333333  0.68142234  1
  Sn  Sn133  1  0.33333333  0.66666667  0.31857766  1
  Sn  Sn134  1  0.33333333  0.66666667  0.01475568  1
  Sn  Sn135  1  0.50000000  0.00000000  0.50000000  1
  Sn  Sn136  1  0.00000000  0.50000000  0.50000000  1
  Sn  Sn137  1  0.50000000  0.50000000  0.50000000  1
  Sn  Sn138  1  0.16666667  0.33333333  0.83333333  1
  Sn  Sn139  1  0.66666667  0.83333333  0.83333333  1
  Sn  Sn140  1  0.16666667  0.83333333  0.83333333  1
  Sn  Sn141  1  0.83333333  0.66666667  0.16666667  1
  Sn  Sn142  1  0.33333333  0.16666667  0.16666667  1
  Sn  Sn143  1  0.83333333  0.16666667  0.16666667  1
  Sn  Sn144  1  0.00000000  0.00000000  0.73706389  1
  Sn  Sn145  1  0.00000000  0.00000000  0.26293611  1
  Sn  Sn146  1  0.66666667  0.33333333  0.07039723  1
  Sn  Sn147  1  0.66666667  0.33333333  0.59626944  1
  Sn  Sn148  1  0.33333333  0.66666667  0.40373056  1
  Sn  Sn149  1  0.33333333  0.66666667  0.92960277  1
  Sn  Sn150  1  0.00000000  0.00000000  0.50000000  1
  Sn  Sn151  1  0.66666667  0.33333333  0.83333333  1
  Sn  Sn152  1  0.33333333  0.66666667  0.16666667  1
  Sr  Sr153  1  0.00972647  0.43296713  0.80774181  1
  Sr  Sr154  1  -0.43296713  -0.42324065  0.80774181  1
  Sr  Sr155  1  0.42324065  -0.00972647  0.80774181  1
  Sr  Sr156  1  0.43296713  0.00972647  -0.80774181  1
  Sr  Sr157  1  -0.42324065  -0.43296713  -0.80774181  1
  Sr  Sr158  1  -0.00972647  0.42324065  -0.80774181  1
  Sr  Sr159  1  -0.00972647  -0.43296713  -0.80774181  1
  Sr  Sr160  1  0.43296713  0.42324065  -0.80774181  1
  Sr  Sr161  1  -0.42324065  0.00972647  -0.80774181  1
  Sr  Sr162  1  -0.43296713  -0.00972647  0.80774181  1
  Sr  Sr163  1  0.42324065  0.43296713  0.80774181  1
  Sr  Sr164  1  0.00972647  -0.42324065  0.80774181  1
  Sr  Sr165  1  0.67639314  0.76630046  1.14107514  1
  Sr  Sr166  1  0.23369954  -0.08990732  1.14107514  1
  Sr  Sr167  1  1.08990732  0.32360686  1.14107514  1
  Sr  Sr168  1  1.09963379  0.34305981  -0.47440848  1
  Sr  Sr169  1  0.24342601  -0.09963379  -0.47440848  1
  Sr  Sr170  1  0.65694019  0.75657399  -0.47440848  1
  Sr  Sr171  1  0.65694019  -0.09963379  -0.47440848  1
  Sr  Sr172  1  1.09963379  0.75657399  -0.47440848  1
  Sr  Sr173  1  0.24342601  0.34305981  -0.47440848  1
  Sr  Sr174  1  0.23369954  0.32360686  1.14107514  1
  Sr  Sr175  1  1.08990732  0.76630046  1.14107514  1
  Sr  Sr176  1  0.67639314  -0.08990732  1.14107514  1
  Sr  Sr177  1  0.34305981  1.09963379  1.47440848  1
  Sr  Sr178  1  -0.09963379  0.24342601  1.47440848  1
  Sr  Sr179  1  0.75657399  0.65694019  1.47440848  1
  Sr  Sr180  1  0.76630046  0.67639314  -0.14107514  1
  Sr  Sr181  1  -0.08990732  0.23369954  -0.14107514  1
  Sr  Sr182  1  0.32360686  1.08990732  -0.14107514  1
  Sr  Sr183  1  0.32360686  0.23369954  -0.14107514  1
  Sr  Sr184  1  0.76630046  1.08990732  -0.14107514  1
  Sr  Sr185  1  -0.08990732  0.67639314  -0.14107514  1
  Sr  Sr186  1  -0.09963379  0.65694019  1.47440848  1
  Sr  Sr187  1  0.75657399  1.09963379  1.47440848  1
  Sr  Sr188  1  0.34305981  0.24342601  1.47440848  1
  Sr  Sr189  1  0.10928003  -0.00000000  0.50000000  1
  Sr  Sr190  1  0.00000000  0.10928003  0.50000000  1
  Sr  Sr191  1  0.89071997  0.89071997  0.50000000  1
  Sr  Sr192  1  0.89071997  0.00000000  0.50000000  1
  Sr  Sr193  1  0.00000000  0.89071997  0.50000000  1
  Sr  Sr194  1  0.10928003  0.10928003  0.50000000  1
  Sr  Sr195  1  0.77594670  0.33333333  0.83333333  1
  Sr  Sr196  1  0.66666667  0.44261336  0.83333333  1
  Sr  Sr197  1  0.55738664  0.22405330  0.83333333  1
  Sr  Sr198  1  0.55738664  0.33333333  0.83333333  1
  Sr  Sr199  1  0.66666667  0.22405330  0.83333333  1
  Sr  Sr200  1  0.77594670  0.44261336  0.83333333  1
  Sr  Sr201  1  0.44261336  0.66666667  0.16666667  1
  Sr  Sr202  1  0.33333333  0.77594670  0.16666667  1
  Sr  Sr203  1  0.22405330  0.55738664  0.16666667  1
  Sr  Sr204  1  0.22405330  0.66666667  0.16666667  1
  Sr  Sr205  1  0.33333333  0.55738664  0.16666667  1
  Sr  Sr206  1  0.44261336  0.77594670  0.16666667  1
  Sr  Sr207  1  0.21834538  0.00000000  0.50000000  1
  Sr  Sr208  1  0.00000000  0.21834538  0.50000000  1
  Sr  Sr209  1  0.78165462  0.78165462  0.50000000  1
  Sr  Sr210  1  0.78165462  0.00000000  0.50000000  1
  Sr  Sr211  1  0.00000000  0.78165462  0.50000000  1
  Sr  Sr212  1  0.21834538  0.21834538  0.50000000  1
  Sr  Sr213  1  0.88501205  0.33333333  0.83333333  1
  Sr  Sr214  1  0.66666667  0.55167871  0.83333333  1
  Sr  Sr215  1  0.44832129  0.11498795  0.83333333  1
  Sr  Sr216  1  0.44832129  0.33333333  0.83333333  1
  Sr  Sr217  1  0.66666667  0.11498795  0.83333333  1
  Sr  Sr218  1  0.88501205  0.55167871  0.83333333  1
  Sr  Sr219  1  0.55167871  0.66666667  0.16666667  1
  Sr  Sr220  1  0.33333333  0.88501205  0.16666667  1
  Sr  Sr221  1  0.11498795  0.44832129  0.16666667  1
  Sr  Sr222  1  0.11498795  0.66666667  0.16666667  1
  Sr  Sr223  1  0.33333333  0.44832129  0.16666667  1
  Sr  Sr224  1  0.55167871  0.88501205  0.16666667  1
  Te  Te225  1  0.42877013  0.57122987  0.47821127  1
  Te  Te226  1  0.42877013  0.85754025  0.47821127  1
  Te  Te227  1  0.14245975  0.57122987  0.47821127  1
  Te  Te228  1  0.57122987  0.42877013  0.52178873  1
  Te  Te229  1  0.85754025  0.42877013  0.52178873  1
  Te  Te230  1  0.57122987  0.14245975  0.52178873  1
  Te  Te231  1  0.09543679  0.90456321  0.81154460  1
  Te  Te232  1  0.09543679  0.19087359  0.81154460  1
  Te  Te233  1  0.80912641  0.90456321  0.81154460  1
  Te  Te234  1  0.23789654  0.76210346  0.85512207  1
  Te  Te235  1  0.52420692  0.76210346  0.85512207  1
  Te  Te236  1  0.23789654  0.47579308  0.85512207  1
  Te  Te237  1  0.76210346  0.23789654  0.14487793  1
  Te  Te238  1  0.76210346  0.52420692  0.14487793  1
  Te  Te239  1  0.47579308  0.23789654  0.14487793  1
  Te  Te240  1  0.90456321  0.09543679  0.18845540  1
  Te  Te241  1  0.19087359  0.09543679  0.18845540  1
  Te  Te242  1  0.90456321  0.80912641  0.18845540  1
  Te  Te243  1  0.50000000  0.00000000  0.00000000  1
  Te  Te244  1  0.00000000  0.50000000  0.00000000  1
  Te  Te245  1  0.50000000  0.50000000  0.00000000  1
  Te  Te246  1  0.16666667  0.33333333  0.33333333  1
  Te  Te247  1  0.66666667  0.83333333  0.33333333  1
  Te  Te248  1  0.16666667  0.83333333  0.33333333  1
  Te  Te249  1  0.83333333  0.66666667  0.66666667  1
  Te  Te250  1  0.33333333  0.16666667  0.66666667  1
  Te  Te251  1  0.83333333  0.16666667  0.66666667  1
