# generated using pymatgen
data_Li2Ti3Te3S4
_symmetry_space_group_name_H-M   'P 1'
_cell_length_a   33.82497137
_cell_length_b   33.82497137
_cell_length_c   3.51597335
_cell_angle_alpha   90.00000000
_cell_angle_beta   90.00000000
_cell_angle_gamma   90.00000000
_symmetry_Int_Tables_number   1
_chemical_formula_structural   Li2Ti3Te3S4
_chemical_formula_sum   'Li32 Ti48 Te48 S64'
_cell_volume   4022.72597223
_cell_formula_units_Z   16
loop_
 _symmetry_equiv_pos_site_id
 _symmetry_equiv_pos_as_xyz
  1  'x, y, z'
loop_
 _atom_site_type_symbol
 _atom_site_label
 _atom_site_symmetry_multiplicity
 _atom_site_fract_x
 _atom_site_fract_y
 _atom_site_fract_z
 _atom_site_occupancy
  Li  Li0  1  0.54913166  0.52247606  0.82934940  1
  Li  Li1  1  0.95086834  0.47752394  0.32934940  1
  Li  Li2  1  0.72752394  0.29913166  0.07934940  1
  Li  Li3  1  0.77247606  0.70086834  0.57934940  1
  Li  Li4  1  0.95086834  0.52247606  0.67065060  1
  Li  Li5  1  0.54913166  0.47752394  0.17065060  1
  Li  Li6  1  0.77247606  0.29913166  0.42065060  1
  Li  Li7  1  0.72752394  0.70086834  0.92065060  1
  Li  Li8  1  0.45086834  0.47752394  0.17065060  1
  Li  Li9  1  0.04913166  0.52247606  0.67065060  1
  Li  Li10  1  0.27247606  0.70086834  0.92065060  1
  Li  Li11  1  0.22752394  0.29913166  0.42065060  1
  Li  Li12  1  0.04913166  0.47752394  0.32934940  1
  Li  Li13  1  0.45086834  0.52247606  0.82934940  1
  Li  Li14  1  0.22752394  0.70086834  0.57934940  1
  Li  Li15  1  0.27247606  0.29913166  0.07934940  1
  Li  Li16  1  0.04913166  0.02247606  0.32934940  1
  Li  Li17  1  0.45086834  0.97752394  0.82934940  1
  Li  Li18  1  0.22752394  0.79913166  0.57934940  1
  Li  Li19  1  0.27247606  0.20086834  0.07934940  1
  Li  Li20  1  0.45086834  0.02247606  0.17065060  1
  Li  Li21  1  0.04913166  0.97752394  0.67065060  1
  Li  Li22  1  0.27247606  0.79913166  0.92065060  1
  Li  Li23  1  0.22752394  0.20086834  0.42065060  1
  Li  Li24  1  0.95086834  0.97752394  0.67065060  1
  Li  Li25  1  0.54913166  0.02247606  0.17065060  1
  Li  Li26  1  0.77247606  0.20086834  0.42065060  1
  Li  Li27  1  0.72752394  0.79913166  0.92065060  1
  Li  Li28  1  0.54913166  0.97752394  0.82934940  1
  Li  Li29  1  0.95086834  0.02247606  0.32934940  1
  Li  Li30  1  0.72752394  0.20086834  0.07934940  1
  Li  Li31  1  0.77247606  0.79913166  0.57934940  1
  S  S32  1  0.34390296  0.00000000  -0.00000000  1
  S  S33  1  0.15609704  0.00000000  0.50000000  1
  S  S34  1  0.25000000  0.09390296  0.25000000  1
  S  S35  1  0.25000000  0.90609704  0.75000000  1
  S  S36  1  0.65609704  0.00000000  0.00000000  1
  S  S37  1  0.84390296  0.00000000  0.50000000  1
  S  S38  1  0.75000000  0.90609704  0.75000000  1
  S  S39  1  0.75000000  0.09390296  0.25000000  1
  S  S40  1  0.84390296  0.50000000  0.50000000  1
  S  S41  1  0.65609704  0.50000000  0.00000000  1
  S  S42  1  0.75000000  0.59390296  0.75000000  1
  S  S43  1  0.75000000  0.40609704  0.25000000  1
  S  S44  1  0.15609704  0.50000000  0.50000000  1
  S  S45  1  0.34390296  0.50000000  0.00000000  1
  S  S46  1  0.25000000  0.40609704  0.25000000  1
  S  S47  1  0.25000000  0.59390296  0.75000000  1
  S  S48  1  0.83779294  0.14544384  0.95157315  1
  S  S49  1  0.66220706  0.85455616  0.45157315  1
  S  S50  1  0.10455616  0.58779294  0.20157315  1
  S  S51  1  0.39544384  0.41220706  0.70157315  1
  S  S52  1  0.66220706  0.14544384  0.54842685  1
  S  S53  1  0.83779294  0.85455616  0.04842685  1
  S  S54  1  0.39544384  0.58779294  0.29842685  1
  S  S55  1  0.10455616  0.41220706  0.79842685  1
  S  S56  1  0.16220706  0.85455616  0.04842685  1
  S  S57  1  0.33779294  0.14544384  0.54842685  1
  S  S58  1  0.89544384  0.41220706  0.79842685  1
  S  S59  1  0.60455616  0.58779294  0.29842685  1
  S  S60  1  0.33779294  0.85455616  0.45157315  1
  S  S61  1  0.16220706  0.14544384  0.95157315  1
  S  S62  1  0.60455616  0.41220706  0.70157315  1
  S  S63  1  0.89544384  0.58779294  0.20157315  1
  S  S64  1  0.33779294  0.64544384  0.45157315  1
  S  S65  1  0.16220706  0.35455616  0.95157315  1
  S  S66  1  0.60455616  0.08779294  0.70157315  1
  S  S67  1  0.89544384  0.91220706  0.20157315  1
  S  S68  1  0.16220706  0.64544384  0.04842685  1
  S  S69  1  0.33779294  0.35455616  0.54842685  1
  S  S70  1  0.89544384  0.08779294  0.79842685  1
  S  S71  1  0.60455616  0.91220706  0.29842685  1
  S  S72  1  0.66220706  0.35455616  0.54842685  1
  S  S73  1  0.83779294  0.64544384  0.04842685  1
  S  S74  1  0.39544384  0.91220706  0.29842685  1
  S  S75  1  0.10455616  0.08779294  0.79842685  1
  S  S76  1  0.83779294  0.35455616  0.95157315  1
  S  S77  1  0.66220706  0.64544384  0.45157315  1
  S  S78  1  0.10455616  0.91220706  0.20157315  1
  S  S79  1  0.39544384  0.08779294  0.70157315  1
  S  S80  1  0.00000000  0.00000000  0.00000000  1
  S  S81  1  0.50000000  0.00000000  0.50000000  1
  S  S82  1  0.25000000  0.75000000  0.25000000  1
  S  S83  1  0.25000000  0.25000000  0.75000000  1
  S  S84  1  0.50000000  0.50000000  0.50000000  1
  S  S85  1  0.00000000  0.50000000  0.00000000  1
  S  S86  1  0.75000000  0.25000000  0.75000000  1
  S  S87  1  0.75000000  0.75000000  0.25000000  1
  S  S88  1  0.00000000  0.00000000  0.50000000  1
  S  S89  1  0.50000000  0.00000000  0.00000000  1
  S  S90  1  0.25000000  0.75000000  0.75000000  1
  S  S91  1  0.25000000  0.25000000  0.25000000  1
  S  S92  1  0.50000000  0.50000000  0.00000000  1
  S  S93  1  0.00000000  0.50000000  0.50000000  1
  S  S94  1  0.75000000  0.25000000  0.25000000  1
  S  S95  1  0.75000000  0.75000000  0.75000000  1
  Te  Te96  1  0.40631589  0.01967708  0.92408234  1
  Te  Te97  1  0.09368411  -0.01967708  1.42408234  1
  Te  Te98  1  0.23032292  1.15631589  1.17408234  1
  Te  Te99  1  0.26967708  -0.15631589  1.67408234  1
  Te  Te100  1  0.09368411  0.01967708  -0.42408234  1
  Te  Te101  1  0.40631589  -0.01967708  -0.92408234  1
  Te  Te102  1  0.26967708  1.15631589  -0.67408234  1
  Te  Te103  1  0.23032292  -0.15631589  -0.17408234  1
  Te  Te104  1  -0.40631589  -0.01967708  -0.92408234  1
  Te  Te105  1  0.90631589  0.01967708  -0.42408234  1
  Te  Te106  1  0.76967708  -0.15631589  -0.17408234  1
  Te  Te107  1  0.73032292  1.15631589  -0.67408234  1
  Te  Te108  1  0.90631589  -0.01967708  1.42408234  1
  Te  Te109  1  -0.40631589  0.01967708  0.92408234  1
  Te  Te110  1  0.73032292  -0.15631589  1.67408234  1
  Te  Te111  1  0.76967708  1.15631589  1.17408234  1
  Te  Te112  1  0.90631589  0.51967708  1.42408234  1
  Te  Te113  1  0.59368411  0.48032292  1.92408234  1
  Te  Te114  1  0.73032292  1.65631589  1.67408234  1
  Te  Te115  1  0.76967708  0.34368411  2.17408234  1
  Te  Te116  1  0.59368411  0.51967708  0.07591766  1
  Te  Te117  1  0.90631589  0.48032292  -0.42408234  1
  Te  Te118  1  0.76967708  1.65631589  -0.17408234  1
  Te  Te119  1  0.73032292  0.34368411  0.32591766  1
  Te  Te120  1  0.09368411  0.48032292  -0.42408234  1
  Te  Te121  1  1.40631589  0.51967708  0.07591766  1
  Te  Te122  1  1.26967708  0.34368411  0.32591766  1
  Te  Te123  1  1.23032292  1.65631589  -0.17408234  1
  Te  Te124  1  1.40631589  0.48032292  1.92408234  1
  Te  Te125  1  0.09368411  0.51967708  1.42408234  1
  Te  Te126  1  1.23032292  0.34368411  2.17408234  1
  Te  Te127  1  1.26967708  1.65631589  1.67408234  1
  Te  Te128  1  0.30871016  0.55871016  0.87500000  1
  Te  Te129  1  0.19128984  0.44128984  0.37500000  1
  Te  Te130  1  0.69128984  0.05871016  0.12500000  1
  Te  Te131  1  0.80871016  0.94128984  0.62500000  1
  Te  Te132  1  0.69128984  0.44128984  0.12500000  1
  Te  Te133  1  0.80871016  0.55871016  0.62500000  1
  Te  Te134  1  0.30871016  0.94128984  0.87500000  1
  Te  Te135  1  0.19128984  0.05871016  0.37500000  1
  Te  Te136  1  0.80871016  0.05871016  0.37500000  1
  Te  Te137  1  0.69128984  0.94128984  0.87500000  1
  Te  Te138  1  0.19128984  0.55871016  0.62500000  1
  Te  Te139  1  0.30871016  0.44128984  0.12500000  1
  Te  Te140  1  0.19128984  0.94128984  0.62500000  1
  Te  Te141  1  0.30871016  0.05871016  0.12500000  1
  Te  Te142  1  0.80871016  0.44128984  0.37500000  1
  Te  Te143  1  0.69128984  0.55871016  0.87500000  1
  Ti  Ti144  1  0.85982260  0.10982260  0.87500000  1
  Ti  Ti145  1  0.64017740  0.89017740  0.37500000  1
  Ti  Ti146  1  0.14017740  0.60982260  0.12500000  1
  Ti  Ti147  1  0.35982260  0.39017740  0.62500000  1
  Ti  Ti148  1  0.14017740  0.89017740  0.12500000  1
  Ti  Ti149  1  0.35982260  0.10982260  0.62500000  1
  Ti  Ti150  1  0.85982260  0.39017740  0.87500000  1
  Ti  Ti151  1  0.64017740  0.60982260  0.37500000  1
  Ti  Ti152  1  0.35982260  0.60982260  0.37500000  1
  Ti  Ti153  1  0.14017740  0.39017740  0.87500000  1
  Ti  Ti154  1  0.64017740  0.10982260  0.62500000  1
  Ti  Ti155  1  0.85982260  0.89017740  0.12500000  1
  Ti  Ti156  1  0.64017740  0.39017740  0.62500000  1
  Ti  Ti157  1  0.85982260  0.60982260  0.12500000  1
  Ti  Ti158  1  0.35982260  0.89017740  0.37500000  1
  Ti  Ti159  1  0.14017740  0.10982260  0.87500000  1
  Ti  Ti160  1  0.52651663  0.18250051  0.56405529  1
  Ti  Ti161  1  0.97348337  0.81749949  0.06405529  1
  Ti  Ti162  1  0.06749949  0.27651663  0.81405529  1
  Ti  Ti163  1  0.43250051  0.72348337  0.31405529  1
  Ti  Ti164  1  0.97348337  0.18250051  0.93594471  1
  Ti  Ti165  1  0.52651663  0.81749949  0.43594471  1
  Ti  Ti166  1  0.43250051  0.27651663  0.68594471  1
  Ti  Ti167  1  0.06749949  0.72348337  0.18594471  1
  Ti  Ti168  1  0.47348337  0.81749949  0.43594471  1
  Ti  Ti169  1  0.02651663  0.18250051  0.93594471  1
  Ti  Ti170  1  0.93250051  0.72348337  0.18594471  1
  Ti  Ti171  1  0.56749949  0.27651663  0.68594471  1
  Ti  Ti172  1  0.02651663  0.81749949  0.06405529  1
  Ti  Ti173  1  0.47348337  0.18250051  0.56405529  1
  Ti  Ti174  1  0.56749949  0.72348337  0.31405529  1
  Ti  Ti175  1  0.93250051  0.27651663  0.81405529  1
  Ti  Ti176  1  0.02651663  0.68250051  0.06405529  1
  Ti  Ti177  1  0.47348337  0.31749949  0.56405529  1
  Ti  Ti178  1  0.56749949  0.77651663  0.31405529  1
  Ti  Ti179  1  0.93250051  0.22348337  0.81405529  1
  Ti  Ti180  1  0.47348337  0.68250051  0.43594471  1
  Ti  Ti181  1  0.02651663  0.31749949  0.93594471  1
  Ti  Ti182  1  0.93250051  0.77651663  0.18594471  1
  Ti  Ti183  1  0.56749949  0.22348337  0.68594471  1
  Ti  Ti184  1  0.97348337  0.31749949  0.93594471  1
  Ti  Ti185  1  0.52651663  0.68250051  0.43594471  1
  Ti  Ti186  1  0.43250051  0.22348337  0.68594471  1
  Ti  Ti187  1  0.06749949  0.77651663  0.18594471  1
  Ti  Ti188  1  0.52651663  0.31749949  0.56405529  1
  Ti  Ti189  1  0.97348337  0.68250051  0.06405529  1
  Ti  Ti190  1  0.06749949  0.22348337  0.81405529  1
  Ti  Ti191  1  0.43250051  0.77651663  0.31405529  1
