# generated using pymatgen
data_Li4TeF2
_symmetry_space_group_name_H-M   'P 1'
_cell_length_a   12.52877789
_cell_length_b   12.52877789
_cell_length_c   12.52877789
_cell_angle_alpha   90.00000000
_cell_angle_beta   90.00000000
_cell_angle_gamma   90.00000000
_symmetry_Int_Tables_number   1
_chemical_formula_structural   Li4TeF2
_chemical_formula_sum   'Li96 Te24 F48'
_cell_volume   1966.64571448
_cell_formula_units_Z   24
loop_
 _symmetry_equiv_pos_site_id
 _symmetry_equiv_pos_as_xyz
  1  'x, y, z'
loop_
 _atom_site_type_symbol
 _atom_site_label
 _atom_site_symmetry_multiplicity
 _atom_site_fract_x
 _atom_site_fract_y
 _atom_site_fract_z
 _atom_site_occupancy
  F  F0  1  0.85652347  0.85652347  0.85652347  1
  F  F1  1  0.64347653  0.14347653  0.35652347  1
  F  F2  1  0.14347653  0.35652347  0.64347653  1
  F  F3  1  0.35652347  0.64347653  0.14347653  1
  F  F4  1  0.60652347  0.10652347  0.39347653  1
  F  F5  1  0.89347653  0.89347653  0.89347653  1
  F  F6  1  0.10652347  0.39347653  0.60652347  1
  F  F7  1  0.39347653  0.60652347  0.10652347  1
  F  F8  1  0.35652347  0.35652347  0.35652347  1
  F  F9  1  0.14347653  0.64347653  0.85652347  1
  F  F10  1  0.64347653  0.85652347  0.14347653  1
  F  F11  1  0.85652347  0.14347653  0.64347653  1
  F  F12  1  0.10652347  0.60652347  0.89347653  1
  F  F13  1  0.39347653  0.39347653  0.39347653  1
  F  F14  1  0.60652347  0.89347653  0.10652347  1
  F  F15  1  0.89347653  0.10652347  0.60652347  1
  F  F16  1  0.12500000  0.12500000  0.12500000  1
  F  F17  1  0.37500000  0.87500000  0.62500000  1
  F  F18  1  0.87500000  0.62500000  0.37500000  1
  F  F19  1  0.62500000  0.37500000  0.87500000  1
  F  F20  1  0.62500000  0.62500000  0.62500000  1
  F  F21  1  0.87500000  0.37500000  0.12500000  1
  F  F22  1  0.37500000  0.12500000  0.87500000  1
  F  F23  1  0.12500000  0.87500000  0.37500000  1
  F  F24  1  0.12500000  0.52845660  0.77845660  1
  F  F25  1  0.37500000  0.47154340  0.27845660  1
  F  F26  1  0.87500000  0.02845660  0.72154340  1
  F  F27  1  0.62500000  0.97154340  0.22154340  1
  F  F28  1  0.77845660  0.12500000  0.52845660  1
  F  F29  1  0.27845660  0.37500000  0.47154340  1
  F  F30  1  0.72154340  0.87500000  0.02845660  1
  F  F31  1  0.22154340  0.62500000  0.97154340  1
  F  F32  1  0.52845660  0.77845660  0.12500000  1
  F  F33  1  0.47154340  0.27845660  0.37500000  1
  F  F34  1  0.02845660  0.72154340  0.87500000  1
  F  F35  1  0.97154340  0.22154340  0.62500000  1
  F  F36  1  0.62500000  0.02845660  0.27845660  1
  F  F37  1  0.87500000  0.97154340  0.77845660  1
  F  F38  1  0.37500000  0.52845660  0.22154340  1
  F  F39  1  0.12500000  0.47154340  0.72154340  1
  F  F40  1  0.27845660  0.62500000  0.02845660  1
  F  F41  1  0.77845660  0.87500000  0.97154340  1
  F  F42  1  0.22154340  0.37500000  0.52845660  1
  F  F43  1  0.72154340  0.12500000  0.47154340  1
  F  F44  1  0.02845660  0.27845660  0.62500000  1
  F  F45  1  0.97154340  0.77845660  0.87500000  1
  F  F46  1  0.52845660  0.22154340  0.37500000  1
  F  F47  1  0.47154340  0.72154340  0.12500000  1
  Li  Li48  1  0.88559440  0.99630784  0.10142269  1
  Li  Li49  1  -0.38559440  -0.99630784  0.60142269  1
  Li  Li50  1  -0.88559440  1.49630784  0.39857731  1
  Li  Li51  1  1.38559440  -0.49630784  -0.10142269  1
  Li  Li52  1  0.10142269  0.88559440  0.99630784  1
  Li  Li53  1  0.60142269  -0.38559440  -0.99630784  1
  Li  Li54  1  0.39857731  -0.88559440  1.49630784  1
  Li  Li55  1  -0.10142269  1.38559440  -0.49630784  1
  Li  Li56  1  0.99630784  0.10142269  0.88559440  1
  Li  Li57  1  -0.99630784  0.60142269  -0.38559440  1
  Li  Li58  1  1.49630784  0.39857731  -0.88559440  1
  Li  Li59  1  -0.49630784  -0.10142269  1.38559440  1
  Li  Li60  1  1.74630784  1.13559440  0.14857731  1
  Li  Li61  1  -0.24630784  -0.13559440  0.64857731  1
  Li  Li62  1  1.24630784  -0.63559440  0.85142269  1
  Li  Li63  1  -0.74630784  1.63559440  0.35142269  1
  Li  Li64  1  1.63559440  0.35142269  -0.74630784  1
  Li  Li65  1  -0.63559440  0.85142269  1.24630784  1
  Li  Li66  1  -0.13559440  0.64857731  -0.24630784  1
  Li  Li67  1  1.13559440  0.14857731  1.74630784  1
  Li  Li68  1  0.85142269  1.24630784  -0.63559440  1
  Li  Li69  1  0.35142269  -0.74630784  1.63559440  1
  Li  Li70  1  0.14857731  1.74630784  1.13559440  1
  Li  Li71  1  0.64857731  -0.24630784  -0.13559440  1
  Li  Li72  1  1.38559440  1.49630784  0.60142269  1
  Li  Li73  1  0.11440560  -0.49630784  1.10142269  1
  Li  Li74  1  -0.38559440  1.99630784  0.89857731  1
  Li  Li75  1  1.88559440  0.00369216  0.39857731  1
  Li  Li76  1  0.60142269  1.38559440  1.49630784  1
  Li  Li77  1  1.10142269  0.11440560  -0.49630784  1
  Li  Li78  1  0.89857731  -0.38559440  1.99630784  1
  Li  Li79  1  0.39857731  1.88559440  0.00369216  1
  Li  Li80  1  1.49630784  0.60142269  1.38559440  1
  Li  Li81  1  -0.49630784  1.10142269  0.11440560  1
  Li  Li82  1  1.99630784  0.89857731  -0.38559440  1
  Li  Li83  1  0.00369216  0.39857731  1.88559440  1
  Li  Li84  1  2.24630784  1.63559440  0.64857731  1
  Li  Li85  1  0.25369216  0.36440560  1.14857731  1
  Li  Li86  1  1.74630784  -0.13559440  1.35142269  1
  Li  Li87  1  -0.24630784  2.13559440  0.85142269  1
  Li  Li88  1  2.13559440  0.85142269  -0.24630784  1
  Li  Li89  1  -0.13559440  1.35142269  1.74630784  1
  Li  Li90  1  0.36440560  1.14857731  0.25369216  1
  Li  Li91  1  1.63559440  0.64857731  2.24630784  1
  Li  Li92  1  1.35142269  1.74630784  -0.13559440  1
  Li  Li93  1  0.85142269  -0.24630784  2.13559440  1
  Li  Li94  1  0.64857731  2.24630784  1.63559440  1
  Li  Li95  1  1.14857731  0.25369216  0.36440560  1
  Li  Li96  1  0.47240478  0.00057057  0.08697455  1
  Li  Li97  1  0.02759522  0.99942943  0.58697455  1
  Li  Li98  1  0.52759522  0.50057057  0.41302545  1
  Li  Li99  1  0.97240478  0.49942943  0.91302545  1
  Li  Li100  1  0.08697455  0.47240478  0.00057057  1
  Li  Li101  1  0.58697455  0.02759522  0.99942943  1
  Li  Li102  1  0.41302545  0.52759522  0.50057057  1
  Li  Li103  1  0.91302545  0.97240478  0.49942943  1
  Li  Li104  1  0.00057057  0.08697455  0.47240478  1
  Li  Li105  1  0.99942943  0.58697455  0.02759522  1
  Li  Li106  1  0.50057057  0.41302545  0.52759522  1
  Li  Li107  1  0.49942943  0.91302545  0.97240478  1
  Li  Li108  1  0.75057057  0.72240478  0.16302545  1
  Li  Li109  1  0.74942943  0.27759522  0.66302545  1
  Li  Li110  1  0.25057057  0.77759522  0.83697455  1
  Li  Li111  1  0.24942943  0.22240478  0.33697455  1
  Li  Li112  1  0.22240478  0.33697455  0.24942943  1
  Li  Li113  1  0.77759522  0.83697455  0.25057057  1
  Li  Li114  1  0.27759522  0.66302545  0.74942943  1
  Li  Li115  1  0.72240478  0.16302545  0.75057057  1
  Li  Li116  1  0.83697455  0.25057057  0.77759522  1
  Li  Li117  1  0.33697455  0.24942943  0.22240478  1
  Li  Li118  1  0.16302545  0.75057057  0.72240478  1
  Li  Li119  1  0.66302545  0.74942943  0.27759522  1
  Li  Li120  1  0.97240478  0.50057057  0.58697455  1
  Li  Li121  1  0.52759522  0.49942943  0.08697455  1
  Li  Li122  1  0.02759522  0.00057057  0.91302545  1
  Li  Li123  1  0.47240478  0.99942943  0.41302545  1
  Li  Li124  1  0.58697455  0.97240478  0.50057057  1
  Li  Li125  1  0.08697455  0.52759522  0.49942943  1
  Li  Li126  1  0.91302545  0.02759522  0.00057057  1
  Li  Li127  1  0.41302545  0.47240478  0.99942943  1
  Li  Li128  1  0.50057057  0.58697455  0.97240478  1
  Li  Li129  1  0.49942943  0.08697455  0.52759522  1
  Li  Li130  1  0.00057057  0.91302545  0.02759522  1
  Li  Li131  1  0.99942943  0.41302545  0.47240478  1
  Li  Li132  1  0.25057057  0.22240478  0.66302545  1
  Li  Li133  1  0.24942943  0.77759522  0.16302545  1
  Li  Li134  1  0.75057057  0.27759522  0.33697455  1
  Li  Li135  1  0.74942943  0.72240478  0.83697455  1
  Li  Li136  1  0.72240478  0.83697455  0.74942943  1
  Li  Li137  1  0.27759522  0.33697455  0.75057057  1
  Li  Li138  1  0.77759522  0.16302545  0.24942943  1
  Li  Li139  1  0.22240478  0.66302545  0.25057057  1
  Li  Li140  1  0.33697455  0.75057057  0.27759522  1
  Li  Li141  1  0.83697455  0.74942943  0.72240478  1
  Li  Li142  1  0.66302545  0.25057057  0.22240478  1
  Li  Li143  1  0.16302545  0.24942943  0.77759522  1
  Te  Te144  1  0.12500000  0.31427096  0.56427096  1
  Te  Te145  1  0.37500000  0.68572904  0.06427096  1
  Te  Te146  1  0.87500000  0.81427096  0.93572904  1
  Te  Te147  1  0.62500000  0.18572904  0.43572904  1
  Te  Te148  1  0.56427096  0.12500000  0.31427096  1
  Te  Te149  1  0.06427096  0.37500000  0.68572904  1
  Te  Te150  1  0.93572904  0.87500000  0.81427096  1
  Te  Te151  1  0.43572904  0.62500000  0.18572904  1
  Te  Te152  1  0.31427096  0.56427096  0.12500000  1
  Te  Te153  1  0.68572904  0.06427096  0.37500000  1
  Te  Te154  1  0.81427096  0.93572904  0.87500000  1
  Te  Te155  1  0.18572904  0.43572904  0.62500000  1
  Te  Te156  1  0.62500000  0.81427096  0.06427096  1
  Te  Te157  1  0.87500000  0.18572904  0.56427096  1
  Te  Te158  1  0.37500000  0.31427096  0.43572904  1
  Te  Te159  1  0.12500000  0.68572904  0.93572904  1
  Te  Te160  1  0.06427096  0.62500000  0.81427096  1
  Te  Te161  1  0.56427096  0.87500000  0.18572904  1
  Te  Te162  1  0.43572904  0.37500000  0.31427096  1
  Te  Te163  1  0.93572904  0.12500000  0.68572904  1
  Te  Te164  1  0.81427096  0.06427096  0.62500000  1
  Te  Te165  1  0.18572904  0.56427096  0.87500000  1
  Te  Te166  1  0.31427096  0.43572904  0.37500000  1
  Te  Te167  1  0.68572904  0.93572904  0.12500000  1
