# generated using pymatgen
data_K4Li3Sb2S6Cl
_symmetry_space_group_name_H-M   'P 1'
_cell_length_a   7.42981544
_cell_length_b   7.42981544
_cell_length_c   20.44549690
_cell_angle_alpha   90.00000000
_cell_angle_beta   90.00000000
_cell_angle_gamma   120.00000000
_symmetry_Int_Tables_number   1
_chemical_formula_structural   K4Li3Sb2S6Cl
_chemical_formula_sum   'K8 Li6 Sb4 S12 Cl2'
_cell_volume   977.42704958
_cell_formula_units_Z   2
loop_
 _symmetry_equiv_pos_site_id
 _symmetry_equiv_pos_as_xyz
  1  'x, y, z'
loop_
 _atom_site_type_symbol
 _atom_site_label
 _atom_site_symmetry_multiplicity
 _atom_site_fract_x
 _atom_site_fract_y
 _atom_site_fract_z
 _atom_site_occupancy
  Cl  Cl0  1  0.00000000  0.00000000  0.00000000  1
  Cl  Cl1  1  0.00000000  0.00000000  0.50000000  1
  K  K2  1  0.50000000  0.00000000  0.00000000  1
  K  K3  1  0.00000000  0.50000000  0.00000000  1
  K  K4  1  0.50000000  0.50000000  0.00000000  1
  K  K5  1  0.50000000  0.00000000  0.50000000  1
  K  K6  1  0.00000000  0.50000000  0.50000000  1
  K  K7  1  0.50000000  0.50000000  0.50000000  1
  K  K8  1  0.33333333  0.66666667  0.25000000  1
  K  K9  1  0.66666667  0.33333333  0.75000000  1
  Li  Li10  1  0.86829579  0.25411324  0.25000000  1
  Li  Li11  1  0.74588676  0.61418256  0.25000000  1
  Li  Li12  1  0.38581744  0.13170421  0.25000000  1
  Li  Li13  1  0.13170421  0.74588676  0.75000000  1
  Li  Li14  1  0.25411324  0.38581744  0.75000000  1
  Li  Li15  1  0.61418256  0.86829579  0.75000000  1
  S  S16  1  0.49100456  0.32884386  0.58851604  1
  S  S17  1  -0.32884386  0.16216070  0.58851604  1
  S  S18  1  -0.16216070  -0.49100456  0.58851604  1
  S  S19  1  -0.49100456  -0.32884386  1.08851604  1
  S  S20  1  0.32884386  -0.16216070  1.08851604  1
  S  S21  1  0.16216070  0.49100456  1.08851604  1
  S  S22  1  -0.49100456  -0.32884386  -0.58851604  1
  S  S23  1  0.32884386  -0.16216070  -0.58851604  1
  S  S24  1  0.16216070  0.49100456  -0.58851604  1
  S  S25  1  0.49100456  0.32884386  -0.08851604  1
  S  S26  1  -0.32884386  0.16216070  -0.08851604  1
  S  S27  1  -0.16216070  -0.49100456  -0.08851604  1
  Sb  Sb28  1  0.66666667  0.33333333  0.25000000  1
  Sb  Sb29  1  0.33333333  0.66666667  0.75000000  1
  Sb  Sb30  1  0.00000000  0.00000000  0.25000000  1
  Sb  Sb31  1  0.00000000  0.00000000  0.75000000  1
