# generated using pymatgen
data_LiSn2Te4F
_symmetry_space_group_name_H-M   'P 1'
_cell_length_a   4.65944002
_cell_length_b   4.65944002
_cell_length_c   30.09989486
_cell_angle_alpha   90.00000000
_cell_angle_beta   90.00000000
_cell_angle_gamma   120.00000000
_symmetry_Int_Tables_number   1
_chemical_formula_structural   LiSn2Te4F
_chemical_formula_sum   'Li3 Sn6 Te12 F3'
_cell_volume   565.93045020
_cell_formula_units_Z   3
loop_
 _symmetry_equiv_pos_site_id
 _symmetry_equiv_pos_as_xyz
  1  'x, y, z'
loop_
 _atom_site_type_symbol
 _atom_site_label
 _atom_site_symmetry_multiplicity
 _atom_site_fract_x
 _atom_site_fract_y
 _atom_site_fract_z
 _atom_site_occupancy
  F  F0  1  0.47933210  0.00000000  0.00000000  1
  F  F1  1  0.00000000  0.47933210  0.00000000  1
  F  F2  1  0.52066790  0.52066790  0.00000000  1
  Li  Li3  1  0.00000000  0.00000000  0.00000000  1
  Li  Li4  1  0.33333333  0.66666667  0.50000000  1
  Li  Li5  1  0.66666667  0.33333333  0.50000000  1
  Sn  Sn6  1  0.31921474  0.00000000  0.50000000  1
  Sn  Sn7  1  0.00000000  0.31921474  0.50000000  1
  Sn  Sn8  1  0.68078526  0.68078526  0.50000000  1
  Sn  Sn9  1  0.71509141  0.00000000  0.50000000  1
  Sn  Sn10  1  0.00000000  0.71509141  0.50000000  1
  Sn  Sn11  1  0.28490859  0.28490859  0.50000000  1
  Te  Te12  1  0.33333333  0.66666667  0.03543614  1
  Te  Te13  1  0.33333333  0.66666667  0.96456386  1
  Te  Te14  1  0.66666667  0.33333333  0.96456386  1
  Te  Te15  1  0.66666667  0.33333333  0.03543614  1
  Te  Te16  1  0.39590585  0.17224827  -0.00000000  1
  Te  Te17  1  -0.17224827  0.22365758  -0.00000000  1
  Te  Te18  1  -0.22365758  -0.39590585  0.00000000  1
  Te  Te19  1  0.17224827  0.39590585  -0.00000000  1
  Te  Te20  1  0.22365758  -0.17224827  0.00000000  1
  Te  Te21  1  -0.39590585  -0.22365758  0.00000000  1
  Te  Te22  1  0.00000000  0.00000000  0.90555919  1
  Te  Te23  1  0.00000000  0.00000000  0.09444081  1
