# generated using pymatgen
data_Li2YMo2(BrO)4
_symmetry_space_group_name_H-M   'P 1'
_cell_length_a   3.61503293
_cell_length_b   3.42701494
_cell_length_c   3.19408012
_cell_angle_alpha   90.90446545
_cell_angle_beta   86.53693784
_cell_angle_gamma   94.00831430
_symmetry_Int_Tables_number   1
_chemical_formula_structural   Li2YMo2(BrO)4
_chemical_formula_sum   'Li2 Y1 Mo2 Br4 O4'
_cell_volume   39.39919847
_cell_formula_units_Z   1
loop_
 _symmetry_equiv_pos_site_id
 _symmetry_equiv_pos_as_xyz
  1  'x, y, z'
loop_
 _atom_site_type_symbol
 _atom_site_label
 _atom_site_symmetry_multiplicity
 _atom_site_fract_x
 _atom_site_fract_y
 _atom_site_fract_z
 _atom_site_occupancy
  Li  Li0  1  0.00000000  0.00000000  0.00000000  1
  Li  Li1  1  0.50000000  0.50000000  0.50000000  1
  Y  Y2  1  0.50000000  0.50000000  0.00000000  1
  Mo  Mo3  1  0.50000000  0.00000000  0.50000000  1
  Mo  Mo4  1  0.00000000  0.50000000  0.50000000  1
  O  O5  1  0.84700068  0.12017418  0.08423042  1
  O  O6  1  0.06427645  0.44652310  0.24888852  1
  O  O7  1  0.98793847  0.42198561  0.30694166  1
  O  O8  1  0.41687066  0.07178443  0.50401233  1
  Br  Br9  1  0.74510922  0.68793962  0.58232239  1
  Br  Br10  1  0.74023117  0.67335465  0.50846750  1
  Br  Br11  1  0.13868552  0.01260278  0.84058459  1
  Br  Br12  1  0.83172892  0.28576180  0.15343761  1
