# generated using pymatgen
data_LiI
_symmetry_space_group_name_H-M   'P 1'
_cell_length_a   3.27326463
_cell_length_b   10.34981134
_cell_length_c   10.63353490
_cell_angle_alpha   90.00000000
_cell_angle_beta   90.00000000
_cell_angle_gamma   90.00000000
_symmetry_Int_Tables_number   1
_chemical_formula_structural   LiI
_chemical_formula_sum   'Li12 I12'
_cell_volume   360.23940136
_cell_formula_units_Z   12
loop_
 _symmetry_equiv_pos_site_id
 _symmetry_equiv_pos_as_xyz
  1  'x, y, z'
loop_
 _atom_site_type_symbol
 _atom_site_label
 _atom_site_symmetry_multiplicity
 _atom_site_fract_x
 _atom_site_fract_y
 _atom_site_fract_z
 _atom_site_occupancy
  I  I0  1  0.00000000  0.00000000  0.00000000  1
  I  I1  1  0.50000000  0.00000000  0.50000000  1
  I  I2  1  0.00000000  0.50000000  0.00000000  1
  I  I3  1  0.50000000  0.50000000  0.50000000  1
  I  I4  1  0.27441556  0.25000000  0.37671200  1
  I  I5  1  0.22558444  0.75000000  0.87671200  1
  I  I6  1  0.72558444  0.75000000  0.62328800  1
  I  I7  1  0.77441556  0.25000000  0.12328800  1
  I  I8  1  0.34667314  0.25000000  0.93307810  1
  I  I9  1  0.15332686  0.75000000  0.43307810  1
  I  I10  1  0.65332686  0.75000000  0.06692190  1
  I  I11  1  0.84667314  0.25000000  0.56692190  1
  Li  Li12  1  0.50656030  0.08101120  0.77078365  1
  Li  Li13  1  -0.00656030  -0.08101120  1.27078365  1
  Li  Li14  1  -0.50656030  0.58101120  -0.77078365  1
  Li  Li15  1  1.00656030  0.41898880  -0.27078365  1
  Li  Li16  1  -0.50656030  -0.08101120  -0.77078365  1
  Li  Li17  1  1.00656030  0.08101120  -0.27078365  1
  Li  Li18  1  0.50656030  0.41898880  0.77078365  1
  Li  Li19  1  -0.00656030  0.58101120  1.27078365  1
  Li  Li20  1  0.00000000  0.00000000  0.50000000  1
  Li  Li21  1  0.50000000  0.00000000  0.00000000  1
  Li  Li22  1  0.00000000  0.50000000  0.50000000  1
  Li  Li23  1  0.50000000  0.50000000  0.00000000  1
