# generated using pymatgen
data_LiCl
_symmetry_space_group_name_H-M   'P 1'
_cell_length_a   5.73268113
_cell_length_b   5.73268113
_cell_length_c   4.06655045
_cell_angle_alpha   90.00000000
_cell_angle_beta   90.00000000
_cell_angle_gamma   120.00000000
_symmetry_Int_Tables_number   1
_chemical_formula_structural   LiCl
_chemical_formula_sum   'Li4 Cl4'
_cell_volume   115.73703885
_cell_formula_units_Z   4
loop_
 _symmetry_equiv_pos_site_id
 _symmetry_equiv_pos_as_xyz
  1  'x, y, z'
loop_
 _atom_site_type_symbol
 _atom_site_label
 _atom_site_symmetry_multiplicity
 _atom_site_fract_x
 _atom_site_fract_y
 _atom_site_fract_z
 _atom_site_occupancy
  Cl  Cl0  1  0.28897258  0.00000000  0.00000000  1
  Cl  Cl1  1  0.00000000  0.28897258  0.00000000  1
  Cl  Cl2  1  0.71102742  0.71102742  0.00000000  1
  Cl  Cl3  1  0.00000000  0.00000000  0.50000000  1
  Li  Li4  1  0.33333333  0.66666667  0.75046949  1
  Li  Li5  1  0.33333333  0.66666667  -0.75046949  1
  Li  Li6  1  0.66666667  0.33333333  -0.75046949  1
  Li  Li7  1  0.66666667  0.33333333  0.75046949  1
