# generated using pymatgen
data_Li2SiSb2(TeI2)3
_symmetry_space_group_name_H-M   'P 1'
_cell_length_a   7.32931107
_cell_length_b   13.32166463
_cell_length_c   13.24709329
_cell_angle_alpha   90.00000000
_cell_angle_beta   90.00000000
_cell_angle_gamma   90.00000000
_symmetry_Int_Tables_number   1
_chemical_formula_structural   Li2SiSb2(TeI2)3
_chemical_formula_sum   'Li8 Si4 Sb8 Te12 I24'
_cell_volume   1293.42796080
_cell_formula_units_Z   4
loop_
 _symmetry_equiv_pos_site_id
 _symmetry_equiv_pos_as_xyz
  1  'x, y, z'
loop_
 _atom_site_type_symbol
 _atom_site_label
 _atom_site_symmetry_multiplicity
 _atom_site_fract_x
 _atom_site_fract_y
 _atom_site_fract_z
 _atom_site_occupancy
  I  I0  1  0.65472229  0.37948692  0.56508853  1
  I  I1  1  0.34527771  0.62051308  0.56508853  1
  I  I2  1  0.84527771  0.87948692  0.93491147  1
  I  I3  1  0.15472229  0.12051308  0.93491147  1
  I  I4  1  0.34527771  0.62051308  0.43491147  1
  I  I5  1  0.65472229  0.37948692  0.43491147  1
  I  I6  1  0.15472229  0.12051308  0.06508853  1
  I  I7  1  0.84527771  0.87948692  0.06508853  1
  I  I8  1  0.21985679  0.85142225  0.00000000  1
  I  I9  1  0.78014321  0.14857775  -0.00000000  1
  I  I10  1  0.28014321  0.35142225  0.50000000  1
  I  I11  1  0.71985679  0.64857775  0.50000000  1
  I  I12  1  0.68553235  0.03257566  -0.00000000  1
  I  I13  1  0.31446765  0.96742434  0.00000000  1
  I  I14  1  0.81446765  0.53257566  0.50000000  1
  I  I15  1  0.18553235  0.46742434  0.50000000  1
  I  I16  1  0.27924181  0.49783640  0.67728157  1
  I  I17  1  0.72075819  0.50216360  0.67728157  1
  I  I18  1  0.22075819  0.99783640  0.82271843  1
  I  I19  1  0.77924181  0.00216360  0.82271843  1
  I  I20  1  0.72075819  0.50216360  0.32271843  1
  I  I21  1  0.27924181  0.49783640  0.32271843  1
  I  I22  1  0.77924181  0.00216360  0.17728157  1
  I  I23  1  0.22075819  0.99783640  0.17728157  1
  Li  Li24  1  0.92764063  0.87373336  0.18537349  1
  Li  Li25  1  -0.92764063  -0.87373336  0.18537349  1
  Li  Li26  1  -0.42764063  1.37373336  0.31462651  1
  Li  Li27  1  1.42764063  -0.37373336  0.31462651  1
  Li  Li28  1  -0.92764063  -0.87373336  -0.18537349  1
  Li  Li29  1  0.92764063  0.87373336  -0.18537349  1
  Li  Li30  1  1.42764063  -0.37373336  0.68537349  1
  Li  Li31  1  -0.42764063  1.37373336  0.68537349  1
  Sb  Sb32  1  0.56648053  0.80943789  0.34192081  1
  Sb  Sb33  1  0.43351947  0.19056211  0.34192081  1
  Sb  Sb34  1  0.93351947  0.30943789  0.15807919  1
  Sb  Sb35  1  0.06648053  0.69056211  0.15807919  1
  Sb  Sb36  1  0.43351947  0.19056211  0.65807919  1
  Sb  Sb37  1  0.56648053  0.80943789  0.65807919  1
  Sb  Sb38  1  0.06648053  0.69056211  0.84192081  1
  Sb  Sb39  1  0.93351947  0.30943789  0.84192081  1
  Si  Si40  1  0.00000000  0.00000000  0.00000000  1
  Si  Si41  1  0.50000000  0.50000000  0.50000000  1
  Si  Si42  1  0.00000000  0.00000000  0.50000000  1
  Si  Si43  1  0.50000000  0.50000000  -0.00000000  1
  Te  Te44  1  0.69743767  0.09982500  0.18572164  1
  Te  Te45  1  0.30256233  0.90017500  0.18572164  1
  Te  Te46  1  0.80256233  0.59982500  0.31427836  1
  Te  Te47  1  0.19743767  0.40017500  0.31427836  1
  Te  Te48  1  0.30256233  0.90017500  0.81427836  1
  Te  Te49  1  0.69743767  0.09982500  0.81427836  1
  Te  Te50  1  0.19743767  0.40017500  0.68572164  1
  Te  Te51  1  0.80256233  0.59982500  0.68572164  1
  Te  Te52  1  0.00000000  0.50000000  0.39888398  1
  Te  Te53  1  0.50000000  0.00000000  0.10111602  1
  Te  Te54  1  0.00000000  0.50000000  0.60111602  1
  Te  Te55  1  0.50000000  0.00000000  0.89888398  1
