# generated using pymatgen
data_Li3Sb3Te(I3Br2)2
_symmetry_space_group_name_H-M   'P 1'
_cell_length_a   20.52229790
_cell_length_b   20.52229790
_cell_length_c   20.52229790
_cell_angle_alpha   90.00000000
_cell_angle_beta   90.00000000
_cell_angle_gamma   90.00000000
_symmetry_Int_Tables_number   1
_chemical_formula_structural   Li3Sb3Te(I3Br2)2
_chemical_formula_sum   'Li72 Sb72 Te24 I144 Br96'
_cell_volume   8643.26766416
_cell_formula_units_Z   24
loop_
 _symmetry_equiv_pos_site_id
 _symmetry_equiv_pos_as_xyz
  1  'x, y, z'
loop_
 _atom_site_type_symbol
 _atom_site_label
 _atom_site_symmetry_multiplicity
 _atom_site_fract_x
 _atom_site_fract_y
 _atom_site_fract_z
 _atom_site_occupancy
  Br  Br0  1  0.22686946  0.58437525  0.27569163  1
  Br  Br1  1  0.27313054  0.41562475  0.77569163  1
  Br  Br2  1  0.77313054  0.08437525  0.22430837  1
  Br  Br3  1  0.72686946  0.91562475  0.72430837  1
  Br  Br4  1  0.27569163  0.22686946  0.58437525  1
  Br  Br5  1  0.77569163  0.27313054  0.41562475  1
  Br  Br6  1  0.22430837  0.77313054  0.08437525  1
  Br  Br7  1  0.72430837  0.72686946  0.91562475  1
  Br  Br8  1  0.58437525  0.27569163  0.22686946  1
  Br  Br9  1  0.41562475  0.77569163  0.27313054  1
  Br  Br10  1  0.08437525  0.22430837  0.77313054  1
  Br  Br11  1  0.91562475  0.72430837  0.72686946  1
  Br  Br12  1  0.33437525  0.47686946  0.97430837  1
  Br  Br13  1  0.16562475  0.52313054  0.47430837  1
  Br  Br14  1  0.83437525  0.02313054  0.02569163  1
  Br  Br15  1  0.66562475  0.97686946  0.52569163  1
  Br  Br16  1  0.97686946  0.52569163  0.66562475  1
  Br  Br17  1  0.02313054  0.02569163  0.83437525  1
  Br  Br18  1  0.52313054  0.47430837  0.16562475  1
  Br  Br19  1  0.47686946  0.97430837  0.33437525  1
  Br  Br20  1  0.02569163  0.83437525  0.02313054  1
  Br  Br21  1  0.52569163  0.66562475  0.97686946  1
  Br  Br22  1  0.97430837  0.33437525  0.47686946  1
  Br  Br23  1  0.47430837  0.16562475  0.52313054  1
  Br  Br24  1  0.72686946  0.08437525  0.77569163  1
  Br  Br25  1  0.77313054  0.91562475  0.27569163  1
  Br  Br26  1  0.27313054  0.58437525  0.72430837  1
  Br  Br27  1  0.22686946  0.41562475  0.22430837  1
  Br  Br28  1  0.77569163  0.72686946  0.08437525  1
  Br  Br29  1  0.27569163  0.77313054  0.91562475  1
  Br  Br30  1  0.72430837  0.27313054  0.58437525  1
  Br  Br31  1  0.22430837  0.22686946  0.41562475  1
  Br  Br32  1  0.08437525  0.77569163  0.72686946  1
  Br  Br33  1  0.91562475  0.27569163  0.77313054  1
  Br  Br34  1  0.58437525  0.72430837  0.27313054  1
  Br  Br35  1  0.41562475  0.22430837  0.22686946  1
  Br  Br36  1  0.83437525  0.97686946  0.47430837  1
  Br  Br37  1  0.66562475  0.02313054  0.97430837  1
  Br  Br38  1  0.33437525  0.52313054  0.52569163  1
  Br  Br39  1  0.16562475  0.47686946  0.02569163  1
  Br  Br40  1  0.47686946  0.02569163  0.16562475  1
  Br  Br41  1  0.52313054  0.52569163  0.33437525  1
  Br  Br42  1  0.02313054  0.97430837  0.66562475  1
  Br  Br43  1  0.97686946  0.47430837  0.83437525  1
  Br  Br44  1  0.52569163  0.33437525  0.52313054  1
  Br  Br45  1  0.02569163  0.16562475  0.47686946  1
  Br  Br46  1  0.47430837  0.83437525  0.97686946  1
  Br  Br47  1  0.97430837  0.66562475  0.02313054  1
  Br  Br48  1  0.76076239  0.25319900  0.18992913  1
  Br  Br49  1  0.73923761  0.74680100  0.68992913  1
  Br  Br50  1  0.23923761  0.75319900  0.31007087  1
  Br  Br51  1  0.26076239  0.24680100  0.81007087  1
  Br  Br52  1  0.18992913  0.76076239  0.25319900  1
  Br  Br53  1  0.68992913  0.73923761  0.74680100  1
  Br  Br54  1  0.31007087  0.23923761  0.75319900  1
  Br  Br55  1  0.81007087  0.26076239  0.24680100  1
  Br  Br56  1  0.25319900  0.18992913  0.76076239  1
  Br  Br57  1  0.74680100  0.68992913  0.73923761  1
  Br  Br58  1  0.75319900  0.31007087  0.23923761  1
  Br  Br59  1  0.24680100  0.81007087  0.26076239  1
  Br  Br60  1  0.00319900  0.01076239  0.06007087  1
  Br  Br61  1  0.49680100  0.98923761  0.56007087  1
  Br  Br62  1  0.50319900  0.48923761  0.93992913  1
  Br  Br63  1  0.99680100  0.51076239  0.43992913  1
  Br  Br64  1  0.51076239  0.43992913  0.99680100  1
  Br  Br65  1  0.48923761  0.93992913  0.50319900  1
  Br  Br66  1  0.98923761  0.56007087  0.49680100  1
  Br  Br67  1  0.01076239  0.06007087  0.00319900  1
  Br  Br68  1  0.93992913  0.50319900  0.48923761  1
  Br  Br69  1  0.43992913  0.99680100  0.51076239  1
  Br  Br70  1  0.06007087  0.00319900  0.01076239  1
  Br  Br71  1  0.56007087  0.49680100  0.98923761  1
  Br  Br72  1  0.26076239  0.75319900  0.68992913  1
  Br  Br73  1  0.23923761  0.24680100  0.18992913  1
  Br  Br74  1  0.73923761  0.25319900  0.81007087  1
  Br  Br75  1  0.76076239  0.74680100  0.31007087  1
  Br  Br76  1  0.68992913  0.26076239  0.75319900  1
  Br  Br77  1  0.18992913  0.23923761  0.24680100  1
  Br  Br78  1  0.81007087  0.73923761  0.25319900  1
  Br  Br79  1  0.31007087  0.76076239  0.74680100  1
  Br  Br80  1  0.75319900  0.68992913  0.26076239  1
  Br  Br81  1  0.24680100  0.18992913  0.23923761  1
  Br  Br82  1  0.25319900  0.81007087  0.73923761  1
  Br  Br83  1  0.74680100  0.31007087  0.76076239  1
  Br  Br84  1  0.50319900  0.51076239  0.56007087  1
  Br  Br85  1  0.99680100  0.48923761  0.06007087  1
  Br  Br86  1  0.00319900  0.98923761  0.43992913  1
  Br  Br87  1  0.49680100  0.01076239  0.93992913  1
  Br  Br88  1  0.01076239  0.93992913  0.49680100  1
  Br  Br89  1  0.98923761  0.43992913  0.00319900  1
  Br  Br90  1  0.48923761  0.06007087  0.99680100  1
  Br  Br91  1  0.51076239  0.56007087  0.50319900  1
  Br  Br92  1  0.43992913  0.00319900  0.98923761  1
  Br  Br93  1  0.93992913  0.49680100  0.01076239  1
  Br  Br94  1  0.56007087  0.50319900  0.51076239  1
  Br  Br95  1  0.06007087  0.99680100  0.48923761  1
  I  I96  1  0.08263214  0.95205647  0.34803932  1
  I  I97  1  0.41736786  0.04794353  0.84803932  1
  I  I98  1  0.91736786  0.45205647  0.15196068  1
  I  I99  1  0.58263214  0.54794353  0.65196068  1
  I  I100  1  0.34803932  0.08263214  0.95205647  1
  I  I101  1  0.84803932  0.41736786  0.04794353  1
  I  I102  1  0.15196068  0.91736786  0.45205647  1
  I  I103  1  0.65196068  0.58263214  0.54794353  1
  I  I104  1  0.95205647  0.34803932  0.08263214  1
  I  I105  1  0.04794353  0.84803932  0.41736786  1
  I  I106  1  0.45205647  0.15196068  0.91736786  1
  I  I107  1  0.54794353  0.65196068  0.58263214  1
  I  I108  1  0.70205647  0.33263214  0.90196068  1
  I  I109  1  0.79794353  0.66736786  0.40196068  1
  I  I110  1  0.20205647  0.16736786  0.09803932  1
  I  I111  1  0.29794353  0.83263214  0.59803932  1
  I  I112  1  0.83263214  0.59803932  0.29794353  1
  I  I113  1  0.16736786  0.09803932  0.20205647  1
  I  I114  1  0.66736786  0.40196068  0.79794353  1
  I  I115  1  0.33263214  0.90196068  0.70205647  1
  I  I116  1  0.09803932  0.20205647  0.16736786  1
  I  I117  1  0.59803932  0.29794353  0.83263214  1
  I  I118  1  0.90196068  0.70205647  0.33263214  1
  I  I119  1  0.40196068  0.79794353  0.66736786  1
  I  I120  1  0.58263214  0.45205647  0.84803932  1
  I  I121  1  0.91736786  0.54794353  0.34803932  1
  I  I122  1  0.41736786  0.95205647  0.65196068  1
  I  I123  1  0.08263214  0.04794353  0.15196068  1
  I  I124  1  0.84803932  0.58263214  0.45205647  1
  I  I125  1  0.34803932  0.91736786  0.54794353  1
  I  I126  1  0.65196068  0.41736786  0.95205647  1
  I  I127  1  0.15196068  0.08263214  0.04794353  1
  I  I128  1  0.45205647  0.84803932  0.58263214  1
  I  I129  1  0.54794353  0.34803932  0.91736786  1
  I  I130  1  0.95205647  0.65196068  0.41736786  1
  I  I131  1  0.04794353  0.15196068  0.08263214  1
  I  I132  1  0.20205647  0.83263214  0.40196068  1
  I  I133  1  0.29794353  0.16736786  0.90196068  1
  I  I134  1  0.70205647  0.66736786  0.59803932  1
  I  I135  1  0.79794353  0.33263214  0.09803932  1
  I  I136  1  0.33263214  0.09803932  0.79794353  1
  I  I137  1  0.66736786  0.59803932  0.70205647  1
  I  I138  1  0.16736786  0.90196068  0.29794353  1
  I  I139  1  0.83263214  0.40196068  0.20205647  1
  I  I140  1  0.59803932  0.70205647  0.66736786  1
  I  I141  1  0.09803932  0.79794353  0.33263214  1
  I  I142  1  0.40196068  0.20205647  0.83263214  1
  I  I143  1  0.90196068  0.29794353  0.16736786  1
  I  I144  1  0.85371840  0.80407572  0.08026618  1
  I  I145  1  0.64628160  0.19592428  0.58026618  1
  I  I146  1  0.14628160  0.30407572  0.41973382  1
  I  I147  1  0.35371840  0.69592428  0.91973382  1
  I  I148  1  0.08026618  0.85371840  0.80407572  1
  I  I149  1  0.58026618  0.64628160  0.19592428  1
  I  I150  1  0.41973382  0.14628160  0.30407572  1
  I  I151  1  0.91973382  0.35371840  0.69592428  1
  I  I152  1  0.80407572  0.08026618  0.85371840  1
  I  I153  1  0.19592428  0.58026618  0.64628160  1
  I  I154  1  0.30407572  0.41973382  0.14628160  1
  I  I155  1  0.69592428  0.91973382  0.35371840  1
  I  I156  1  0.55407572  0.10371840  0.16973382  1
  I  I157  1  0.94592428  0.89628160  0.66973382  1
  I  I158  1  0.05407572  0.39628160  0.83026618  1
  I  I159  1  0.44592428  0.60371840  0.33026618  1
  I  I160  1  0.60371840  0.33026618  0.44592428  1
  I  I161  1  0.39628160  0.83026618  0.05407572  1
  I  I162  1  0.89628160  0.66973382  0.94592428  1
  I  I163  1  0.10371840  0.16973382  0.55407572  1
  I  I164  1  0.83026618  0.05407572  0.39628160  1
  I  I165  1  0.33026618  0.44592428  0.60371840  1
  I  I166  1  0.16973382  0.55407572  0.10371840  1
  I  I167  1  0.66973382  0.94592428  0.89628160  1
  I  I168  1  0.35371840  0.30407572  0.58026618  1
  I  I169  1  0.14628160  0.69592428  0.08026618  1
  I  I170  1  0.64628160  0.80407572  0.91973382  1
  I  I171  1  0.85371840  0.19592428  0.41973382  1
  I  I172  1  0.58026618  0.35371840  0.30407572  1
  I  I173  1  0.08026618  0.14628160  0.69592428  1
  I  I174  1  0.91973382  0.64628160  0.80407572  1
  I  I175  1  0.41973382  0.85371840  0.19592428  1
  I  I176  1  0.30407572  0.58026618  0.35371840  1
  I  I177  1  0.69592428  0.08026618  0.14628160  1
  I  I178  1  0.80407572  0.91973382  0.64628160  1
  I  I179  1  0.19592428  0.41973382  0.85371840  1
  I  I180  1  0.05407572  0.60371840  0.66973382  1
  I  I181  1  0.44592428  0.39628160  0.16973382  1
  I  I182  1  0.55407572  0.89628160  0.33026618  1
  I  I183  1  0.94592428  0.10371840  0.83026618  1
  I  I184  1  0.10371840  0.83026618  0.94592428  1
  I  I185  1  0.89628160  0.33026618  0.55407572  1
  I  I186  1  0.39628160  0.16973382  0.44592428  1
  I  I187  1  0.60371840  0.66973382  0.05407572  1
  I  I188  1  0.33026618  0.55407572  0.89628160  1
  I  I189  1  0.83026618  0.94592428  0.10371840  1
  I  I190  1  0.66973382  0.05407572  0.60371840  1
  I  I191  1  0.16973382  0.44592428  0.39628160  1
  I  I192  1  0.80592839  0.90933161  0.79378994  1
  I  I193  1  0.69407161  0.09066839  0.29378994  1
  I  I194  1  0.19407161  0.40933161  0.70621006  1
  I  I195  1  0.30592839  0.59066839  0.20621006  1
  I  I196  1  0.79378994  0.80592839  0.90933161  1
  I  I197  1  0.29378994  0.69407161  0.09066839  1
  I  I198  1  0.70621006  0.19407161  0.40933161  1
  I  I199  1  0.20621006  0.30592839  0.59066839  1
  I  I200  1  0.90933161  0.79378994  0.80592839  1
  I  I201  1  0.09066839  0.29378994  0.69407161  1
  I  I202  1  0.40933161  0.70621006  0.19407161  1
  I  I203  1  0.59066839  0.20621006  0.30592839  1
  I  I204  1  0.65933161  0.05592839  0.45621006  1
  I  I205  1  0.84066839  0.94407161  0.95621006  1
  I  I206  1  0.15933161  0.44407161  0.54378994  1
  I  I207  1  0.34066839  0.55592839  0.04378994  1
  I  I208  1  0.55592839  0.04378994  0.34066839  1
  I  I209  1  0.44407161  0.54378994  0.15933161  1
  I  I210  1  0.94407161  0.95621006  0.84066839  1
  I  I211  1  0.05592839  0.45621006  0.65933161  1
  I  I212  1  0.54378994  0.15933161  0.44407161  1
  I  I213  1  0.04378994  0.34066839  0.55592839  1
  I  I214  1  0.45621006  0.65933161  0.05592839  1
  I  I215  1  0.95621006  0.84066839  0.94407161  1
  I  I216  1  0.30592839  0.40933161  0.29378994  1
  I  I217  1  0.19407161  0.59066839  0.79378994  1
  I  I218  1  0.69407161  0.90933161  0.20621006  1
  I  I219  1  0.80592839  0.09066839  0.70621006  1
  I  I220  1  0.29378994  0.30592839  0.40933161  1
  I  I221  1  0.79378994  0.19407161  0.59066839  1
  I  I222  1  0.20621006  0.69407161  0.90933161  1
  I  I223  1  0.70621006  0.80592839  0.09066839  1
  I  I224  1  0.40933161  0.29378994  0.30592839  1
  I  I225  1  0.59066839  0.79378994  0.19407161  1
  I  I226  1  0.90933161  0.20621006  0.69407161  1
  I  I227  1  0.09066839  0.70621006  0.80592839  1
  I  I228  1  0.15933161  0.55592839  0.95621006  1
  I  I229  1  0.34066839  0.44407161  0.45621006  1
  I  I230  1  0.65933161  0.94407161  0.04378994  1
  I  I231  1  0.84066839  0.05592839  0.54378994  1
  I  I232  1  0.05592839  0.54378994  0.84066839  1
  I  I233  1  0.94407161  0.04378994  0.65933161  1
  I  I234  1  0.44407161  0.45621006  0.34066839  1
  I  I235  1  0.55592839  0.95621006  0.15933161  1
  I  I236  1  0.04378994  0.65933161  0.94407161  1
  I  I237  1  0.54378994  0.84066839  0.05592839  1
  I  I238  1  0.95621006  0.15933161  0.55592839  1
  I  I239  1  0.45621006  0.34066839  0.44407161  1
  Li  Li240  1  0.12500000  0.02575320  0.22424680  1
  Li  Li241  1  0.37500000  0.97424680  0.72424680  1
  Li  Li242  1  0.87500000  0.52575320  0.27575320  1
  Li  Li243  1  0.62500000  0.47424680  0.77575320  1
  Li  Li244  1  0.22424680  0.12500000  0.02575320  1
  Li  Li245  1  0.72424680  0.37500000  0.97424680  1
  Li  Li246  1  0.27575320  0.87500000  0.52575320  1
  Li  Li247  1  0.77575320  0.62500000  0.47424680  1
  Li  Li248  1  0.02575320  0.22424680  0.12500000  1
  Li  Li249  1  0.97424680  0.72424680  0.37500000  1
  Li  Li250  1  0.52575320  0.27575320  0.87500000  1
  Li  Li251  1  0.47424680  0.77575320  0.62500000  1
  Li  Li252  1  0.62500000  0.52575320  0.72424680  1
  Li  Li253  1  0.87500000  0.47424680  0.22424680  1
  Li  Li254  1  0.37500000  0.02575320  0.77575320  1
  Li  Li255  1  0.12500000  0.97424680  0.27575320  1
  Li  Li256  1  0.72424680  0.62500000  0.52575320  1
  Li  Li257  1  0.22424680  0.87500000  0.47424680  1
  Li  Li258  1  0.77575320  0.37500000  0.02575320  1
  Li  Li259  1  0.27575320  0.12500000  0.97424680  1
  Li  Li260  1  0.52575320  0.72424680  0.62500000  1
  Li  Li261  1  0.47424680  0.22424680  0.87500000  1
  Li  Li262  1  0.02575320  0.77575320  0.37500000  1
  Li  Li263  1  0.97424680  0.27575320  0.12500000  1
  Li  Li264  1  0.33392402  0.50975201  0.59161164  1
  Li  Li265  1  0.16607598  -0.50975201  1.09161164  1
  Li  Li266  1  -0.33392402  1.00975201  -0.09161164  1
  Li  Li267  1  0.83392402  -0.00975201  -0.59161164  1
  Li  Li268  1  0.59161164  0.33392402  0.50975201  1
  Li  Li269  1  1.09161164  0.16607598  -0.50975201  1
  Li  Li270  1  -0.09161164  -0.33392402  1.00975201  1
  Li  Li271  1  -0.59161164  0.83392402  -0.00975201  1
  Li  Li272  1  0.50975201  0.59161164  0.33392402  1
  Li  Li273  1  -0.50975201  1.09161164  0.16607598  1
  Li  Li274  1  1.00975201  -0.09161164  -0.33392402  1
  Li  Li275  1  -0.00975201  -0.59161164  0.83392402  1
  Li  Li276  1  1.25975201  0.58392402  -0.34161164  1
  Li  Li277  1  0.24024799  0.41607598  0.15838836  1
  Li  Li278  1  0.75975201  -0.08392402  1.34161164  1
  Li  Li279  1  -0.25975201  1.08392402  0.84161164  1
  Li  Li280  1  1.08392402  0.84161164  -0.25975201  1
  Li  Li281  1  -0.08392402  1.34161164  0.75975201  1
  Li  Li282  1  0.41607598  0.15838836  0.24024799  1
  Li  Li283  1  0.58392402  -0.34161164  1.25975201  1
  Li  Li284  1  1.34161164  0.75975201  -0.08392402  1
  Li  Li285  1  0.84161164  -0.25975201  1.08392402  1
  Li  Li286  1  -0.34161164  1.25975201  0.58392402  1
  Li  Li287  1  0.15838836  0.24024799  0.41607598  1
  Li  Li288  1  0.83392402  1.00975201  1.09161164  1
  Li  Li289  1  0.66607598  -0.00975201  1.59161164  1
  Li  Li290  1  0.16607598  1.50975201  0.40838836  1
  Li  Li291  1  1.33392402  0.49024799  -0.09161164  1
  Li  Li292  1  1.09161164  0.83392402  1.00975201  1
  Li  Li293  1  1.59161164  0.66607598  -0.00975201  1
  Li  Li294  1  0.40838836  0.16607598  1.50975201  1
  Li  Li295  1  -0.09161164  1.33392402  0.49024799  1
  Li  Li296  1  1.00975201  1.09161164  0.83392402  1
  Li  Li297  1  -0.00975201  1.59161164  0.66607598  1
  Li  Li298  1  1.50975201  0.40838836  0.16607598  1
  Li  Li299  1  0.49024799  -0.09161164  1.33392402  1
  Li  Li300  1  1.75975201  1.08392402  0.15838836  1
  Li  Li301  1  0.74024799  0.91607598  0.65838836  1
  Li  Li302  1  1.25975201  0.41607598  1.84161164  1
  Li  Li303  1  0.24024799  1.58392402  1.34161164  1
  Li  Li304  1  1.58392402  1.34161164  0.24024799  1
  Li  Li305  1  0.41607598  1.84161164  1.25975201  1
  Li  Li306  1  0.91607598  0.65838836  0.74024799  1
  Li  Li307  1  1.08392402  0.15838836  1.75975201  1
  Li  Li308  1  1.84161164  1.25975201  0.41607598  1
  Li  Li309  1  1.34161164  0.24024799  1.58392402  1
  Li  Li310  1  0.15838836  1.75975201  1.08392402  1
  Li  Li311  1  0.65838836  0.74024799  0.91607598  1
  Sb  Sb312  1  0.02507141  0.86016698  0.12377112  1
  Sb  Sb313  1  0.47492859  0.13983302  0.62377112  1
  Sb  Sb314  1  0.97492859  0.36016698  0.37622888  1
  Sb  Sb315  1  0.52507141  0.63983302  0.87622888  1
  Sb  Sb316  1  0.12377112  0.02507141  0.86016698  1
  Sb  Sb317  1  0.62377112  0.47492859  0.13983302  1
  Sb  Sb318  1  0.37622888  0.97492859  0.36016698  1
  Sb  Sb319  1  0.87622888  0.52507141  0.63983302  1
  Sb  Sb320  1  0.86016698  0.12377112  0.02507141  1
  Sb  Sb321  1  0.13983302  0.62377112  0.47492859  1
  Sb  Sb322  1  0.36016698  0.37622888  0.97492859  1
  Sb  Sb323  1  0.63983302  0.87622888  0.52507141  1
  Sb  Sb324  1  0.61016698  0.27507141  0.12622888  1
  Sb  Sb325  1  0.88983302  0.72492859  0.62622888  1
  Sb  Sb326  1  0.11016698  0.22492859  0.87377112  1
  Sb  Sb327  1  0.38983302  0.77507141  0.37377112  1
  Sb  Sb328  1  0.77507141  0.37377112  0.38983302  1
  Sb  Sb329  1  0.22492859  0.87377112  0.11016698  1
  Sb  Sb330  1  0.72492859  0.62622888  0.88983302  1
  Sb  Sb331  1  0.27507141  0.12622888  0.61016698  1
  Sb  Sb332  1  0.87377112  0.11016698  0.22492859  1
  Sb  Sb333  1  0.37377112  0.38983302  0.77507141  1
  Sb  Sb334  1  0.12622888  0.61016698  0.27507141  1
  Sb  Sb335  1  0.62622888  0.88983302  0.72492859  1
  Sb  Sb336  1  0.52507141  0.36016698  0.62377112  1
  Sb  Sb337  1  0.97492859  0.63983302  0.12377112  1
  Sb  Sb338  1  0.47492859  0.86016698  0.87622888  1
  Sb  Sb339  1  0.02507141  0.13983302  0.37622888  1
  Sb  Sb340  1  0.62377112  0.52507141  0.36016698  1
  Sb  Sb341  1  0.12377112  0.97492859  0.63983302  1
  Sb  Sb342  1  0.87622888  0.47492859  0.86016698  1
  Sb  Sb343  1  0.37622888  0.02507141  0.13983302  1
  Sb  Sb344  1  0.36016698  0.62377112  0.52507141  1
  Sb  Sb345  1  0.63983302  0.12377112  0.97492859  1
  Sb  Sb346  1  0.86016698  0.87622888  0.47492859  1
  Sb  Sb347  1  0.13983302  0.37622888  0.02507141  1
  Sb  Sb348  1  0.11016698  0.77507141  0.62622888  1
  Sb  Sb349  1  0.38983302  0.22492859  0.12622888  1
  Sb  Sb350  1  0.61016698  0.72492859  0.37377112  1
  Sb  Sb351  1  0.88983302  0.27507141  0.87377112  1
  Sb  Sb352  1  0.27507141  0.87377112  0.88983302  1
  Sb  Sb353  1  0.72492859  0.37377112  0.61016698  1
  Sb  Sb354  1  0.22492859  0.12622888  0.38983302  1
  Sb  Sb355  1  0.77507141  0.62622888  0.11016698  1
  Sb  Sb356  1  0.37377112  0.61016698  0.72492859  1
  Sb  Sb357  1  0.87377112  0.88983302  0.27507141  1
  Sb  Sb358  1  0.62622888  0.11016698  0.77507141  1
  Sb  Sb359  1  0.12622888  0.38983302  0.22492859  1
  Sb  Sb360  1  0.87500000  0.87500000  0.87500000  1
  Sb  Sb361  1  0.62500000  0.12500000  0.37500000  1
  Sb  Sb362  1  0.12500000  0.37500000  0.62500000  1
  Sb  Sb363  1  0.37500000  0.62500000  0.12500000  1
  Sb  Sb364  1  0.37500000  0.37500000  0.37500000  1
  Sb  Sb365  1  0.12500000  0.62500000  0.87500000  1
  Sb  Sb366  1  0.62500000  0.87500000  0.12500000  1
  Sb  Sb367  1  0.87500000  0.12500000  0.62500000  1
  Sb  Sb368  1  0.42136720  0.42136720  0.42136720  1
  Sb  Sb369  1  0.07863280  0.57863280  0.92136720  1
  Sb  Sb370  1  0.57863280  0.92136720  0.07863280  1
  Sb  Sb371  1  0.92136720  0.07863280  0.57863280  1
  Sb  Sb372  1  0.17136720  0.67136720  0.82863280  1
  Sb  Sb373  1  0.32863280  0.32863280  0.32863280  1
  Sb  Sb374  1  0.67136720  0.82863280  0.17136720  1
  Sb  Sb375  1  0.82863280  0.17136720  0.67136720  1
  Sb  Sb376  1  0.92136720  0.92136720  0.92136720  1
  Sb  Sb377  1  0.57863280  0.07863280  0.42136720  1
  Sb  Sb378  1  0.07863280  0.42136720  0.57863280  1
  Sb  Sb379  1  0.42136720  0.57863280  0.07863280  1
  Sb  Sb380  1  0.67136720  0.17136720  0.32863280  1
  Sb  Sb381  1  0.82863280  0.82863280  0.82863280  1
  Sb  Sb382  1  0.17136720  0.32863280  0.67136720  1
  Sb  Sb383  1  0.32863280  0.67136720  0.17136720  1
  Te  Te384  1  0.12500000  0.13374965  0.38374965  1
  Te  Te385  1  0.37500000  0.86625035  0.88374965  1
  Te  Te386  1  0.87500000  0.63374965  0.11625035  1
  Te  Te387  1  0.62500000  0.36625035  0.61625035  1
  Te  Te388  1  0.38374965  0.12500000  0.13374965  1
  Te  Te389  1  0.88374965  0.37500000  0.86625035  1
  Te  Te390  1  0.11625035  0.87500000  0.63374965  1
  Te  Te391  1  0.61625035  0.62500000  0.36625035  1
  Te  Te392  1  0.13374965  0.38374965  0.12500000  1
  Te  Te393  1  0.86625035  0.88374965  0.37500000  1
  Te  Te394  1  0.63374965  0.11625035  0.87500000  1
  Te  Te395  1  0.36625035  0.61625035  0.62500000  1
  Te  Te396  1  0.62500000  0.63374965  0.88374965  1
  Te  Te397  1  0.87500000  0.36625035  0.38374965  1
  Te  Te398  1  0.37500000  0.13374965  0.61625035  1
  Te  Te399  1  0.12500000  0.86625035  0.11625035  1
  Te  Te400  1  0.88374965  0.62500000  0.63374965  1
  Te  Te401  1  0.38374965  0.87500000  0.36625035  1
  Te  Te402  1  0.61625035  0.37500000  0.13374965  1
  Te  Te403  1  0.11625035  0.12500000  0.86625035  1
  Te  Te404  1  0.63374965  0.88374965  0.62500000  1
  Te  Te405  1  0.36625035  0.38374965  0.87500000  1
  Te  Te406  1  0.13374965  0.61625035  0.37500000  1
  Te  Te407  1  0.86625035  0.11625035  0.12500000  1
