# generated using pymatgen
data_LiTiN6Cl2O3
_symmetry_space_group_name_H-M   'P 1'
_cell_length_a   3.51759874
_cell_length_b   4.19105040
_cell_length_c   4.07144401
_cell_angle_alpha   91.21708549
_cell_angle_beta   87.02641583
_cell_angle_gamma   87.24337694
_symmetry_Int_Tables_number   1
_chemical_formula_structural   LiTiN6Cl2O3
_chemical_formula_sum   'Li1 Ti1 N6 Cl2 O3'
_cell_volume   59.85586006
_cell_formula_units_Z   1
loop_
 _symmetry_equiv_pos_site_id
 _symmetry_equiv_pos_as_xyz
  1  'x, y, z'
loop_
 _atom_site_type_symbol
 _atom_site_label
 _atom_site_symmetry_multiplicity
 _atom_site_fract_x
 _atom_site_fract_y
 _atom_site_fract_z
 _atom_site_occupancy
  Li  Li0  1  0.00000000  0.00000000  0.00000000  1
  Ti  Ti1  1  0.50000000  0.50000000  0.50000000  1
  N  N2  1  0.50000000  0.50000000  0.00000000  1
  N  N3  1  0.50000000  0.00000000  0.50000000  1
  N  N4  1  0.00000000  0.50000000  0.50000000  1
  N  N5  1  0.22190224  0.65592926  0.95316454  1
  N  N6  1  0.41136671  0.04396910  0.67112056  1
  N  N7  1  0.10471856  0.70538605  0.19630534  1
  O  O8  1  0.58619946  0.02852742  0.99870944  1
  O  O9  1  0.56264424  0.64594999  0.53294510  1
  O  O10  1  0.11088765  0.89281023  0.72741516  1
  Cl  Cl11  1  0.98042654  0.74457894  0.07255146  1
  Cl  Cl12  1  0.65389443  0.38364163  0.73694368  1
