# generated using pymatgen
data_LiF
_symmetry_space_group_name_H-M   'P 1'
_cell_length_a   8.78599696
_cell_length_b   8.78599696
_cell_length_c   12.30812151
_cell_angle_alpha   90.00000000
_cell_angle_beta   90.00000000
_cell_angle_gamma   90.00000000
_symmetry_Int_Tables_number   1
_chemical_formula_structural   LiF
_chemical_formula_sum   'Li32 F32'
_cell_volume   950.10996339
_cell_formula_units_Z   32
loop_
 _symmetry_equiv_pos_site_id
 _symmetry_equiv_pos_as_xyz
  1  'x, y, z'
loop_
 _atom_site_type_symbol
 _atom_site_label
 _atom_site_symmetry_multiplicity
 _atom_site_fract_x
 _atom_site_fract_y
 _atom_site_fract_z
 _atom_site_occupancy
  F  F0  1  0.45719362  0.57373076  0.26334298  1
  F  F1  1  0.04280638  -0.57373076  0.76334298  1
  F  F2  1  -0.32373076  1.20719362  0.51334298  1
  F  F3  1  0.82373076  -0.20719362  1.01334298  1
  F  F4  1  0.04280638  0.57373076  -0.26334298  1
  F  F5  1  0.45719362  -0.57373076  0.23665702  1
  F  F6  1  0.82373076  1.20719362  0.48665702  1
  F  F7  1  -0.32373076  -0.20719362  -0.01334298  1
  F  F8  1  -0.45719362  -0.57373076  -0.26334298  1
  F  F9  1  0.95719362  0.57373076  0.23665702  1
  F  F10  1  1.32373076  -0.20719362  0.48665702  1
  F  F11  1  0.17626924  1.20719362  -0.01334298  1
  F  F12  1  0.95719362  -0.57373076  0.26334298  1
  F  F13  1  -0.45719362  0.57373076  0.76334298  1
  F  F14  1  0.17626924  -0.20719362  0.51334298  1
  F  F15  1  1.32373076  1.20719362  1.01334298  1
  F  F16  1  0.95719362  1.07373076  0.76334298  1
  F  F17  1  0.54280638  -0.07373076  1.26334298  1
  F  F18  1  0.17626924  1.70719362  1.01334298  1
  F  F19  1  1.32373076  0.29280638  1.51334298  1
  F  F20  1  0.54280638  1.07373076  0.23665702  1
  F  F21  1  0.95719362  -0.07373076  0.73665702  1
  F  F22  1  1.32373076  1.70719362  0.98665702  1
  F  F23  1  0.17626924  0.29280638  0.48665702  1
  F  F24  1  0.04280638  -0.07373076  0.23665702  1
  F  F25  1  1.45719362  1.07373076  0.73665702  1
  F  F26  1  1.82373076  0.29280638  0.98665702  1
  F  F27  1  0.67626924  1.70719362  0.48665702  1
  F  F28  1  1.45719362  -0.07373076  0.76334298  1
  F  F29  1  0.04280638  1.07373076  1.26334298  1
  F  F30  1  0.67626924  0.29280638  1.01334298  1
  F  F31  1  1.82373076  1.70719362  1.51334298  1
  Li  Li32  1  0.33207794  0.00000000  0.25000000  1
  Li  Li33  1  0.16792206  0.00000000  0.75000000  1
  Li  Li34  1  0.25000000  0.08207794  0.50000000  1
  Li  Li35  1  0.25000000  0.91792206  0.00000000  1
  Li  Li36  1  0.66792206  -0.00000000  0.75000000  1
  Li  Li37  1  0.83207794  0.00000000  0.25000000  1
  Li  Li38  1  0.75000000  0.91792206  0.50000000  1
  Li  Li39  1  0.75000000  0.08207794  0.00000000  1
  Li  Li40  1  0.83207794  0.50000000  0.75000000  1
  Li  Li41  1  0.66792206  0.50000000  0.25000000  1
  Li  Li42  1  0.75000000  0.58207794  -0.00000000  1
  Li  Li43  1  0.75000000  0.41792206  0.50000000  1
  Li  Li44  1  0.16792206  0.50000000  0.25000000  1
  Li  Li45  1  0.33207794  0.50000000  0.75000000  1
  Li  Li46  1  0.25000000  0.41792206  0.00000000  1
  Li  Li47  1  0.25000000  0.58207794  0.50000000  1
  Li  Li48  1  0.00000000  0.00000000  0.00000000  1
  Li  Li49  1  0.50000000  0.00000000  0.50000000  1
  Li  Li50  1  0.25000000  0.75000000  0.25000000  1
  Li  Li51  1  0.25000000  0.25000000  0.75000000  1
  Li  Li52  1  0.50000000  0.00000000  0.00000000  1
  Li  Li53  1  0.00000000  0.00000000  0.50000000  1
  Li  Li54  1  0.25000000  0.75000000  0.75000000  1
  Li  Li55  1  0.25000000  0.25000000  0.25000000  1
  Li  Li56  1  0.50000000  0.50000000  0.50000000  1
  Li  Li57  1  0.00000000  0.50000000  0.00000000  1
  Li  Li58  1  0.75000000  0.25000000  0.75000000  1
  Li  Li59  1  0.75000000  0.75000000  0.25000000  1
  Li  Li60  1  0.00000000  0.50000000  0.50000000  1
  Li  Li61  1  0.50000000  0.50000000  0.00000000  1
  Li  Li62  1  0.75000000  0.25000000  0.25000000  1
  Li  Li63  1  0.75000000  0.75000000  0.75000000  1
