# generated using pymatgen
data_Sr9Li2SnSe12
_symmetry_space_group_name_H-M   'P 1'
_cell_length_a   12.27494673
_cell_length_b   12.27494673
_cell_length_c   11.59662896
_cell_angle_alpha   90.00000000
_cell_angle_beta   90.00000000
_cell_angle_gamma   120.00000000
_symmetry_Int_Tables_number   1
_chemical_formula_structural   Sr9Li2SnSe12
_chemical_formula_sum   'Sr18 Li4 Sn2 Se24'
_cell_volume   1513.21844384
_cell_formula_units_Z   2
loop_
 _symmetry_equiv_pos_site_id
 _symmetry_equiv_pos_as_xyz
  1  'x, y, z'
loop_
 _atom_site_type_symbol
 _atom_site_label
 _atom_site_symmetry_multiplicity
 _atom_site_fract_x
 _atom_site_fract_y
 _atom_site_fract_z
 _atom_site_occupancy
  Li  Li0  1  0.00000000  0.00000000  0.00000000  1
  Li  Li1  1  0.00000000  0.00000000  0.50000000  1
  Li  Li2  1  0.33333333  0.66666667  0.75000000  1
  Li  Li3  1  0.66666667  0.33333333  0.25000000  1
  Se  Se4  1  0.57187627  1.14375255  0.57733351  1
  Se  Se5  1  -1.14375255  -0.57187627  0.57733351  1
  Se  Se6  1  0.57187627  -0.57187627  0.57733351  1
  Se  Se7  1  -0.57187627  -1.14375255  1.07733351  1
  Se  Se8  1  1.14375255  0.57187627  1.07733351  1
  Se  Se9  1  -0.57187627  0.57187627  1.07733351  1
  Se  Se10  1  1.14375255  0.57187627  -0.57733351  1
  Se  Se11  1  -0.57187627  -1.14375255  -0.57733351  1
  Se  Se12  1  -0.57187627  0.57187627  -0.57733351  1
  Se  Se13  1  -1.14375255  -0.57187627  -0.07733351  1
  Se  Se14  1  0.57187627  1.14375255  -0.07733351  1
  Se  Se15  1  0.57187627  -0.57187627  -0.07733351  1
  Se  Se16  1  0.33333333  0.66666667  0.85852731  1
  Se  Se17  1  0.66666667  0.33333333  0.35852731  1
  Se  Se18  1  0.66666667  0.33333333  0.14147269  1
  Se  Se19  1  0.33333333  0.66666667  0.64147269  1
  Se  Se20  1  0.43854575  0.87709150  0.25000000  1
  Se  Se21  1  0.12290850  0.56145425  0.25000000  1
  Se  Se22  1  0.43854575  0.56145425  0.25000000  1
  Se  Se23  1  0.56145425  0.12290850  0.75000000  1
  Se  Se24  1  0.87709150  0.43854575  0.75000000  1
  Se  Se25  1  0.56145425  0.43854575  0.75000000  1
  Se  Se26  1  0.00000000  0.00000000  0.25000000  1
  Se  Se27  1  0.00000000  0.00000000  0.75000000  1
  Sn  Sn28  1  0.33333333  0.66666667  0.25000000  1
  Sn  Sn29  1  0.66666667  0.33333333  0.75000000  1
  Sr  Sr30  1  0.77149543  0.54299086  0.25000000  1
  Sr  Sr31  1  0.45700914  0.22850457  0.25000000  1
  Sr  Sr32  1  0.77149543  0.22850457  0.25000000  1
  Sr  Sr33  1  0.22850457  0.45700914  0.75000000  1
  Sr  Sr34  1  0.54299086  0.77149543  0.75000000  1
  Sr  Sr35  1  0.22850457  0.77149543  0.75000000  1
  Sr  Sr36  1  0.50000000  0.00000000  -0.00000000  1
  Sr  Sr37  1  0.00000000  0.50000000  0.00000000  1
  Sr  Sr38  1  0.50000000  0.50000000  0.00000000  1
  Sr  Sr39  1  0.50000000  0.00000000  0.50000000  1
  Sr  Sr40  1  0.00000000  0.50000000  0.50000000  1
  Sr  Sr41  1  0.50000000  0.50000000  0.50000000  1
  Sr  Sr42  1  0.17372828  0.34745656  0.25000000  1
  Sr  Sr43  1  0.65254344  0.82627172  0.25000000  1
  Sr  Sr44  1  0.17372828  0.82627172  0.25000000  1
  Sr  Sr45  1  0.82627172  0.65254344  0.75000000  1
  Sr  Sr46  1  0.34745656  0.17372828  0.75000000  1
  Sr  Sr47  1  0.82627172  0.17372828  0.75000000  1
