# generated using pymatgen
data_LiBr
_symmetry_space_group_name_H-M   'P 1'
_cell_length_a   15.38109539
_cell_length_b   15.38109539
_cell_length_c   15.38109539
_cell_angle_alpha   90.00000000
_cell_angle_beta   90.00000000
_cell_angle_gamma   90.00000000
_symmetry_Int_Tables_number   1
_chemical_formula_structural   LiBr
_chemical_formula_sum   'Li96 Br96'
_cell_volume   3638.83025267
_cell_formula_units_Z   96
loop_
 _symmetry_equiv_pos_site_id
 _symmetry_equiv_pos_as_xyz
  1  'x, y, z'
loop_
 _atom_site_type_symbol
 _atom_site_label
 _atom_site_symmetry_multiplicity
 _atom_site_fract_x
 _atom_site_fract_y
 _atom_site_fract_z
 _atom_site_occupancy
  Br  Br0  1  0.59777478  0.59777478  0.59777478  1
  Br  Br1  1  0.40222522  0.40222522  0.59777478  1
  Br  Br2  1  0.40222522  0.59777478  0.40222522  1
  Br  Br3  1  0.59777478  0.40222522  0.40222522  1
  Br  Br4  1  0.59777478  0.59777478  0.40222522  1
  Br  Br5  1  0.40222522  0.40222522  0.40222522  1
  Br  Br6  1  0.59777478  0.40222522  0.59777478  1
  Br  Br7  1  0.40222522  0.59777478  0.59777478  1
  Br  Br8  1  0.59777478  0.09777478  0.09777478  1
  Br  Br9  1  0.40222522  0.90222522  0.09777478  1
  Br  Br10  1  0.40222522  0.09777478  0.90222522  1
  Br  Br11  1  0.59777478  0.90222522  0.90222522  1
  Br  Br12  1  0.59777478  0.09777478  0.90222522  1
  Br  Br13  1  0.40222522  0.90222522  0.90222522  1
  Br  Br14  1  0.59777478  0.90222522  0.09777478  1
  Br  Br15  1  0.40222522  0.09777478  0.09777478  1
  Br  Br16  1  0.09777478  0.59777478  0.09777478  1
  Br  Br17  1  0.90222522  0.40222522  0.09777478  1
  Br  Br18  1  0.90222522  0.59777478  0.90222522  1
  Br  Br19  1  0.09777478  0.40222522  0.90222522  1
  Br  Br20  1  0.09777478  0.59777478  0.90222522  1
  Br  Br21  1  0.90222522  0.40222522  0.90222522  1
  Br  Br22  1  0.09777478  0.40222522  0.09777478  1
  Br  Br23  1  0.90222522  0.59777478  0.09777478  1
  Br  Br24  1  0.09777478  0.09777478  0.59777478  1
  Br  Br25  1  0.90222522  0.90222522  0.59777478  1
  Br  Br26  1  0.90222522  0.09777478  0.40222522  1
  Br  Br27  1  0.09777478  0.90222522  0.40222522  1
  Br  Br28  1  0.09777478  0.09777478  0.40222522  1
  Br  Br29  1  0.90222522  0.90222522  0.40222522  1
  Br  Br30  1  0.09777478  0.90222522  0.59777478  1
  Br  Br31  1  0.90222522  0.09777478  0.59777478  1
  Br  Br32  1  0.25000000  0.25000000  0.25000000  1
  Br  Br33  1  0.25000000  0.25000000  0.75000000  1
  Br  Br34  1  0.25000000  0.75000000  0.75000000  1
  Br  Br35  1  0.25000000  0.75000000  0.25000000  1
  Br  Br36  1  0.75000000  0.25000000  0.75000000  1
  Br  Br37  1  0.75000000  0.25000000  0.25000000  1
  Br  Br38  1  0.75000000  0.75000000  0.25000000  1
  Br  Br39  1  0.75000000  0.75000000  0.75000000  1
  Br  Br40  1  0.60841530  0.25000000  0.25000000  1
  Br  Br41  1  -0.60841530  0.75000000  0.25000000  1
  Br  Br42  1  0.25000000  0.60841530  0.25000000  1
  Br  Br43  1  0.25000000  -0.60841530  0.75000000  1
  Br  Br44  1  0.25000000  0.25000000  0.60841530  1
  Br  Br45  1  0.75000000  0.25000000  -0.60841530  1
  Br  Br46  1  0.25000000  0.60841530  0.75000000  1
  Br  Br47  1  0.75000000  -0.60841530  0.75000000  1
  Br  Br48  1  0.60841530  0.25000000  0.75000000  1
  Br  Br49  1  -0.60841530  0.25000000  0.25000000  1
  Br  Br50  1  0.25000000  0.25000000  -0.60841530  1
  Br  Br51  1  0.25000000  0.75000000  0.60841530  1
  Br  Br52  1  0.60841530  0.75000000  0.75000000  1
  Br  Br53  1  -0.60841530  1.25000000  0.75000000  1
  Br  Br54  1  0.25000000  1.10841530  0.75000000  1
  Br  Br55  1  0.25000000  -0.10841530  1.25000000  1
  Br  Br56  1  0.25000000  0.75000000  1.10841530  1
  Br  Br57  1  0.75000000  0.75000000  -0.10841530  1
  Br  Br58  1  0.25000000  1.10841530  1.25000000  1
  Br  Br59  1  0.75000000  -0.10841530  1.25000000  1
  Br  Br60  1  0.60841530  0.75000000  1.25000000  1
  Br  Br61  1  -0.60841530  0.75000000  0.75000000  1
  Br  Br62  1  0.25000000  0.75000000  -0.10841530  1
  Br  Br63  1  0.25000000  1.25000000  1.10841530  1
  Br  Br64  1  1.10841530  0.25000000  0.75000000  1
  Br  Br65  1  -0.10841530  0.75000000  0.75000000  1
  Br  Br66  1  0.75000000  0.60841530  0.75000000  1
  Br  Br67  1  0.75000000  -0.60841530  1.25000000  1
  Br  Br68  1  0.75000000  0.25000000  1.10841530  1
  Br  Br69  1  1.25000000  0.25000000  -0.10841530  1
  Br  Br70  1  0.75000000  0.60841530  1.25000000  1
  Br  Br71  1  1.25000000  -0.60841530  1.25000000  1
  Br  Br72  1  1.10841530  0.25000000  1.25000000  1
  Br  Br73  1  -0.10841530  0.25000000  0.75000000  1
  Br  Br74  1  0.75000000  0.25000000  -0.10841530  1
  Br  Br75  1  0.75000000  0.75000000  1.10841530  1
  Br  Br76  1  1.10841530  0.75000000  0.25000000  1
  Br  Br77  1  -0.10841530  1.25000000  0.25000000  1
  Br  Br78  1  0.75000000  1.10841530  0.25000000  1
  Br  Br79  1  0.75000000  -0.10841530  0.75000000  1
  Br  Br80  1  0.75000000  0.75000000  0.60841530  1
  Br  Br81  1  1.25000000  0.75000000  -0.60841530  1
  Br  Br82  1  0.75000000  1.10841530  0.75000000  1
  Br  Br83  1  1.25000000  -0.10841530  0.75000000  1
  Br  Br84  1  1.10841530  0.75000000  0.75000000  1
  Br  Br85  1  -0.10841530  0.75000000  0.25000000  1
  Br  Br86  1  0.75000000  0.75000000  -0.60841530  1
  Br  Br87  1  0.75000000  1.25000000  0.60841530  1
  Br  Br88  1  0.50000000  0.50000000  0.50000000  1
  Br  Br89  1  0.50000000  0.00000000  0.00000000  1
  Br  Br90  1  0.00000000  0.50000000  0.00000000  1
  Br  Br91  1  0.00000000  0.00000000  0.50000000  1
  Br  Br92  1  0.00000000  0.00000000  0.00000000  1
  Br  Br93  1  0.00000000  0.50000000  0.50000000  1
  Br  Br94  1  0.50000000  0.00000000  0.50000000  1
  Br  Br95  1  0.50000000  0.50000000  -0.00000000  1
  Li  Li96  1  0.00000000  0.25000000  0.25000000  1
  Li  Li97  1  0.00000000  0.75000000  0.25000000  1
  Li  Li98  1  0.25000000  0.00000000  0.25000000  1
  Li  Li99  1  0.25000000  0.00000000  0.75000000  1
  Li  Li100  1  0.25000000  0.25000000  -0.00000000  1
  Li  Li101  1  0.75000000  0.25000000  0.00000000  1
  Li  Li102  1  0.00000000  0.75000000  0.75000000  1
  Li  Li103  1  0.00000000  0.25000000  0.75000000  1
  Li  Li104  1  0.25000000  0.50000000  0.75000000  1
  Li  Li105  1  0.25000000  0.50000000  0.25000000  1
  Li  Li106  1  0.25000000  0.75000000  0.50000000  1
  Li  Li107  1  0.75000000  0.75000000  0.50000000  1
  Li  Li108  1  0.50000000  0.25000000  0.75000000  1
  Li  Li109  1  0.50000000  0.75000000  0.75000000  1
  Li  Li110  1  0.75000000  0.00000000  0.75000000  1
  Li  Li111  1  0.75000000  0.00000000  0.25000000  1
  Li  Li112  1  0.75000000  0.25000000  0.50000000  1
  Li  Li113  1  0.25000000  0.25000000  0.50000000  1
  Li  Li114  1  0.50000000  0.75000000  0.25000000  1
  Li  Li115  1  0.50000000  0.25000000  0.25000000  1
  Li  Li116  1  0.75000000  0.50000000  0.25000000  1
  Li  Li117  1  0.75000000  0.50000000  0.75000000  1
  Li  Li118  1  0.75000000  0.75000000  0.00000000  1
  Li  Li119  1  0.25000000  0.75000000  0.00000000  1
  Li  Li120  1  0.00000000  0.83507241  0.83507241  1
  Li  Li121  1  0.00000000  0.16492759  0.83507241  1
  Li  Li122  1  0.00000000  0.83507241  0.16492759  1
  Li  Li123  1  0.00000000  0.16492759  0.16492759  1
  Li  Li124  1  0.83507241  0.00000000  0.83507241  1
  Li  Li125  1  0.83507241  0.00000000  0.16492759  1
  Li  Li126  1  0.16492759  0.00000000  0.83507241  1
  Li  Li127  1  0.16492759  0.00000000  0.16492759  1
  Li  Li128  1  0.83507241  0.83507241  0.00000000  1
  Li  Li129  1  0.16492759  0.83507241  0.00000000  1
  Li  Li130  1  0.83507241  0.16492759  0.00000000  1
  Li  Li131  1  0.16492759  0.16492759  0.00000000  1
  Li  Li132  1  0.00000000  0.33507241  0.33507241  1
  Li  Li133  1  0.00000000  0.66492759  0.33507241  1
  Li  Li134  1  0.00000000  0.33507241  0.66492759  1
  Li  Li135  1  0.00000000  0.66492759  0.66492759  1
  Li  Li136  1  0.83507241  0.50000000  0.33507241  1
  Li  Li137  1  0.83507241  0.50000000  0.66492759  1
  Li  Li138  1  0.16492759  0.50000000  0.33507241  1
  Li  Li139  1  0.16492759  0.50000000  0.66492759  1
  Li  Li140  1  0.83507241  0.33507241  0.50000000  1
  Li  Li141  1  0.16492759  0.33507241  0.50000000  1
  Li  Li142  1  0.83507241  0.66492759  0.50000000  1
  Li  Li143  1  0.16492759  0.66492759  0.50000000  1
  Li  Li144  1  0.50000000  0.83507241  0.33507241  1
  Li  Li145  1  0.50000000  0.16492759  0.33507241  1
  Li  Li146  1  0.50000000  0.83507241  0.66492759  1
  Li  Li147  1  0.50000000  0.16492759  0.66492759  1
  Li  Li148  1  0.33507241  0.00000000  0.33507241  1
  Li  Li149  1  0.33507241  0.00000000  0.66492759  1
  Li  Li150  1  0.66492759  -0.00000000  0.33507241  1
  Li  Li151  1  0.66492759  -0.00000000  0.66492759  1
  Li  Li152  1  0.33507241  0.83507241  0.50000000  1
  Li  Li153  1  0.66492759  0.83507241  0.50000000  1
  Li  Li154  1  0.33507241  0.16492759  0.50000000  1
  Li  Li155  1  0.66492759  0.16492759  0.50000000  1
  Li  Li156  1  0.50000000  0.33507241  0.83507241  1
  Li  Li157  1  0.50000000  0.66492759  0.83507241  1
  Li  Li158  1  0.50000000  0.33507241  0.16492759  1
  Li  Li159  1  0.50000000  0.66492759  0.16492759  1
  Li  Li160  1  0.33507241  0.50000000  0.83507241  1
  Li  Li161  1  0.33507241  0.50000000  0.16492759  1
  Li  Li162  1  0.66492759  0.50000000  0.83507241  1
  Li  Li163  1  0.66492759  0.50000000  0.16492759  1
  Li  Li164  1  0.33507241  0.33507241  0.00000000  1
  Li  Li165  1  0.66492759  0.33507241  -0.00000000  1
  Li  Li166  1  0.33507241  0.66492759  0.00000000  1
  Li  Li167  1  0.66492759  0.66492759  -0.00000000  1
  Li  Li168  1  0.67246102  0.00000000  0.00000000  1
  Li  Li169  1  0.32753898  0.00000000  0.00000000  1
  Li  Li170  1  0.00000000  0.67246102  0.00000000  1
  Li  Li171  1  0.00000000  0.32753898  0.00000000  1
  Li  Li172  1  0.00000000  0.00000000  0.67246102  1
  Li  Li173  1  0.00000000  0.00000000  0.32753898  1
  Li  Li174  1  0.67246102  0.50000000  0.50000000  1
  Li  Li175  1  0.32753898  0.50000000  0.50000000  1
  Li  Li176  1  0.00000000  0.17246102  0.50000000  1
  Li  Li177  1  0.00000000  0.82753898  0.50000000  1
  Li  Li178  1  0.00000000  0.50000000  0.17246102  1
  Li  Li179  1  0.00000000  0.50000000  0.82753898  1
  Li  Li180  1  0.17246102  -0.00000000  0.50000000  1
  Li  Li181  1  0.82753898  0.00000000  0.50000000  1
  Li  Li182  1  0.50000000  0.67246102  0.50000000  1
  Li  Li183  1  0.50000000  0.32753898  0.50000000  1
  Li  Li184  1  0.50000000  0.00000000  0.17246102  1
  Li  Li185  1  0.50000000  0.00000000  0.82753898  1
  Li  Li186  1  0.17246102  0.50000000  -0.00000000  1
  Li  Li187  1  0.82753898  0.50000000  -0.00000000  1
  Li  Li188  1  0.50000000  0.17246102  -0.00000000  1
  Li  Li189  1  0.50000000  0.82753898  0.00000000  1
  Li  Li190  1  0.50000000  0.50000000  0.67246102  1
  Li  Li191  1  0.50000000  0.50000000  0.32753898  1
