# generated using pymatgen
data_Li2LaCr3Si2(IN)2
_symmetry_space_group_name_H-M   'P 1'
_cell_length_a   12.46670909
_cell_length_b   14.79016283
_cell_length_c   14.70360613
_cell_angle_alpha   90.00000000
_cell_angle_beta   90.00000000
_cell_angle_gamma   90.00000000
_symmetry_Int_Tables_number   1
_chemical_formula_structural   Li2LaCr3Si2(IN)2
_chemical_formula_sum   'Li2 La1 Cr3 Si2 I2 N2'
_cell_volume   2711.11937898
_cell_formula_units_Z   1
loop_
 _symmetry_equiv_pos_site_id
 _symmetry_equiv_pos_as_xyz
  1  'x, y, z'
loop_
 _atom_site_type_symbol
 _atom_site_label
 _atom_site_symmetry_multiplicity
 _atom_site_fract_x
 _atom_site_fract_y
 _atom_site_fract_z
 _atom_site_occupancy
  Li  Li0  1  0.12500000  0.00000000  0.25000000  1
  Li  Li1  1  0.00000000  0.00000000  0.00000000  1
  La  La2  1  0.37500000  0.00000000  0.25000000  1
  Cr  Cr3  1  0.25000000  0.25000000  0.25000000  1
  Cr  Cr4  1  0.00000000  0.25000000  0.12500000  1
  Cr  Cr5  1  0.95389365  0.70304726  0.31569581  1
  Si  Si6  1  0.74870081  0.22477102  0.25812193  1
  Si  Si7  1  0.30962841  0.23229042  0.23282058  1
  N  N8  1  0.70270838  0.85429474  0.38319085  1
  N  N9  1  0.10095543  0.22330235  0.13669264  1
  I  I10  1  0.23169193  0.11493274  0.75018440  1
  I  I11  1  0.26102559  0.82755818  0.58324669  1
