# generated using pymatgen
data_KLiCaS2
_symmetry_space_group_name_H-M   'P 1'
_cell_length_a   12.43004808
_cell_length_b   19.35251132
_cell_length_c   6.95417591
_cell_angle_alpha   90.00000000
_cell_angle_beta   90.00000000
_cell_angle_gamma   90.00000000
_symmetry_Int_Tables_number   1
_chemical_formula_structural   KLiCaS2
_chemical_formula_sum   'K8 Li8 Ca8 S16'
_cell_volume   1672.84541759
_cell_formula_units_Z   8
loop_
 _symmetry_equiv_pos_site_id
 _symmetry_equiv_pos_as_xyz
  1  'x, y, z'
loop_
 _atom_site_type_symbol
 _atom_site_label
 _atom_site_symmetry_multiplicity
 _atom_site_fract_x
 _atom_site_fract_y
 _atom_site_fract_z
 _atom_site_occupancy
  Ca  Ca0  1  0.61504409  0.96597561  0.07990236  1
  Ca  Ca1  1  0.88495591  0.03402439  0.57990236  1
  Ca  Ca2  1  0.38495591  0.46597561  0.92009764  1
  Ca  Ca3  1  0.11504409  0.53402439  0.42009764  1
  Ca  Ca4  1  0.38495591  0.03402439  0.92009764  1
  Ca  Ca5  1  0.11504409  0.96597561  0.42009764  1
  Ca  Ca6  1  0.61504409  0.53402439  0.07990236  1
  Ca  Ca7  1  0.88495591  0.46597561  0.57990236  1
  K  K8  1  0.11826051  0.25000000  0.87154433  1
  K  K9  1  0.38173949  0.75000000  0.37154433  1
  K  K10  1  0.88173949  0.75000000  0.12845567  1
  K  K11  1  0.61826051  0.25000000  0.62845567  1
  K  K12  1  0.00000000  0.00000000  0.00000000  1
  K  K13  1  0.50000000  0.00000000  0.50000000  1
  K  K14  1  0.00000000  0.50000000  -0.00000000  1
  K  K15  1  0.50000000  0.50000000  0.50000000  1
  Li  Li16  1  0.32135310  0.62547286  0.02939960  1
  Li  Li17  1  0.17864690  0.37452714  0.52939960  1
  Li  Li18  1  0.67864690  0.12547286  0.97060040  1
  Li  Li19  1  0.82135310  0.87452714  0.47060040  1
  Li  Li20  1  0.67864690  0.37452714  0.97060040  1
  Li  Li21  1  0.82135310  0.62547286  0.47060040  1
  Li  Li22  1  0.32135310  0.87452714  0.02939960  1
  Li  Li23  1  0.17864690  0.12547286  0.52939960  1
  S  S24  1  0.26143650  0.53906403  0.21036570  1
  S  S25  1  0.23856350  -0.53906403  0.71036570  1
  S  S26  1  -0.26143650  1.03906403  -0.21036570  1
  S  S27  1  0.76143650  -0.03906403  0.28963430  1
  S  S28  1  -0.26143650  -0.53906403  -0.21036570  1
  S  S29  1  0.76143650  0.53906403  0.28963430  1
  S  S30  1  0.26143650  -0.03906403  0.21036570  1
  S  S31  1  0.23856350  1.03906403  0.71036570  1
  S  S32  1  0.43819754  0.04330526  0.71060628  1
  S  S33  1  0.06180246  0.95669474  0.21060628  1
  S  S34  1  0.56180246  0.54330526  0.28939372  1
  S  S35  1  0.93819754  0.45669474  0.78939372  1
  S  S36  1  0.56180246  0.95669474  0.28939372  1
  S  S37  1  0.93819754  0.04330526  0.78939372  1
  S  S38  1  0.43819754  0.45669474  0.71060628  1
  S  S39  1  0.06180246  0.54330526  0.21060628  1
