# generated using pymatgen
data_Na2Li4S3
_symmetry_space_group_name_H-M   'P 1'
_cell_length_a   20.59143164
_cell_length_b   20.59143164
_cell_length_c   20.59143164
_cell_angle_alpha   90.00000000
_cell_angle_beta   90.00000000
_cell_angle_gamma   90.00000000
_symmetry_Int_Tables_number   1
_chemical_formula_structural   Na2Li4S3
_chemical_formula_sum   'Na96 Li192 S144'
_cell_volume   8730.91232847
_cell_formula_units_Z   48
loop_
 _symmetry_equiv_pos_site_id
 _symmetry_equiv_pos_as_xyz
  1  'x, y, z'
loop_
 _atom_site_type_symbol
 _atom_site_label
 _atom_site_symmetry_multiplicity
 _atom_site_fract_x
 _atom_site_fract_y
 _atom_site_fract_z
 _atom_site_occupancy
  Li  Li0  1  0.12088791  0.82200702  0.70049859  1
  Li  Li1  1  0.37911209  -0.82200702  1.20049859  1
  Li  Li2  1  -0.12088791  1.32200702  -0.20049859  1
  Li  Li3  1  0.62088791  -0.32200702  -0.70049859  1
  Li  Li4  1  0.70049859  0.12088791  0.82200702  1
  Li  Li5  1  1.20049859  0.37911209  -0.82200702  1
  Li  Li6  1  -0.20049859  -0.12088791  1.32200702  1
  Li  Li7  1  -0.70049859  0.62088791  -0.32200702  1
  Li  Li8  1  0.82200702  0.70049859  0.12088791  1
  Li  Li9  1  -0.82200702  1.20049859  0.37911209  1
  Li  Li10  1  1.32200702  -0.20049859  -0.12088791  1
  Li  Li11  1  -0.32200702  -0.70049859  0.62088791  1
  Li  Li12  1  1.57200702  0.37088791  -0.45049859  1
  Li  Li13  1  -0.07200702  0.62911209  0.04950141  1
  Li  Li14  1  1.07200702  0.12911209  1.45049859  1
  Li  Li15  1  -0.57200702  0.87088791  0.95049859  1
  Li  Li16  1  0.87088791  0.95049859  -0.57200702  1
  Li  Li17  1  0.12911209  1.45049859  1.07200702  1
  Li  Li18  1  0.62911209  0.04950141  -0.07200702  1
  Li  Li19  1  0.37088791  -0.45049859  1.57200702  1
  Li  Li20  1  1.45049859  1.07200702  0.12911209  1
  Li  Li21  1  0.95049859  -0.57200702  0.87088791  1
  Li  Li22  1  -0.45049859  1.57200702  0.37088791  1
  Li  Li23  1  0.04950141  -0.07200702  0.62911209  1
  Li  Li24  1  -0.12088791  -0.82200702  -0.70049859  1
  Li  Li25  1  0.62088791  0.82200702  -0.20049859  1
  Li  Li26  1  0.12088791  -0.32200702  1.20049859  1
  Li  Li27  1  0.37911209  1.32200702  0.70049859  1
  Li  Li28  1  -0.70049859  -0.12088791  -0.82200702  1
  Li  Li29  1  -0.20049859  0.62088791  0.82200702  1
  Li  Li30  1  1.20049859  0.12088791  -0.32200702  1
  Li  Li31  1  0.70049859  0.37911209  1.32200702  1
  Li  Li32  1  -0.82200702  -0.70049859  -0.12088791  1
  Li  Li33  1  0.82200702  -0.20049859  0.62088791  1
  Li  Li34  1  -0.32200702  1.20049859  0.12088791  1
  Li  Li35  1  1.32200702  0.70049859  0.37911209  1
  Li  Li36  1  -0.57200702  0.62911209  1.45049859  1
  Li  Li37  1  1.07200702  0.37088791  0.95049859  1
  Li  Li38  1  -0.07200702  0.87088791  -0.45049859  1
  Li  Li39  1  1.57200702  0.12911209  0.04950141  1
  Li  Li40  1  0.12911209  0.04950141  1.57200702  1
  Li  Li41  1  0.87088791  -0.45049859  -0.07200702  1
  Li  Li42  1  0.37088791  0.95049859  1.07200702  1
  Li  Li43  1  0.62911209  1.45049859  -0.57200702  1
  Li  Li44  1  -0.45049859  -0.07200702  0.87088791  1
  Li  Li45  1  0.04950141  1.57200702  0.12911209  1
  Li  Li46  1  1.45049859  -0.57200702  0.62911209  1
  Li  Li47  1  0.95049859  1.07200702  0.37088791  1
  Li  Li48  1  0.62088791  1.32200702  1.20049859  1
  Li  Li49  1  0.87911209  -0.32200702  1.70049859  1
  Li  Li50  1  0.37911209  1.82200702  0.29950141  1
  Li  Li51  1  1.12088791  0.17799298  -0.20049859  1
  Li  Li52  1  1.20049859  0.62088791  1.32200702  1
  Li  Li53  1  1.70049859  0.87911209  -0.32200702  1
  Li  Li54  1  0.29950141  0.37911209  1.82200702  1
  Li  Li55  1  -0.20049859  1.12088791  0.17799298  1
  Li  Li56  1  1.32200702  1.20049859  0.62088791  1
  Li  Li57  1  -0.32200702  1.70049859  0.87911209  1
  Li  Li58  1  1.82200702  0.29950141  0.37911209  1
  Li  Li59  1  0.17799298  -0.20049859  1.12088791  1
  Li  Li60  1  2.07200702  0.87088791  0.04950141  1
  Li  Li61  1  0.42799298  1.12911209  0.54950141  1
  Li  Li62  1  1.57200702  0.62911209  1.95049859  1
  Li  Li63  1  -0.07200702  1.37088791  1.45049859  1
  Li  Li64  1  1.37088791  1.45049859  -0.07200702  1
  Li  Li65  1  0.62911209  1.95049859  1.57200702  1
  Li  Li66  1  1.12911209  0.54950141  0.42799298  1
  Li  Li67  1  0.87088791  0.04950141  2.07200702  1
  Li  Li68  1  1.95049859  1.57200702  0.62911209  1
  Li  Li69  1  1.45049859  -0.07200702  1.37088791  1
  Li  Li70  1  0.04950141  2.07200702  0.87088791  1
  Li  Li71  1  0.54950141  0.42799298  1.12911209  1
  Li  Li72  1  0.37911209  -0.32200702  -0.20049859  1
  Li  Li73  1  1.12088791  1.32200702  0.29950141  1
  Li  Li74  1  0.62088791  0.17799298  1.70049859  1
  Li  Li75  1  0.87911209  1.82200702  1.20049859  1
  Li  Li76  1  -0.20049859  0.37911209  -0.32200702  1
  Li  Li77  1  0.29950141  1.12088791  1.32200702  1
  Li  Li78  1  1.70049859  0.62088791  0.17799298  1
  Li  Li79  1  1.20049859  0.87911209  1.82200702  1
  Li  Li80  1  -0.32200702  -0.20049859  0.37911209  1
  Li  Li81  1  1.32200702  0.29950141  1.12088791  1
  Li  Li82  1  0.17799298  1.70049859  0.62088791  1
  Li  Li83  1  1.82200702  1.20049859  0.87911209  1
  Li  Li84  1  -0.07200702  1.12911209  1.95049859  1
  Li  Li85  1  1.57200702  0.87088791  1.45049859  1
  Li  Li86  1  0.42799298  1.37088791  0.04950141  1
  Li  Li87  1  2.07200702  0.62911209  0.54950141  1
  Li  Li88  1  0.62911209  0.54950141  2.07200702  1
  Li  Li89  1  1.37088791  0.04950141  0.42799298  1
  Li  Li90  1  0.87088791  1.45049859  1.57200702  1
  Li  Li91  1  1.12911209  1.95049859  -0.07200702  1
  Li  Li92  1  0.04950141  0.42799298  1.37088791  1
  Li  Li93  1  0.54950141  2.07200702  0.62911209  1
  Li  Li94  1  1.95049859  -0.07200702  1.12911209  1
  Li  Li95  1  1.45049859  1.57200702  0.87088791  1
  Li  Li96  1  0.42583828  0.75762565  0.11832602  1
  Li  Li97  1  0.07416172  0.24237435  0.61832602  1
  Li  Li98  1  0.57416172  0.25762565  0.38167398  1
  Li  Li99  1  0.92583828  0.74237435  0.88167398  1
  Li  Li100  1  0.11832602  0.42583828  0.75762565  1
  Li  Li101  1  0.61832602  0.07416172  0.24237435  1
  Li  Li102  1  0.38167398  0.57416172  0.25762565  1
  Li  Li103  1  0.88167398  0.92583828  0.74237435  1
  Li  Li104  1  0.75762565  0.11832602  0.42583828  1
  Li  Li105  1  0.24237435  0.61832602  0.07416172  1
  Li  Li106  1  0.25762565  0.38167398  0.57416172  1
  Li  Li107  1  0.74237435  0.88167398  0.92583828  1
  Li  Li108  1  0.50762565  0.67583828  0.13167398  1
  Li  Li109  1  0.99237435  0.32416172  0.63167398  1
  Li  Li110  1  0.00762565  0.82416172  0.86832602  1
  Li  Li111  1  0.49237435  0.17583828  0.36832602  1
  Li  Li112  1  0.17583828  0.36832602  0.49237435  1
  Li  Li113  1  0.82416172  0.86832602  0.00762565  1
  Li  Li114  1  0.32416172  0.63167398  0.99237435  1
  Li  Li115  1  0.67583828  0.13167398  0.50762565  1
  Li  Li116  1  0.86832602  0.00762565  0.82416172  1
  Li  Li117  1  0.36832602  0.49237435  0.17583828  1
  Li  Li118  1  0.13167398  0.50762565  0.67583828  1
  Li  Li119  1  0.63167398  0.99237435  0.32416172  1
  Li  Li120  1  0.57416172  0.24237435  0.88167398  1
  Li  Li121  1  0.92583828  0.75762565  0.38167398  1
  Li  Li122  1  0.42583828  0.74237435  0.61832602  1
  Li  Li123  1  0.07416172  0.25762565  0.11832602  1
  Li  Li124  1  0.88167398  0.57416172  0.24237435  1
  Li  Li125  1  0.38167398  0.92583828  0.75762565  1
  Li  Li126  1  0.61832602  0.42583828  0.74237435  1
  Li  Li127  1  0.11832602  0.07416172  0.25762565  1
  Li  Li128  1  0.24237435  0.88167398  0.57416172  1
  Li  Li129  1  0.75762565  0.38167398  0.92583828  1
  Li  Li130  1  0.74237435  0.61832602  0.42583828  1
  Li  Li131  1  0.25762565  0.11832602  0.07416172  1
  Li  Li132  1  0.49237435  0.32416172  0.86832602  1
  Li  Li133  1  0.00762565  0.67583828  0.36832602  1
  Li  Li134  1  0.99237435  0.17583828  0.13167398  1
  Li  Li135  1  0.50762565  0.82416172  0.63167398  1
  Li  Li136  1  0.82416172  0.63167398  0.50762565  1
  Li  Li137  1  0.17583828  0.13167398  0.99237435  1
  Li  Li138  1  0.67583828  0.36832602  0.00762565  1
  Li  Li139  1  0.32416172  0.86832602  0.49237435  1
  Li  Li140  1  0.13167398  0.99237435  0.17583828  1
  Li  Li141  1  0.63167398  0.50762565  0.82416172  1
  Li  Li142  1  0.86832602  0.49237435  0.32416172  1
  Li  Li143  1  0.36832602  0.00762565  0.67583828  1
  Li  Li144  1  0.92583828  0.25762565  0.61832602  1
  Li  Li145  1  0.57416172  0.74237435  0.11832602  1
  Li  Li146  1  0.07416172  0.75762565  0.88167398  1
  Li  Li147  1  0.42583828  0.24237435  0.38167398  1
  Li  Li148  1  0.61832602  0.92583828  0.25762565  1
  Li  Li149  1  0.11832602  0.57416172  0.74237435  1
  Li  Li150  1  0.88167398  0.07416172  0.75762565  1
  Li  Li151  1  0.38167398  0.42583828  0.24237435  1
  Li  Li152  1  0.25762565  0.61832602  0.92583828  1
  Li  Li153  1  0.74237435  0.11832602  0.57416172  1
  Li  Li154  1  0.75762565  0.88167398  0.07416172  1
  Li  Li155  1  0.24237435  0.38167398  0.42583828  1
  Li  Li156  1  0.00762565  0.17583828  0.63167398  1
  Li  Li157  1  0.49237435  0.82416172  0.13167398  1
  Li  Li158  1  0.50762565  0.32416172  0.36832602  1
  Li  Li159  1  0.99237435  0.67583828  0.86832602  1
  Li  Li160  1  0.67583828  0.86832602  0.99237435  1
  Li  Li161  1  0.32416172  0.36832602  0.50762565  1
  Li  Li162  1  0.82416172  0.13167398  0.49237435  1
  Li  Li163  1  0.17583828  0.63167398  0.00762565  1
  Li  Li164  1  0.36832602  0.50762565  0.32416172  1
  Li  Li165  1  0.86832602  0.99237435  0.67583828  1
  Li  Li166  1  0.63167398  0.00762565  0.17583828  1
  Li  Li167  1  0.13167398  0.49237435  0.82416172  1
  Li  Li168  1  0.07416172  0.74237435  0.38167398  1
  Li  Li169  1  0.42583828  0.25762565  0.88167398  1
  Li  Li170  1  0.92583828  0.24237435  0.11832602  1
  Li  Li171  1  0.57416172  0.75762565  0.61832602  1
  Li  Li172  1  0.38167398  0.07416172  0.74237435  1
  Li  Li173  1  0.88167398  0.42583828  0.25762565  1
  Li  Li174  1  0.11832602  0.92583828  0.24237435  1
  Li  Li175  1  0.61832602  0.57416172  0.75762565  1
  Li  Li176  1  0.74237435  0.38167398  0.07416172  1
  Li  Li177  1  0.25762565  0.88167398  0.42583828  1
  Li  Li178  1  0.24237435  0.11832602  0.92583828  1
  Li  Li179  1  0.75762565  0.61832602  0.57416172  1
  Li  Li180  1  0.99237435  0.82416172  0.36832602  1
  Li  Li181  1  0.50762565  0.17583828  0.86832602  1
  Li  Li182  1  0.49237435  0.67583828  0.63167398  1
  Li  Li183  1  0.00762565  0.32416172  0.13167398  1
  Li  Li184  1  0.32416172  0.13167398  0.00762565  1
  Li  Li185  1  0.67583828  0.63167398  0.49237435  1
  Li  Li186  1  0.17583828  0.86832602  0.50762565  1
  Li  Li187  1  0.82416172  0.36832602  0.99237435  1
  Li  Li188  1  0.63167398  0.49237435  0.67583828  1
  Li  Li189  1  0.13167398  0.00762565  0.32416172  1
  Li  Li190  1  0.36832602  0.99237435  0.82416172  1
  Li  Li191  1  0.86832602  0.50762565  0.17583828  1
  Na  Na192  1  0.05788787  0.05788787  0.05788787  1
  Na  Na193  1  0.44211213  0.94211213  0.55788787  1
  Na  Na194  1  0.94211213  0.55788787  0.44211213  1
  Na  Na195  1  0.55788787  0.44211213  0.94211213  1
  Na  Na196  1  0.80788787  0.30788787  0.19211213  1
  Na  Na197  1  0.69211213  0.69211213  0.69211213  1
  Na  Na198  1  0.30788787  0.19211213  0.80788787  1
  Na  Na199  1  0.19211213  0.80788787  0.30788787  1
  Na  Na200  1  0.94211213  0.94211213  0.94211213  1
  Na  Na201  1  0.55788787  0.05788787  0.44211213  1
  Na  Na202  1  0.05788787  0.44211213  0.55788787  1
  Na  Na203  1  0.44211213  0.55788787  0.05788787  1
  Na  Na204  1  0.19211213  0.69211213  0.80788787  1
  Na  Na205  1  0.30788787  0.30788787  0.30788787  1
  Na  Na206  1  0.69211213  0.80788787  0.19211213  1
  Na  Na207  1  0.80788787  0.19211213  0.69211213  1
  Na  Na208  1  0.55788787  0.55788787  0.55788787  1
  Na  Na209  1  0.94211213  0.44211213  0.05788787  1
  Na  Na210  1  0.44211213  0.05788787  0.94211213  1
  Na  Na211  1  0.05788787  0.94211213  0.44211213  1
  Na  Na212  1  0.30788787  0.80788787  0.69211213  1
  Na  Na213  1  0.19211213  0.19211213  0.19211213  1
  Na  Na214  1  0.80788787  0.69211213  0.30788787  1
  Na  Na215  1  0.69211213  0.30788787  0.80788787  1
  Na  Na216  1  0.44211213  0.44211213  0.44211213  1
  Na  Na217  1  0.05788787  0.55788787  0.94211213  1
  Na  Na218  1  0.55788787  0.94211213  0.05788787  1
  Na  Na219  1  0.94211213  0.05788787  0.55788787  1
  Na  Na220  1  0.69211213  0.19211213  0.30788787  1
  Na  Na221  1  0.80788787  0.80788787  0.80788787  1
  Na  Na222  1  0.19211213  0.30788787  0.69211213  1
  Na  Na223  1  0.30788787  0.69211213  0.19211213  1
  Na  Na224  1  0.12500000  0.82570390  0.42429610  1
  Na  Na225  1  0.37500000  0.17429610  0.92429610  1
  Na  Na226  1  0.87500000  0.32570390  0.07570390  1
  Na  Na227  1  0.62500000  0.67429610  0.57570390  1
  Na  Na228  1  0.42429610  0.12500000  0.82570390  1
  Na  Na229  1  0.92429610  0.37500000  0.17429610  1
  Na  Na230  1  0.07570390  0.87500000  0.32570390  1
  Na  Na231  1  0.57570390  0.62500000  0.67429610  1
  Na  Na232  1  0.82570390  0.42429610  0.12500000  1
  Na  Na233  1  0.17429610  0.92429610  0.37500000  1
  Na  Na234  1  0.32570390  0.07570390  0.87500000  1
  Na  Na235  1  0.67429610  0.57570390  0.62500000  1
  Na  Na236  1  0.87500000  0.17429610  0.57570390  1
  Na  Na237  1  0.62500000  0.82570390  0.07570390  1
  Na  Na238  1  0.12500000  0.67429610  0.92429610  1
  Na  Na239  1  0.37500000  0.32570390  0.42429610  1
  Na  Na240  1  0.57570390  0.87500000  0.17429610  1
  Na  Na241  1  0.07570390  0.62500000  0.82570390  1
  Na  Na242  1  0.92429610  0.12500000  0.67429610  1
  Na  Na243  1  0.42429610  0.37500000  0.32570390  1
  Na  Na244  1  0.17429610  0.57570390  0.87500000  1
  Na  Na245  1  0.82570390  0.07570390  0.62500000  1
  Na  Na246  1  0.67429610  0.92429610  0.12500000  1
  Na  Na247  1  0.32570390  0.42429610  0.37500000  1
  Na  Na248  1  0.62500000  0.32570390  0.92429610  1
  Na  Na249  1  0.87500000  0.67429610  0.42429610  1
  Na  Na250  1  0.37500000  0.82570390  0.57570390  1
  Na  Na251  1  0.12500000  0.17429610  0.07570390  1
  Na  Na252  1  0.92429610  0.62500000  0.32570390  1
  Na  Na253  1  0.42429610  0.87500000  0.67429610  1
  Na  Na254  1  0.57570390  0.37500000  0.82570390  1
  Na  Na255  1  0.07570390  0.12500000  0.17429610  1
  Na  Na256  1  0.32570390  0.92429610  0.62500000  1
  Na  Na257  1  0.67429610  0.42429610  0.87500000  1
  Na  Na258  1  0.82570390  0.57570390  0.37500000  1
  Na  Na259  1  0.17429610  0.07570390  0.12500000  1
  Na  Na260  1  0.37500000  0.67429610  0.07570390  1
  Na  Na261  1  0.12500000  0.32570390  0.57570390  1
  Na  Na262  1  0.62500000  0.17429610  0.42429610  1
  Na  Na263  1  0.87500000  0.82570390  0.92429610  1
  Na  Na264  1  0.07570390  0.37500000  0.67429610  1
  Na  Na265  1  0.57570390  0.12500000  0.32570390  1
  Na  Na266  1  0.42429610  0.62500000  0.17429610  1
  Na  Na267  1  0.92429610  0.87500000  0.82570390  1
  Na  Na268  1  0.67429610  0.07570390  0.37500000  1
  Na  Na269  1  0.32570390  0.57570390  0.12500000  1
  Na  Na270  1  0.17429610  0.42429610  0.62500000  1
  Na  Na271  1  0.82570390  0.92429610  0.87500000  1
  Na  Na272  1  0.00000000  0.00000000  0.00000000  1
  Na  Na273  1  0.50000000  0.00000000  0.50000000  1
  Na  Na274  1  0.00000000  0.50000000  0.50000000  1
  Na  Na275  1  0.50000000  0.50000000  0.00000000  1
  Na  Na276  1  0.75000000  0.25000000  0.25000000  1
  Na  Na277  1  0.75000000  0.75000000  0.75000000  1
  Na  Na278  1  0.25000000  0.25000000  0.75000000  1
  Na  Na279  1  0.25000000  0.75000000  0.25000000  1
  Na  Na280  1  0.50000000  0.50000000  0.50000000  1
  Na  Na281  1  0.00000000  0.50000000  0.00000000  1
  Na  Na282  1  0.50000000  0.00000000  0.00000000  1
  Na  Na283  1  0.00000000  0.00000000  0.50000000  1
  Na  Na284  1  0.25000000  0.75000000  0.75000000  1
  Na  Na285  1  0.25000000  0.25000000  0.25000000  1
  Na  Na286  1  0.75000000  0.75000000  0.25000000  1
  Na  Na287  1  0.75000000  0.25000000  0.75000000  1
  S  S288  1  0.12500000  0.00000000  0.25000000  1
  S  S289  1  0.37500000  0.00000000  0.75000000  1
  S  S290  1  0.25000000  0.12500000  0.00000000  1
  S  S291  1  0.75000000  0.37500000  0.00000000  1
  S  S292  1  0.00000000  0.25000000  0.12500000  1
  S  S293  1  0.00000000  0.75000000  0.37500000  1
  S  S294  1  0.87500000  0.00000000  0.75000000  1
  S  S295  1  0.62500000  0.00000000  0.25000000  1
  S  S296  1  0.75000000  0.87500000  0.00000000  1
  S  S297  1  0.25000000  0.62500000  0.00000000  1
  S  S298  1  0.00000000  0.75000000  0.87500000  1
  S  S299  1  0.00000000  0.25000000  0.62500000  1
  S  S300  1  0.62500000  0.50000000  0.75000000  1
  S  S301  1  0.87500000  0.50000000  0.25000000  1
  S  S302  1  0.75000000  0.62500000  0.50000000  1
  S  S303  1  0.25000000  0.87500000  0.50000000  1
  S  S304  1  0.50000000  0.75000000  0.62500000  1
  S  S305  1  0.50000000  0.25000000  0.87500000  1
  S  S306  1  0.37500000  0.50000000  0.25000000  1
  S  S307  1  0.12500000  0.50000000  0.75000000  1
  S  S308  1  0.25000000  0.37500000  0.50000000  1
  S  S309  1  0.75000000  0.12500000  0.50000000  1
  S  S310  1  0.50000000  0.25000000  0.37500000  1
  S  S311  1  0.50000000  0.75000000  0.12500000  1
  S  S312  1  0.37500000  0.00000000  0.25000000  1
  S  S313  1  0.12500000  0.00000000  0.75000000  1
  S  S314  1  0.25000000  0.37500000  0.00000000  1
  S  S315  1  0.75000000  0.12500000  0.00000000  1
  S  S316  1  0.00000000  0.25000000  0.37500000  1
  S  S317  1  0.00000000  0.75000000  0.12500000  1
  S  S318  1  0.75000000  0.62500000  0.00000000  1
  S  S319  1  0.75000000  0.37500000  0.50000000  1
  S  S320  1  0.12500000  0.50000000  0.25000000  1
  S  S321  1  0.87500000  0.00000000  0.25000000  1
  S  S322  1  0.00000000  0.25000000  0.87500000  1
  S  S323  1  0.50000000  0.25000000  0.12500000  1
  S  S324  1  0.87500000  0.50000000  0.75000000  1
  S  S325  1  0.62500000  0.50000000  0.25000000  1
  S  S326  1  0.75000000  0.87500000  0.50000000  1
  S  S327  1  0.25000000  0.62500000  0.50000000  1
  S  S328  1  0.50000000  0.75000000  0.87500000  1
  S  S329  1  0.50000000  0.25000000  0.62500000  1
  S  S330  1  0.25000000  0.12500000  0.50000000  1
  S  S331  1  0.25000000  0.87500000  0.00000000  1
  S  S332  1  0.62500000  0.00000000  0.75000000  1
  S  S333  1  0.37500000  0.50000000  0.75000000  1
  S  S334  1  0.50000000  0.75000000  0.37500000  1
  S  S335  1  0.00000000  0.75000000  0.62500000  1
  S  S336  1  0.68847263  0.31890483  0.33454322  1
  S  S337  1  0.81152737  0.68109517  0.83454322  1
  S  S338  1  0.31152737  0.81890483  0.16545678  1
  S  S339  1  0.18847263  0.18109517  0.66545678  1
  S  S340  1  0.33454322  0.68847263  0.31890483  1
  S  S341  1  0.83454322  0.81152737  0.68109517  1
  S  S342  1  0.16545678  0.31152737  0.81890483  1
  S  S343  1  0.66545678  0.18847263  0.18109517  1
  S  S344  1  0.31890483  0.33454322  0.68847263  1
  S  S345  1  0.68109517  0.83454322  0.81152737  1
  S  S346  1  0.81890483  0.16545678  0.31152737  1
  S  S347  1  0.18109517  0.66545678  0.18847263  1
  S  S348  1  0.06890483  0.93847263  0.91545678  1
  S  S349  1  0.43109517  0.06152737  0.41545678  1
  S  S350  1  0.56890483  0.56152737  0.08454322  1
  S  S351  1  0.93109517  0.43847263  0.58454322  1
  S  S352  1  0.43847263  0.58454322  0.93109517  1
  S  S353  1  0.56152737  0.08454322  0.56890483  1
  S  S354  1  0.06152737  0.41545678  0.43109517  1
  S  S355  1  0.93847263  0.91545678  0.06890483  1
  S  S356  1  0.08454322  0.56890483  0.56152737  1
  S  S357  1  0.58454322  0.93109517  0.43847263  1
  S  S358  1  0.91545678  0.06890483  0.93847263  1
  S  S359  1  0.41545678  0.43109517  0.06152737  1
  S  S360  1  0.31152737  0.68109517  0.66545678  1
  S  S361  1  0.18847263  0.31890483  0.16545678  1
  S  S362  1  0.68847263  0.18109517  0.83454322  1
  S  S363  1  0.81152737  0.81890483  0.33454322  1
  S  S364  1  0.66545678  0.31152737  0.68109517  1
  S  S365  1  0.16545678  0.18847263  0.31890483  1
  S  S366  1  0.83454322  0.68847263  0.18109517  1
  S  S367  1  0.33454322  0.81152737  0.81890483  1
  S  S368  1  0.68109517  0.66545678  0.31152737  1
  S  S369  1  0.31890483  0.16545678  0.18847263  1
  S  S370  1  0.18109517  0.83454322  0.68847263  1
  S  S371  1  0.81890483  0.33454322  0.81152737  1
  S  S372  1  0.93109517  0.06152737  0.08454322  1
  S  S373  1  0.56890483  0.93847263  0.58454322  1
  S  S374  1  0.43109517  0.43847263  0.91545678  1
  S  S375  1  0.06890483  0.56152737  0.41545678  1
  S  S376  1  0.56152737  0.41545678  0.06890483  1
  S  S377  1  0.43847263  0.91545678  0.43109517  1
  S  S378  1  0.93847263  0.58454322  0.56890483  1
  S  S379  1  0.06152737  0.08454322  0.93109517  1
  S  S380  1  0.91545678  0.43109517  0.43847263  1
  S  S381  1  0.41545678  0.06890483  0.56152737  1
  S  S382  1  0.08454322  0.93109517  0.06152737  1
  S  S383  1  0.58454322  0.56890483  0.93847263  1
  S  S384  1  0.18847263  0.81890483  0.83454322  1
  S  S385  1  0.31152737  0.18109517  0.33454322  1
  S  S386  1  0.81152737  0.31890483  0.66545678  1
  S  S387  1  0.68847263  0.68109517  0.16545678  1
  S  S388  1  0.83454322  0.18847263  0.81890483  1
  S  S389  1  0.33454322  0.31152737  0.18109517  1
  S  S390  1  0.66545678  0.81152737  0.31890483  1
  S  S391  1  0.16545678  0.68847263  0.68109517  1
  S  S392  1  0.81890483  0.83454322  0.18847263  1
  S  S393  1  0.18109517  0.33454322  0.31152737  1
  S  S394  1  0.31890483  0.66545678  0.81152737  1
  S  S395  1  0.68109517  0.16545678  0.68847263  1
  S  S396  1  0.56890483  0.43847263  0.41545678  1
  S  S397  1  0.93109517  0.56152737  0.91545678  1
  S  S398  1  0.06890483  0.06152737  0.58454322  1
  S  S399  1  0.43109517  0.93847263  0.08454322  1
  S  S400  1  0.93847263  0.08454322  0.43109517  1
  S  S401  1  0.06152737  0.58454322  0.06890483  1
  S  S402  1  0.56152737  0.91545678  0.93109517  1
  S  S403  1  0.43847263  0.41545678  0.56890483  1
  S  S404  1  0.58454322  0.06890483  0.06152737  1
  S  S405  1  0.08454322  0.43109517  0.93847263  1
  S  S406  1  0.41545678  0.56890483  0.43847263  1
  S  S407  1  0.91545678  0.93109517  0.56152737  1
  S  S408  1  0.81152737  0.18109517  0.16545678  1
  S  S409  1  0.68847263  0.81890483  0.66545678  1
  S  S410  1  0.18847263  0.68109517  0.33454322  1
  S  S411  1  0.31152737  0.31890483  0.83454322  1
  S  S412  1  0.16545678  0.81152737  0.18109517  1
  S  S413  1  0.66545678  0.68847263  0.81890483  1
  S  S414  1  0.33454322  0.18847263  0.68109517  1
  S  S415  1  0.83454322  0.31152737  0.31890483  1
  S  S416  1  0.18109517  0.16545678  0.81152737  1
  S  S417  1  0.81890483  0.66545678  0.68847263  1
  S  S418  1  0.68109517  0.33454322  0.18847263  1
  S  S419  1  0.31890483  0.83454322  0.31152737  1
  S  S420  1  0.43109517  0.56152737  0.58454322  1
  S  S421  1  0.06890483  0.43847263  0.08454322  1
  S  S422  1  0.93109517  0.93847263  0.41545678  1
  S  S423  1  0.56890483  0.06152737  0.91545678  1
  S  S424  1  0.06152737  0.91545678  0.56890483  1
  S  S425  1  0.93847263  0.41545678  0.93109517  1
  S  S426  1  0.43847263  0.08454322  0.06890483  1
  S  S427  1  0.56152737  0.58454322  0.43109517  1
  S  S428  1  0.41545678  0.93109517  0.93847263  1
  S  S429  1  0.91545678  0.56890483  0.06152737  1
  S  S430  1  0.58454322  0.43109517  0.56152737  1
  S  S431  1  0.08454322  0.06890483  0.43847263  1
