# generated using pymatgen
data_Li8Zr2Se(I6Cl)2
_symmetry_space_group_name_H-M   'P 1'
_cell_length_a   14.10999740
_cell_length_b   14.10999740
_cell_length_c   28.02505719
_cell_angle_alpha   90.00000000
_cell_angle_beta   90.00000000
_cell_angle_gamma   90.00000000
_symmetry_Int_Tables_number   1
_chemical_formula_structural   Li8Zr2Se(I6Cl)2
_chemical_formula_sum   'Li64 Zr16 Se8 I96 Cl16'
_cell_volume   5579.56543199
_cell_formula_units_Z   8
loop_
 _symmetry_equiv_pos_site_id
 _symmetry_equiv_pos_as_xyz
  1  'x, y, z'
loop_
 _atom_site_type_symbol
 _atom_site_label
 _atom_site_symmetry_multiplicity
 _atom_site_fract_x
 _atom_site_fract_y
 _atom_site_fract_z
 _atom_site_occupancy
  Cl  Cl0  1  0.00000000  0.00000000  0.00000000  1
  Cl  Cl1  1  0.50000000  0.00000000  0.50000000  1
  Cl  Cl2  1  0.25000000  0.75000000  0.25000000  1
  Cl  Cl3  1  0.25000000  0.25000000  0.75000000  1
  Cl  Cl4  1  0.50000000  0.00000000  0.00000000  1
  Cl  Cl5  1  0.00000000  0.00000000  0.50000000  1
  Cl  Cl6  1  0.25000000  0.75000000  0.75000000  1
  Cl  Cl7  1  0.25000000  0.25000000  0.25000000  1
  Cl  Cl8  1  0.50000000  0.50000000  0.50000000  1
  Cl  Cl9  1  0.00000000  0.50000000  0.00000000  1
  Cl  Cl10  1  0.75000000  0.25000000  0.75000000  1
  Cl  Cl11  1  0.75000000  0.75000000  0.25000000  1
  Cl  Cl12  1  0.00000000  0.50000000  0.50000000  1
  Cl  Cl13  1  0.50000000  0.50000000  0.00000000  1
  Cl  Cl14  1  0.75000000  0.25000000  0.25000000  1
  Cl  Cl15  1  0.75000000  0.75000000  0.75000000  1
  I  I16  1  0.31515643  -0.00000000  0.25000000  1
  I  I17  1  0.18484357  0.00000000  0.75000000  1
  I  I18  1  0.25000000  0.06515643  0.50000000  1
  I  I19  1  0.25000000  0.93484357  0.00000000  1
  I  I20  1  0.68484357  0.00000000  0.75000000  1
  I  I21  1  0.81515643  0.00000000  0.25000000  1
  I  I22  1  0.75000000  0.93484357  0.50000000  1
  I  I23  1  0.75000000  0.06515643  0.00000000  1
  I  I24  1  0.81515643  0.50000000  0.75000000  1
  I  I25  1  0.68484357  0.50000000  0.25000000  1
  I  I26  1  0.75000000  0.56515643  0.00000000  1
  I  I27  1  0.75000000  0.43484357  0.50000000  1
  I  I28  1  0.18484357  0.50000000  0.25000000  1
  I  I29  1  0.31515643  0.50000000  0.75000000  1
  I  I30  1  0.25000000  0.43484357  0.00000000  1
  I  I31  1  0.25000000  0.56515643  0.50000000  1
  I  I32  1  0.03373200  0.99330355  0.64891121  1
  I  I33  1  0.46626800  -0.99330355  1.14891121  1
  I  I34  1  -0.74330355  0.78373200  0.89891121  1
  I  I35  1  1.24330355  0.21626800  1.39891121  1
  I  I36  1  0.46626800  0.99330355  -0.64891121  1
  I  I37  1  0.03373200  -0.99330355  -0.14891121  1
  I  I38  1  1.24330355  0.78373200  0.10108879  1
  I  I39  1  -0.74330355  0.21626800  -0.39891121  1
  I  I40  1  -0.03373200  -0.99330355  -0.64891121  1
  I  I41  1  0.53373200  0.99330355  -0.14891121  1
  I  I42  1  1.74330355  0.21626800  0.10108879  1
  I  I43  1  -0.24330355  0.78373200  -0.39891121  1
  I  I44  1  0.53373200  -0.99330355  0.64891121  1
  I  I45  1  -0.03373200  0.99330355  1.14891121  1
  I  I46  1  -0.24330355  0.21626800  0.89891121  1
  I  I47  1  1.74330355  0.78373200  1.39891121  1
  I  I48  1  0.53373200  1.49330355  1.14891121  1
  I  I49  1  0.96626800  -0.49330355  1.64891121  1
  I  I50  1  -0.24330355  1.28373200  1.39891121  1
  I  I51  1  1.74330355  0.71626800  1.89891121  1
  I  I52  1  0.96626800  1.49330355  -0.14891121  1
  I  I53  1  0.53373200  -0.49330355  0.35108879  1
  I  I54  1  1.74330355  1.28373200  0.60108879  1
  I  I55  1  -0.24330355  0.71626800  0.10108879  1
  I  I56  1  0.46626800  -0.49330355  -0.14891121  1
  I  I57  1  1.03373200  1.49330355  0.35108879  1
  I  I58  1  2.24330355  0.71626800  0.60108879  1
  I  I59  1  0.25669645  1.28373200  0.10108879  1
  I  I60  1  1.03373200  -0.49330355  1.14891121  1
  I  I61  1  0.46626800  1.49330355  1.64891121  1
  I  I62  1  0.25669645  0.71626800  1.39891121  1
  I  I63  1  2.24330355  1.28373200  1.89891121  1
  I  I64  1  0.94079100  0.49930497  0.70535066  1
  I  I65  1  0.55920900  0.50069503  0.20535066  1
  I  I66  1  0.75069503  0.69079100  0.95535066  1
  I  I67  1  0.74930497  0.30920900  0.45535066  1
  I  I68  1  0.55920900  0.49930497  0.29464934  1
  I  I69  1  0.94079100  0.50069503  0.79464934  1
  I  I70  1  0.74930497  0.69079100  0.04464934  1
  I  I71  1  0.75069503  0.30920900  0.54464934  1
  I  I72  1  0.05920900  0.50069503  0.29464934  1
  I  I73  1  0.44079100  0.49930497  0.79464934  1
  I  I74  1  0.24930497  0.30920900  0.04464934  1
  I  I75  1  0.25069503  0.69079100  0.54464934  1
  I  I76  1  0.44079100  0.50069503  0.70535066  1
  I  I77  1  0.05920900  0.49930497  0.20535066  1
  I  I78  1  0.25069503  0.30920900  0.95535066  1
  I  I79  1  0.24930497  0.69079100  0.45535066  1
  I  I80  1  0.44079100  0.99930497  0.20535066  1
  I  I81  1  0.05920900  0.00069503  0.70535066  1
  I  I82  1  0.25069503  0.19079100  0.45535066  1
  I  I83  1  0.24930497  0.80920900  0.95535066  1
  I  I84  1  0.05920900  0.99930497  0.79464934  1
  I  I85  1  0.44079100  0.00069503  0.29464934  1
  I  I86  1  0.24930497  0.19079100  0.54464934  1
  I  I87  1  0.25069503  0.80920900  0.04464934  1
  I  I88  1  0.55920900  0.00069503  0.79464934  1
  I  I89  1  0.94079100  0.99930497  0.29464934  1
  I  I90  1  0.74930497  0.80920900  0.54464934  1
  I  I91  1  0.75069503  0.19079100  0.04464934  1
  I  I92  1  0.94079100  0.00069503  0.20535066  1
  I  I93  1  0.55920900  0.99930497  0.70535066  1
  I  I94  1  0.75069503  0.80920900  0.45535066  1
  I  I95  1  0.74930497  0.19079100  0.95535066  1
  I  I96  1  0.00000000  0.25000000  0.59041413  1
  I  I97  1  0.00000000  0.75000000  0.84041413  1
  I  I98  1  0.50000000  0.25000000  0.40958587  1
  I  I99  1  0.50000000  0.75000000  0.15958587  1
  I  I100  1  0.00000000  0.75000000  0.40958587  1
  I  I101  1  0.00000000  0.25000000  0.15958587  1
  I  I102  1  0.50000000  0.75000000  0.59041413  1
  I  I103  1  0.50000000  0.25000000  0.84041413  1
  I  I104  1  0.50000000  0.75000000  0.09041413  1
  I  I105  1  0.50000000  0.25000000  0.34041413  1
  I  I106  1  0.00000000  0.75000000  0.90958587  1
  I  I107  1  0.00000000  0.25000000  0.65958587  1
  I  I108  1  0.50000000  0.25000000  0.90958587  1
  I  I109  1  0.50000000  0.75000000  0.65958587  1
  I  I110  1  0.00000000  0.25000000  0.09041413  1
  I  I111  1  0.00000000  0.75000000  0.34041413  1
  Li  Li112  1  0.35124584  0.60124584  0.12500000  1
  Li  Li113  1  0.14875416  0.39875416  0.62500000  1
  Li  Li114  1  0.64875416  0.10124584  0.37500000  1
  Li  Li115  1  0.85124584  0.89875416  0.87500000  1
  Li  Li116  1  0.64875416  0.39875416  0.87500000  1
  Li  Li117  1  0.85124584  0.60124584  0.37500000  1
  Li  Li118  1  0.35124584  0.89875416  0.62500000  1
  Li  Li119  1  0.14875416  0.10124584  0.12500000  1
  Li  Li120  1  0.85124584  0.10124584  0.62500000  1
  Li  Li121  1  0.64875416  0.89875416  0.12500000  1
  Li  Li122  1  0.14875416  0.60124584  0.87500000  1
  Li  Li123  1  0.35124584  0.39875416  0.37500000  1
  Li  Li124  1  0.14875416  0.89875416  0.37500000  1
  Li  Li125  1  0.35124584  0.10124584  0.87500000  1
  Li  Li126  1  0.85124584  0.39875416  0.12500000  1
  Li  Li127  1  0.64875416  0.60124584  0.62500000  1
  Li  Li128  1  0.98090607  0.90979790  0.86254266  1
  Li  Li129  1  0.51909393  0.09020210  0.36254266  1
  Li  Li130  1  0.34020210  0.73090607  0.11254266  1
  Li  Li131  1  0.15979790  0.26909393  0.61254266  1
  Li  Li132  1  0.51909393  0.90979790  0.13745734  1
  Li  Li133  1  0.98090607  0.09020210  0.63745734  1
  Li  Li134  1  0.15979790  0.73090607  0.88745734  1
  Li  Li135  1  0.34020210  0.26909393  0.38745734  1
  Li  Li136  1  0.01909393  0.09020210  0.13745734  1
  Li  Li137  1  0.48090607  0.90979790  0.63745734  1
  Li  Li138  1  0.65979790  0.26909393  0.88745734  1
  Li  Li139  1  0.84020210  0.73090607  0.38745734  1
  Li  Li140  1  0.48090607  0.09020210  0.86254266  1
  Li  Li141  1  0.01909393  0.90979790  0.36254266  1
  Li  Li142  1  0.84020210  0.26909393  0.11254266  1
  Li  Li143  1  0.65979790  0.73090607  0.61254266  1
  Li  Li144  1  0.48090607  0.40979790  0.36254266  1
  Li  Li145  1  0.01909393  0.59020210  0.86254266  1
  Li  Li146  1  0.84020210  0.23090607  0.61254266  1
  Li  Li147  1  0.65979790  0.76909393  0.11254266  1
  Li  Li148  1  0.01909393  0.40979790  0.63745734  1
  Li  Li149  1  0.48090607  0.59020210  0.13745734  1
  Li  Li150  1  0.65979790  0.23090607  0.38745734  1
  Li  Li151  1  0.84020210  0.76909393  0.88745734  1
  Li  Li152  1  0.51909393  0.59020210  0.63745734  1
  Li  Li153  1  0.98090607  0.40979790  0.13745734  1
  Li  Li154  1  0.15979790  0.76909393  0.38745734  1
  Li  Li155  1  0.34020210  0.23090607  0.88745734  1
  Li  Li156  1  0.98090607  0.59020210  0.36254266  1
  Li  Li157  1  0.51909393  0.40979790  0.86254266  1
  Li  Li158  1  0.34020210  0.76909393  0.61254266  1
  Li  Li159  1  0.15979790  0.23090607  0.11254266  1
  Li  Li160  1  0.00000000  0.25000000  0.75763582  1
  Li  Li161  1  0.00000000  0.75000000  0.00763582  1
  Li  Li162  1  0.50000000  0.25000000  0.24236418  1
  Li  Li163  1  0.50000000  0.75000000  0.99236418  1
  Li  Li164  1  0.00000000  0.75000000  0.24236418  1
  Li  Li165  1  0.00000000  0.25000000  0.99236418  1
  Li  Li166  1  0.50000000  0.75000000  0.75763582  1
  Li  Li167  1  0.50000000  0.25000000  0.00763582  1
  Li  Li168  1  0.50000000  0.75000000  0.25763582  1
  Li  Li169  1  0.50000000  0.25000000  0.50763582  1
  Li  Li170  1  0.00000000  0.75000000  0.74236418  1
  Li  Li171  1  0.00000000  0.25000000  0.49236418  1
  Li  Li172  1  0.50000000  0.25000000  0.74236418  1
  Li  Li173  1  0.50000000  0.75000000  0.49236418  1
  Li  Li174  1  0.00000000  0.25000000  0.25763582  1
  Li  Li175  1  0.00000000  0.75000000  0.50763582  1
  Se  Se176  1  0.00000000  0.25000000  0.37500000  1
  Se  Se177  1  0.00000000  0.75000000  0.62500000  1
  Se  Se178  1  0.50000000  0.25000000  0.62500000  1
  Se  Se179  1  0.50000000  0.75000000  0.37500000  1
  Se  Se180  1  0.50000000  0.75000000  0.87500000  1
  Se  Se181  1  0.50000000  0.25000000  0.12500000  1
  Se  Se182  1  0.00000000  0.75000000  0.12500000  1
  Se  Se183  1  0.00000000  0.25000000  0.87500000  1
  Zr  Zr184  1  0.84644078  0.09644078  0.12500000  1
  Zr  Zr185  1  0.65355922  0.90355922  0.62500000  1
  Zr  Zr186  1  0.15355922  0.59644078  0.37500000  1
  Zr  Zr187  1  0.34644078  0.40355922  0.87500000  1
  Zr  Zr188  1  0.15355922  0.90355922  0.87500000  1
  Zr  Zr189  1  0.34644078  0.09644078  0.37500000  1
  Zr  Zr190  1  0.84644078  0.40355922  0.62500000  1
  Zr  Zr191  1  0.65355922  0.59644078  0.12500000  1
  Zr  Zr192  1  0.34644078  0.59644078  0.62500000  1
  Zr  Zr193  1  0.15355922  0.40355922  0.12500000  1
  Zr  Zr194  1  0.65355922  0.09644078  0.87500000  1
  Zr  Zr195  1  0.84644078  0.90355922  0.37500000  1
  Zr  Zr196  1  0.65355922  0.40355922  0.37500000  1
  Zr  Zr197  1  0.84644078  0.59644078  0.87500000  1
  Zr  Zr198  1  0.34644078  0.90355922  0.12500000  1
  Zr  Zr199  1  0.15355922  0.09644078  0.62500000  1
