# generated using pymatgen
data_Li6ErTi3O
_symmetry_space_group_name_H-M   'P 1'
_cell_length_a   3.27308737
_cell_length_b   3.76751447
_cell_length_c   6.42513927
_cell_angle_alpha   116.11206615
_cell_angle_beta   119.62699053
_cell_angle_gamma   106.30772879
_symmetry_Int_Tables_number   1
_chemical_formula_structural   Li6ErTi3O
_chemical_formula_sum   'Li6 Er1 Ti3 O1'
_cell_volume   47.59581144
_cell_formula_units_Z   1
loop_
 _symmetry_equiv_pos_site_id
 _symmetry_equiv_pos_as_xyz
  1  'x, y, z'
loop_
 _atom_site_type_symbol
 _atom_site_label
 _atom_site_symmetry_multiplicity
 _atom_site_fract_x
 _atom_site_fract_y
 _atom_site_fract_z
 _atom_site_occupancy
  Li  Li0  1  0.00000000  0.00000000  0.00000000  1
  Li  Li1  1  0.33300000  0.66700000  0.25000000  1
  Li  Li2  1  0.66700000  0.33300000  0.50000000  1
  Li  Li3  1  0.00000000  0.00000000  0.75000000  1
  Li  Li4  1  0.20136626  0.76401549  0.63344639  1
  Li  Li5  1  0.21583371  0.42694035  0.79484186  1
  Ti  Ti6  1  0.06345783  0.70221276  0.28117016  1
  Ti  Ti7  1  0.59437458  0.07194012  0.01398557  1
  Ti  Ti8  1  0.30845494  0.76351780  0.62530382  1
  O  O9  1  0.26932283  0.09622672  0.18313238  1
  Er  Er10  1  0.32565190  0.42854937  0.28338156  1
