# generated using pymatgen
data_Na2Sr2Sb2Te2SeS3
_symmetry_space_group_name_H-M   'P 1'
_cell_length_a   21.57502331
_cell_length_b   21.57502331
_cell_length_c   13.35924682
_cell_angle_alpha   90.00000000
_cell_angle_beta   90.00000000
_cell_angle_gamma   90.00000000
_symmetry_Int_Tables_number   1
_chemical_formula_structural   Na2Sr2Sb2Te2SeS3
_chemical_formula_sum   'Na32 Sr32 Sb32 Te32 Se16 S48'
_cell_volume   6218.48399815
_cell_formula_units_Z   16
loop_
 _symmetry_equiv_pos_site_id
 _symmetry_equiv_pos_as_xyz
  1  'x, y, z'
loop_
 _atom_site_type_symbol
 _atom_site_label
 _atom_site_symmetry_multiplicity
 _atom_site_fract_x
 _atom_site_fract_y
 _atom_site_fract_z
 _atom_site_occupancy
  Na  Na0  1  0.94496271  0.03539741  0.66358204  1
  Na  Na1  1  0.55503729  0.96460259  0.16358204  1
  Na  Na2  1  0.21460259  0.69496271  0.91358204  1
  Na  Na3  1  0.28539741  0.30503729  0.41358204  1
  Na  Na4  1  0.55503729  0.03539741  0.33641796  1
  Na  Na5  1  0.94496271  0.96460259  0.83641796  1
  Na  Na6  1  0.28539741  0.69496271  0.08641796  1
  Na  Na7  1  0.21460259  0.30503729  0.58641796  1
  Na  Na8  1  0.05503729  0.96460259  0.33641796  1
  Na  Na9  1  0.44496271  0.03539741  0.83641796  1
  Na  Na10  1  0.78539741  0.30503729  0.08641796  1
  Na  Na11  1  0.71460259  0.69496271  0.58641796  1
  Na  Na12  1  0.44496271  0.96460259  0.66358204  1
  Na  Na13  1  0.05503729  0.03539741  0.16358204  1
  Na  Na14  1  0.71460259  0.30503729  0.91358204  1
  Na  Na15  1  0.78539741  0.69496271  0.41358204  1
  Na  Na16  1  0.44496271  0.53539741  0.16358204  1
  Na  Na17  1  0.05503729  0.46460259  0.66358204  1
  Na  Na18  1  0.71460259  0.19496271  0.41358204  1
  Na  Na19  1  0.78539741  0.80503729  0.91358204  1
  Na  Na20  1  0.05503729  0.53539741  0.83641796  1
  Na  Na21  1  0.44496271  0.46460259  0.33641796  1
  Na  Na22  1  0.78539741  0.19496271  0.58641796  1
  Na  Na23  1  0.71460259  0.80503729  0.08641796  1
  Na  Na24  1  0.55503729  0.46460259  0.83641796  1
  Na  Na25  1  0.94496271  0.53539741  0.33641796  1
  Na  Na26  1  0.28539741  0.80503729  0.58641796  1
  Na  Na27  1  0.21460259  0.19496271  0.08641796  1
  Na  Na28  1  0.94496271  0.46460259  0.16358204  1
  Na  Na29  1  0.55503729  0.53539741  0.66358204  1
  Na  Na30  1  0.21460259  0.80503729  0.41358204  1
  Na  Na31  1  0.28539741  0.19496271  0.91358204  1
  S  S32  1  0.00000000  0.25000000  0.49604668  1
  S  S33  1  0.00000000  0.75000000  0.74604668  1
  S  S34  1  0.50000000  0.25000000  0.50395332  1
  S  S35  1  0.50000000  0.75000000  0.25395332  1
  S  S36  1  0.00000000  0.75000000  0.50395332  1
  S  S37  1  0.00000000  0.25000000  0.25395332  1
  S  S38  1  0.50000000  0.75000000  0.49604668  1
  S  S39  1  0.50000000  0.25000000  0.74604668  1
  S  S40  1  0.50000000  0.75000000  0.99604668  1
  S  S41  1  0.50000000  0.25000000  0.24604668  1
  S  S42  1  0.00000000  0.75000000  0.00395332  1
  S  S43  1  0.00000000  0.25000000  0.75395332  1
  S  S44  1  0.50000000  0.25000000  0.00395332  1
  S  S45  1  0.50000000  0.75000000  0.75395332  1
  S  S46  1  0.00000000  0.25000000  0.99604668  1
  S  S47  1  0.00000000  0.75000000  0.24604668  1
  S  S48  1  0.89520052  0.43677148  0.56477442  1
  S  S49  1  -0.39520052  -0.43677148  1.06477442  1
  S  S50  1  -0.18677148  1.64520052  0.81477442  1
  S  S51  1  0.68677148  -0.64520052  1.31477442  1
  S  S52  1  -0.39520052  0.43677148  -0.56477442  1
  S  S53  1  0.89520052  -0.43677148  -0.06477442  1
  S  S54  1  0.68677148  1.64520052  0.18522558  1
  S  S55  1  -0.18677148  -0.64520052  -0.31477442  1
  S  S56  1  -0.89520052  -0.43677148  -0.56477442  1
  S  S57  1  1.39520052  0.43677148  -0.06477442  1
  S  S58  1  1.18677148  -0.64520052  0.18522558  1
  S  S59  1  0.31322852  1.64520052  -0.31477442  1
  S  S60  1  1.39520052  -0.43677148  0.56477442  1
  S  S61  1  -0.89520052  0.43677148  1.06477442  1
  S  S62  1  0.31322852  -0.64520052  0.81477442  1
  S  S63  1  1.18677148  1.64520052  1.31477442  1
  S  S64  1  1.39520052  0.93677148  1.06477442  1
  S  S65  1  0.10479948  0.06322852  1.56477442  1
  S  S66  1  0.31322852  2.14520052  1.31477442  1
  S  S67  1  1.18677148  -0.14520052  1.81477442  1
  S  S68  1  0.10479948  0.93677148  -0.06477442  1
  S  S69  1  1.39520052  0.06322852  0.43522558  1
  S  S70  1  1.18677148  2.14520052  0.68522558  1
  S  S71  1  0.31322852  -0.14520052  0.18522558  1
  S  S72  1  -0.39520052  0.06322852  -0.06477442  1
  S  S73  1  1.89520052  0.93677148  0.43522558  1
  S  S74  1  1.68677148  -0.14520052  0.68522558  1
  S  S75  1  0.81322852  2.14520052  0.18522558  1
  S  S76  1  1.89520052  0.06322852  1.06477442  1
  S  S77  1  -0.39520052  0.93677148  1.56477442  1
  S  S78  1  0.81322852  -0.14520052  1.31477442  1
  S  S79  1  1.68677148  2.14520052  1.81477442  1
  Sb  Sb80  1  0.95459761  0.07868297  0.04653046  1
  Sb  Sb81  1  0.54540239  0.92131703  0.54653046  1
  Sb  Sb82  1  0.17131703  0.70459761  0.29653046  1
  Sb  Sb83  1  0.32868297  0.29540239  0.79653046  1
  Sb  Sb84  1  0.54540239  0.07868297  0.95346954  1
  Sb  Sb85  1  0.95459761  0.92131703  0.45346954  1
  Sb  Sb86  1  0.32868297  0.70459761  0.70346954  1
  Sb  Sb87  1  0.17131703  0.29540239  0.20346954  1
  Sb  Sb88  1  0.04540239  0.92131703  0.95346954  1
  Sb  Sb89  1  0.45459761  0.07868297  0.45346954  1
  Sb  Sb90  1  0.82868297  0.29540239  0.70346954  1
  Sb  Sb91  1  0.67131703  0.70459761  0.20346954  1
  Sb  Sb92  1  0.45459761  0.92131703  0.04653046  1
  Sb  Sb93  1  0.04540239  0.07868297  0.54653046  1
  Sb  Sb94  1  0.67131703  0.29540239  0.29653046  1
  Sb  Sb95  1  0.82868297  0.70459761  0.79653046  1
  Sb  Sb96  1  0.45459761  0.57868297  0.54653046  1
  Sb  Sb97  1  0.04540239  0.42131703  0.04653046  1
  Sb  Sb98  1  0.67131703  0.20459761  0.79653046  1
  Sb  Sb99  1  0.82868297  0.79540239  0.29653046  1
  Sb  Sb100  1  0.04540239  0.57868297  0.45346954  1
  Sb  Sb101  1  0.45459761  0.42131703  0.95346954  1
  Sb  Sb102  1  0.82868297  0.20459761  0.20346954  1
  Sb  Sb103  1  0.67131703  0.79540239  0.70346954  1
  Sb  Sb104  1  0.54540239  0.42131703  0.45346954  1
  Sb  Sb105  1  0.95459761  0.57868297  0.95346954  1
  Sb  Sb106  1  0.32868297  0.79540239  0.20346954  1
  Sb  Sb107  1  0.17131703  0.20459761  0.70346954  1
  Sb  Sb108  1  0.95459761  0.42131703  0.54653046  1
  Sb  Sb109  1  0.54540239  0.57868297  0.04653046  1
  Sb  Sb110  1  0.17131703  0.79540239  0.79653046  1
  Sb  Sb111  1  0.32868297  0.20459761  0.29653046  1
  Se  Se112  1  0.24125675  0.49125675  0.12500000  1
  Se  Se113  1  0.25874325  0.50874325  0.62500000  1
  Se  Se114  1  0.75874325  0.99125675  0.37500000  1
  Se  Se115  1  0.74125675  0.00874325  0.87500000  1
  Se  Se116  1  0.75874325  0.50874325  0.87500000  1
  Se  Se117  1  0.74125675  0.49125675  0.37500000  1
  Se  Se118  1  0.24125675  0.00874325  0.62500000  1
  Se  Se119  1  0.25874325  0.99125675  0.12500000  1
  Se  Se120  1  0.74125675  0.99125675  0.62500000  1
  Se  Se121  1  0.75874325  0.00874325  0.12500000  1
  Se  Se122  1  0.25874325  0.49125675  0.87500000  1
  Se  Se123  1  0.24125675  0.50874325  0.37500000  1
  Se  Se124  1  0.25874325  0.00874325  0.37500000  1
  Se  Se125  1  0.24125675  0.99125675  0.87500000  1
  Se  Se126  1  0.74125675  0.50874325  0.12500000  1
  Se  Se127  1  0.75874325  0.49125675  0.62500000  1
  Sr  Sr128  1  0.39996761  0.37781686  0.21360181  1
  Sr  Sr129  1  0.10003239  0.62218314  0.71360181  1
  Sr  Sr130  1  0.87218314  0.14996761  0.46360181  1
  Sr  Sr131  1  0.62781686  0.85003239  0.96360181  1
  Sr  Sr132  1  0.10003239  0.37781686  0.78639819  1
  Sr  Sr133  1  0.39996761  0.62218314  0.28639819  1
  Sr  Sr134  1  0.62781686  0.14996761  0.53639819  1
  Sr  Sr135  1  0.87218314  0.85003239  0.03639819  1
  Sr  Sr136  1  0.60003239  0.62218314  0.78639819  1
  Sr  Sr137  1  0.89996761  0.37781686  0.28639819  1
  Sr  Sr138  1  0.12781686  0.85003239  0.53639819  1
  Sr  Sr139  1  0.37218314  0.14996761  0.03639819  1
  Sr  Sr140  1  0.89996761  0.62218314  0.21360181  1
  Sr  Sr141  1  0.60003239  0.37781686  0.71360181  1
  Sr  Sr142  1  0.37218314  0.85003239  0.46360181  1
  Sr  Sr143  1  0.12781686  0.14996761  0.96360181  1
  Sr  Sr144  1  0.89996761  0.87781686  0.71360181  1
  Sr  Sr145  1  0.60003239  0.12218314  0.21360181  1
  Sr  Sr146  1  0.37218314  0.64996761  0.96360181  1
  Sr  Sr147  1  0.12781686  0.35003239  0.46360181  1
  Sr  Sr148  1  0.60003239  0.87781686  0.28639819  1
  Sr  Sr149  1  0.89996761  0.12218314  0.78639819  1
  Sr  Sr150  1  0.12781686  0.64996761  0.03639819  1
  Sr  Sr151  1  0.37218314  0.35003239  0.53639819  1
  Sr  Sr152  1  0.10003239  0.12218314  0.28639819  1
  Sr  Sr153  1  0.39996761  0.87781686  0.78639819  1
  Sr  Sr154  1  0.62781686  0.35003239  0.03639819  1
  Sr  Sr155  1  0.87218314  0.64996761  0.53639819  1
  Sr  Sr156  1  0.39996761  0.12218314  0.71360181  1
  Sr  Sr157  1  0.10003239  0.87781686  0.21360181  1
  Sr  Sr158  1  0.87218314  0.35003239  0.96360181  1
  Sr  Sr159  1  0.62781686  0.64996761  0.46360181  1
  Te  Te160  1  0.90791868  0.64879934  0.71121945  1
  Te  Te161  1  0.59208132  0.35120066  0.21121945  1
  Te  Te162  1  0.60120066  0.65791868  0.96121945  1
  Te  Te163  1  0.89879934  0.34208132  0.46121945  1
  Te  Te164  1  0.59208132  0.64879934  0.28878055  1
  Te  Te165  1  0.90791868  0.35120066  0.78878055  1
  Te  Te166  1  0.89879934  0.65791868  0.03878055  1
  Te  Te167  1  0.60120066  0.34208132  0.53878055  1
  Te  Te168  1  0.09208132  0.35120066  0.28878055  1
  Te  Te169  1  0.40791868  0.64879934  0.78878055  1
  Te  Te170  1  0.39879934  0.34208132  0.03878055  1
  Te  Te171  1  0.10120066  0.65791868  0.53878055  1
  Te  Te172  1  0.40791868  0.35120066  0.71121945  1
  Te  Te173  1  0.09208132  0.64879934  0.21121945  1
  Te  Te174  1  0.10120066  0.34208132  0.96121945  1
  Te  Te175  1  0.39879934  0.65791868  0.46121945  1
  Te  Te176  1  0.40791868  0.14879934  0.21121945  1
  Te  Te177  1  0.09208132  0.85120066  0.71121945  1
  Te  Te178  1  0.10120066  0.15791868  0.46121945  1
  Te  Te179  1  0.39879934  0.84208132  0.96121945  1
  Te  Te180  1  0.09208132  0.14879934  0.78878055  1
  Te  Te181  1  0.40791868  0.85120066  0.28878055  1
  Te  Te182  1  0.39879934  0.15791868  0.53878055  1
  Te  Te183  1  0.10120066  0.84208132  0.03878055  1
  Te  Te184  1  0.59208132  0.85120066  0.78878055  1
  Te  Te185  1  0.90791868  0.14879934  0.28878055  1
  Te  Te186  1  0.89879934  0.84208132  0.53878055  1
  Te  Te187  1  0.60120066  0.15791868  0.03878055  1
  Te  Te188  1  0.90791868  0.85120066  0.21121945  1
  Te  Te189  1  0.59208132  0.14879934  0.71121945  1
  Te  Te190  1  0.60120066  0.84208132  0.46121945  1
  Te  Te191  1  0.89879934  0.15791868  0.96121945  1
