# generated using pymatgen
data_SrLi4(IF2)2
_symmetry_space_group_name_H-M   'P 1'
_cell_length_a   9.24344303
_cell_length_b   9.24344303
_cell_length_c   11.39774999
_cell_angle_alpha   90.00000000
_cell_angle_beta   90.00000000
_cell_angle_gamma   120.00000000
_symmetry_Int_Tables_number   1
_chemical_formula_structural   SrLi4(IF2)2
_chemical_formula_sum   'Sr3 Li12 I6 F12'
_cell_volume   843.36834401
_cell_formula_units_Z   3
loop_
 _symmetry_equiv_pos_site_id
 _symmetry_equiv_pos_as_xyz
  1  'x, y, z'
loop_
 _atom_site_type_symbol
 _atom_site_label
 _atom_site_symmetry_multiplicity
 _atom_site_fract_x
 _atom_site_fract_y
 _atom_site_fract_z
 _atom_site_occupancy
  F  F0  1  0.62420642  0.00000000  0.34121271  1
  F  F1  1  0.00000000  0.62420642  0.34121271  1
  F  F2  1  0.37579358  0.37579358  0.34121271  1
  F  F3  1  0.62420642  0.00000000  0.65878729  1
  F  F4  1  0.00000000  0.62420642  0.65878729  1
  F  F5  1  0.37579358  0.37579358  0.65878729  1
  F  F6  1  0.43754485  0.35751429  0.50000000  1
  F  F7  1  0.64248571  0.08003057  0.50000000  1
  F  F8  1  0.91996943  0.56245515  0.50000000  1
  F  F9  1  0.35751429  0.43754485  0.50000000  1
  F  F10  1  0.08003057  0.64248571  0.50000000  1
  F  F11  1  0.56245515  0.91996943  0.50000000  1
  I  I12  1  0.00000000  0.00000000  0.00000000  1
  I  I13  1  0.33333333  0.66666667  0.00000000  1
  I  I14  1  0.66666667  0.33333333  0.00000000  1
  I  I15  1  0.70525883  0.00000000  0.00000000  1
  I  I16  1  0.00000000  0.70525883  0.00000000  1
  I  I17  1  0.29474117  0.29474117  0.00000000  1
  Li  Li18  1  0.30866504  0.11742746  0.42836356  1
  Li  Li19  1  -0.11742746  0.19123758  0.42836356  1
  Li  Li20  1  -0.19123758  -0.30866504  0.42836356  1
  Li  Li21  1  0.30866504  0.11742746  -0.42836356  1
  Li  Li22  1  -0.11742746  0.19123758  -0.42836356  1
  Li  Li23  1  -0.19123758  -0.30866504  -0.42836356  1
  Li  Li24  1  0.11742746  0.30866504  -0.42836356  1
  Li  Li25  1  0.19123758  -0.11742746  -0.42836356  1
  Li  Li26  1  -0.30866504  -0.19123758  -0.42836356  1
  Li  Li27  1  0.11742746  0.30866504  0.42836356  1
  Li  Li28  1  0.19123758  -0.11742746  0.42836356  1
  Li  Li29  1  -0.30866504  -0.19123758  0.42836356  1
  Sr  Sr30  1  0.41004102  -0.00000000  0.00000000  1
  Sr  Sr31  1  0.00000000  0.41004102  0.00000000  1
  Sr  Sr32  1  0.58995898  0.58995898  0.00000000  1
