# generated using pymatgen
data_Li4P(ClF2)3
_symmetry_space_group_name_H-M   'P 1'
_cell_length_a   11.88934585
_cell_length_b   11.88934585
_cell_length_c   11.88934585
_cell_angle_alpha   90.00000000
_cell_angle_beta   90.00000000
_cell_angle_gamma   90.00000000
_symmetry_Int_Tables_number   1
_chemical_formula_structural   Li4P(ClF2)3
_chemical_formula_sum   'Li32 P8 Cl24 F48'
_cell_volume   1680.63684733
_cell_formula_units_Z   8
loop_
 _symmetry_equiv_pos_site_id
 _symmetry_equiv_pos_as_xyz
  1  'x, y, z'
loop_
 _atom_site_type_symbol
 _atom_site_label
 _atom_site_symmetry_multiplicity
 _atom_site_fract_x
 _atom_site_fract_y
 _atom_site_fract_z
 _atom_site_occupancy
  Cl  Cl0  1  0.65639199  0.00000000  0.00000000  1
  Cl  Cl1  1  0.34360801  0.00000000  0.00000000  1
  Cl  Cl2  1  0.00000000  0.65639199  0.00000000  1
  Cl  Cl3  1  0.00000000  0.34360801  0.00000000  1
  Cl  Cl4  1  0.00000000  0.00000000  0.65639199  1
  Cl  Cl5  1  0.00000000  0.00000000  0.34360801  1
  Cl  Cl6  1  0.65639199  0.50000000  0.50000000  1
  Cl  Cl7  1  0.34360801  0.50000000  0.50000000  1
  Cl  Cl8  1  0.00000000  0.15639199  0.50000000  1
  Cl  Cl9  1  0.00000000  0.84360801  0.50000000  1
  Cl  Cl10  1  0.00000000  0.50000000  0.15639199  1
  Cl  Cl11  1  0.00000000  0.50000000  0.84360801  1
  Cl  Cl12  1  0.15639199  0.00000000  0.50000000  1
  Cl  Cl13  1  0.84360801  0.00000000  0.50000000  1
  Cl  Cl14  1  0.50000000  0.65639199  0.50000000  1
  Cl  Cl15  1  0.50000000  0.34360801  0.50000000  1
  Cl  Cl16  1  0.50000000  0.00000000  0.15639199  1
  Cl  Cl17  1  0.50000000  0.00000000  0.84360801  1
  Cl  Cl18  1  0.15639199  0.50000000  0.00000000  1
  Cl  Cl19  1  0.84360801  0.50000000  -0.00000000  1
  Cl  Cl20  1  0.50000000  0.15639199  0.00000000  1
  Cl  Cl21  1  0.50000000  0.84360801  0.00000000  1
  Cl  Cl22  1  0.50000000  0.50000000  0.65639199  1
  Cl  Cl23  1  0.50000000  0.50000000  0.34360801  1
  F  F24  1  0.50000000  0.18533014  0.18533014  1
  F  F25  1  0.50000000  -0.18533014  0.18533014  1
  F  F26  1  0.50000000  0.18533014  -0.18533014  1
  F  F27  1  0.50000000  -0.18533014  -0.18533014  1
  F  F28  1  0.18533014  0.50000000  0.18533014  1
  F  F29  1  0.18533014  0.50000000  -0.18533014  1
  F  F30  1  -0.18533014  0.50000000  0.18533014  1
  F  F31  1  -0.18533014  0.50000000  -0.18533014  1
  F  F32  1  0.18533014  0.18533014  0.50000000  1
  F  F33  1  -0.18533014  0.18533014  0.50000000  1
  F  F34  1  0.18533014  -0.18533014  0.50000000  1
  F  F35  1  -0.18533014  -0.18533014  0.50000000  1
  F  F36  1  0.50000000  0.68533014  0.68533014  1
  F  F37  1  0.50000000  0.31466986  0.68533014  1
  F  F38  1  0.50000000  0.68533014  0.31466986  1
  F  F39  1  0.50000000  0.31466986  0.31466986  1
  F  F40  1  0.18533014  1.00000000  0.68533014  1
  F  F41  1  0.18533014  1.00000000  0.31466986  1
  F  F42  1  -0.18533014  1.00000000  0.68533014  1
  F  F43  1  -0.18533014  1.00000000  0.31466986  1
  F  F44  1  0.18533014  0.68533014  1.00000000  1
  F  F45  1  -0.18533014  0.68533014  1.00000000  1
  F  F46  1  0.18533014  0.31466986  1.00000000  1
  F  F47  1  -0.18533014  0.31466986  1.00000000  1
  F  F48  1  1.00000000  0.18533014  0.68533014  1
  F  F49  1  1.00000000  -0.18533014  0.68533014  1
  F  F50  1  1.00000000  0.18533014  0.31466986  1
  F  F51  1  1.00000000  -0.18533014  0.31466986  1
  F  F52  1  0.68533014  0.50000000  0.68533014  1
  F  F53  1  0.68533014  0.50000000  0.31466986  1
  F  F54  1  0.31466986  0.50000000  0.68533014  1
  F  F55  1  0.31466986  0.50000000  0.31466986  1
  F  F56  1  0.68533014  0.18533014  1.00000000  1
  F  F57  1  0.31466986  0.18533014  1.00000000  1
  F  F58  1  0.68533014  -0.18533014  1.00000000  1
  F  F59  1  0.31466986  -0.18533014  1.00000000  1
  F  F60  1  1.00000000  0.68533014  0.18533014  1
  F  F61  1  1.00000000  0.31466986  0.18533014  1
  F  F62  1  1.00000000  0.68533014  -0.18533014  1
  F  F63  1  1.00000000  0.31466986  -0.18533014  1
  F  F64  1  0.68533014  1.00000000  0.18533014  1
  F  F65  1  0.68533014  1.00000000  -0.18533014  1
  F  F66  1  0.31466986  1.00000000  0.18533014  1
  F  F67  1  0.31466986  1.00000000  -0.18533014  1
  F  F68  1  0.68533014  0.68533014  0.50000000  1
  F  F69  1  0.31466986  0.68533014  0.50000000  1
  F  F70  1  0.68533014  0.31466986  0.50000000  1
  F  F71  1  0.31466986  0.31466986  0.50000000  1
  Li  Li72  1  0.00000000  0.00000000  0.00000000  1
  Li  Li73  1  0.00000000  0.50000000  0.50000000  1
  Li  Li74  1  0.50000000  0.00000000  0.50000000  1
  Li  Li75  1  0.50000000  0.50000000  0.00000000  1
  Li  Li76  1  0.00000000  0.25000000  0.25000000  1
  Li  Li77  1  0.00000000  0.75000000  0.25000000  1
  Li  Li78  1  0.25000000  0.00000000  0.25000000  1
  Li  Li79  1  0.25000000  0.00000000  0.75000000  1
  Li  Li80  1  0.25000000  0.25000000  0.00000000  1
  Li  Li81  1  0.75000000  0.25000000  0.00000000  1
  Li  Li82  1  0.00000000  0.75000000  0.75000000  1
  Li  Li83  1  0.00000000  0.25000000  0.75000000  1
  Li  Li84  1  0.25000000  0.50000000  0.75000000  1
  Li  Li85  1  0.25000000  0.50000000  0.25000000  1
  Li  Li86  1  0.25000000  0.75000000  0.50000000  1
  Li  Li87  1  0.75000000  0.75000000  0.50000000  1
  Li  Li88  1  0.50000000  0.25000000  0.75000000  1
  Li  Li89  1  0.50000000  0.75000000  0.75000000  1
  Li  Li90  1  0.75000000  0.00000000  0.75000000  1
  Li  Li91  1  0.75000000  0.00000000  0.25000000  1
  Li  Li92  1  0.75000000  0.25000000  0.50000000  1
  Li  Li93  1  0.25000000  0.25000000  0.50000000  1
  Li  Li94  1  0.50000000  0.75000000  0.25000000  1
  Li  Li95  1  0.50000000  0.25000000  0.25000000  1
  Li  Li96  1  0.75000000  0.50000000  0.25000000  1
  Li  Li97  1  0.75000000  0.50000000  0.75000000  1
  Li  Li98  1  0.75000000  0.75000000  0.00000000  1
  Li  Li99  1  0.25000000  0.75000000  0.00000000  1
  Li  Li100  1  0.50000000  0.50000000  0.50000000  1
  Li  Li101  1  0.50000000  0.00000000  0.00000000  1
  Li  Li102  1  0.00000000  0.50000000  0.00000000  1
  Li  Li103  1  0.00000000  0.00000000  0.50000000  1
  P  P104  1  0.25000000  0.25000000  0.25000000  1
  P  P105  1  0.25000000  0.25000000  0.75000000  1
  P  P106  1  0.25000000  0.75000000  0.75000000  1
  P  P107  1  0.25000000  0.75000000  0.25000000  1
  P  P108  1  0.75000000  0.25000000  0.75000000  1
  P  P109  1  0.75000000  0.25000000  0.25000000  1
  P  P110  1  0.75000000  0.75000000  0.25000000  1
  P  P111  1  0.75000000  0.75000000  0.75000000  1
