# generated using pymatgen
data_K2Li9Mg2(AlTe4)3
_symmetry_space_group_name_H-M   'P 1'
_cell_length_a   12.25535078
_cell_length_b   12.25535078
_cell_length_c   7.11101792
_cell_angle_alpha   90.00000000
_cell_angle_beta   90.00000000
_cell_angle_gamma   120.00000000
_symmetry_Int_Tables_number   1
_chemical_formula_structural   K2Li9Mg2(AlTe4)3
_chemical_formula_sum   'K2 Li9 Mg2 Al3 Te12'
_cell_volume   924.94071691
_cell_formula_units_Z   1
loop_
 _symmetry_equiv_pos_site_id
 _symmetry_equiv_pos_as_xyz
  1  'x, y, z'
loop_
 _atom_site_type_symbol
 _atom_site_label
 _atom_site_symmetry_multiplicity
 _atom_site_fract_x
 _atom_site_fract_y
 _atom_site_fract_z
 _atom_site_occupancy
  Al  Al0  1  0.39080669  0.00000000  0.50000000  1
  Al  Al1  1  0.00000000  0.39080669  0.50000000  1
  Al  Al2  1  0.60919331  0.60919331  0.50000000  1
  K  K3  1  0.00000000  0.00000000  0.00000000  1
  K  K4  1  0.00000000  0.00000000  0.50000000  1
  Li  Li5  1  0.84996361  0.00000000  0.50000000  1
  Li  Li6  1  0.00000000  0.84996361  0.50000000  1
  Li  Li7  1  0.15003639  0.15003639  0.50000000  1
  Li  Li8  1  0.57685146  0.90146631  0.00000000  1
  Li  Li9  1  0.09853369  0.67538515  -0.00000000  1
  Li  Li10  1  0.32461485  0.42314854  -0.00000000  1
  Li  Li11  1  0.90146631  0.57685146  -0.00000000  1
  Li  Li12  1  0.67538515  0.09853369  -0.00000000  1
  Li  Li13  1  0.42314854  0.32461485  -0.00000000  1
  Mg  Mg14  1  0.33333333  0.66666667  0.50000000  1
  Mg  Mg15  1  0.66666667  0.33333333  0.50000000  1
  Te  Te16  1  0.32788573  0.24293839  0.84503054  1
  Te  Te17  1  -0.24293839  0.08494733  0.84503054  1
  Te  Te18  1  -0.08494733  -0.32788573  0.84503054  1
  Te  Te19  1  0.32788573  0.24293839  -0.84503054  1
  Te  Te20  1  -0.24293839  0.08494733  -0.84503054  1
  Te  Te21  1  -0.08494733  -0.32788573  -0.84503054  1
  Te  Te22  1  0.24293839  0.32788573  -0.84503054  1
  Te  Te23  1  0.08494733  -0.24293839  -0.84503054  1
  Te  Te24  1  -0.32788573  -0.08494733  -0.84503054  1
  Te  Te25  1  0.24293839  0.32788573  0.84503054  1
  Te  Te26  1  0.08494733  -0.24293839  0.84503054  1
  Te  Te27  1  -0.32788573  -0.08494733  0.84503054  1
