# generated using pymatgen
data_LiAl2SiBiWSe2
_symmetry_space_group_name_H-M   'P 1'
_cell_length_a   12.62723428
_cell_length_b   10.80580690
_cell_length_c   14.85319353
_cell_angle_alpha   90.00000000
_cell_angle_beta   90.00000000
_cell_angle_gamma   90.00000000
_symmetry_Int_Tables_number   1
_chemical_formula_structural   LiAl2SiBiWSe2
_chemical_formula_sum   'Li1 Al2 Si1 Bi1 W1 Se2'
_cell_volume   2026.68046104
_cell_formula_units_Z   1
loop_
 _symmetry_equiv_pos_site_id
 _symmetry_equiv_pos_as_xyz
  1  'x, y, z'
loop_
 _atom_site_type_symbol
 _atom_site_label
 _atom_site_symmetry_multiplicity
 _atom_site_fract_x
 _atom_site_fract_y
 _atom_site_fract_z
 _atom_site_occupancy
  Li  Li0  1  0.12500000  0.00000000  0.25000000  1
  W  W1  1  0.00000000  0.00000000  0.00000000  1
  Al  Al2  1  0.37500000  0.00000000  0.25000000  1
  Al  Al3  1  0.25000000  0.25000000  0.25000000  1
  Si  Si4  1  0.00000000  0.25000000  0.12500000  1
  Se  Se5  1  0.79961325  0.36751068  0.31452437  1
  Se  Se6  1  0.92148624  0.05576684  0.17180490  1
  Bi  Bi7  1  0.95325218  0.70117316  0.36611188  1
