# generated using pymatgen
data_Li2WO
_symmetry_space_group_name_H-M   'P 1'
_cell_length_a   3.85285076
_cell_length_b   3.47245178
_cell_length_c   5.94658400
_cell_angle_alpha   109.66804443
_cell_angle_beta   102.56373251
_cell_angle_gamma   119.97637460
_symmetry_Int_Tables_number   1
_chemical_formula_structural   Li2WO
_chemical_formula_sum   'Li6 W3 O3'
_cell_volume   57.18250232
_cell_formula_units_Z   3
loop_
 _symmetry_equiv_pos_site_id
 _symmetry_equiv_pos_as_xyz
  1  'x, y, z'
loop_
 _atom_site_type_symbol
 _atom_site_label
 _atom_site_symmetry_multiplicity
 _atom_site_fract_x
 _atom_site_fract_y
 _atom_site_fract_z
 _atom_site_occupancy
  Li  Li0  1  0.00000000  0.00000000  0.00000000  1
  Li  Li1  1  0.33300000  0.66700000  0.25000000  1
  Li  Li2  1  0.66700000  0.33300000  0.50000000  1
  Li  Li3  1  0.00000000  0.00000000  0.75000000  1
  Li  Li4  1  0.69222831  0.99823279  0.73541999  1
  Li  Li5  1  0.43671016  0.08328476  0.28148581  1
  W  W6  1  0.97403519  0.61099286  0.07882517  1
  W  W7  1  0.47683700  0.02955098  0.44306379  1
  W  W8  1  0.17302206  0.97410741  0.30468580  1
  O  O9  1  0.42149807  0.36246859  0.57318507  1
  O  O10  1  0.80241769  0.48405916  0.47425108  1
  O  O11  1  0.55525707  0.23414284  0.19679462  1
