# generated using pymatgen
data_Li2AlO3F5
_symmetry_space_group_name_H-M   'P 1'
_cell_length_a   7.87464511
_cell_length_b   8.54775352
_cell_length_c   7.75783582
_cell_angle_alpha   90.00000000
_cell_angle_beta   90.00000000
_cell_angle_gamma   90.00000000
_symmetry_Int_Tables_number   1
_chemical_formula_structural   Li2AlO3F5
_chemical_formula_sum   'Li2 Al1 O3 F5'
_cell_volume   522.18400595
_cell_formula_units_Z   1
loop_
 _symmetry_equiv_pos_site_id
 _symmetry_equiv_pos_as_xyz
  1  'x, y, z'
loop_
 _atom_site_type_symbol
 _atom_site_label
 _atom_site_symmetry_multiplicity
 _atom_site_fract_x
 _atom_site_fract_y
 _atom_site_fract_z
 _atom_site_occupancy
  Li  Li0  1  0.12500000  0.12500000  0.12500000  1
  Li  Li1  1  0.50000000  0.50000000  0.50000000  1
  Al  Al2  1  0.25000000  0.25000000  0.25000000  1
  F  F3  1  0.75000000  0.75000000  0.75000000  1
  F  F4  1  0.20914615  0.26178457  0.17158870  1
  F  F5  1  0.81642415  0.02520068  0.49847165  1
  F  F6  1  0.78342611  0.36029638  0.39300374  1
  F  F7  1  0.24314036  0.63473851  0.83241782  1
  O  O8  1  0.10266019  0.15526801  0.86276603  1
  O  O9  1  0.55389857  0.24231766  0.45532959  1
  O  O10  1  0.17268833  0.11455581  0.28166562  1
