# generated using pymatgen
data_LiYbTiV2As2Br
_symmetry_space_group_name_H-M   'P 1'
_cell_length_a   8.26927320
_cell_length_b   8.70045526
_cell_length_c   9.31786737
_cell_angle_alpha   90.00000000
_cell_angle_beta   90.00000000
_cell_angle_gamma   90.00000000
_symmetry_Int_Tables_number   1
_chemical_formula_structural   LiYbTiV2As2Br
_chemical_formula_sum   'Li1 Yb1 Ti1 V2 As2 Br1'
_cell_volume   670.38739996
_cell_formula_units_Z   1
loop_
 _symmetry_equiv_pos_site_id
 _symmetry_equiv_pos_as_xyz
  1  'x, y, z'
loop_
 _atom_site_type_symbol
 _atom_site_label
 _atom_site_symmetry_multiplicity
 _atom_site_fract_x
 _atom_site_fract_y
 _atom_site_fract_z
 _atom_site_occupancy
  Li  Li0  1  0.12500000  0.12500000  0.12500000  1
  V  V1  1  0.50000000  0.50000000  0.50000000  1
  V  V2  1  0.25000000  0.25000000  0.25000000  1
  Ti  Ti3  1  0.75000000  0.75000000  0.75000000  1
  Br  Br4  1  0.54913457  0.04830991  0.89155311  1
  As  As5  1  0.50340857  0.72471252  0.76530174  1
  As  As6  1  0.37709666  0.60421135  0.98617681  1
  Yb  Yb7  1  0.34552336  0.63082013  0.24150888  1
