# generated using pymatgen
data_NaLi6Se2Cl3
_symmetry_space_group_name_H-M   'P 1'
_cell_length_a   12.33833739
_cell_length_b   12.33833739
_cell_length_c   12.33833739
_cell_angle_alpha   90.00000000
_cell_angle_beta   90.00000000
_cell_angle_gamma   90.00000000
_symmetry_Int_Tables_number   1
_chemical_formula_structural   NaLi6Se2Cl3
_chemical_formula_sum   'Na8 Li48 Se16 Cl24'
_cell_volume   1878.32148141
_cell_formula_units_Z   8
loop_
 _symmetry_equiv_pos_site_id
 _symmetry_equiv_pos_as_xyz
  1  'x, y, z'
loop_
 _atom_site_type_symbol
 _atom_site_label
 _atom_site_symmetry_multiplicity
 _atom_site_fract_x
 _atom_site_fract_y
 _atom_site_fract_z
 _atom_site_occupancy
  Cl  Cl0  1  0.12500000  0.29300797  0.54300797  1
  Cl  Cl1  1  0.37500000  0.70699203  0.04300797  1
  Cl  Cl2  1  0.87500000  0.79300797  0.95699203  1
  Cl  Cl3  1  0.62500000  0.20699203  0.45699203  1
  Cl  Cl4  1  0.54300797  0.12500000  0.29300797  1
  Cl  Cl5  1  0.04300797  0.37500000  0.70699203  1
  Cl  Cl6  1  0.95699203  0.87500000  0.79300797  1
  Cl  Cl7  1  0.45699203  0.62500000  0.20699203  1
  Cl  Cl8  1  0.29300797  0.54300797  0.12500000  1
  Cl  Cl9  1  0.70699203  0.04300797  0.37500000  1
  Cl  Cl10  1  0.79300797  0.95699203  0.87500000  1
  Cl  Cl11  1  0.20699203  0.45699203  0.62500000  1
  Cl  Cl12  1  0.62500000  0.79300797  0.04300797  1
  Cl  Cl13  1  0.87500000  0.20699203  0.54300797  1
  Cl  Cl14  1  0.37500000  0.29300797  0.45699203  1
  Cl  Cl15  1  0.12500000  0.70699203  0.95699203  1
  Cl  Cl16  1  0.04300797  0.62500000  0.79300797  1
  Cl  Cl17  1  0.54300797  0.87500000  0.20699203  1
  Cl  Cl18  1  0.45699203  0.37500000  0.29300797  1
  Cl  Cl19  1  0.95699203  0.12500000  0.70699203  1
  Cl  Cl20  1  0.79300797  0.04300797  0.62500000  1
  Cl  Cl21  1  0.20699203  0.54300797  0.87500000  1
  Cl  Cl22  1  0.29300797  0.45699203  0.37500000  1
  Cl  Cl23  1  0.70699203  0.95699203  0.12500000  1
  Li  Li24  1  0.02759376  0.67125436  0.41491965  1
  Li  Li25  1  0.47240624  -0.67125436  0.91491965  1
  Li  Li26  1  -0.02759376  1.17125436  0.08508035  1
  Li  Li27  1  0.52759376  -0.17125436  -0.41491965  1
  Li  Li28  1  0.41491965  0.02759376  0.67125436  1
  Li  Li29  1  0.91491965  0.47240624  -0.67125436  1
  Li  Li30  1  0.08508035  -0.02759376  1.17125436  1
  Li  Li31  1  -0.41491965  0.52759376  -0.17125436  1
  Li  Li32  1  0.67125436  0.41491965  0.02759376  1
  Li  Li33  1  -0.67125436  0.91491965  0.47240624  1
  Li  Li34  1  1.17125436  0.08508035  -0.02759376  1
  Li  Li35  1  -0.17125436  -0.41491965  0.52759376  1
  Li  Li36  1  1.42125436  0.27759376  -0.16491965  1
  Li  Li37  1  0.07874564  0.72240624  0.33508035  1
  Li  Li38  1  0.92125436  0.22240624  1.16491965  1
  Li  Li39  1  -0.42125436  0.77759376  0.66491965  1
  Li  Li40  1  0.77759376  0.66491965  -0.42125436  1
  Li  Li41  1  0.22240624  1.16491965  0.92125436  1
  Li  Li42  1  0.72240624  0.33508035  0.07874564  1
  Li  Li43  1  0.27759376  -0.16491965  1.42125436  1
  Li  Li44  1  1.16491965  0.92125436  0.22240624  1
  Li  Li45  1  0.66491965  -0.42125436  0.77759376  1
  Li  Li46  1  -0.16491965  1.42125436  0.27759376  1
  Li  Li47  1  0.33508035  0.07874564  0.72240624  1
  Li  Li48  1  0.52759376  1.17125436  0.91491965  1
  Li  Li49  1  0.97240624  -0.17125436  1.41491965  1
  Li  Li50  1  0.47240624  1.67125436  0.58508035  1
  Li  Li51  1  1.02759376  0.32874564  0.08508035  1
  Li  Li52  1  0.91491965  0.52759376  1.17125436  1
  Li  Li53  1  1.41491965  0.97240624  -0.17125436  1
  Li  Li54  1  0.58508035  0.47240624  1.67125436  1
  Li  Li55  1  0.08508035  1.02759376  0.32874564  1
  Li  Li56  1  1.17125436  0.91491965  0.52759376  1
  Li  Li57  1  -0.17125436  1.41491965  0.97240624  1
  Li  Li58  1  1.67125436  0.58508035  0.47240624  1
  Li  Li59  1  0.32874564  0.08508035  1.02759376  1
  Li  Li60  1  1.92125436  0.77759376  0.33508035  1
  Li  Li61  1  0.57874564  1.22240624  0.83508035  1
  Li  Li62  1  1.42125436  0.72240624  1.66491965  1
  Li  Li63  1  0.07874564  1.27759376  1.16491965  1
  Li  Li64  1  1.27759376  1.16491965  0.07874564  1
  Li  Li65  1  0.72240624  1.66491965  1.42125436  1
  Li  Li66  1  1.22240624  0.83508035  0.57874564  1
  Li  Li67  1  0.77759376  0.33508035  1.92125436  1
  Li  Li68  1  1.66491965  1.42125436  0.72240624  1
  Li  Li69  1  1.16491965  0.07874564  1.27759376  1
  Li  Li70  1  0.33508035  1.92125436  0.77759376  1
  Li  Li71  1  0.83508035  0.57874564  1.22240624  1
  Na  Na72  1  0.87500000  0.87500000  0.87500000  1
  Na  Na73  1  0.62500000  0.12500000  0.37500000  1
  Na  Na74  1  0.12500000  0.37500000  0.62500000  1
  Na  Na75  1  0.37500000  0.62500000  0.12500000  1
  Na  Na76  1  0.37500000  0.37500000  0.37500000  1
  Na  Na77  1  0.12500000  0.62500000  0.87500000  1
  Na  Na78  1  0.62500000  0.87500000  0.12500000  1
  Na  Na79  1  0.87500000  0.12500000  0.62500000  1
  Se  Se80  1  0.21501632  0.21501632  0.21501632  1
  Se  Se81  1  0.28498368  0.78498368  0.71501632  1
  Se  Se82  1  0.78498368  0.71501632  0.28498368  1
  Se  Se83  1  0.71501632  0.28498368  0.78498368  1
  Se  Se84  1  0.96501632  0.46501632  0.03498368  1
  Se  Se85  1  0.53498368  0.53498368  0.53498368  1
  Se  Se86  1  0.46501632  0.03498368  0.96501632  1
  Se  Se87  1  0.03498368  0.96501632  0.46501632  1
  Se  Se88  1  0.71501632  0.71501632  0.71501632  1
  Se  Se89  1  0.78498368  0.28498368  0.21501632  1
  Se  Se90  1  0.28498368  0.21501632  0.78498368  1
  Se  Se91  1  0.21501632  0.78498368  0.28498368  1
  Se  Se92  1  0.46501632  0.96501632  0.53498368  1
  Se  Se93  1  0.03498368  0.03498368  0.03498368  1
  Se  Se94  1  0.96501632  0.53498368  0.46501632  1
  Se  Se95  1  0.53498368  0.46501632  0.96501632  1
