# generated using pymatgen
data_Li4LaAlSiBr
_symmetry_space_group_name_H-M   'P 1'
_cell_length_a   12.61671332
_cell_length_b   13.25267763
_cell_length_c   14.98924132
_cell_angle_alpha   90.00000000
_cell_angle_beta   90.00000000
_cell_angle_gamma   90.00000000
_symmetry_Int_Tables_number   1
_chemical_formula_structural   Li4LaAlSiBr
_chemical_formula_sum   'Li4 La1 Al1 Si1 Br1'
_cell_volume   2506.27960809
_cell_formula_units_Z   1
loop_
 _symmetry_equiv_pos_site_id
 _symmetry_equiv_pos_as_xyz
  1  'x, y, z'
loop_
 _atom_site_type_symbol
 _atom_site_label
 _atom_site_symmetry_multiplicity
 _atom_site_fract_x
 _atom_site_fract_y
 _atom_site_fract_z
 _atom_site_occupancy
  Li  Li0  1  0.12500000  0.00000000  0.25000000  1
  Li  Li1  1  0.00000000  0.00000000  0.00000000  1
  Li  Li2  1  0.37500000  0.00000000  0.25000000  1
  Li  Li3  1  0.25000000  0.25000000  0.25000000  1
  La  La4  1  0.00000000  0.25000000  0.12500000  1
  Al  Al5  1  0.93581412  0.91264065  0.85532104  1
  Si  Si6  1  0.46287699  0.15445057  0.17060987  1
  Br  Br7  1  0.64552860  0.29599602  0.06441602  1
