# generated using pymatgen
data_Li2SnO3
_symmetry_space_group_name_H-M   'P 1'
_cell_length_a   7.65285802
_cell_length_b   7.65285802
_cell_length_c   7.64713473
_cell_angle_alpha   90.00000000
_cell_angle_beta   90.00000000
_cell_angle_gamma   120.00000000
_symmetry_Int_Tables_number   1
_chemical_formula_structural   Li2SnO3
_chemical_formula_sum   'Li8 Sn4 O12'
_cell_volume   387.86151187
_cell_formula_units_Z   4
loop_
 _symmetry_equiv_pos_site_id
 _symmetry_equiv_pos_as_xyz
  1  'x, y, z'
loop_
 _atom_site_type_symbol
 _atom_site_label
 _atom_site_symmetry_multiplicity
 _atom_site_fract_x
 _atom_site_fract_y
 _atom_site_fract_z
 _atom_site_occupancy
  Li  Li0  1  0.50000000  0.00000000  -0.00000000  1
  Li  Li1  1  0.00000000  0.50000000  0.00000000  1
  Li  Li2  1  0.50000000  0.50000000  0.00000000  1
  Li  Li3  1  0.50000000  0.00000000  0.50000000  1
  Li  Li4  1  0.00000000  0.50000000  0.50000000  1
  Li  Li5  1  0.50000000  0.50000000  0.50000000  1
  Li  Li6  1  0.33333333  0.66666667  0.25000000  1
  Li  Li7  1  0.66666667  0.33333333  0.75000000  1
  O  O8  1  0.35236778  0.79368100  0.13120822  1
  O  O9  1  -0.79368100  -0.44131321  0.13120822  1
  O  O10  1  0.44131321  -0.35236778  0.13120822  1
  O  O11  1  -0.35236778  -0.79368100  0.63120822  1
  O  O12  1  0.79368100  0.44131321  0.63120822  1
  O  O13  1  -0.44131321  0.35236778  0.63120822  1
  O  O14  1  -0.35236778  -0.79368100  -0.13120822  1
  O  O15  1  0.79368100  0.44131321  -0.13120822  1
  O  O16  1  -0.44131321  0.35236778  -0.13120822  1
  O  O17  1  0.35236778  0.79368100  0.36879178  1
  O  O18  1  -0.79368100  -0.44131321  0.36879178  1
  O  O19  1  0.44131321  -0.35236778  0.36879178  1
  Sn  Sn20  1  0.00000000  0.00000000  0.25000000  1
  Sn  Sn21  1  0.00000000  0.00000000  0.75000000  1
  Sn  Sn22  1  0.00000000  0.00000000  0.00000000  1
  Sn  Sn23  1  0.00000000  0.00000000  0.50000000  1
