# generated using pymatgen
data_Li6Si2Te3Se4
_symmetry_space_group_name_H-M   'P 1'
_cell_length_a   5.06449436
_cell_length_b   5.06449436
_cell_length_c   15.82906957
_cell_angle_alpha   90.00000000
_cell_angle_beta   90.00000000
_cell_angle_gamma   120.00000000
_symmetry_Int_Tables_number   1
_chemical_formula_structural   Li6Si2Te3Se4
_chemical_formula_sum   'Li6 Si2 Te3 Se4'
_cell_volume   351.60755858
_cell_formula_units_Z   1
loop_
 _symmetry_equiv_pos_site_id
 _symmetry_equiv_pos_as_xyz
  1  'x, y, z'
loop_
 _atom_site_type_symbol
 _atom_site_label
 _atom_site_symmetry_multiplicity
 _atom_site_fract_x
 _atom_site_fract_y
 _atom_site_fract_z
 _atom_site_occupancy
  Li  Li0  1  0.97380500  0.50971985  0.57258213  1
  Li  Li1  1  -0.50971985  0.46408515  0.57258213  1
  Li  Li2  1  -0.46408515  -0.97380500  0.57258213  1
  Li  Li3  1  -0.50971985  -0.97380500  -0.57258213  1
  Li  Li4  1  -0.46408515  0.50971985  -0.57258213  1
  Li  Li5  1  0.97380500  0.46408515  -0.57258213  1
  Se  Se6  1  0.33333333  0.66666667  0.00000000  1
  Se  Se7  1  0.54754050  0.45245950  0.00000000  1
  Se  Se8  1  0.54754050  0.09508101  0.00000000  1
  Se  Se9  1  0.90491899  0.45245950  0.00000000  1
  Si  Si10  1  0.00000000  0.00000000  0.19667533  1
  Si  Si11  1  0.00000000  0.00000000  0.80332467  1
  Te  Te12  1  0.66666667  0.33333333  0.50000000  1
  Te  Te13  1  0.33333333  0.66666667  0.73758082  1
  Te  Te14  1  0.33333333  0.66666667  0.26241918  1
