# generated using pymatgen
data_Li4Hf2Ti3F24
_symmetry_space_group_name_H-M   'P 1'
_cell_length_a   8.98623247
_cell_length_b   8.98623247
_cell_length_c   15.18645518
_cell_angle_alpha   90.00000000
_cell_angle_beta   90.00000000
_cell_angle_gamma   120.00000000
_symmetry_Int_Tables_number   1
_chemical_formula_structural   Li4Hf2Ti3F24
_chemical_formula_sum   'Li12 Hf6 Ti9 F72'
_cell_volume   1062.04359332
_cell_formula_units_Z   3
loop_
 _symmetry_equiv_pos_site_id
 _symmetry_equiv_pos_as_xyz
  1  'x, y, z'
loop_
 _atom_site_type_symbol
 _atom_site_label
 _atom_site_symmetry_multiplicity
 _atom_site_fract_x
 _atom_site_fract_y
 _atom_site_fract_z
 _atom_site_occupancy
  F  F0  1  0.78393135  0.97263771  0.41773409  1
  F  F1  1  -0.97263771  -0.18870635  0.41773409  1
  F  F2  1  0.18870635  -0.78393135  0.41773409  1
  F  F3  1  0.97263771  0.78393135  -0.41773409  1
  F  F4  1  -0.18870635  -0.97263771  -0.41773409  1
  F  F5  1  -0.78393135  0.18870635  -0.41773409  1
  F  F6  1  -0.78393135  -0.97263771  -0.41773409  1
  F  F7  1  0.97263771  0.18870635  -0.41773409  1
  F  F8  1  -0.18870635  0.78393135  -0.41773409  1
  F  F9  1  -0.97263771  -0.78393135  0.41773409  1
  F  F10  1  0.18870635  0.97263771  0.41773409  1
  F  F11  1  0.78393135  -0.18870635  0.41773409  1
  F  F12  1  1.45059802  1.30597104  0.75106742  1
  F  F13  1  -0.30597104  0.14462698  0.75106742  1
  F  F14  1  0.85537302  -0.45059802  0.75106742  1
  F  F15  1  1.63930437  1.11726469  -0.08440075  1
  F  F16  1  0.47796031  -0.63930437  -0.08440075  1
  F  F17  1  -0.11726469  0.52203969  -0.08440075  1
  F  F18  1  -0.11726469  -0.63930437  -0.08440075  1
  F  F19  1  1.63930437  0.52203969  -0.08440075  1
  F  F20  1  0.47796031  1.11726469  -0.08440075  1
  F  F21  1  -0.30597104  -0.45059802  0.75106742  1
  F  F22  1  0.85537302  1.30597104  0.75106742  1
  F  F23  1  1.45059802  0.14462698  0.75106742  1
  F  F24  1  1.11726469  1.63930437  1.08440075  1
  F  F25  1  -0.63930437  0.47796031  1.08440075  1
  F  F26  1  0.52203969  -0.11726469  1.08440075  1
  F  F27  1  1.30597104  1.45059802  0.24893258  1
  F  F28  1  0.14462698  -0.30597104  0.24893258  1
  F  F29  1  -0.45059802  0.85537302  0.24893258  1
  F  F30  1  -0.45059802  -0.30597104  0.24893258  1
  F  F31  1  1.30597104  0.85537302  0.24893258  1
  F  F32  1  0.14462698  1.45059802  0.24893258  1
  F  F33  1  -0.63930437  -0.11726469  1.08440075  1
  F  F34  1  0.52203969  1.63930437  1.08440075  1
  F  F35  1  1.11726469  0.47796031  1.08440075  1
  F  F36  1  0.12283064  0.00000000  0.50000000  1
  F  F37  1  0.00000000  0.12283064  0.50000000  1
  F  F38  1  0.87716936  0.87716936  0.50000000  1
  F  F39  1  0.87716936  0.00000000  0.50000000  1
  F  F40  1  0.00000000  0.87716936  0.50000000  1
  F  F41  1  0.12283064  0.12283064  0.50000000  1
  F  F42  1  0.78949730  0.33333333  0.83333333  1
  F  F43  1  0.66666667  0.45616397  0.83333333  1
  F  F44  1  0.54383603  0.21050270  0.83333333  1
  F  F45  1  0.54383603  0.33333333  0.83333333  1
  F  F46  1  0.66666667  0.21050270  0.83333333  1
  F  F47  1  0.78949730  0.45616397  0.83333333  1
  F  F48  1  0.45616397  0.66666667  0.16666667  1
  F  F49  1  0.33333333  0.78949730  0.16666667  1
  F  F50  1  0.21050270  0.54383603  0.16666667  1
  F  F51  1  0.21050270  0.66666667  0.16666667  1
  F  F52  1  0.33333333  0.54383603  0.16666667  1
  F  F53  1  0.45616397  0.78949730  0.16666667  1
  F  F54  1  0.41926649  0.58073351  0.74397541  1
  F  F55  1  0.41926649  0.83853299  0.74397541  1
  F  F56  1  0.16146701  0.58073351  0.74397541  1
  F  F57  1  0.58073351  0.41926649  0.25602459  1
  F  F58  1  0.83853299  0.41926649  0.25602459  1
  F  F59  1  0.58073351  0.16146701  0.25602459  1
  F  F60  1  0.08593316  0.91406684  0.07730875  1
  F  F61  1  0.08593316  0.17186632  0.07730875  1
  F  F62  1  0.82813368  0.91406684  0.07730875  1
  F  F63  1  0.24740017  0.75259983  0.58935792  1
  F  F64  1  0.50519965  0.75259983  0.58935792  1
  F  F65  1  0.24740017  0.49480035  0.58935792  1
  F  F66  1  0.75259983  0.24740017  0.41064208  1
  F  F67  1  0.75259983  0.50519965  0.41064208  1
  F  F68  1  0.49480035  0.24740017  0.41064208  1
  F  F69  1  0.91406684  0.08593316  0.92269125  1
  F  F70  1  0.17186632  0.08593316  0.92269125  1
  F  F71  1  0.91406684  0.82813368  0.92269125  1
  Hf  Hf72  1  0.00000000  0.00000000  0.28695160  1
  Hf  Hf73  1  0.00000000  0.00000000  0.71304840  1
  Hf  Hf74  1  0.66666667  0.33333333  0.62028493  1
  Hf  Hf75  1  0.66666667  0.33333333  0.04638174  1
  Hf  Hf76  1  0.33333333  0.66666667  0.95361826  1
  Hf  Hf77  1  0.33333333  0.66666667  0.37971507  1
  Li  Li78  1  0.00000000  0.00000000  0.09805729  1
  Li  Li79  1  0.00000000  0.00000000  0.90194271  1
  Li  Li80  1  0.66666667  0.33333333  0.43139063  1
  Li  Li81  1  0.66666667  0.33333333  0.23527604  1
  Li  Li82  1  0.33333333  0.66666667  0.76472396  1
  Li  Li83  1  0.33333333  0.66666667  0.56860937  1
  Li  Li84  1  0.00000000  0.00000000  0.00000000  1
  Li  Li85  1  0.66666667  0.33333333  0.33333333  1
  Li  Li86  1  0.33333333  0.66666667  0.66666667  1
  Li  Li87  1  0.00000000  0.00000000  0.50000000  1
  Li  Li88  1  0.66666667  0.33333333  0.83333333  1
  Li  Li89  1  0.33333333  0.66666667  0.16666667  1
  Ti  Ti90  1  0.50000000  0.00000000  0.50000000  1
  Ti  Ti91  1  0.00000000  0.50000000  0.50000000  1
  Ti  Ti92  1  0.50000000  0.50000000  0.50000000  1
  Ti  Ti93  1  0.16666667  0.33333333  0.83333333  1
  Ti  Ti94  1  0.66666667  0.83333333  0.83333333  1
  Ti  Ti95  1  0.16666667  0.83333333  0.83333333  1
  Ti  Ti96  1  0.83333333  0.66666667  0.16666667  1
  Ti  Ti97  1  0.33333333  0.16666667  0.16666667  1
  Ti  Ti98  1  0.83333333  0.16666667  0.16666667  1
