# generated using pymatgen
data_NaLi3TeSe
_symmetry_space_group_name_H-M   'P 1'
_cell_length_a   16.81378290
_cell_length_b   16.81378290
_cell_length_c   11.00740229
_cell_angle_alpha   90.00000000
_cell_angle_beta   90.00000000
_cell_angle_gamma   90.00000000
_symmetry_Int_Tables_number   1
_chemical_formula_structural   NaLi3TeSe
_chemical_formula_sum   'Na32 Li96 Te32 Se32'
_cell_volume   3111.82890241
_cell_formula_units_Z   32
loop_
 _symmetry_equiv_pos_site_id
 _symmetry_equiv_pos_as_xyz
  1  'x, y, z'
loop_
 _atom_site_type_symbol
 _atom_site_label
 _atom_site_symmetry_multiplicity
 _atom_site_fract_x
 _atom_site_fract_y
 _atom_site_fract_z
 _atom_site_occupancy
  Li  Li0  1  0.00000000  0.57560036  0.30393655  1
  Li  Li1  1  0.50000000  0.42439964  0.80393655  1
  Li  Li2  1  0.67439964  0.75000000  0.55393655  1
  Li  Li3  1  0.82560036  0.25000000  0.05393655  1
  Li  Li4  1  0.50000000  0.57560036  0.19606345  1
  Li  Li5  1  0.00000000  0.42439964  0.69606345  1
  Li  Li6  1  0.82560036  0.75000000  0.94606345  1
  Li  Li7  1  0.67439964  0.25000000  0.44606345  1
  Li  Li8  1  0.50000000  0.07560036  0.80393655  1
  Li  Li9  1  0.00000000  0.92439964  0.30393655  1
  Li  Li10  1  0.17439964  0.25000000  0.05393655  1
  Li  Li11  1  0.32560036  0.75000000  0.55393655  1
  Li  Li12  1  0.00000000  0.07560036  0.69606345  1
  Li  Li13  1  0.50000000  0.92439964  0.19606345  1
  Li  Li14  1  0.32560036  0.25000000  0.44606345  1
  Li  Li15  1  0.17439964  0.75000000  0.94606345  1
  Li  Li16  1  0.65219557  0.45891962  0.33876100  1
  Li  Li17  1  -0.15219557  -0.45891962  0.83876100  1
  Li  Li18  1  -0.20891962  1.40219557  0.58876100  1
  Li  Li19  1  0.70891962  -0.40219557  1.08876100  1
  Li  Li20  1  -0.15219557  0.45891962  0.16123900  1
  Li  Li21  1  0.65219557  -0.45891962  -0.33876100  1
  Li  Li22  1  0.70891962  1.40219557  -0.08876100  1
  Li  Li23  1  -0.20891962  -0.40219557  0.41123900  1
  Li  Li24  1  -0.65219557  -0.45891962  -0.33876100  1
  Li  Li25  1  1.15219557  0.45891962  0.16123900  1
  Li  Li26  1  1.20891962  -0.40219557  0.41123900  1
  Li  Li27  1  0.29108038  1.40219557  -0.08876100  1
  Li  Li28  1  1.15219557  -0.45891962  0.83876100  1
  Li  Li29  1  -0.65219557  0.45891962  0.33876100  1
  Li  Li30  1  0.29108038  -0.40219557  1.08876100  1
  Li  Li31  1  1.20891962  1.40219557  0.58876100  1
  Li  Li32  1  1.15219557  0.95891962  0.83876100  1
  Li  Li33  1  0.34780443  0.04108038  1.33876100  1
  Li  Li34  1  0.29108038  1.90219557  1.08876100  1
  Li  Li35  1  1.20891962  0.09780443  1.58876100  1
  Li  Li36  1  0.34780443  0.95891962  0.66123900  1
  Li  Li37  1  1.15219557  0.04108038  0.16123900  1
  Li  Li38  1  1.20891962  1.90219557  0.41123900  1
  Li  Li39  1  0.29108038  0.09780443  0.91123900  1
  Li  Li40  1  -0.15219557  0.04108038  0.16123900  1
  Li  Li41  1  1.65219557  0.95891962  0.66123900  1
  Li  Li42  1  1.70891962  0.09780443  0.91123900  1
  Li  Li43  1  0.79108038  1.90219557  0.41123900  1
  Li  Li44  1  1.65219557  0.04108038  1.33876100  1
  Li  Li45  1  -0.15219557  0.95891962  0.83876100  1
  Li  Li46  1  0.79108038  0.09780443  1.58876100  1
  Li  Li47  1  1.70891962  1.90219557  1.08876100  1
  Li  Li48  1  0.00000000  0.58680467  0.06073948  1
  Li  Li49  1  0.50000000  0.41319533  0.56073948  1
  Li  Li50  1  0.66319533  0.75000000  0.31073948  1
  Li  Li51  1  0.83680467  0.25000000  0.81073948  1
  Li  Li52  1  0.50000000  0.58680467  0.43926052  1
  Li  Li53  1  0.00000000  0.41319533  0.93926052  1
  Li  Li54  1  0.83680467  0.75000000  0.18926052  1
  Li  Li55  1  0.66319533  0.25000000  0.68926052  1
  Li  Li56  1  0.50000000  0.08680467  0.56073948  1
  Li  Li57  1  0.00000000  0.91319533  0.06073948  1
  Li  Li58  1  0.16319533  0.25000000  0.81073948  1
  Li  Li59  1  0.33680467  0.75000000  0.31073948  1
  Li  Li60  1  0.00000000  0.08680467  0.93926052  1
  Li  Li61  1  0.50000000  0.91319533  0.43926052  1
  Li  Li62  1  0.33680467  0.25000000  0.68926052  1
  Li  Li63  1  0.16319533  0.75000000  0.18926052  1
  Li  Li64  1  0.95189178  0.90133186  0.97110686  1
  Li  Li65  1  0.54810822  0.09866814  0.47110686  1
  Li  Li66  1  0.34866814  0.70189178  0.22110686  1
  Li  Li67  1  0.15133186  0.29810822  0.72110686  1
  Li  Li68  1  0.54810822  0.90133186  0.52889314  1
  Li  Li69  1  0.95189178  0.09866814  0.02889314  1
  Li  Li70  1  0.15133186  0.70189178  0.27889314  1
  Li  Li71  1  0.34866814  0.29810822  0.77889314  1
  Li  Li72  1  0.04810822  0.09866814  0.02889314  1
  Li  Li73  1  0.45189178  0.90133186  0.52889314  1
  Li  Li74  1  0.65133186  0.29810822  0.77889314  1
  Li  Li75  1  0.84866814  0.70189178  0.27889314  1
  Li  Li76  1  0.45189178  0.09866814  0.47110686  1
  Li  Li77  1  0.04810822  0.90133186  0.97110686  1
  Li  Li78  1  0.84866814  0.29810822  0.72110686  1
  Li  Li79  1  0.65133186  0.70189178  0.22110686  1
  Li  Li80  1  0.45189178  0.40133186  0.47110686  1
  Li  Li81  1  0.04810822  0.59866814  0.97110686  1
  Li  Li82  1  0.84866814  0.20189178  0.72110686  1
  Li  Li83  1  0.65133186  0.79810822  0.22110686  1
  Li  Li84  1  0.04810822  0.40133186  0.02889314  1
  Li  Li85  1  0.45189178  0.59866814  0.52889314  1
  Li  Li86  1  0.65133186  0.20189178  0.77889314  1
  Li  Li87  1  0.84866814  0.79810822  0.27889314  1
  Li  Li88  1  0.54810822  0.59866814  0.52889314  1
  Li  Li89  1  0.95189178  0.40133186  0.02889314  1
  Li  Li90  1  0.15133186  0.79810822  0.27889314  1
  Li  Li91  1  0.34866814  0.20189178  0.77889314  1
  Li  Li92  1  0.95189178  0.59866814  0.97110686  1
  Li  Li93  1  0.54810822  0.40133186  0.47110686  1
  Li  Li94  1  0.34866814  0.79810822  0.22110686  1
  Li  Li95  1  0.15133186  0.20189178  0.72110686  1
  Na  Na96  1  0.14010004  0.39010004  0.87500000  1
  Na  Na97  1  0.35989996  0.60989996  0.37500000  1
  Na  Na98  1  0.85989996  0.89010004  0.12500000  1
  Na  Na99  1  0.64010004  0.10989996  0.62500000  1
  Na  Na100  1  0.85989996  0.60989996  0.12500000  1
  Na  Na101  1  0.64010004  0.39010004  0.62500000  1
  Na  Na102  1  0.14010004  0.10989996  0.87500000  1
  Na  Na103  1  0.35989996  0.89010004  0.37500000  1
  Na  Na104  1  0.64010004  0.89010004  0.37500000  1
  Na  Na105  1  0.85989996  0.10989996  0.87500000  1
  Na  Na106  1  0.35989996  0.39010004  0.62500000  1
  Na  Na107  1  0.14010004  0.60989996  0.12500000  1
  Na  Na108  1  0.35989996  0.10989996  0.62500000  1
  Na  Na109  1  0.14010004  0.89010004  0.12500000  1
  Na  Na110  1  0.64010004  0.60989996  0.37500000  1
  Na  Na111  1  0.85989996  0.39010004  0.87500000  1
  Na  Na112  1  0.00000000  0.00000000  0.00000000  1
  Na  Na113  1  0.50000000  0.00000000  0.50000000  1
  Na  Na114  1  0.25000000  0.75000000  0.25000000  1
  Na  Na115  1  0.25000000  0.25000000  0.75000000  1
  Na  Na116  1  0.50000000  0.50000000  0.50000000  1
  Na  Na117  1  0.00000000  0.50000000  0.00000000  1
  Na  Na118  1  0.75000000  0.25000000  0.75000000  1
  Na  Na119  1  0.75000000  0.75000000  0.25000000  1
  Na  Na120  1  0.00000000  0.25000000  0.58240857  1
  Na  Na121  1  0.00000000  0.75000000  0.83240857  1
  Na  Na122  1  0.50000000  0.25000000  0.91759143  1
  Na  Na123  1  0.50000000  0.75000000  0.66759143  1
  Na  Na124  1  0.50000000  0.75000000  0.08240857  1
  Na  Na125  1  0.50000000  0.25000000  0.33240857  1
  Na  Na126  1  0.00000000  0.75000000  0.41759143  1
  Na  Na127  1  0.00000000  0.25000000  0.16759143  1
  Se  Se128  1  0.00000000  0.75000000  0.12500000  1
  Se  Se129  1  0.50000000  0.75000000  0.37500000  1
  Se  Se130  1  0.50000000  0.25000000  0.62500000  1
  Se  Se131  1  0.00000000  0.25000000  0.87500000  1
  Se  Se132  1  0.00000000  0.25000000  0.37500000  1
  Se  Se133  1  0.00000000  0.75000000  0.62500000  1
  Se  Se134  1  0.50000000  0.75000000  0.87500000  1
  Se  Se135  1  0.50000000  0.25000000  0.12500000  1
  Se  Se136  1  0.32996154  0.00000000  0.00000000  1
  Se  Se137  1  0.17003846  0.00000000  0.50000000  1
  Se  Se138  1  0.25000000  0.07996154  0.25000000  1
  Se  Se139  1  0.25000000  0.92003846  0.75000000  1
  Se  Se140  1  0.67003846  0.00000000  0.00000000  1
  Se  Se141  1  0.82996154  0.00000000  0.50000000  1
  Se  Se142  1  0.75000000  0.92003846  0.75000000  1
  Se  Se143  1  0.75000000  0.07996154  0.25000000  1
  Se  Se144  1  0.82996154  0.50000000  0.50000000  1
  Se  Se145  1  0.67003846  0.50000000  0.00000000  1
  Se  Se146  1  0.75000000  0.57996154  0.75000000  1
  Se  Se147  1  0.75000000  0.42003846  0.25000000  1
  Se  Se148  1  0.17003846  0.50000000  0.50000000  1
  Se  Se149  1  0.32996154  0.50000000  0.00000000  1
  Se  Se150  1  0.25000000  0.42003846  0.25000000  1
  Se  Se151  1  0.25000000  0.57996154  0.75000000  1
  Se  Se152  1  0.00000000  0.00000000  0.50000000  1
  Se  Se153  1  0.50000000  0.00000000  0.00000000  1
  Se  Se154  1  0.25000000  0.75000000  0.75000000  1
  Se  Se155  1  0.25000000  0.25000000  0.25000000  1
  Se  Se156  1  0.50000000  0.50000000  0.00000000  1
  Se  Se157  1  0.00000000  0.50000000  0.50000000  1
  Se  Se158  1  0.75000000  0.25000000  0.25000000  1
  Se  Se159  1  0.75000000  0.75000000  0.75000000  1
  Te  Te160  1  0.00000000  0.06019441  0.11974957  1
  Te  Te161  1  0.50000000  0.93980559  0.61974957  1
  Te  Te162  1  0.18980559  0.75000000  0.36974957  1
  Te  Te163  1  0.31019441  0.25000000  0.86974957  1
  Te  Te164  1  0.50000000  0.06019441  0.38025043  1
  Te  Te165  1  0.00000000  0.93980559  0.88025043  1
  Te  Te166  1  0.31019441  0.75000000  0.13025043  1
  Te  Te167  1  0.18980559  0.25000000  0.63025043  1
  Te  Te168  1  0.50000000  0.56019441  0.61974957  1
  Te  Te169  1  0.00000000  0.43980559  0.11974957  1
  Te  Te170  1  0.68980559  0.25000000  0.86974957  1
  Te  Te171  1  0.81019441  0.75000000  0.36974957  1
  Te  Te172  1  0.00000000  0.56019441  0.88025043  1
  Te  Te173  1  0.50000000  0.43980559  0.38025043  1
  Te  Te174  1  0.81019441  0.25000000  0.63025043  1
  Te  Te175  1  0.68980559  0.75000000  0.13025043  1
  Te  Te176  1  0.29023221  0.54023221  0.87500000  1
  Te  Te177  1  0.20976779  0.45976779  0.37500000  1
  Te  Te178  1  0.70976779  0.04023221  0.12500000  1
  Te  Te179  1  0.79023221  0.95976779  0.62500000  1
  Te  Te180  1  0.70976779  0.45976779  0.12500000  1
  Te  Te181  1  0.79023221  0.54023221  0.62500000  1
  Te  Te182  1  0.29023221  0.95976779  0.87500000  1
  Te  Te183  1  0.20976779  0.04023221  0.37500000  1
  Te  Te184  1  0.79023221  0.04023221  0.37500000  1
  Te  Te185  1  0.70976779  0.95976779  0.87500000  1
  Te  Te186  1  0.20976779  0.54023221  0.62500000  1
  Te  Te187  1  0.29023221  0.45976779  0.12500000  1
  Te  Te188  1  0.20976779  0.95976779  0.62500000  1
  Te  Te189  1  0.29023221  0.04023221  0.12500000  1
  Te  Te190  1  0.79023221  0.45976779  0.37500000  1
  Te  Te191  1  0.70976779  0.54023221  0.87500000  1
