# generated using pymatgen
data_Li4SeI2
_symmetry_space_group_name_H-M   'P 1'
_cell_length_a   4.19818937
_cell_length_b   4.19818937
_cell_length_c   31.07313192
_cell_angle_alpha   90.00000000
_cell_angle_beta   90.00000000
_cell_angle_gamma   90.00000000
_symmetry_Int_Tables_number   1
_chemical_formula_structural   Li4SeI2
_chemical_formula_sum   'Li16 Se4 I8'
_cell_volume   547.65754759
_cell_formula_units_Z   4
loop_
 _symmetry_equiv_pos_site_id
 _symmetry_equiv_pos_as_xyz
  1  'x, y, z'
loop_
 _atom_site_type_symbol
 _atom_site_label
 _atom_site_symmetry_multiplicity
 _atom_site_fract_x
 _atom_site_fract_y
 _atom_site_fract_z
 _atom_site_occupancy
  I  I0  1  0.00000000  0.25000000  0.30381774  1
  I  I1  1  0.00000000  0.75000000  0.55381774  1
  I  I2  1  0.50000000  0.25000000  0.19618226  1
  I  I3  1  0.50000000  0.75000000  0.94618226  1
  I  I4  1  0.50000000  0.75000000  0.80381774  1
  I  I5  1  0.50000000  0.25000000  0.05381774  1
  I  I6  1  0.00000000  0.75000000  0.69618226  1
  I  I7  1  0.00000000  0.25000000  0.44618226  1
  Li  Li8  1  0.00000000  0.56292873  0.97720950  1
  Li  Li9  1  0.50000000  -0.56292873  1.47720950  1
  Li  Li10  1  -0.31292873  0.75000000  1.22720950  1
  Li  Li11  1  0.81292873  0.25000000  1.72720950  1
  Li  Li12  1  0.50000000  0.56292873  -0.47720950  1
  Li  Li13  1  0.00000000  -0.56292873  -0.97720950  1
  Li  Li14  1  0.81292873  0.75000000  -0.72720950  1
  Li  Li15  1  -0.31292873  0.25000000  -0.22720950  1
  Li  Li16  1  0.50000000  1.06292873  1.47720950  1
  Li  Li17  1  1.00000000  -0.06292873  1.97720950  1
  Li  Li18  1  0.18707127  1.25000000  1.72720950  1
  Li  Li19  1  1.31292873  0.75000000  2.22720950  1
  Li  Li20  1  1.00000000  1.06292873  0.02279050  1
  Li  Li21  1  0.50000000  -0.06292873  -0.47720950  1
  Li  Li22  1  1.31292873  1.25000000  -0.22720950  1
  Li  Li23  1  0.18707127  0.75000000  0.27279050  1
  Se  Se24  1  0.00000000  0.25000000  0.37500000  1
  Se  Se25  1  0.00000000  0.75000000  0.62500000  1
  Se  Se26  1  0.50000000  0.75000000  0.87500000  1
  Se  Se27  1  0.50000000  0.25000000  0.12500000  1
