# generated using pymatgen
data_LiHf4S4(IF2)3
_symmetry_space_group_name_H-M   'P 1'
_cell_length_a   7.77384413
_cell_length_b   13.04024617
_cell_length_c   13.22598958
_cell_angle_alpha   90.00000000
_cell_angle_beta   90.00000000
_cell_angle_gamma   90.00000000
_symmetry_Int_Tables_number   1
_chemical_formula_structural   LiHf4S4(IF2)3
_chemical_formula_sum   'Li4 Hf16 S16 I12 F24'
_cell_volume   1340.75613999
_cell_formula_units_Z   4
loop_
 _symmetry_equiv_pos_site_id
 _symmetry_equiv_pos_as_xyz
  1  'x, y, z'
loop_
 _atom_site_type_symbol
 _atom_site_label
 _atom_site_symmetry_multiplicity
 _atom_site_fract_x
 _atom_site_fract_y
 _atom_site_fract_z
 _atom_site_occupancy
  F  F0  1  0.32616328  0.32951539  0.03297873  1
  F  F1  1  0.17383672  0.67048461  0.53297873  1
  F  F2  1  0.67383672  0.82951539  0.96702127  1
  F  F3  1  0.82616328  0.17048461  0.46702127  1
  F  F4  1  0.67383672  0.67048461  0.96702127  1
  F  F5  1  0.82616328  0.32951539  0.46702127  1
  F  F6  1  0.32616328  0.17048461  0.03297873  1
  F  F7  1  0.17383672  0.82951539  0.53297873  1
  F  F8  1  0.03565734  0.32647058  0.63032032  1
  F  F9  1  0.46434266  0.67352942  0.13032032  1
  F  F10  1  0.96434266  0.82647058  0.36967968  1
  F  F11  1  0.53565734  0.17352942  0.86967968  1
  F  F12  1  0.96434266  0.67352942  0.36967968  1
  F  F13  1  0.53565734  0.32647058  0.86967968  1
  F  F14  1  0.03565734  0.17352942  0.63032032  1
  F  F15  1  0.46434266  0.82647058  0.13032032  1
  F  F16  1  0.21809493  0.25000000  0.73242830  1
  F  F17  1  0.28190507  0.75000000  0.23242830  1
  F  F18  1  0.78190507  0.75000000  0.26757170  1
  F  F19  1  0.71809493  0.25000000  0.76757170  1
  F  F20  1  0.26729042  0.25000000  0.81159949  1
  F  F21  1  0.23270958  0.75000000  0.31159949  1
  F  F22  1  0.73270958  0.75000000  0.18840051  1
  F  F23  1  0.76729042  0.25000000  0.68840051  1
  Hf  Hf24  1  0.59165692  0.84775437  0.81680489  1
  Hf  Hf25  1  0.90834308  0.15224563  0.31680489  1
  Hf  Hf26  1  0.40834308  0.34775437  0.18319511  1
  Hf  Hf27  1  0.09165692  0.65224563  0.68319511  1
  Hf  Hf28  1  0.40834308  0.15224563  0.18319511  1
  Hf  Hf29  1  0.09165692  0.84775437  0.68319511  1
  Hf  Hf30  1  0.59165692  0.65224563  0.81680489  1
  Hf  Hf31  1  0.90834308  0.34775437  0.31680489  1
  Hf  Hf32  1  0.00000000  0.00000000  0.50000000  1
  Hf  Hf33  1  0.50000000  0.00000000  0.00000000  1
  Hf  Hf34  1  0.00000000  0.50000000  0.50000000  1
  Hf  Hf35  1  0.50000000  0.50000000  0.00000000  1
  Hf  Hf36  1  0.54600073  0.25000000  0.35322866  1
  Hf  Hf37  1  0.95399927  0.75000000  0.85322866  1
  Hf  Hf38  1  0.45399927  0.75000000  0.64677134  1
  Hf  Hf39  1  0.04600073  0.25000000  0.14677134  1
  I  I40  1  0.24706271  0.25000000  0.10207928  1
  I  I41  1  0.25293729  0.75000000  0.60207928  1
  I  I42  1  0.75293729  0.75000000  0.89792072  1
  I  I43  1  0.74706271  0.25000000  0.39792072  1
  I  I44  1  0.00000000  0.00000000  0.00000000  1
  I  I45  1  0.50000000  0.00000000  0.50000000  1
  I  I46  1  0.00000000  0.50000000  0.00000000  1
  I  I47  1  0.50000000  0.50000000  0.50000000  1
  I  I48  1  0.37370709  0.25000000  0.67870601  1
  I  I49  1  0.12629291  0.75000000  0.17870601  1
  I  I50  1  0.62629291  0.75000000  0.32129399  1
  I  I51  1  0.87370709  0.25000000  0.82129399  1
  Li  Li52  1  0.31895850  0.25000000  0.33632516  1
  Li  Li53  1  0.18104150  0.75000000  0.83632516  1
  Li  Li54  1  0.68104150  0.75000000  0.66367484  1
  Li  Li55  1  0.81895850  0.25000000  0.16367484  1
  S  S56  1  0.68753293  0.18872778  0.02833643  1
  S  S57  1  -0.18753293  -0.18872778  0.52833643  1
  S  S58  1  -0.68753293  0.68872778  -0.02833643  1
  S  S59  1  1.18753293  0.31127222  0.47166357  1
  S  S60  1  -0.68753293  -0.18872778  -0.02833643  1
  S  S61  1  1.18753293  0.18872778  0.47166357  1
  S  S62  1  0.68753293  0.31127222  0.02833643  1
  S  S63  1  -0.18753293  0.68872778  0.52833643  1
  S  S64  1  0.39245893  0.99614579  0.83596381  1
  S  S65  1  0.10754107  0.00385421  0.33596381  1
  S  S66  1  0.60754107  0.49614579  0.16403619  1
  S  S67  1  0.89245893  0.50385421  0.66403619  1
  S  S68  1  0.60754107  0.00385421  0.16403619  1
  S  S69  1  0.89245893  0.99614579  0.66403619  1
  S  S70  1  0.39245893  0.50385421  0.83596381  1
  S  S71  1  0.10754107  0.49614579  0.33596381  1
