# generated using pymatgen
data_LiTi2P3O3F4
_symmetry_space_group_name_H-M   'P 1'
_cell_length_a   8.47016791
_cell_length_b   9.82592993
_cell_length_c   6.89286264
_cell_angle_alpha   90.00000000
_cell_angle_beta   90.00000000
_cell_angle_gamma   90.00000000
_symmetry_Int_Tables_number   1
_chemical_formula_structural   LiTi2P3O3F4
_chemical_formula_sum   'Li1 Ti2 P3 O3 F4'
_cell_volume   573.67418359
_cell_formula_units_Z   1
loop_
 _symmetry_equiv_pos_site_id
 _symmetry_equiv_pos_as_xyz
  1  'x, y, z'
loop_
 _atom_site_type_symbol
 _atom_site_label
 _atom_site_symmetry_multiplicity
 _atom_site_fract_x
 _atom_site_fract_y
 _atom_site_fract_z
 _atom_site_occupancy
  Li  Li0  1  0.00000000  0.00000000  0.00000000  1
  Ti  Ti1  1  0.50000000  0.50000000  0.50000000  1
  Ti  Ti2  1  0.25000000  0.25000000  0.25000000  1
  F  F3  1  0.75000000  0.25000000  0.00000000  1
  F  F4  1  0.25000000  0.75000000  0.50000000  1
  F  F5  1  0.58974726  0.25865614  0.25362550  1
  F  F6  1  0.83921018  0.11006310  0.36916394  1
  P  P7  1  0.57479607  0.97716228  0.40725588  1
  P  P8  1  0.89345928  0.01236758  0.55336914  1
  P  P9  1  0.86887630  0.32392535  0.28565701  1
  O  O10  1  0.08637219  0.96084750  0.81658218  1
  O  O11  1  0.27441911  0.23873454  0.06934865  1
  O  O12  1  0.44744299  0.96366276  0.36422689  1
