# generated using pymatgen
data_Li3B2Br9
_symmetry_space_group_name_H-M   'P 1'
_cell_length_a   9.48674470
_cell_length_b   9.48674470
_cell_length_c   6.34625383
_cell_angle_alpha   90.00000000
_cell_angle_beta   90.00000000
_cell_angle_gamma   120.00000000
_symmetry_Int_Tables_number   1
_chemical_formula_structural   Li3B2Br9
_chemical_formula_sum   'Li6 B4 Br18'
_cell_volume   494.63232808
_cell_formula_units_Z   2
loop_
 _symmetry_equiv_pos_site_id
 _symmetry_equiv_pos_as_xyz
  1  'x, y, z'
loop_
 _atom_site_type_symbol
 _atom_site_label
 _atom_site_symmetry_multiplicity
 _atom_site_fract_x
 _atom_site_fract_y
 _atom_site_fract_z
 _atom_site_occupancy
  B  B0  1  0.33333333  0.66666667  0.25000000  1
  B  B1  1  0.66666667  0.33333333  0.75000000  1
  B  B2  1  0.00000000  0.00000000  0.25000000  1
  B  B3  1  0.00000000  0.00000000  0.75000000  1
  Br  Br4  1  0.03664517  0.61759750  0.52675680  1
  Br  Br5  1  -0.61759750  -0.58095232  0.52675680  1
  Br  Br6  1  0.58095232  -0.03664517  0.52675680  1
  Br  Br7  1  -0.03664517  -0.61759750  1.02675680  1
  Br  Br8  1  0.61759750  0.58095232  1.02675680  1
  Br  Br9  1  -0.58095232  0.03664517  1.02675680  1
  Br  Br10  1  -0.03664517  -0.61759750  -0.52675680  1
  Br  Br11  1  0.61759750  0.58095232  -0.52675680  1
  Br  Br12  1  -0.58095232  0.03664517  -0.52675680  1
  Br  Br13  1  0.03664517  0.61759750  -0.02675680  1
  Br  Br14  1  -0.61759750  -0.58095232  -0.02675680  1
  Br  Br15  1  0.58095232  -0.03664517  -0.02675680  1
  Br  Br16  1  0.08671493  0.37913837  0.25000000  1
  Br  Br17  1  0.62086163  0.70757656  0.25000000  1
  Br  Br18  1  0.29242344  0.91328507  0.25000000  1
  Br  Br19  1  0.91328507  0.62086163  0.75000000  1
  Br  Br20  1  0.37913837  0.29242344  0.75000000  1
  Br  Br21  1  0.70757656  0.08671493  0.75000000  1
  Li  Li22  1  0.54954590  0.47579181  0.25000000  1
  Li  Li23  1  0.52420819  0.07375410  0.25000000  1
  Li  Li24  1  0.92624590  0.45045410  0.25000000  1
  Li  Li25  1  0.45045410  0.52420819  0.75000000  1
  Li  Li26  1  0.47579181  0.92624590  0.75000000  1
  Li  Li27  1  0.07375410  0.54954590  0.75000000  1
