# generated using pymatgen
data_Li2Se
_symmetry_space_group_name_H-M   'P 1'
_cell_length_a   5.91655758
_cell_length_b   5.91655758
_cell_length_c   16.51637534
_cell_angle_alpha   90.00000000
_cell_angle_beta   90.00000000
_cell_angle_gamma   90.00000000
_symmetry_Int_Tables_number   1
_chemical_formula_structural   Li2Se
_chemical_formula_sum   'Li32 Se16'
_cell_volume   578.16651311
_cell_formula_units_Z   16
loop_
 _symmetry_equiv_pos_site_id
 _symmetry_equiv_pos_as_xyz
  1  'x, y, z'
loop_
 _atom_site_type_symbol
 _atom_site_label
 _atom_site_symmetry_multiplicity
 _atom_site_fract_x
 _atom_site_fract_y
 _atom_site_fract_z
 _atom_site_occupancy
  Li  Li0  1  0.00000000  0.00985908  0.73930752  1
  Li  Li1  1  0.50000000  -0.00985908  1.23930752  1
  Li  Li2  1  0.24014092  0.75000000  0.98930752  1
  Li  Li3  1  0.25985908  0.25000000  1.48930752  1
  Li  Li4  1  0.50000000  0.00985908  -0.23930752  1
  Li  Li5  1  0.00000000  -0.00985908  -0.73930752  1
  Li  Li6  1  0.25985908  0.75000000  -0.48930752  1
  Li  Li7  1  0.24014092  0.25000000  0.01069248  1
  Li  Li8  1  0.50000000  0.50985908  1.23930752  1
  Li  Li9  1  1.00000000  0.49014092  1.73930752  1
  Li  Li10  1  0.74014092  1.25000000  1.48930752  1
  Li  Li11  1  0.75985908  0.75000000  1.98930752  1
  Li  Li12  1  1.00000000  0.50985908  0.26069248  1
  Li  Li13  1  0.50000000  0.49014092  -0.23930752  1
  Li  Li14  1  0.75985908  1.25000000  0.01069248  1
  Li  Li15  1  0.74014092  0.75000000  0.51069248  1
  Li  Li16  1  0.14836378  0.39836378  0.87500000  1
  Li  Li17  1  0.35163622  0.60163622  0.37500000  1
  Li  Li18  1  0.85163622  0.89836378  0.12500000  1
  Li  Li19  1  0.64836378  0.10163622  0.62500000  1
  Li  Li20  1  0.85163622  0.60163622  0.12500000  1
  Li  Li21  1  0.64836378  0.39836378  0.62500000  1
  Li  Li22  1  0.14836378  0.10163622  0.87500000  1
  Li  Li23  1  0.35163622  0.89836378  0.37500000  1
  Li  Li24  1  0.64836378  0.89836378  0.37500000  1
  Li  Li25  1  0.85163622  0.10163622  0.87500000  1
  Li  Li26  1  0.35163622  0.39836378  0.62500000  1
  Li  Li27  1  0.14836378  0.60163622  0.12500000  1
  Li  Li28  1  0.35163622  0.10163622  0.62500000  1
  Li  Li29  1  0.14836378  0.89836378  0.12500000  1
  Li  Li30  1  0.64836378  0.60163622  0.37500000  1
  Li  Li31  1  0.85163622  0.39836378  0.87500000  1
  Se  Se32  1  0.00000000  0.25000000  0.46582899  1
  Se  Se33  1  0.00000000  0.75000000  0.71582899  1
  Se  Se34  1  0.50000000  0.25000000  0.03417101  1
  Se  Se35  1  0.50000000  0.75000000  0.78417101  1
  Se  Se36  1  0.50000000  0.75000000  0.96582899  1
  Se  Se37  1  0.50000000  0.25000000  0.21582899  1
  Se  Se38  1  0.00000000  0.75000000  0.53417101  1
  Se  Se39  1  0.00000000  0.25000000  0.28417101  1
  Se  Se40  1  0.00000000  0.00000000  0.00000000  1
  Se  Se41  1  0.50000000  0.00000000  0.50000000  1
  Se  Se42  1  0.25000000  0.75000000  0.25000000  1
  Se  Se43  1  0.25000000  0.25000000  0.75000000  1
  Se  Se44  1  0.50000000  0.50000000  0.50000000  1
  Se  Se45  1  0.00000000  0.50000000  0.00000000  1
  Se  Se46  1  0.75000000  0.25000000  0.75000000  1
  Se  Se47  1  0.75000000  0.75000000  0.25000000  1
