# generated using pymatgen
data_NaLiBr2
_symmetry_space_group_name_H-M   'P 1'
_cell_length_a   9.88920657
_cell_length_b   5.02434650
_cell_length_c   6.01934043
_cell_angle_alpha   90.00000000
_cell_angle_beta   90.00000000
_cell_angle_gamma   90.00000000
_symmetry_Int_Tables_number   1
_chemical_formula_structural   NaLiBr2
_chemical_formula_sum   'Na4 Li4 Br8'
_cell_volume   299.08176682
_cell_formula_units_Z   4
loop_
 _symmetry_equiv_pos_site_id
 _symmetry_equiv_pos_as_xyz
  1  'x, y, z'
loop_
 _atom_site_type_symbol
 _atom_site_label
 _atom_site_symmetry_multiplicity
 _atom_site_fract_x
 _atom_site_fract_y
 _atom_site_fract_z
 _atom_site_occupancy
  Br  Br0  1  0.35123833  0.25000000  0.04077188  1
  Br  Br1  1  0.14876167  0.75000000  0.54077188  1
  Br  Br2  1  0.64876167  0.75000000  0.95922812  1
  Br  Br3  1  0.85123833  0.25000000  0.45922812  1
  Br  Br4  1  0.00000000  0.00000000  0.50000000  1
  Br  Br5  1  0.50000000  0.00000000  0.00000000  1
  Br  Br6  1  0.00000000  0.50000000  0.50000000  1
  Br  Br7  1  0.50000000  0.50000000  0.00000000  1
  Li  Li8  1  0.00000000  0.00000000  0.00000000  1
  Li  Li9  1  0.50000000  0.00000000  0.50000000  1
  Li  Li10  1  0.00000000  0.50000000  0.00000000  1
  Li  Li11  1  0.50000000  0.50000000  0.50000000  1
  Na  Na12  1  0.11985529  0.25000000  0.04334456  1
  Na  Na13  1  0.38014471  0.75000000  0.54334456  1
  Na  Na14  1  0.88014471  0.75000000  0.95665544  1
  Na  Na15  1  0.61985529  0.25000000  0.45665544  1
