# generated using pymatgen
data_Li6Ti3P(ClO2)3
_symmetry_space_group_name_H-M   'P 1'
_cell_length_a   3.96657191
_cell_length_b   4.58283341
_cell_length_c   3.83259429
_cell_angle_alpha   85.10155499
_cell_angle_beta   85.31515909
_cell_angle_gamma   94.85904535
_symmetry_Int_Tables_number   1
_chemical_formula_structural   Li6Ti3P(ClO2)3
_chemical_formula_sum   'Li6 Ti3 P1 Cl3 O6'
_cell_volume   68.88757997
_cell_formula_units_Z   1
loop_
 _symmetry_equiv_pos_site_id
 _symmetry_equiv_pos_as_xyz
  1  'x, y, z'
loop_
 _atom_site_type_symbol
 _atom_site_label
 _atom_site_symmetry_multiplicity
 _atom_site_fract_x
 _atom_site_fract_y
 _atom_site_fract_z
 _atom_site_occupancy
  Li  Li0  1  0.00000000  0.00000000  0.00000000  1
  Li  Li1  1  0.50000000  0.50000000  0.50000000  1
  Li  Li2  1  0.50000000  0.50000000  0.00000000  1
  Li  Li3  1  0.50000000  0.00000000  0.50000000  1
  Li  Li4  1  0.00000000  0.50000000  0.50000000  1
  Li  Li5  1  0.47528930  0.01738065  0.04546637  1
  Ti  Ti6  1  0.12441815  0.53221113  0.16754336  1
  Ti  Ti7  1  0.16427442  0.26292848  0.20665444  1
  Ti  Ti8  1  0.42956744  0.87199531  0.29044818  1
  P  P9  1  0.91810029  0.67416359  0.44209741  1
  Cl  Cl10  1  0.77575949  0.37165191  0.45220703  1
  Cl  Cl11  1  0.48886367  0.27142411  0.47256087  1
  Cl  Cl12  1  0.80012856  0.00105894  0.32505433  1
  O  O13  1  0.56571942  0.41282712  0.50726979  1
  O  O14  1  0.67921458  0.45710542  0.24777290  1
  O  O15  1  0.96111523  0.04524676  0.03481161  1
  O  O16  1  0.34027947  0.07766028  0.57257527  1
  O  O17  1  0.85317788  0.36652368  0.82546638  1
  O  O18  1  0.29374435  0.26284772  0.37155961  1
