# generated using pymatgen
data_Li6Ca4AlTe2S6Cl
_symmetry_space_group_name_H-M   'P 1'
_cell_length_a   8.64029102
_cell_length_b   17.48408599
_cell_length_c   11.45678379
_cell_angle_alpha   90.00000000
_cell_angle_beta   90.00000000
_cell_angle_gamma   90.00000000
_symmetry_Int_Tables_number   1
_chemical_formula_structural   Li6Ca4AlTe2S6Cl
_chemical_formula_sum   'Li24 Ca16 Al4 Te8 S24 Cl4'
_cell_volume   1730.74873084
_cell_formula_units_Z   4
loop_
 _symmetry_equiv_pos_site_id
 _symmetry_equiv_pos_as_xyz
  1  'x, y, z'
loop_
 _atom_site_type_symbol
 _atom_site_label
 _atom_site_symmetry_multiplicity
 _atom_site_fract_x
 _atom_site_fract_y
 _atom_site_fract_z
 _atom_site_occupancy
  Al  Al0  1  0.00000000  0.50000000  0.00000000  1
  Al  Al1  1  0.50000000  0.00000000  0.50000000  1
  Al  Al2  1  0.00000000  0.00000000  0.50000000  1
  Al  Al3  1  0.50000000  0.50000000  0.00000000  1
  Ca  Ca4  1  0.91384227  0.88956724  0.00000000  1
  Ca  Ca5  1  0.08615773  0.11043276  0.00000000  1
  Ca  Ca6  1  0.58615773  0.38956724  0.50000000  1
  Ca  Ca7  1  0.41384227  0.61043276  0.50000000  1
  Ca  Ca8  1  0.82337270  0.27790794  0.73923914  1
  Ca  Ca9  1  0.17662730  0.72209206  0.73923914  1
  Ca  Ca10  1  0.67662730  0.77790794  0.76076086  1
  Ca  Ca11  1  0.32337270  0.22209206  0.76076086  1
  Ca  Ca12  1  0.17662730  0.72209206  0.26076086  1
  Ca  Ca13  1  0.82337270  0.27790794  0.26076086  1
  Ca  Ca14  1  0.32337270  0.22209206  0.23923914  1
  Ca  Ca15  1  0.67662730  0.77790794  0.23923914  1
  Ca  Ca16  1  0.00000000  0.00000000  0.24946363  1
  Ca  Ca17  1  0.50000000  0.50000000  0.25053637  1
  Ca  Ca18  1  0.00000000  0.00000000  0.75053637  1
  Ca  Ca19  1  0.50000000  0.50000000  0.74946363  1
  Cl  Cl20  1  0.00000000  0.00000000  0.00000000  1
  Cl  Cl21  1  0.50000000  0.50000000  0.50000000  1
  Cl  Cl22  1  0.00000000  0.50000000  0.50000000  1
  Cl  Cl23  1  0.50000000  0.00000000  0.00000000  1
  Li  Li24  1  0.48768050  0.39835494  0.00000000  1
  Li  Li25  1  0.51231950  0.60164506  0.00000000  1
  Li  Li26  1  0.01231950  0.89835494  0.50000000  1
  Li  Li27  1  0.98768050  0.10164506  0.50000000  1
  Li  Li28  1  0.38744756  0.52714613  0.63082920  1
  Li  Li29  1  -0.38744756  -0.52714613  0.63082920  1
  Li  Li30  1  0.11255244  1.02714613  -0.13082920  1
  Li  Li31  1  0.88744756  -0.02714613  -0.13082920  1
  Li  Li32  1  -0.38744756  -0.52714613  -0.63082920  1
  Li  Li33  1  0.38744756  0.52714613  -0.63082920  1
  Li  Li34  1  0.88744756  -0.02714613  1.13082920  1
  Li  Li35  1  0.11255244  1.02714613  1.13082920  1
  Li  Li36  1  0.98388945  0.69491635  0.00000000  1
  Li  Li37  1  0.01611055  0.30508365  0.00000000  1
  Li  Li38  1  0.51611055  0.19491635  0.50000000  1
  Li  Li39  1  0.48388945  0.80508365  0.50000000  1
  Li  Li40  1  0.00000000  0.50000000  0.14695561  1
  Li  Li41  1  0.50000000  0.00000000  0.35304439  1
  Li  Li42  1  0.00000000  0.50000000  0.85304439  1
  Li  Li43  1  0.50000000  0.00000000  0.64695561  1
  Li  Li44  1  0.00000000  0.50000000  0.66058673  1
  Li  Li45  1  0.50000000  0.00000000  0.83941327  1
  Li  Li46  1  0.00000000  0.50000000  0.33941327  1
  Li  Li47  1  0.50000000  0.00000000  0.16058673  1
  S  S48  1  0.04076803  0.22832965  0.81595499  1
  S  S49  1  0.95923197  0.77167035  0.81595499  1
  S  S50  1  0.45923197  0.72832965  0.68404501  1
  S  S51  1  0.54076803  0.27167035  0.68404501  1
  S  S52  1  0.95923197  0.77167035  0.18404501  1
  S  S53  1  0.04076803  0.22832965  0.18404501  1
  S  S54  1  0.54076803  0.27167035  0.31595499  1
  S  S55  1  0.45923197  0.72832965  0.31595499  1
  S  S56  1  0.70003322  0.62604139  0.55760502  1
  S  S57  1  0.29996678  0.37395861  0.55760502  1
  S  S58  1  0.79996678  0.12604139  0.94239498  1
  S  S59  1  0.20003322  0.87395861  0.94239498  1
  S  S60  1  0.29996678  0.37395861  0.44239498  1
  S  S61  1  0.70003322  0.62604139  0.44239498  1
  S  S62  1  0.20003322  0.87395861  0.05760502  1
  S  S63  1  0.79996678  0.12604139  0.05760502  1
  S  S64  1  0.90014584  0.09294084  0.66156291  1
  S  S65  1  0.09985416  0.90705916  0.66156291  1
  S  S66  1  0.59985416  0.59294084  0.83843709  1
  S  S67  1  0.40014584  0.40705916  0.83843709  1
  S  S68  1  0.09985416  0.90705916  0.33843709  1
  S  S69  1  0.90014584  0.09294084  0.33843709  1
  S  S70  1  0.40014584  0.40705916  0.16156291  1
  S  S71  1  0.59985416  0.59294084  0.16156291  1
  Te  Te72  1  0.61954711  0.31016354  0.83772210  1
  Te  Te73  1  0.38045289  0.68983646  0.83772210  1
  Te  Te74  1  0.88045289  0.81016354  0.66227790  1
  Te  Te75  1  0.11954711  0.18983646  0.66227790  1
  Te  Te76  1  0.38045289  0.68983646  0.16227790  1
  Te  Te77  1  0.61954711  0.31016354  0.16227790  1
  Te  Te78  1  0.11954711  0.18983646  0.33772210  1
  Te  Te79  1  0.88045289  0.81016354  0.33772210  1
