# generated using pymatgen
data_K4Li2Ca3(SnO4)3
_symmetry_space_group_name_H-M   'P 1'
_cell_length_a   24.91034895
_cell_length_b   24.91034895
_cell_length_c   24.91034895
_cell_angle_alpha   90.00000000
_cell_angle_beta   90.00000000
_cell_angle_gamma   90.00000000
_symmetry_Int_Tables_number   1
_chemical_formula_structural   K4Li2Ca3(SnO4)3
_chemical_formula_sum   'K96 Li48 Ca72 Sn72 O288'
_cell_volume   15457.50635963
_cell_formula_units_Z   24
loop_
 _symmetry_equiv_pos_site_id
 _symmetry_equiv_pos_as_xyz
  1  'x, y, z'
loop_
 _atom_site_type_symbol
 _atom_site_label
 _atom_site_symmetry_multiplicity
 _atom_site_fract_x
 _atom_site_fract_y
 _atom_site_fract_z
 _atom_site_occupancy
  Ca  Ca0  1  0.12500000  0.61749171  0.63250829  1
  Ca  Ca1  1  0.37500000  0.38250829  0.13250829  1
  Ca  Ca2  1  0.87500000  0.11749171  0.86749171  1
  Ca  Ca3  1  0.62500000  0.88250829  0.36749171  1
  Ca  Ca4  1  0.63250829  0.12500000  0.61749171  1
  Ca  Ca5  1  0.13250829  0.37500000  0.38250829  1
  Ca  Ca6  1  0.86749171  0.87500000  0.11749171  1
  Ca  Ca7  1  0.36749171  0.62500000  0.88250829  1
  Ca  Ca8  1  0.61749171  0.63250829  0.12500000  1
  Ca  Ca9  1  0.38250829  0.13250829  0.37500000  1
  Ca  Ca10  1  0.11749171  0.86749171  0.87500000  1
  Ca  Ca11  1  0.88250829  0.36749171  0.62500000  1
  Ca  Ca12  1  0.87500000  0.38250829  0.36749171  1
  Ca  Ca13  1  0.62500000  0.61749171  0.86749171  1
  Ca  Ca14  1  0.12500000  0.88250829  0.13250829  1
  Ca  Ca15  1  0.37500000  0.11749171  0.63250829  1
  Ca  Ca16  1  0.36749171  0.87500000  0.38250829  1
  Ca  Ca17  1  0.86749171  0.62500000  0.61749171  1
  Ca  Ca18  1  0.13250829  0.12500000  0.88250829  1
  Ca  Ca19  1  0.63250829  0.37500000  0.11749171  1
  Ca  Ca20  1  0.38250829  0.36749171  0.87500000  1
  Ca  Ca21  1  0.61749171  0.86749171  0.62500000  1
  Ca  Ca22  1  0.88250829  0.13250829  0.12500000  1
  Ca  Ca23  1  0.11749171  0.63250829  0.37500000  1
  Ca  Ca24  1  0.62500000  0.11749171  0.13250829  1
  Ca  Ca25  1  0.87500000  0.88250829  0.63250829  1
  Ca  Ca26  1  0.37500000  0.61749171  0.36749171  1
  Ca  Ca27  1  0.12500000  0.38250829  0.86749171  1
  Ca  Ca28  1  0.13250829  0.62500000  0.11749171  1
  Ca  Ca29  1  0.63250829  0.87500000  0.88250829  1
  Ca  Ca30  1  0.36749171  0.37500000  0.61749171  1
  Ca  Ca31  1  0.86749171  0.12500000  0.38250829  1
  Ca  Ca32  1  0.11749171  0.13250829  0.62500000  1
  Ca  Ca33  1  0.88250829  0.63250829  0.87500000  1
  Ca  Ca34  1  0.61749171  0.36749171  0.37500000  1
  Ca  Ca35  1  0.38250829  0.86749171  0.12500000  1
  Ca  Ca36  1  0.37500000  0.88250829  0.86749171  1
  Ca  Ca37  1  0.12500000  0.11749171  0.36749171  1
  Ca  Ca38  1  0.62500000  0.38250829  0.63250829  1
  Ca  Ca39  1  0.87500000  0.61749171  0.13250829  1
  Ca  Ca40  1  0.86749171  0.37500000  0.88250829  1
  Ca  Ca41  1  0.36749171  0.12500000  0.11749171  1
  Ca  Ca42  1  0.63250829  0.62500000  0.38250829  1
  Ca  Ca43  1  0.13250829  0.87500000  0.61749171  1
  Ca  Ca44  1  0.88250829  0.86749171  0.37500000  1
  Ca  Ca45  1  0.11749171  0.36749171  0.12500000  1
  Ca  Ca46  1  0.38250829  0.63250829  0.62500000  1
  Ca  Ca47  1  0.61749171  0.13250829  0.87500000  1
  Ca  Ca48  1  0.12500000  0.00000000  0.25000000  1
  Ca  Ca49  1  0.37500000  -0.00000000  0.75000000  1
  Ca  Ca50  1  0.25000000  0.12500000  0.00000000  1
  Ca  Ca51  1  0.75000000  0.37500000  0.00000000  1
  Ca  Ca52  1  0.00000000  0.25000000  0.12500000  1
  Ca  Ca53  1  0.00000000  0.75000000  0.37500000  1
  Ca  Ca54  1  0.87500000  0.00000000  0.75000000  1
  Ca  Ca55  1  0.62500000  0.00000000  0.25000000  1
  Ca  Ca56  1  0.75000000  0.87500000  0.00000000  1
  Ca  Ca57  1  0.25000000  0.62500000  0.00000000  1
  Ca  Ca58  1  0.00000000  0.75000000  0.87500000  1
  Ca  Ca59  1  0.00000000  0.25000000  0.62500000  1
  Ca  Ca60  1  0.62500000  0.50000000  0.75000000  1
  Ca  Ca61  1  0.87500000  0.50000000  0.25000000  1
  Ca  Ca62  1  0.75000000  0.62500000  0.50000000  1
  Ca  Ca63  1  0.25000000  0.87500000  0.50000000  1
  Ca  Ca64  1  0.50000000  0.75000000  0.62500000  1
  Ca  Ca65  1  0.50000000  0.25000000  0.87500000  1
  Ca  Ca66  1  0.37500000  0.50000000  0.25000000  1
  Ca  Ca67  1  0.12500000  0.50000000  0.75000000  1
  Ca  Ca68  1  0.25000000  0.37500000  0.50000000  1
  Ca  Ca69  1  0.75000000  0.12500000  0.50000000  1
  Ca  Ca70  1  0.50000000  0.25000000  0.37500000  1
  Ca  Ca71  1  0.50000000  0.75000000  0.12500000  1
  K  K72  1  0.25267670  0.73922156  0.14498712  1
  K  K73  1  0.24732330  0.26077844  0.64498712  1
  K  K74  1  0.74732330  0.23922156  0.35501288  1
  K  K75  1  0.75267670  0.76077844  0.85501288  1
  K  K76  1  0.14498712  0.25267670  0.73922156  1
  K  K77  1  0.64498712  0.24732330  0.26077844  1
  K  K78  1  0.35501288  0.74732330  0.23922156  1
  K  K79  1  0.85501288  0.75267670  0.76077844  1
  K  K80  1  0.73922156  0.14498712  0.25267670  1
  K  K81  1  0.26077844  0.64498712  0.24732330  1
  K  K82  1  0.23922156  0.35501288  0.74732330  1
  K  K83  1  0.76077844  0.85501288  0.75267670  1
  K  K84  1  0.48922156  0.50267670  0.10501288  1
  K  K85  1  0.01077844  0.49732330  0.60501288  1
  K  K86  1  0.98922156  0.99732330  0.89498712  1
  K  K87  1  0.51077844  0.00267670  0.39498712  1
  K  K88  1  0.00267670  0.39498712  0.51077844  1
  K  K89  1  0.99732330  0.89498712  0.98922156  1
  K  K90  1  0.49732330  0.60501288  0.01077844  1
  K  K91  1  0.50267670  0.10501288  0.48922156  1
  K  K92  1  0.89498712  0.98922156  0.99732330  1
  K  K93  1  0.39498712  0.51077844  0.00267670  1
  K  K94  1  0.10501288  0.48922156  0.50267670  1
  K  K95  1  0.60501288  0.01077844  0.49732330  1
  K  K96  1  0.74732330  0.26077844  0.85501288  1
  K  K97  1  0.75267670  0.73922156  0.35501288  1
  K  K98  1  0.25267670  0.76077844  0.64498712  1
  K  K99  1  0.24732330  0.23922156  0.14498712  1
  K  K100  1  0.85501288  0.74732330  0.26077844  1
  K  K101  1  0.35501288  0.75267670  0.73922156  1
  K  K102  1  0.64498712  0.25267670  0.76077844  1
  K  K103  1  0.14498712  0.24732330  0.23922156  1
  K  K104  1  0.26077844  0.85501288  0.74732330  1
  K  K105  1  0.73922156  0.35501288  0.75267670  1
  K  K106  1  0.76077844  0.64498712  0.25267670  1
  K  K107  1  0.23922156  0.14498712  0.24732330  1
  K  K108  1  0.51077844  0.49732330  0.89498712  1
  K  K109  1  0.98922156  0.50267670  0.39498712  1
  K  K110  1  0.01077844  0.00267670  0.10501288  1
  K  K111  1  0.48922156  0.99732330  0.60501288  1
  K  K112  1  0.99732330  0.60501288  0.48922156  1
  K  K113  1  0.00267670  0.10501288  0.01077844  1
  K  K114  1  0.50267670  0.39498712  0.98922156  1
  K  K115  1  0.49732330  0.89498712  0.51077844  1
  K  K116  1  0.10501288  0.01077844  0.00267670  1
  K  K117  1  0.60501288  0.48922156  0.99732330  1
  K  K118  1  0.89498712  0.51077844  0.49732330  1
  K  K119  1  0.39498712  0.98922156  0.50267670  1
  K  K120  1  0.75267670  0.23922156  0.64498712  1
  K  K121  1  0.74732330  0.76077844  0.14498712  1
  K  K122  1  0.24732330  0.73922156  0.85501288  1
  K  K123  1  0.25267670  0.26077844  0.35501288  1
  K  K124  1  0.64498712  0.75267670  0.23922156  1
  K  K125  1  0.14498712  0.74732330  0.76077844  1
  K  K126  1  0.85501288  0.24732330  0.73922156  1
  K  K127  1  0.35501288  0.25267670  0.26077844  1
  K  K128  1  0.23922156  0.64498712  0.75267670  1
  K  K129  1  0.76077844  0.14498712  0.74732330  1
  K  K130  1  0.73922156  0.85501288  0.24732330  1
  K  K131  1  0.26077844  0.35501288  0.25267670  1
  K  K132  1  0.98922156  0.00267670  0.60501288  1
  K  K133  1  0.51077844  0.99732330  0.10501288  1
  K  K134  1  0.48922156  0.49732330  0.39498712  1
  K  K135  1  0.01077844  0.50267670  0.89498712  1
  K  K136  1  0.50267670  0.89498712  0.01077844  1
  K  K137  1  0.49732330  0.39498712  0.48922156  1
  K  K138  1  0.99732330  0.10501288  0.51077844  1
  K  K139  1  0.00267670  0.60501288  0.98922156  1
  K  K140  1  0.39498712  0.48922156  0.49732330  1
  K  K141  1  0.89498712  0.01077844  0.50267670  1
  K  K142  1  0.60501288  0.98922156  0.00267670  1
  K  K143  1  0.10501288  0.51077844  0.99732330  1
  K  K144  1  0.24732330  0.76077844  0.35501288  1
  K  K145  1  0.25267670  0.23922156  0.85501288  1
  K  K146  1  0.75267670  0.26077844  0.14498712  1
  K  K147  1  0.74732330  0.73922156  0.64498712  1
  K  K148  1  0.35501288  0.24732330  0.76077844  1
  K  K149  1  0.85501288  0.25267670  0.23922156  1
  K  K150  1  0.14498712  0.75267670  0.26077844  1
  K  K151  1  0.64498712  0.74732330  0.73922156  1
  K  K152  1  0.76077844  0.35501288  0.24732330  1
  K  K153  1  0.23922156  0.85501288  0.25267670  1
  K  K154  1  0.26077844  0.14498712  0.75267670  1
  K  K155  1  0.73922156  0.64498712  0.74732330  1
  K  K156  1  0.01077844  0.99732330  0.39498712  1
  K  K157  1  0.48922156  0.00267670  0.89498712  1
  K  K158  1  0.51077844  0.50267670  0.60501288  1
  K  K159  1  0.98922156  0.49732330  0.10501288  1
  K  K160  1  0.49732330  0.10501288  0.98922156  1
  K  K161  1  0.50267670  0.60501288  0.51077844  1
  K  K162  1  0.00267670  0.89498712  0.48922156  1
  K  K163  1  0.99732330  0.39498712  0.01077844  1
  K  K164  1  0.60501288  0.51077844  0.50267670  1
  K  K165  1  0.10501288  0.98922156  0.49732330  1
  K  K166  1  0.39498712  0.01077844  0.99732330  1
  K  K167  1  0.89498712  0.48922156  0.00267670  1
  Li  Li168  1  0.12500000  0.24321317  0.00678683  1
  Li  Li169  1  0.37500000  0.75678683  0.50678683  1
  Li  Li170  1  0.87500000  0.74321317  0.49321317  1
  Li  Li171  1  0.62500000  0.25678683  0.99321317  1
  Li  Li172  1  0.00678683  0.12500000  0.24321317  1
  Li  Li173  1  0.50678683  0.37500000  0.75678683  1
  Li  Li174  1  0.49321317  0.87500000  0.74321317  1
  Li  Li175  1  0.99321317  0.62500000  0.25678683  1
  Li  Li176  1  0.24321317  0.00678683  0.12500000  1
  Li  Li177  1  0.75678683  0.50678683  0.37500000  1
  Li  Li178  1  0.74321317  0.49321317  0.87500000  1
  Li  Li179  1  0.25678683  0.99321317  0.62500000  1
  Li  Li180  1  0.87500000  0.75678683  0.99321317  1
  Li  Li181  1  0.62500000  0.24321317  0.49321317  1
  Li  Li182  1  0.12500000  0.25678683  0.50678683  1
  Li  Li183  1  0.37500000  0.74321317  0.00678683  1
  Li  Li184  1  0.99321317  0.87500000  0.75678683  1
  Li  Li185  1  0.49321317  0.62500000  0.24321317  1
  Li  Li186  1  0.50678683  0.12500000  0.25678683  1
  Li  Li187  1  0.00678683  0.37500000  0.74321317  1
  Li  Li188  1  0.75678683  0.99321317  0.87500000  1
  Li  Li189  1  0.24321317  0.49321317  0.62500000  1
  Li  Li190  1  0.25678683  0.50678683  0.12500000  1
  Li  Li191  1  0.74321317  0.00678683  0.37500000  1
  Li  Li192  1  0.62500000  0.74321317  0.50678683  1
  Li  Li193  1  0.87500000  0.25678683  0.00678683  1
  Li  Li194  1  0.37500000  0.24321317  0.99321317  1
  Li  Li195  1  0.12500000  0.75678683  0.49321317  1
  Li  Li196  1  0.50678683  0.62500000  0.74321317  1
  Li  Li197  1  0.00678683  0.87500000  0.25678683  1
  Li  Li198  1  0.99321317  0.37500000  0.24321317  1
  Li  Li199  1  0.49321317  0.12500000  0.75678683  1
  Li  Li200  1  0.74321317  0.50678683  0.62500000  1
  Li  Li201  1  0.25678683  0.00678683  0.87500000  1
  Li  Li202  1  0.24321317  0.99321317  0.37500000  1
  Li  Li203  1  0.75678683  0.49321317  0.12500000  1
  Li  Li204  1  0.37500000  0.25678683  0.49321317  1
  Li  Li205  1  0.12500000  0.74321317  0.99321317  1
  Li  Li206  1  0.62500000  0.75678683  0.00678683  1
  Li  Li207  1  0.87500000  0.24321317  0.50678683  1
  Li  Li208  1  0.49321317  0.37500000  0.25678683  1
  Li  Li209  1  0.99321317  0.12500000  0.74321317  1
  Li  Li210  1  0.00678683  0.62500000  0.75678683  1
  Li  Li211  1  0.50678683  0.87500000  0.24321317  1
  Li  Li212  1  0.25678683  0.49321317  0.37500000  1
  Li  Li213  1  0.74321317  0.99321317  0.12500000  1
  Li  Li214  1  0.75678683  0.00678683  0.62500000  1
  Li  Li215  1  0.24321317  0.50678683  0.87500000  1
  O  O216  1  0.95795519  0.01134236  0.76575728  1
  O  O217  1  -0.45795519  -0.01134236  1.26575728  1
  O  O218  1  -0.95795519  0.51134236  -0.26575728  1
  O  O219  1  1.45795519  0.48865764  -0.76575728  1
  O  O220  1  0.76575728  0.95795519  0.01134236  1
  O  O221  1  1.26575728  -0.45795519  -0.01134236  1
  O  O222  1  -0.26575728  -0.95795519  0.51134236  1
  O  O223  1  -0.76575728  1.45795519  0.48865764  1
  O  O224  1  0.01134236  0.76575728  0.95795519  1
  O  O225  1  -0.01134236  1.26575728  -0.45795519  1
  O  O226  1  0.51134236  -0.26575728  -0.95795519  1
  O  O227  1  0.48865764  -0.76575728  1.45795519  1
  O  O228  1  0.76134236  1.20795519  -0.51575728  1
  O  O229  1  0.73865764  -0.20795519  -0.01575728  1
  O  O230  1  0.26134236  -0.70795519  1.51575728  1
  O  O231  1  0.23865764  1.70795519  1.01575728  1
  O  O232  1  1.70795519  1.01575728  0.23865764  1
  O  O233  1  -0.70795519  1.51575728  0.26134236  1
  O  O234  1  -0.20795519  -0.01575728  0.73865764  1
  O  O235  1  1.20795519  -0.51575728  0.76134236  1
  O  O236  1  1.51575728  0.26134236  -0.70795519  1
  O  O237  1  1.01575728  0.23865764  1.70795519  1
  O  O238  1  -0.51575728  0.76134236  1.20795519  1
  O  O239  1  -0.01575728  0.73865764  -0.20795519  1
  O  O240  1  -0.95795519  -0.01134236  -0.76575728  1
  O  O241  1  1.45795519  0.01134236  -0.26575728  1
  O  O242  1  0.95795519  0.48865764  1.26575728  1
  O  O243  1  -0.45795519  0.51134236  0.76575728  1
  O  O244  1  -0.76575728  -0.95795519  -0.01134236  1
  O  O245  1  -0.26575728  1.45795519  0.01134236  1
  O  O246  1  1.26575728  0.95795519  0.48865764  1
  O  O247  1  0.76575728  -0.45795519  0.51134236  1
  O  O248  1  -0.01134236  -0.76575728  -0.95795519  1
  O  O249  1  0.01134236  -0.26575728  1.45795519  1
  O  O250  1  0.48865764  1.26575728  0.95795519  1
  O  O251  1  0.51134236  0.76575728  -0.45795519  1
  O  O252  1  0.23865764  -0.20795519  1.51575728  1
  O  O253  1  0.26134236  1.20795519  1.01575728  1
  O  O254  1  0.73865764  1.70795519  -0.51575728  1
  O  O255  1  0.76134236  -0.70795519  -0.01575728  1
  O  O256  1  -0.70795519  -0.01575728  0.76134236  1
  O  O257  1  1.70795519  -0.51575728  0.73865764  1
  O  O258  1  1.20795519  1.01575728  0.26134236  1
  O  O259  1  -0.20795519  1.51575728  0.23865764  1
  O  O260  1  -0.51575728  0.73865764  1.70795519  1
  O  O261  1  -0.01575728  0.76134236  -0.70795519  1
  O  O262  1  1.51575728  0.23865764  -0.20795519  1
  O  O263  1  1.01575728  0.26134236  1.20795519  1
  O  O264  1  1.45795519  0.51134236  1.26575728  1
  O  O265  1  0.04204481  0.48865764  1.76575728  1
  O  O266  1  -0.45795519  1.01134236  0.23424272  1
  O  O267  1  1.95795519  0.98865764  -0.26575728  1
  O  O268  1  1.26575728  1.45795519  0.51134236  1
  O  O269  1  1.76575728  0.04204481  0.48865764  1
  O  O270  1  0.23424272  -0.45795519  1.01134236  1
  O  O271  1  -0.26575728  1.95795519  0.98865764  1
  O  O272  1  0.51134236  1.26575728  1.45795519  1
  O  O273  1  0.48865764  1.76575728  0.04204481  1
  O  O274  1  1.01134236  0.23424272  -0.45795519  1
  O  O275  1  0.98865764  -0.26575728  1.95795519  1
  O  O276  1  1.26134236  1.70795519  -0.01575728  1
  O  O277  1  1.23865764  0.29204481  0.48424272  1
  O  O278  1  0.76134236  -0.20795519  2.01575728  1
  O  O279  1  0.73865764  2.20795519  1.51575728  1
  O  O280  1  2.20795519  1.51575728  0.73865764  1
  O  O281  1  -0.20795519  2.01575728  0.76134236  1
  O  O282  1  0.29204481  0.48424272  1.23865764  1
  O  O283  1  1.70795519  -0.01575728  1.26134236  1
  O  O284  1  2.01575728  0.76134236  -0.20795519  1
  O  O285  1  1.51575728  0.73865764  2.20795519  1
  O  O286  1  -0.01575728  1.26134236  1.70795519  1
  O  O287  1  0.48424272  1.23865764  0.29204481  1
  O  O288  1  -0.45795519  0.48865764  -0.26575728  1
  O  O289  1  1.95795519  0.51134236  0.23424272  1
  O  O290  1  1.45795519  0.98865764  1.76575728  1
  O  O291  1  0.04204481  1.01134236  1.26575728  1
  O  O292  1  -0.26575728  -0.45795519  0.48865764  1
  O  O293  1  0.23424272  1.95795519  0.51134236  1
  O  O294  1  1.76575728  1.45795519  0.98865764  1
  O  O295  1  1.26575728  0.04204481  1.01134236  1
  O  O296  1  0.48865764  -0.26575728  -0.45795519  1
  O  O297  1  0.51134236  0.23424272  1.95795519  1
  O  O298  1  0.98865764  1.76575728  1.45795519  1
  O  O299  1  1.01134236  1.26575728  0.04204481  1
  O  O300  1  0.73865764  0.29204481  2.01575728  1
  O  O301  1  0.76134236  1.70795519  1.51575728  1
  O  O302  1  1.23865764  2.20795519  -0.01575728  1
  O  O303  1  1.26134236  -0.20795519  0.48424272  1
  O  O304  1  -0.20795519  0.48424272  1.26134236  1
  O  O305  1  2.20795519  -0.01575728  1.23865764  1
  O  O306  1  1.70795519  1.51575728  0.76134236  1
  O  O307  1  0.29204481  2.01575728  0.73865764  1
  O  O308  1  -0.01575728  1.23865764  2.20795519  1
  O  O309  1  0.48424272  1.26134236  -0.20795519  1
  O  O310  1  2.01575728  0.73865764  0.29204481  1
  O  O311  1  1.51575728  0.76134236  1.70795519  1
  O  O312  1  0.92376176  0.29181512  0.04937521  1
  O  O313  1  0.57623824  0.70818488  0.54937521  1
  O  O314  1  0.07623824  0.79181512  0.45062479  1
  O  O315  1  0.42376176  0.20818488  0.95062479  1
  O  O316  1  0.04937521  0.92376176  0.29181512  1
  O  O317  1  0.54937521  0.57623824  0.70818488  1
  O  O318  1  0.45062479  0.07623824  0.79181512  1
  O  O319  1  0.95062479  0.42376176  0.20818488  1
  O  O320  1  0.29181512  0.04937521  0.92376176  1
  O  O321  1  0.70818488  0.54937521  0.57623824  1
  O  O322  1  0.79181512  0.45062479  0.07623824  1
  O  O323  1  0.20818488  0.95062479  0.42376176  1
  O  O324  1  0.04181512  0.17376176  0.20062479  1
  O  O325  1  0.45818488  0.82623824  0.70062479  1
  O  O326  1  0.54181512  0.32623824  0.79937521  1
  O  O327  1  0.95818488  0.67376176  0.29937521  1
  O  O328  1  0.67376176  0.29937521  0.95818488  1
  O  O329  1  0.32623824  0.79937521  0.54181512  1
  O  O330  1  0.82623824  0.70062479  0.45818488  1
  O  O331  1  0.17376176  0.20062479  0.04181512  1
  O  O332  1  0.79937521  0.54181512  0.32623824  1
  O  O333  1  0.29937521  0.95818488  0.67376176  1
  O  O334  1  0.20062479  0.04181512  0.17376176  1
  O  O335  1  0.70062479  0.45818488  0.82623824  1
  O  O336  1  0.07623824  0.70818488  0.95062479  1
  O  O337  1  0.42376176  0.29181512  0.45062479  1
  O  O338  1  0.92376176  0.20818488  0.54937521  1
  O  O339  1  0.57623824  0.79181512  0.04937521  1
  O  O340  1  0.95062479  0.07623824  0.70818488  1
  O  O341  1  0.45062479  0.42376176  0.29181512  1
  O  O342  1  0.54937521  0.92376176  0.20818488  1
  O  O343  1  0.04937521  0.57623824  0.79181512  1
  O  O344  1  0.70818488  0.95062479  0.07623824  1
  O  O345  1  0.29181512  0.45062479  0.42376176  1
  O  O346  1  0.20818488  0.54937521  0.92376176  1
  O  O347  1  0.79181512  0.04937521  0.57623824  1
  O  O348  1  0.95818488  0.82623824  0.79937521  1
  O  O349  1  0.54181512  0.17376176  0.29937521  1
  O  O350  1  0.45818488  0.67376176  0.20062479  1
  O  O351  1  0.04181512  0.32623824  0.70062479  1
  O  O352  1  0.32623824  0.70062479  0.04181512  1
  O  O353  1  0.67376176  0.20062479  0.45818488  1
  O  O354  1  0.17376176  0.29937521  0.54181512  1
  O  O355  1  0.82623824  0.79937521  0.95818488  1
  O  O356  1  0.20062479  0.45818488  0.67376176  1
  O  O357  1  0.70062479  0.04181512  0.32623824  1
  O  O358  1  0.79937521  0.95818488  0.82623824  1
  O  O359  1  0.29937521  0.54181512  0.17376176  1
  O  O360  1  0.42376176  0.79181512  0.54937521  1
  O  O361  1  0.07623824  0.20818488  0.04937521  1
  O  O362  1  0.57623824  0.29181512  0.95062479  1
  O  O363  1  0.92376176  0.70818488  0.45062479  1
  O  O364  1  0.54937521  0.42376176  0.79181512  1
  O  O365  1  0.04937521  0.07623824  0.20818488  1
  O  O366  1  0.95062479  0.57623824  0.29181512  1
  O  O367  1  0.45062479  0.92376176  0.70818488  1
  O  O368  1  0.79181512  0.54937521  0.42376176  1
  O  O369  1  0.20818488  0.04937521  0.07623824  1
  O  O370  1  0.29181512  0.95062479  0.57623824  1
  O  O371  1  0.70818488  0.45062479  0.92376176  1
  O  O372  1  0.54181512  0.67376176  0.70062479  1
  O  O373  1  0.95818488  0.32623824  0.20062479  1
  O  O374  1  0.04181512  0.82623824  0.29937521  1
  O  O375  1  0.45818488  0.17376176  0.79937521  1
  O  O376  1  0.17376176  0.79937521  0.45818488  1
  O  O377  1  0.82623824  0.29937521  0.04181512  1
  O  O378  1  0.32623824  0.20062479  0.95818488  1
  O  O379  1  0.67376176  0.70062479  0.54181512  1
  O  O380  1  0.29937521  0.04181512  0.82623824  1
  O  O381  1  0.79937521  0.45818488  0.17376176  1
  O  O382  1  0.70062479  0.54181512  0.67376176  1
  O  O383  1  0.20062479  0.95818488  0.32623824  1
  O  O384  1  0.57623824  0.20818488  0.45062479  1
  O  O385  1  0.92376176  0.79181512  0.95062479  1
  O  O386  1  0.42376176  0.70818488  0.04937521  1
  O  O387  1  0.07623824  0.29181512  0.54937521  1
  O  O388  1  0.45062479  0.57623824  0.20818488  1
  O  O389  1  0.95062479  0.92376176  0.79181512  1
  O  O390  1  0.04937521  0.42376176  0.70818488  1
  O  O391  1  0.54937521  0.07623824  0.29181512  1
  O  O392  1  0.20818488  0.45062479  0.57623824  1
  O  O393  1  0.79181512  0.95062479  0.92376176  1
  O  O394  1  0.70818488  0.04937521  0.42376176  1
  O  O395  1  0.29181512  0.54937521  0.07623824  1
  O  O396  1  0.45818488  0.32623824  0.29937521  1
  O  O397  1  0.04181512  0.67376176  0.79937521  1
  O  O398  1  0.95818488  0.17376176  0.70062479  1
  O  O399  1  0.54181512  0.82623824  0.20062479  1
  O  O400  1  0.82623824  0.20062479  0.54181512  1
  O  O401  1  0.17376176  0.70062479  0.95818488  1
  O  O402  1  0.67376176  0.79937521  0.04181512  1
  O  O403  1  0.32623824  0.29937521  0.45818488  1
  O  O404  1  0.70062479  0.95818488  0.17376176  1
  O  O405  1  0.20062479  0.54181512  0.82623824  1
  O  O406  1  0.29937521  0.45818488  0.32623824  1
  O  O407  1  0.79937521  0.04181512  0.67376176  1
  O  O408  1  0.12044092  0.49536972  0.37436415  1
  O  O409  1  0.37955908  0.50463028  0.87436415  1
  O  O410  1  0.87955908  0.99536972  0.12563585  1
  O  O411  1  0.62044092  0.00463028  0.62563585  1
  O  O412  1  0.37436415  0.12044092  0.49536972  1
  O  O413  1  0.87436415  0.37955908  0.50463028  1
  O  O414  1  0.12563585  0.87955908  0.99536972  1
  O  O415  1  0.62563585  0.62044092  0.00463028  1
  O  O416  1  0.49536972  0.37436415  0.12044092  1
  O  O417  1  0.50463028  0.87436415  0.37955908  1
  O  O418  1  0.99536972  0.12563585  0.87955908  1
  O  O419  1  0.00463028  0.62563585  0.62044092  1
  O  O420  1  0.24536972  0.37044092  0.87563585  1
  O  O421  1  0.25463028  0.62955908  0.37563585  1
  O  O422  1  0.74536972  0.12955908  0.12436415  1
  O  O423  1  0.75463028  0.87044092  0.62436415  1
  O  O424  1  0.87044092  0.62436415  0.75463028  1
  O  O425  1  0.12955908  0.12436415  0.74536972  1
  O  O426  1  0.62955908  0.37563585  0.25463028  1
  O  O427  1  0.37044092  0.87563585  0.24536972  1
  O  O428  1  0.12436415  0.74536972  0.12955908  1
  O  O429  1  0.62436415  0.75463028  0.87044092  1
  O  O430  1  0.87563585  0.24536972  0.37044092  1
  O  O431  1  0.37563585  0.25463028  0.62955908  1
  O  O432  1  0.87955908  0.50463028  0.62563585  1
  O  O433  1  0.62044092  0.49536972  0.12563585  1
  O  O434  1  0.12044092  0.00463028  0.87436415  1
  O  O435  1  0.37955908  0.99536972  0.37436415  1
  O  O436  1  0.62563585  0.87955908  0.50463028  1
  O  O437  1  0.12563585  0.62044092  0.49536972  1
  O  O438  1  0.87436415  0.12044092  0.00463028  1
  O  O439  1  0.37436415  0.37955908  0.99536972  1
  O  O440  1  0.50463028  0.62563585  0.87955908  1
  O  O441  1  0.49536972  0.12563585  0.62044092  1
  O  O442  1  0.00463028  0.87436415  0.12044092  1
  O  O443  1  0.99536972  0.37436415  0.37955908  1
  O  O444  1  0.75463028  0.62955908  0.12436415  1
  O  O445  1  0.74536972  0.37044092  0.62436415  1
  O  O446  1  0.25463028  0.87044092  0.87563585  1
  O  O447  1  0.24536972  0.12955908  0.37563585  1
  O  O448  1  0.12955908  0.37563585  0.24536972  1
  O  O449  1  0.87044092  0.87563585  0.25463028  1
  O  O450  1  0.37044092  0.62436415  0.74536972  1
  O  O451  1  0.62955908  0.12436415  0.75463028  1
  O  O452  1  0.87563585  0.25463028  0.87044092  1
  O  O453  1  0.37563585  0.24536972  0.12955908  1
  O  O454  1  0.12436415  0.75463028  0.62955908  1
  O  O455  1  0.62436415  0.74536972  0.37044092  1
  O  O456  1  0.62044092  0.99536972  0.87436415  1
  O  O457  1  0.87955908  0.00463028  0.37436415  1
  O  O458  1  0.37955908  0.49536972  0.62563585  1
  O  O459  1  0.12044092  0.50463028  0.12563585  1
  O  O460  1  0.87436415  0.62044092  0.99536972  1
  O  O461  1  0.37436415  0.87955908  0.00463028  1
  O  O462  1  0.62563585  0.37955908  0.49536972  1
  O  O463  1  0.12563585  0.12044092  0.50463028  1
  O  O464  1  0.99536972  0.87436415  0.62044092  1
  O  O465  1  0.00463028  0.37436415  0.87955908  1
  O  O466  1  0.49536972  0.62563585  0.37955908  1
  O  O467  1  0.50463028  0.12563585  0.12044092  1
  O  O468  1  0.74536972  0.87044092  0.37563585  1
  O  O469  1  0.75463028  0.12955908  0.87563585  1
  O  O470  1  0.24536972  0.62955908  0.62436415  1
  O  O471  1  0.25463028  0.37044092  0.12436415  1
  O  O472  1  0.37044092  0.12436415  0.25463028  1
  O  O473  1  0.62955908  0.62436415  0.24536972  1
  O  O474  1  0.12955908  0.87563585  0.75463028  1
  O  O475  1  0.87044092  0.37563585  0.74536972  1
  O  O476  1  0.62436415  0.24536972  0.62955908  1
  O  O477  1  0.12436415  0.25463028  0.37044092  1
  O  O478  1  0.37563585  0.74536972  0.87044092  1
  O  O479  1  0.87563585  0.75463028  0.12955908  1
  O  O480  1  0.37955908  0.00463028  0.12563585  1
  O  O481  1  0.12044092  0.99536972  0.62563585  1
  O  O482  1  0.62044092  0.50463028  0.37436415  1
  O  O483  1  0.87955908  0.49536972  0.87436415  1
  O  O484  1  0.12563585  0.37955908  0.00463028  1
  O  O485  1  0.62563585  0.12044092  0.99536972  1
  O  O486  1  0.37436415  0.62044092  0.50463028  1
  O  O487  1  0.87436415  0.87955908  0.49536972  1
  O  O488  1  0.00463028  0.12563585  0.37955908  1
  O  O489  1  0.99536972  0.62563585  0.12044092  1
  O  O490  1  0.50463028  0.37436415  0.62044092  1
  O  O491  1  0.49536972  0.87436415  0.87955908  1
  O  O492  1  0.25463028  0.12955908  0.62436415  1
  O  O493  1  0.24536972  0.87044092  0.12436415  1
  O  O494  1  0.75463028  0.37044092  0.37563585  1
  O  O495  1  0.74536972  0.62955908  0.87563585  1
  O  O496  1  0.62955908  0.87563585  0.74536972  1
  O  O497  1  0.37044092  0.37563585  0.75463028  1
  O  O498  1  0.87044092  0.12436415  0.24536972  1
  O  O499  1  0.12955908  0.62436415  0.25463028  1
  O  O500  1  0.37563585  0.75463028  0.37044092  1
  O  O501  1  0.87563585  0.74536972  0.62955908  1
  O  O502  1  0.62436415  0.25463028  0.12955908  1
  O  O503  1  0.12436415  0.24536972  0.87044092  1
  Sn  Sn504  1  0.12500000  0.12500000  0.12500000  1
  Sn  Sn505  1  0.37500000  0.87500000  0.62500000  1
  Sn  Sn506  1  0.87500000  0.62500000  0.37500000  1
  Sn  Sn507  1  0.62500000  0.37500000  0.87500000  1
  Sn  Sn508  1  0.87500000  0.87500000  0.87500000  1
  Sn  Sn509  1  0.62500000  0.12500000  0.37500000  1
  Sn  Sn510  1  0.12500000  0.37500000  0.62500000  1
  Sn  Sn511  1  0.37500000  0.62500000  0.12500000  1
  Sn  Sn512  1  0.62500000  0.62500000  0.62500000  1
  Sn  Sn513  1  0.87500000  0.37500000  0.12500000  1
  Sn  Sn514  1  0.37500000  0.12500000  0.87500000  1
  Sn  Sn515  1  0.12500000  0.87500000  0.37500000  1
  Sn  Sn516  1  0.37500000  0.37500000  0.37500000  1
  Sn  Sn517  1  0.12500000  0.62500000  0.87500000  1
  Sn  Sn518  1  0.62500000  0.87500000  0.12500000  1
  Sn  Sn519  1  0.87500000  0.12500000  0.62500000  1
  Sn  Sn520  1  0.37500000  -0.00000000  0.25000000  1
  Sn  Sn521  1  0.12500000  0.00000000  0.75000000  1
  Sn  Sn522  1  0.25000000  0.37500000  0.00000000  1
  Sn  Sn523  1  0.75000000  0.12500000  -0.00000000  1
  Sn  Sn524  1  0.00000000  0.25000000  0.37500000  1
  Sn  Sn525  1  0.00000000  0.75000000  0.12500000  1
  Sn  Sn526  1  0.75000000  0.62500000  0.00000000  1
  Sn  Sn527  1  0.75000000  0.37500000  0.50000000  1
  Sn  Sn528  1  0.12500000  0.50000000  0.25000000  1
  Sn  Sn529  1  0.87500000  0.00000000  0.25000000  1
  Sn  Sn530  1  0.00000000  0.25000000  0.87500000  1
  Sn  Sn531  1  0.50000000  0.25000000  0.12500000  1
  Sn  Sn532  1  0.87500000  0.50000000  0.75000000  1
  Sn  Sn533  1  0.62500000  0.50000000  0.25000000  1
  Sn  Sn534  1  0.75000000  0.87500000  0.50000000  1
  Sn  Sn535  1  0.25000000  0.62500000  0.50000000  1
  Sn  Sn536  1  0.50000000  0.75000000  0.87500000  1
  Sn  Sn537  1  0.50000000  0.25000000  0.62500000  1
  Sn  Sn538  1  0.25000000  0.12500000  0.50000000  1
  Sn  Sn539  1  0.25000000  0.87500000  0.00000000  1
  Sn  Sn540  1  0.62500000  0.00000000  0.75000000  1
  Sn  Sn541  1  0.37500000  0.50000000  0.75000000  1
  Sn  Sn542  1  0.50000000  0.75000000  0.37500000  1
  Sn  Sn543  1  0.00000000  0.75000000  0.62500000  1
  Sn  Sn544  1  0.94528218  0.94528218  0.94528218  1
  Sn  Sn545  1  0.55471782  0.05471782  0.44528218  1
  Sn  Sn546  1  0.05471782  0.44528218  0.55471782  1
  Sn  Sn547  1  0.44528218  0.55471782  0.05471782  1
  Sn  Sn548  1  0.69528218  0.19528218  0.30471782  1
  Sn  Sn549  1  0.80471782  0.80471782  0.80471782  1
  Sn  Sn550  1  0.19528218  0.30471782  0.69528218  1
  Sn  Sn551  1  0.30471782  0.69528218  0.19528218  1
  Sn  Sn552  1  0.05471782  0.05471782  0.05471782  1
  Sn  Sn553  1  0.44528218  0.94528218  0.55471782  1
  Sn  Sn554  1  0.94528218  0.55471782  0.44528218  1
  Sn  Sn555  1  0.55471782  0.44528218  0.94528218  1
  Sn  Sn556  1  0.30471782  0.80471782  0.69528218  1
  Sn  Sn557  1  0.19528218  0.19528218  0.19528218  1
  Sn  Sn558  1  0.80471782  0.69528218  0.30471782  1
  Sn  Sn559  1  0.69528218  0.30471782  0.80471782  1
  Sn  Sn560  1  0.44528218  0.44528218  0.44528218  1
  Sn  Sn561  1  0.05471782  0.55471782  0.94528218  1
  Sn  Sn562  1  0.55471782  0.94528218  0.05471782  1
  Sn  Sn563  1  0.94528218  0.05471782  0.55471782  1
  Sn  Sn564  1  0.19528218  0.69528218  0.80471782  1
  Sn  Sn565  1  0.30471782  0.30471782  0.30471782  1
  Sn  Sn566  1  0.69528218  0.80471782  0.19528218  1
  Sn  Sn567  1  0.80471782  0.19528218  0.69528218  1
  Sn  Sn568  1  0.55471782  0.55471782  0.55471782  1
  Sn  Sn569  1  0.94528218  0.44528218  0.05471782  1
  Sn  Sn570  1  0.44528218  0.05471782  0.94528218  1
  Sn  Sn571  1  0.05471782  0.94528218  0.44528218  1
  Sn  Sn572  1  0.80471782  0.30471782  0.19528218  1
  Sn  Sn573  1  0.69528218  0.69528218  0.69528218  1
  Sn  Sn574  1  0.30471782  0.19528218  0.80471782  1
  Sn  Sn575  1  0.19528218  0.80471782  0.30471782  1
