# generated using pymatgen
data_LiBr
_symmetry_space_group_name_H-M   'P 1'
_cell_length_a   10.58278699
_cell_length_b   10.58278699
_cell_length_c   18.05220190
_cell_angle_alpha   90.00000000
_cell_angle_beta   90.00000000
_cell_angle_gamma   120.00000000
_symmetry_Int_Tables_number   1
_chemical_formula_structural   LiBr
_chemical_formula_sum   'Li36 Br36'
_cell_volume   1750.89831072
_cell_formula_units_Z   36
loop_
 _symmetry_equiv_pos_site_id
 _symmetry_equiv_pos_as_xyz
  1  'x, y, z'
loop_
 _atom_site_type_symbol
 _atom_site_label
 _atom_site_symmetry_multiplicity
 _atom_site_fract_x
 _atom_site_fract_y
 _atom_site_fract_z
 _atom_site_occupancy
  Br  Br0  1  0.00000000  0.00000000  0.50000000  1
  Br  Br1  1  0.66666667  0.33333333  0.83333333  1
  Br  Br2  1  0.33333333  0.66666667  0.16666667  1
  Br  Br3  1  0.00000000  0.00000000  0.61857211  1
  Br  Br4  1  0.00000000  0.00000000  0.38142789  1
  Br  Br5  1  0.66666667  0.33333333  0.95190544  1
  Br  Br6  1  0.66666667  0.33333333  0.71476122  1
  Br  Br7  1  0.33333333  0.66666667  0.28523878  1
  Br  Br8  1  0.33333333  0.66666667  0.04809456  1
  Br  Br9  1  0.00000000  0.00000000  0.13939659  1
  Br  Br10  1  0.00000000  0.00000000  0.86060341  1
  Br  Br11  1  0.66666667  0.33333333  0.47272993  1
  Br  Br12  1  0.66666667  0.33333333  0.19393674  1
  Br  Br13  1  0.33333333  0.66666667  0.80606326  1
  Br  Br14  1  0.33333333  0.66666667  0.52727007  1
  Br  Br15  1  0.74753563  0.25246437  0.05192957  1
  Br  Br16  1  0.74753563  0.49507126  0.05192957  1
  Br  Br17  1  0.50492874  0.25246437  0.05192957  1
  Br  Br18  1  0.25246437  0.74753563  0.94807043  1
  Br  Br19  1  0.49507126  0.74753563  0.94807043  1
  Br  Br20  1  0.25246437  0.50492874  0.94807043  1
  Br  Br21  1  0.41420230  0.58579770  0.38526290  1
  Br  Br22  1  0.41420230  0.82840459  0.38526290  1
  Br  Br23  1  0.17159541  0.58579770  0.38526290  1
  Br  Br24  1  0.91913104  0.08086896  0.28140376  1
  Br  Br25  1  0.16173793  0.08086896  0.28140376  1
  Br  Br26  1  0.91913104  0.83826207  0.28140376  1
  Br  Br27  1  0.08086896  0.91913104  0.71859624  1
  Br  Br28  1  0.08086896  0.16173793  0.71859624  1
  Br  Br29  1  0.83826207  0.91913104  0.71859624  1
  Br  Br30  1  0.58579770  0.41420230  0.61473710  1
  Br  Br31  1  0.82840459  0.41420230  0.61473710  1
  Br  Br32  1  0.58579770  0.17159541  0.61473710  1
  Br  Br33  1  0.00000000  0.00000000  0.00000000  1
  Br  Br34  1  0.66666667  0.33333333  0.33333333  1
  Br  Br35  1  0.33333333  0.66666667  0.66666667  1
  Li  Li36  1  0.20663184  0.26193790  0.15696384  1
  Li  Li37  1  -0.26193790  -0.05530606  0.15696384  1
  Li  Li38  1  0.05530606  -0.20663184  0.15696384  1
  Li  Li39  1  0.26193790  0.20663184  -0.15696384  1
  Li  Li40  1  -0.05530606  -0.26193790  -0.15696384  1
  Li  Li41  1  -0.20663184  0.05530606  -0.15696384  1
  Li  Li42  1  -0.20663184  -0.26193790  -0.15696384  1
  Li  Li43  1  0.26193790  0.05530606  -0.15696384  1
  Li  Li44  1  -0.05530606  0.20663184  -0.15696384  1
  Li  Li45  1  -0.26193790  -0.20663184  0.15696384  1
  Li  Li46  1  0.05530606  0.26193790  0.15696384  1
  Li  Li47  1  0.20663184  -0.05530606  0.15696384  1
  Li  Li48  1  0.87329851  0.59527123  0.49029717  1
  Li  Li49  1  0.40472877  0.27802728  0.49029717  1
  Li  Li50  1  0.72197272  0.12670149  0.49029717  1
  Li  Li51  1  0.92860457  0.53996518  0.17636950  1
  Li  Li52  1  0.61136061  0.07139543  0.17636950  1
  Li  Li53  1  0.46003482  0.38863939  0.17636950  1
  Li  Li54  1  0.46003482  0.07139543  0.17636950  1
  Li  Li55  1  0.92860457  0.38863939  0.17636950  1
  Li  Li56  1  0.61136061  0.53996518  0.17636950  1
  Li  Li57  1  0.40472877  0.12670149  0.49029717  1
  Li  Li58  1  0.72197272  0.59527123  0.49029717  1
  Li  Li59  1  0.87329851  0.27802728  0.49029717  1
  Li  Li60  1  0.53996518  0.92860457  0.82363050  1
  Li  Li61  1  0.07139543  0.61136061  0.82363050  1
  Li  Li62  1  0.38863939  0.46003482  0.82363050  1
  Li  Li63  1  0.59527123  0.87329851  0.50970283  1
  Li  Li64  1  0.27802728  0.40472877  0.50970283  1
  Li  Li65  1  0.12670149  0.72197272  0.50970283  1
  Li  Li66  1  0.12670149  0.40472877  0.50970283  1
  Li  Li67  1  0.59527123  0.72197272  0.50970283  1
  Li  Li68  1  0.27802728  0.87329851  0.50970283  1
  Li  Li69  1  0.07139543  0.46003482  0.82363050  1
  Li  Li70  1  0.38863939  0.92860457  0.82363050  1
  Li  Li71  1  0.53996518  0.61136061  0.82363050  1
