# generated using pymatgen
data_LiSnS2Cl
_symmetry_space_group_name_H-M   'P 1'
_cell_length_a   6.41560314
_cell_length_b   6.41560314
_cell_length_c   28.25557379
_cell_angle_alpha   90.00000000
_cell_angle_beta   90.00000000
_cell_angle_gamma   120.00000000
_symmetry_Int_Tables_number   1
_chemical_formula_structural   LiSnS2Cl
_chemical_formula_sum   'Li12 Sn12 S24 Cl12'
_cell_volume   1007.18614950
_cell_formula_units_Z   12
loop_
 _symmetry_equiv_pos_site_id
 _symmetry_equiv_pos_as_xyz
  1  'x, y, z'
loop_
 _atom_site_type_symbol
 _atom_site_label
 _atom_site_symmetry_multiplicity
 _atom_site_fract_x
 _atom_site_fract_y
 _atom_site_fract_z
 _atom_site_occupancy
  Cl  Cl0  1  0.00000000  0.00000000  0.90331642  1
  Cl  Cl1  1  0.00000000  0.00000000  0.59668358  1
  Cl  Cl2  1  0.00000000  0.00000000  0.09668358  1
  Cl  Cl3  1  0.00000000  0.00000000  0.40331642  1
  Cl  Cl4  1  0.66666667  0.33333333  0.23664976  1
  Cl  Cl5  1  0.66666667  0.33333333  0.93001691  1
  Cl  Cl6  1  0.66666667  0.33333333  0.43001691  1
  Cl  Cl7  1  0.66666667  0.33333333  0.73664976  1
  Cl  Cl8  1  0.33333333  0.66666667  0.56998309  1
  Cl  Cl9  1  0.33333333  0.66666667  0.26335024  1
  Cl  Cl10  1  0.33333333  0.66666667  0.76335024  1
  Cl  Cl11  1  0.33333333  0.66666667  0.06998309  1
  Li  Li12  1  0.00000000  0.00000000  0.35952585  1
  Li  Li13  1  0.00000000  0.00000000  0.14047415  1
  Li  Li14  1  0.00000000  0.00000000  0.64047415  1
  Li  Li15  1  0.00000000  0.00000000  0.85952585  1
  Li  Li16  1  0.66666667  0.33333333  0.69285918  1
  Li  Li17  1  0.66666667  0.33333333  0.47380749  1
  Li  Li18  1  0.66666667  0.33333333  0.97380749  1
  Li  Li19  1  0.66666667  0.33333333  0.19285918  1
  Li  Li20  1  0.33333333  0.66666667  0.02619251  1
  Li  Li21  1  0.33333333  0.66666667  0.80714082  1
  Li  Li22  1  0.33333333  0.66666667  0.30714082  1
  Li  Li23  1  0.33333333  0.66666667  0.52619251  1
  S  S24  1  0.11889557  -0.00000000  0.25000000  1
  S  S25  1  0.00000000  0.11889557  0.25000000  1
  S  S26  1  -0.11889557  -0.11889557  0.25000000  1
  S  S27  1  -0.11889557  0.00000000  0.75000000  1
  S  S28  1  0.00000000  -0.11889557  0.75000000  1
  S  S29  1  0.11889557  0.11889557  0.75000000  1
  S  S30  1  0.78556224  0.33333333  0.58333333  1
  S  S31  1  0.66666667  0.45222891  0.58333333  1
  S  S32  1  0.54777109  0.21443776  0.58333333  1
  S  S33  1  0.54777109  0.33333333  1.08333333  1
  S  S34  1  0.66666667  0.21443776  1.08333333  1
  S  S35  1  0.78556224  0.45222891  1.08333333  1
  S  S36  1  0.45222891  0.66666667  0.91666667  1
  S  S37  1  0.33333333  0.78556224  0.91666667  1
  S  S38  1  0.21443776  0.54777109  0.91666667  1
  S  S39  1  0.21443776  0.66666667  1.41666667  1
  S  S40  1  0.33333333  0.54777109  1.41666667  1
  S  S41  1  0.45222891  0.78556224  1.41666667  1
  S  S42  1  0.00000000  0.00000000  0.00000000  1
  S  S43  1  0.00000000  0.00000000  0.50000000  1
  S  S44  1  0.66666667  0.33333333  0.33333333  1
  S  S45  1  0.66666667  0.33333333  0.83333333  1
  S  S46  1  0.33333333  0.66666667  0.66666667  1
  S  S47  1  0.33333333  0.66666667  0.16666667  1
  Sn  Sn48  1  0.00000000  0.00000000  0.80926332  1
  Sn  Sn49  1  0.00000000  0.00000000  0.69073668  1
  Sn  Sn50  1  0.00000000  0.00000000  0.19073668  1
  Sn  Sn51  1  0.00000000  0.00000000  0.30926332  1
  Sn  Sn52  1  0.66666667  0.33333333  0.14259665  1
  Sn  Sn53  1  0.66666667  0.33333333  0.02407002  1
  Sn  Sn54  1  0.66666667  0.33333333  0.52407002  1
  Sn  Sn55  1  0.66666667  0.33333333  0.64259665  1
  Sn  Sn56  1  0.33333333  0.66666667  0.47592998  1
  Sn  Sn57  1  0.33333333  0.66666667  0.35740335  1
  Sn  Sn58  1  0.33333333  0.66666667  0.85740335  1
  Sn  Sn59  1  0.33333333  0.66666667  0.97592998  1
