# generated using pymatgen
data_Li2ZrAlGeO
_symmetry_space_group_name_H-M   'P 1'
_cell_length_a   12.38707434
_cell_length_b   14.78696141
_cell_length_c   11.09248585
_cell_angle_alpha   90.00000000
_cell_angle_beta   90.00000000
_cell_angle_gamma   90.00000000
_symmetry_Int_Tables_number   1
_chemical_formula_structural   Li2ZrAlGeO
_chemical_formula_sum   'Li2 Zr1 Al1 Ge1 O1'
_cell_volume   2031.77946588
_cell_formula_units_Z   1
loop_
 _symmetry_equiv_pos_site_id
 _symmetry_equiv_pos_as_xyz
  1  'x, y, z'
loop_
 _atom_site_type_symbol
 _atom_site_label
 _atom_site_symmetry_multiplicity
 _atom_site_fract_x
 _atom_site_fract_y
 _atom_site_fract_z
 _atom_site_occupancy
  Li  Li0  1  0.12500000  0.00000000  0.25000000  1
  Li  Li1  1  0.00000000  0.00000000  0.00000000  1
  Zr  Zr2  1  0.37500000  0.00000000  0.25000000  1
  Al  Al3  1  0.25000000  0.25000000  0.25000000  1
  Ge  Ge4  1  0.00000000  0.25000000  0.12500000  1
  O  O5  1  0.27717250  0.51210826  0.30383577  1
