# generated using pymatgen
data_Li4CaBrNO4
_symmetry_space_group_name_H-M   'P 1'
_cell_length_a   3.79605025
_cell_length_b   3.75336569
_cell_length_c   4.39385840
_cell_angle_alpha   94.44147440
_cell_angle_beta   94.44861057
_cell_angle_gamma   86.92523788
_symmetry_Int_Tables_number   1
_chemical_formula_structural   Li4CaBrNO4
_chemical_formula_sum   'Li4 Ca1 Br1 N1 O4'
_cell_volume   62.15601074
_cell_formula_units_Z   1
loop_
 _symmetry_equiv_pos_site_id
 _symmetry_equiv_pos_as_xyz
  1  'x, y, z'
loop_
 _atom_site_type_symbol
 _atom_site_label
 _atom_site_symmetry_multiplicity
 _atom_site_fract_x
 _atom_site_fract_y
 _atom_site_fract_z
 _atom_site_occupancy
  Li  Li0  1  0.00000000  0.00000000  0.00000000  1
  Li  Li1  1  0.50000000  0.50000000  0.50000000  1
  Li  Li2  1  0.50000000  0.50000000  0.00000000  1
  Li  Li3  1  0.50000000  0.00000000  0.50000000  1
  Ca  Ca4  1  0.00000000  0.50000000  0.50000000  1
  Br  Br5  1  0.06875856  0.12095756  0.54861983  1
  N  N6  1  0.28734572  0.16591106  0.50346305  1
  O  O7  1  0.43106482  0.16512081  0.36926441  1
  O  O8  1  0.74988789  0.68596901  0.97340012  1
  O  O9  1  0.41321771  0.37170337  0.30176734  1
  O  O10  1  0.24681492  0.62196942  0.50109301  1
