# generated using pymatgen
data_LiSnI4Cl
_symmetry_space_group_name_H-M   'P 1'
_cell_length_a   7.16199194
_cell_length_b   7.16199194
_cell_length_c   11.51966190
_cell_angle_alpha   90.00000000
_cell_angle_beta   90.00000000
_cell_angle_gamma   120.00000000
_symmetry_Int_Tables_number   1
_chemical_formula_structural   LiSnI4Cl
_chemical_formula_sum   'Li3 Sn3 I12 Cl3'
_cell_volume   511.72663269
_cell_formula_units_Z   3
loop_
 _symmetry_equiv_pos_site_id
 _symmetry_equiv_pos_as_xyz
  1  'x, y, z'
loop_
 _atom_site_type_symbol
 _atom_site_label
 _atom_site_symmetry_multiplicity
 _atom_site_fract_x
 _atom_site_fract_y
 _atom_site_fract_z
 _atom_site_occupancy
  Cl  Cl0  1  0.33333333  0.66666667  0.36607826  1
  Cl  Cl1  1  0.33333333  0.66666667  0.63392174  1
  Cl  Cl2  1  0.66666667  0.33333333  0.50000000  1
  I  I3  1  0.00000000  0.00000000  0.00000000  1
  I  I4  1  0.94830914  0.56459716  0.43419418  1
  I  I5  1  -0.56459716  0.38371198  0.43419418  1
  I  I6  1  -0.38371198  -0.94830914  0.43419418  1
  I  I7  1  -0.56459716  -0.94830914  -0.43419418  1
  I  I8  1  -0.38371198  0.56459716  -0.43419418  1
  I  I9  1  0.94830914  0.38371198  -0.43419418  1
  I  I10  1  0.00000000  0.00000000  0.50000000  1
  I  I11  1  0.19355091  0.80644909  0.50000000  1
  I  I12  1  0.19355091  0.38710182  0.50000000  1
  I  I13  1  0.61289818  0.80644909  0.50000000  1
  I  I14  1  0.66666667  0.33333333  0.00000000  1
  Li  Li15  1  0.00000000  0.00000000  0.61948998  1
  Li  Li16  1  0.00000000  0.00000000  0.38051002  1
  Li  Li17  1  0.33333333  0.66666667  0.50000000  1
  Sn  Sn18  1  0.82045352  0.17954648  0.50000000  1
  Sn  Sn19  1  0.82045352  0.64090704  0.50000000  1
  Sn  Sn20  1  0.35909296  0.17954648  0.50000000  1
