# generated using pymatgen
data_LiTi3(OF)4
_symmetry_space_group_name_H-M   'P 1'
_cell_length_a   8.40496605
_cell_length_b   7.17775036
_cell_length_c   9.87194991
_cell_angle_alpha   90.00000000
_cell_angle_beta   90.00000000
_cell_angle_gamma   90.00000000
_symmetry_Int_Tables_number   1
_chemical_formula_structural   LiTi3(OF)4
_chemical_formula_sum   'Li1 Ti3 O4 F4'
_cell_volume   595.56237927
_cell_formula_units_Z   1
loop_
 _symmetry_equiv_pos_site_id
 _symmetry_equiv_pos_as_xyz
  1  'x, y, z'
loop_
 _atom_site_type_symbol
 _atom_site_label
 _atom_site_symmetry_multiplicity
 _atom_site_fract_x
 _atom_site_fract_y
 _atom_site_fract_z
 _atom_site_occupancy
  Li  Li0  1  0.00000000  0.00000000  0.00000000  1
  Ti  Ti1  1  0.50000000  0.50000000  0.50000000  1
  Ti  Ti2  1  0.25000000  0.25000000  0.25000000  1
  Ti  Ti3  1  0.75000000  0.25000000  0.00000000  1
  F  F4  1  0.25000000  0.75000000  0.50000000  1
  F  F5  1  0.74109676  0.16767676  0.66525641  1
  F  F6  1  0.86560538  0.76630316  0.90627138  1
  F  F7  1  0.65219055  0.57197065  0.60979998  1
  O  O8  1  0.99117854  0.54457600  0.50673331  1
  O  O9  1  0.93088947  0.88594688  0.06747539  1
  O  O10  1  0.02689705  0.53070290  0.62459025  1
  O  O11  1  0.35303408  0.64326618  0.02839031  1
