# generated using pymatgen
data_B2Te3
_symmetry_space_group_name_H-M   'P 1'
_cell_length_a   21.25567450
_cell_length_b   21.25567450
_cell_length_c   21.25567450
_cell_angle_alpha   90.00000000
_cell_angle_beta   90.00000000
_cell_angle_gamma   90.00000000
_symmetry_Int_Tables_number   1
_chemical_formula_structural   B2Te3
_chemical_formula_sum   'B192 Te288'
_cell_volume   9603.39235784
_cell_formula_units_Z   96
loop_
 _symmetry_equiv_pos_site_id
 _symmetry_equiv_pos_as_xyz
  1  'x, y, z'
loop_
 _atom_site_type_symbol
 _atom_site_label
 _atom_site_symmetry_multiplicity
 _atom_site_fract_x
 _atom_site_fract_y
 _atom_site_fract_z
 _atom_site_occupancy
  B  B0  1  0.02626894  0.02626894  0.26831240  1
  B  B1  1  0.97373106  0.97373106  0.26831240  1
  B  B2  1  0.97373106  0.02626894  0.73168760  1
  B  B3  1  0.02626894  0.97373106  0.73168760  1
  B  B4  1  0.26831240  0.02626894  0.02626894  1
  B  B5  1  0.26831240  0.97373106  0.97373106  1
  B  B6  1  0.73168760  0.97373106  0.02626894  1
  B  B7  1  0.73168760  0.02626894  0.97373106  1
  B  B8  1  0.02626894  0.26831240  0.02626894  1
  B  B9  1  0.97373106  0.26831240  0.97373106  1
  B  B10  1  0.02626894  0.73168760  0.97373106  1
  B  B11  1  0.97373106  0.73168760  0.02626894  1
  B  B12  1  0.02626894  0.02626894  0.73168760  1
  B  B13  1  0.97373106  0.97373106  0.73168760  1
  B  B14  1  0.02626894  0.97373106  0.26831240  1
  B  B15  1  0.97373106  0.02626894  0.26831240  1
  B  B16  1  0.02626894  0.26831240  0.97373106  1
  B  B17  1  0.97373106  0.26831240  0.02626894  1
  B  B18  1  0.97373106  0.73168760  0.97373106  1
  B  B19  1  0.02626894  0.73168760  0.02626894  1
  B  B20  1  0.26831240  0.02626894  0.97373106  1
  B  B21  1  0.26831240  0.97373106  0.02626894  1
  B  B22  1  0.73168760  0.02626894  0.02626894  1
  B  B23  1  0.73168760  0.97373106  0.97373106  1
  B  B24  1  0.02626894  0.52626894  0.76831240  1
  B  B25  1  0.97373106  0.47373106  0.76831240  1
  B  B26  1  0.97373106  0.52626894  0.23168760  1
  B  B27  1  0.02626894  0.47373106  0.23168760  1
  B  B28  1  0.26831240  0.52626894  0.52626894  1
  B  B29  1  0.26831240  0.47373106  0.47373106  1
  B  B30  1  0.73168760  0.47373106  0.52626894  1
  B  B31  1  0.73168760  0.52626894  0.47373106  1
  B  B32  1  0.02626894  0.76831240  0.52626894  1
  B  B33  1  0.97373106  0.76831240  0.47373106  1
  B  B34  1  0.02626894  0.23168760  0.47373106  1
  B  B35  1  0.97373106  0.23168760  0.52626894  1
  B  B36  1  0.02626894  0.52626894  0.23168760  1
  B  B37  1  0.97373106  0.47373106  0.23168760  1
  B  B38  1  0.02626894  0.47373106  0.76831240  1
  B  B39  1  0.97373106  0.52626894  0.76831240  1
  B  B40  1  0.02626894  0.76831240  0.47373106  1
  B  B41  1  0.97373106  0.76831240  0.52626894  1
  B  B42  1  0.97373106  0.23168760  0.47373106  1
  B  B43  1  0.02626894  0.23168760  0.52626894  1
  B  B44  1  0.26831240  0.52626894  0.47373106  1
  B  B45  1  0.26831240  0.47373106  0.52626894  1
  B  B46  1  0.73168760  0.52626894  0.52626894  1
  B  B47  1  0.73168760  0.47373106  0.47373106  1
  B  B48  1  0.52626894  0.02626894  0.76831240  1
  B  B49  1  0.47373106  0.97373106  0.76831240  1
  B  B50  1  0.47373106  0.02626894  0.23168760  1
  B  B51  1  0.52626894  0.97373106  0.23168760  1
  B  B52  1  0.76831240  0.02626894  0.52626894  1
  B  B53  1  0.76831240  0.97373106  0.47373106  1
  B  B54  1  0.23168760  0.97373106  0.52626894  1
  B  B55  1  0.23168760  0.02626894  0.47373106  1
  B  B56  1  0.52626894  0.26831240  0.52626894  1
  B  B57  1  0.47373106  0.26831240  0.47373106  1
  B  B58  1  0.52626894  0.73168760  0.47373106  1
  B  B59  1  0.47373106  0.73168760  0.52626894  1
  B  B60  1  0.52626894  0.02626894  0.23168760  1
  B  B61  1  0.47373106  0.97373106  0.23168760  1
  B  B62  1  0.52626894  0.97373106  0.76831240  1
  B  B63  1  0.47373106  0.02626894  0.76831240  1
  B  B64  1  0.52626894  0.26831240  0.47373106  1
  B  B65  1  0.47373106  0.26831240  0.52626894  1
  B  B66  1  0.47373106  0.73168760  0.47373106  1
  B  B67  1  0.52626894  0.73168760  0.52626894  1
  B  B68  1  0.76831240  0.02626894  0.47373106  1
  B  B69  1  0.76831240  0.97373106  0.52626894  1
  B  B70  1  0.23168760  0.02626894  0.52626894  1
  B  B71  1  0.23168760  0.97373106  0.47373106  1
  B  B72  1  0.52626894  0.52626894  0.26831240  1
  B  B73  1  0.47373106  0.47373106  0.26831240  1
  B  B74  1  0.47373106  0.52626894  0.73168760  1
  B  B75  1  0.52626894  0.47373106  0.73168760  1
  B  B76  1  0.76831240  0.52626894  0.02626894  1
  B  B77  1  0.76831240  0.47373106  0.97373106  1
  B  B78  1  0.23168760  0.47373106  0.02626894  1
  B  B79  1  0.23168760  0.52626894  0.97373106  1
  B  B80  1  0.52626894  0.76831240  0.02626894  1
  B  B81  1  0.47373106  0.76831240  0.97373106  1
  B  B82  1  0.52626894  0.23168760  0.97373106  1
  B  B83  1  0.47373106  0.23168760  0.02626894  1
  B  B84  1  0.52626894  0.52626894  0.73168760  1
  B  B85  1  0.47373106  0.47373106  0.73168760  1
  B  B86  1  0.52626894  0.47373106  0.26831240  1
  B  B87  1  0.47373106  0.52626894  0.26831240  1
  B  B88  1  0.52626894  0.76831240  0.97373106  1
  B  B89  1  0.47373106  0.76831240  0.02626894  1
  B  B90  1  0.47373106  0.23168760  0.97373106  1
  B  B91  1  0.52626894  0.23168760  0.02626894  1
  B  B92  1  0.76831240  0.52626894  0.97373106  1
  B  B93  1  0.76831240  0.47373106  0.02626894  1
  B  B94  1  0.23168760  0.52626894  0.02626894  1
  B  B95  1  0.23168760  0.47373106  0.97373106  1
  B  B96  1  0.77366108  0.77366108  0.83071058  1
  B  B97  1  0.22633892  0.22633892  0.83071058  1
  B  B98  1  0.22633892  0.77366108  0.16928942  1
  B  B99  1  0.77366108  0.22633892  0.16928942  1
  B  B100  1  0.83071058  0.77366108  0.77366108  1
  B  B101  1  0.83071058  0.22633892  0.22633892  1
  B  B102  1  0.16928942  0.22633892  0.77366108  1
  B  B103  1  0.16928942  0.77366108  0.22633892  1
  B  B104  1  0.77366108  0.83071058  0.77366108  1
  B  B105  1  0.22633892  0.83071058  0.22633892  1
  B  B106  1  0.77366108  0.16928942  0.22633892  1
  B  B107  1  0.22633892  0.16928942  0.77366108  1
  B  B108  1  0.77366108  0.77366108  0.16928942  1
  B  B109  1  0.22633892  0.22633892  0.16928942  1
  B  B110  1  0.77366108  0.22633892  0.83071058  1
  B  B111  1  0.22633892  0.77366108  0.83071058  1
  B  B112  1  0.77366108  0.83071058  0.22633892  1
  B  B113  1  0.22633892  0.83071058  0.77366108  1
  B  B114  1  0.22633892  0.16928942  0.22633892  1
  B  B115  1  0.77366108  0.16928942  0.77366108  1
  B  B116  1  0.83071058  0.77366108  0.22633892  1
  B  B117  1  0.83071058  0.22633892  0.77366108  1
  B  B118  1  0.16928942  0.77366108  0.77366108  1
  B  B119  1  0.16928942  0.22633892  0.22633892  1
  B  B120  1  0.77366108  0.27366108  0.33071058  1
  B  B121  1  0.22633892  0.72633892  0.33071058  1
  B  B122  1  0.22633892  0.27366108  0.66928942  1
  B  B123  1  0.77366108  0.72633892  0.66928942  1
  B  B124  1  0.83071058  0.27366108  0.27366108  1
  B  B125  1  0.83071058  0.72633892  0.72633892  1
  B  B126  1  0.16928942  0.72633892  0.27366108  1
  B  B127  1  0.16928942  0.27366108  0.72633892  1
  B  B128  1  0.77366108  0.33071058  0.27366108  1
  B  B129  1  0.22633892  0.33071058  0.72633892  1
  B  B130  1  0.77366108  0.66928942  0.72633892  1
  B  B131  1  0.22633892  0.66928942  0.27366108  1
  B  B132  1  0.77366108  0.27366108  0.66928942  1
  B  B133  1  0.22633892  0.72633892  0.66928942  1
  B  B134  1  0.77366108  0.72633892  0.33071058  1
  B  B135  1  0.22633892  0.27366108  0.33071058  1
  B  B136  1  0.77366108  0.33071058  0.72633892  1
  B  B137  1  0.22633892  0.33071058  0.27366108  1
  B  B138  1  0.22633892  0.66928942  0.72633892  1
  B  B139  1  0.77366108  0.66928942  0.27366108  1
  B  B140  1  0.83071058  0.27366108  0.72633892  1
  B  B141  1  0.83071058  0.72633892  0.27366108  1
  B  B142  1  0.16928942  0.27366108  0.27366108  1
  B  B143  1  0.16928942  0.72633892  0.72633892  1
  B  B144  1  0.27366108  0.77366108  0.33071058  1
  B  B145  1  0.72633892  0.22633892  0.33071058  1
  B  B146  1  0.72633892  0.77366108  0.66928942  1
  B  B147  1  0.27366108  0.22633892  0.66928942  1
  B  B148  1  0.33071058  0.77366108  0.27366108  1
  B  B149  1  0.33071058  0.22633892  0.72633892  1
  B  B150  1  0.66928942  0.22633892  0.27366108  1
  B  B151  1  0.66928942  0.77366108  0.72633892  1
  B  B152  1  0.27366108  0.83071058  0.27366108  1
  B  B153  1  0.72633892  0.83071058  0.72633892  1
  B  B154  1  0.27366108  0.16928942  0.72633892  1
  B  B155  1  0.72633892  0.16928942  0.27366108  1
  B  B156  1  0.27366108  0.77366108  0.66928942  1
  B  B157  1  0.72633892  0.22633892  0.66928942  1
  B  B158  1  0.27366108  0.22633892  0.33071058  1
  B  B159  1  0.72633892  0.77366108  0.33071058  1
  B  B160  1  0.27366108  0.83071058  0.72633892  1
  B  B161  1  0.72633892  0.83071058  0.27366108  1
  B  B162  1  0.72633892  0.16928942  0.72633892  1
  B  B163  1  0.27366108  0.16928942  0.27366108  1
  B  B164  1  0.33071058  0.77366108  0.72633892  1
  B  B165  1  0.33071058  0.22633892  0.27366108  1
  B  B166  1  0.66928942  0.77366108  0.27366108  1
  B  B167  1  0.66928942  0.22633892  0.72633892  1
  B  B168  1  0.27366108  0.27366108  0.83071058  1
  B  B169  1  0.72633892  0.72633892  0.83071058  1
  B  B170  1  0.72633892  0.27366108  0.16928942  1
  B  B171  1  0.27366108  0.72633892  0.16928942  1
  B  B172  1  0.33071058  0.27366108  0.77366108  1
  B  B173  1  0.33071058  0.72633892  0.22633892  1
  B  B174  1  0.66928942  0.72633892  0.77366108  1
  B  B175  1  0.66928942  0.27366108  0.22633892  1
  B  B176  1  0.27366108  0.33071058  0.77366108  1
  B  B177  1  0.72633892  0.33071058  0.22633892  1
  B  B178  1  0.27366108  0.66928942  0.22633892  1
  B  B179  1  0.72633892  0.66928942  0.77366108  1
  B  B180  1  0.27366108  0.27366108  0.16928942  1
  B  B181  1  0.72633892  0.72633892  0.16928942  1
  B  B182  1  0.27366108  0.72633892  0.83071058  1
  B  B183  1  0.72633892  0.27366108  0.83071058  1
  B  B184  1  0.27366108  0.33071058  0.22633892  1
  B  B185  1  0.72633892  0.33071058  0.77366108  1
  B  B186  1  0.72633892  0.66928942  0.22633892  1
  B  B187  1  0.27366108  0.66928942  0.77366108  1
  B  B188  1  0.33071058  0.27366108  0.22633892  1
  B  B189  1  0.33071058  0.72633892  0.77366108  1
  B  B190  1  0.66928942  0.27366108  0.77366108  1
  B  B191  1  0.66928942  0.72633892  0.22633892  1
  Te  Te192  1  0.25568472  0.30238135  0.09205078  1
  Te  Te193  1  -0.25568472  -0.30238135  0.09205078  1
  Te  Te194  1  -0.25568472  0.30238135  -0.09205078  1
  Te  Te195  1  0.25568472  -0.30238135  -0.09205078  1
  Te  Te196  1  0.09205078  0.25568472  0.30238135  1
  Te  Te197  1  0.09205078  -0.25568472  -0.30238135  1
  Te  Te198  1  -0.09205078  -0.25568472  0.30238135  1
  Te  Te199  1  -0.09205078  0.25568472  -0.30238135  1
  Te  Te200  1  0.30238135  0.09205078  0.25568472  1
  Te  Te201  1  -0.30238135  0.09205078  -0.25568472  1
  Te  Te202  1  0.30238135  -0.09205078  -0.25568472  1
  Te  Te203  1  -0.30238135  -0.09205078  0.25568472  1
  Te  Te204  1  0.30238135  0.25568472  -0.09205078  1
  Te  Te205  1  -0.30238135  -0.25568472  -0.09205078  1
  Te  Te206  1  0.30238135  -0.25568472  0.09205078  1
  Te  Te207  1  -0.30238135  0.25568472  0.09205078  1
  Te  Te208  1  0.25568472  0.09205078  -0.30238135  1
  Te  Te209  1  -0.25568472  0.09205078  0.30238135  1
  Te  Te210  1  -0.25568472  -0.09205078  -0.30238135  1
  Te  Te211  1  0.25568472  -0.09205078  0.30238135  1
  Te  Te212  1  0.09205078  0.30238135  -0.25568472  1
  Te  Te213  1  0.09205078  -0.30238135  0.25568472  1
  Te  Te214  1  -0.09205078  0.30238135  0.25568472  1
  Te  Te215  1  -0.09205078  -0.30238135  -0.25568472  1
  Te  Te216  1  -0.25568472  -0.30238135  -0.09205078  1
  Te  Te217  1  0.25568472  0.30238135  -0.09205078  1
  Te  Te218  1  0.25568472  -0.30238135  0.09205078  1
  Te  Te219  1  -0.25568472  0.30238135  0.09205078  1
  Te  Te220  1  -0.09205078  -0.25568472  -0.30238135  1
  Te  Te221  1  -0.09205078  0.25568472  0.30238135  1
  Te  Te222  1  0.09205078  0.25568472  -0.30238135  1
  Te  Te223  1  0.09205078  -0.25568472  0.30238135  1
  Te  Te224  1  -0.30238135  -0.09205078  -0.25568472  1
  Te  Te225  1  0.30238135  -0.09205078  0.25568472  1
  Te  Te226  1  -0.30238135  0.09205078  0.25568472  1
  Te  Te227  1  0.30238135  0.09205078  -0.25568472  1
  Te  Te228  1  -0.30238135  -0.25568472  0.09205078  1
  Te  Te229  1  0.30238135  0.25568472  0.09205078  1
  Te  Te230  1  -0.30238135  0.25568472  -0.09205078  1
  Te  Te231  1  0.30238135  -0.25568472  -0.09205078  1
  Te  Te232  1  -0.25568472  -0.09205078  0.30238135  1
  Te  Te233  1  0.25568472  -0.09205078  -0.30238135  1
  Te  Te234  1  0.25568472  0.09205078  0.30238135  1
  Te  Te235  1  -0.25568472  0.09205078  -0.30238135  1
  Te  Te236  1  -0.09205078  -0.30238135  0.25568472  1
  Te  Te237  1  -0.09205078  0.30238135  -0.25568472  1
  Te  Te238  1  0.09205078  -0.30238135  -0.25568472  1
  Te  Te239  1  0.09205078  0.30238135  0.25568472  1
  Te  Te240  1  0.25568472  0.80238135  0.59205078  1
  Te  Te241  1  -0.25568472  0.19761865  0.59205078  1
  Te  Te242  1  -0.25568472  0.80238135  0.40794922  1
  Te  Te243  1  0.25568472  0.19761865  0.40794922  1
  Te  Te244  1  0.09205078  0.75568472  0.80238135  1
  Te  Te245  1  0.09205078  0.24431528  0.19761865  1
  Te  Te246  1  -0.09205078  0.24431528  0.80238135  1
  Te  Te247  1  -0.09205078  0.75568472  0.19761865  1
  Te  Te248  1  0.30238135  0.59205078  0.75568472  1
  Te  Te249  1  -0.30238135  0.59205078  0.24431528  1
  Te  Te250  1  0.30238135  0.40794922  0.24431528  1
  Te  Te251  1  -0.30238135  0.40794922  0.75568472  1
  Te  Te252  1  0.30238135  0.75568472  0.40794922  1
  Te  Te253  1  -0.30238135  0.24431528  0.40794922  1
  Te  Te254  1  0.30238135  0.24431528  0.59205078  1
  Te  Te255  1  -0.30238135  0.75568472  0.59205078  1
  Te  Te256  1  0.25568472  0.59205078  0.19761865  1
  Te  Te257  1  -0.25568472  0.59205078  0.80238135  1
  Te  Te258  1  -0.25568472  0.40794922  0.19761865  1
  Te  Te259  1  0.25568472  0.40794922  0.80238135  1
  Te  Te260  1  0.09205078  0.80238135  0.24431528  1
  Te  Te261  1  0.09205078  0.19761865  0.75568472  1
  Te  Te262  1  -0.09205078  0.80238135  0.75568472  1
  Te  Te263  1  -0.09205078  0.19761865  0.24431528  1
  Te  Te264  1  -0.25568472  0.19761865  0.40794922  1
  Te  Te265  1  0.25568472  0.80238135  0.40794922  1
  Te  Te266  1  0.25568472  0.19761865  0.59205078  1
  Te  Te267  1  -0.25568472  0.80238135  0.59205078  1
  Te  Te268  1  -0.09205078  0.24431528  0.19761865  1
  Te  Te269  1  -0.09205078  0.75568472  0.80238135  1
  Te  Te270  1  0.09205078  0.75568472  0.19761865  1
  Te  Te271  1  0.09205078  0.24431528  0.80238135  1
  Te  Te272  1  -0.30238135  0.40794922  0.24431528  1
  Te  Te273  1  0.30238135  0.40794922  0.75568472  1
  Te  Te274  1  -0.30238135  0.59205078  0.75568472  1
  Te  Te275  1  0.30238135  0.59205078  0.24431528  1
  Te  Te276  1  -0.30238135  0.24431528  0.59205078  1
  Te  Te277  1  0.30238135  0.75568472  0.59205078  1
  Te  Te278  1  -0.30238135  0.75568472  0.40794922  1
  Te  Te279  1  0.30238135  0.24431528  0.40794922  1
  Te  Te280  1  -0.25568472  0.40794922  0.80238135  1
  Te  Te281  1  0.25568472  0.40794922  0.19761865  1
  Te  Te282  1  0.25568472  0.59205078  0.80238135  1
  Te  Te283  1  -0.25568472  0.59205078  0.19761865  1
  Te  Te284  1  -0.09205078  0.19761865  0.75568472  1
  Te  Te285  1  -0.09205078  0.80238135  0.24431528  1
  Te  Te286  1  0.09205078  0.19761865  0.24431528  1
  Te  Te287  1  0.09205078  0.80238135  0.75568472  1
  Te  Te288  1  0.75568472  0.30238135  0.59205078  1
  Te  Te289  1  0.24431528  -0.30238135  0.59205078  1
  Te  Te290  1  0.24431528  0.30238135  0.40794922  1
  Te  Te291  1  0.75568472  -0.30238135  0.40794922  1
  Te  Te292  1  0.59205078  0.25568472  0.80238135  1
  Te  Te293  1  0.59205078  -0.25568472  0.19761865  1
  Te  Te294  1  0.40794922  -0.25568472  0.80238135  1
  Te  Te295  1  0.40794922  0.25568472  0.19761865  1
  Te  Te296  1  0.80238135  0.09205078  0.75568472  1
  Te  Te297  1  0.19761865  0.09205078  0.24431528  1
  Te  Te298  1  0.80238135  -0.09205078  0.24431528  1
  Te  Te299  1  0.19761865  -0.09205078  0.75568472  1
  Te  Te300  1  0.80238135  0.25568472  0.40794922  1
  Te  Te301  1  0.19761865  -0.25568472  0.40794922  1
  Te  Te302  1  0.80238135  -0.25568472  0.59205078  1
  Te  Te303  1  0.19761865  0.25568472  0.59205078  1
  Te  Te304  1  0.75568472  0.09205078  0.19761865  1
  Te  Te305  1  0.24431528  0.09205078  0.80238135  1
  Te  Te306  1  0.24431528  -0.09205078  0.19761865  1
  Te  Te307  1  0.75568472  -0.09205078  0.80238135  1
  Te  Te308  1  0.59205078  0.30238135  0.24431528  1
  Te  Te309  1  0.59205078  -0.30238135  0.75568472  1
  Te  Te310  1  0.40794922  0.30238135  0.75568472  1
  Te  Te311  1  0.40794922  -0.30238135  0.24431528  1
  Te  Te312  1  0.24431528  -0.30238135  0.40794922  1
  Te  Te313  1  0.75568472  0.30238135  0.40794922  1
  Te  Te314  1  0.75568472  -0.30238135  0.59205078  1
  Te  Te315  1  0.24431528  0.30238135  0.59205078  1
  Te  Te316  1  0.40794922  -0.25568472  0.19761865  1
  Te  Te317  1  0.40794922  0.25568472  0.80238135  1
  Te  Te318  1  0.59205078  0.25568472  0.19761865  1
  Te  Te319  1  0.59205078  -0.25568472  0.80238135  1
  Te  Te320  1  0.19761865  -0.09205078  0.24431528  1
  Te  Te321  1  0.80238135  -0.09205078  0.75568472  1
  Te  Te322  1  0.19761865  0.09205078  0.75568472  1
  Te  Te323  1  0.80238135  0.09205078  0.24431528  1
  Te  Te324  1  0.19761865  -0.25568472  0.59205078  1
  Te  Te325  1  0.80238135  0.25568472  0.59205078  1
  Te  Te326  1  0.19761865  0.25568472  0.40794922  1
  Te  Te327  1  0.80238135  -0.25568472  0.40794922  1
  Te  Te328  1  0.24431528  -0.09205078  0.80238135  1
  Te  Te329  1  0.75568472  -0.09205078  0.19761865  1
  Te  Te330  1  0.75568472  0.09205078  0.80238135  1
  Te  Te331  1  0.24431528  0.09205078  0.19761865  1
  Te  Te332  1  0.40794922  -0.30238135  0.75568472  1
  Te  Te333  1  0.40794922  0.30238135  0.24431528  1
  Te  Te334  1  0.59205078  -0.30238135  0.24431528  1
  Te  Te335  1  0.59205078  0.30238135  0.75568472  1
  Te  Te336  1  0.75568472  0.80238135  0.09205078  1
  Te  Te337  1  0.24431528  0.19761865  0.09205078  1
  Te  Te338  1  0.24431528  0.80238135  -0.09205078  1
  Te  Te339  1  0.75568472  0.19761865  -0.09205078  1
  Te  Te340  1  0.59205078  0.75568472  0.30238135  1
  Te  Te341  1  0.59205078  0.24431528  -0.30238135  1
  Te  Te342  1  0.40794922  0.24431528  0.30238135  1
  Te  Te343  1  0.40794922  0.75568472  -0.30238135  1
  Te  Te344  1  0.80238135  0.59205078  0.25568472  1
  Te  Te345  1  0.19761865  0.59205078  -0.25568472  1
  Te  Te346  1  0.80238135  0.40794922  -0.25568472  1
  Te  Te347  1  0.19761865  0.40794922  0.25568472  1
  Te  Te348  1  0.80238135  0.75568472  -0.09205078  1
  Te  Te349  1  0.19761865  0.24431528  -0.09205078  1
  Te  Te350  1  0.80238135  0.24431528  0.09205078  1
  Te  Te351  1  0.19761865  0.75568472  0.09205078  1
  Te  Te352  1  0.75568472  0.59205078  -0.30238135  1
  Te  Te353  1  0.24431528  0.59205078  0.30238135  1
  Te  Te354  1  0.24431528  0.40794922  -0.30238135  1
  Te  Te355  1  0.75568472  0.40794922  0.30238135  1
  Te  Te356  1  0.59205078  0.80238135  -0.25568472  1
  Te  Te357  1  0.59205078  0.19761865  0.25568472  1
  Te  Te358  1  0.40794922  0.80238135  0.25568472  1
  Te  Te359  1  0.40794922  0.19761865  -0.25568472  1
  Te  Te360  1  0.24431528  0.19761865  -0.09205078  1
  Te  Te361  1  0.75568472  0.80238135  -0.09205078  1
  Te  Te362  1  0.75568472  0.19761865  0.09205078  1
  Te  Te363  1  0.24431528  0.80238135  0.09205078  1
  Te  Te364  1  0.40794922  0.24431528  -0.30238135  1
  Te  Te365  1  0.40794922  0.75568472  0.30238135  1
  Te  Te366  1  0.59205078  0.75568472  -0.30238135  1
  Te  Te367  1  0.59205078  0.24431528  0.30238135  1
  Te  Te368  1  0.19761865  0.40794922  -0.25568472  1
  Te  Te369  1  0.80238135  0.40794922  0.25568472  1
  Te  Te370  1  0.19761865  0.59205078  0.25568472  1
  Te  Te371  1  0.80238135  0.59205078  -0.25568472  1
  Te  Te372  1  0.19761865  0.24431528  0.09205078  1
  Te  Te373  1  0.80238135  0.75568472  0.09205078  1
  Te  Te374  1  0.19761865  0.75568472  -0.09205078  1
  Te  Te375  1  0.80238135  0.24431528  -0.09205078  1
  Te  Te376  1  0.24431528  0.40794922  0.30238135  1
  Te  Te377  1  0.75568472  0.40794922  -0.30238135  1
  Te  Te378  1  0.75568472  0.59205078  0.30238135  1
  Te  Te379  1  0.24431528  0.59205078  -0.30238135  1
  Te  Te380  1  0.40794922  0.19761865  0.25568472  1
  Te  Te381  1  0.40794922  0.80238135  -0.25568472  1
  Te  Te382  1  0.59205078  0.19761865  -0.25568472  1
  Te  Te383  1  0.59205078  0.80238135  0.25568472  1
  Te  Te384  1  0.00000000  0.73596696  0.89286865  1
  Te  Te385  1  0.00000000  0.26403304  0.89286865  1
  Te  Te386  1  0.00000000  0.73596696  0.10713135  1
  Te  Te387  1  0.00000000  0.26403304  0.10713135  1
  Te  Te388  1  0.89286865  0.00000000  0.73596696  1
  Te  Te389  1  0.89286865  0.00000000  0.26403304  1
  Te  Te390  1  0.10713135  0.00000000  0.73596696  1
  Te  Te391  1  0.10713135  0.00000000  0.26403304  1
  Te  Te392  1  0.73596696  0.89286865  0.00000000  1
  Te  Te393  1  0.26403304  0.89286865  0.00000000  1
  Te  Te394  1  0.73596696  0.10713135  0.00000000  1
  Te  Te395  1  0.26403304  0.10713135  0.00000000  1
  Te  Te396  1  0.73596696  0.00000000  0.10713135  1
  Te  Te397  1  0.26403304  0.00000000  0.10713135  1
  Te  Te398  1  0.73596696  0.00000000  0.89286865  1
  Te  Te399  1  0.26403304  0.00000000  0.89286865  1
  Te  Te400  1  0.00000000  0.89286865  0.26403304  1
  Te  Te401  1  0.00000000  0.89286865  0.73596696  1
  Te  Te402  1  0.00000000  0.10713135  0.26403304  1
  Te  Te403  1  0.00000000  0.10713135  0.73596696  1
  Te  Te404  1  0.89286865  0.73596696  0.00000000  1
  Te  Te405  1  0.89286865  0.26403304  0.00000000  1
  Te  Te406  1  0.10713135  0.73596696  0.00000000  1
  Te  Te407  1  0.10713135  0.26403304  0.00000000  1
  Te  Te408  1  0.00000000  0.23596696  0.39286865  1
  Te  Te409  1  0.00000000  0.76403304  0.39286865  1
  Te  Te410  1  0.00000000  0.23596696  0.60713135  1
  Te  Te411  1  0.00000000  0.76403304  0.60713135  1
  Te  Te412  1  0.89286865  0.50000000  0.23596696  1
  Te  Te413  1  0.89286865  0.50000000  0.76403304  1
  Te  Te414  1  0.10713135  0.50000000  0.23596696  1
  Te  Te415  1  0.10713135  0.50000000  0.76403304  1
  Te  Te416  1  0.73596696  0.39286865  0.50000000  1
  Te  Te417  1  0.26403304  0.39286865  0.50000000  1
  Te  Te418  1  0.73596696  0.60713135  0.50000000  1
  Te  Te419  1  0.26403304  0.60713135  0.50000000  1
  Te  Te420  1  0.73596696  0.50000000  0.60713135  1
  Te  Te421  1  0.26403304  0.50000000  0.60713135  1
  Te  Te422  1  0.73596696  0.50000000  0.39286865  1
  Te  Te423  1  0.26403304  0.50000000  0.39286865  1
  Te  Te424  1  0.00000000  0.39286865  0.76403304  1
  Te  Te425  1  0.00000000  0.39286865  0.23596696  1
  Te  Te426  1  0.00000000  0.60713135  0.76403304  1
  Te  Te427  1  0.00000000  0.60713135  0.23596696  1
  Te  Te428  1  0.89286865  0.23596696  0.50000000  1
  Te  Te429  1  0.89286865  0.76403304  0.50000000  1
  Te  Te430  1  0.10713135  0.23596696  0.50000000  1
  Te  Te431  1  0.10713135  0.76403304  0.50000000  1
  Te  Te432  1  0.50000000  0.73596696  0.39286865  1
  Te  Te433  1  0.50000000  0.26403304  0.39286865  1
  Te  Te434  1  0.50000000  0.73596696  0.60713135  1
  Te  Te435  1  0.50000000  0.26403304  0.60713135  1
  Te  Te436  1  0.39286865  0.00000000  0.23596696  1
  Te  Te437  1  0.39286865  0.00000000  0.76403304  1
  Te  Te438  1  0.60713135  0.00000000  0.23596696  1
  Te  Te439  1  0.60713135  0.00000000  0.76403304  1
  Te  Te440  1  0.23596696  0.89286865  0.50000000  1
  Te  Te441  1  0.76403304  0.89286865  0.50000000  1
  Te  Te442  1  0.23596696  0.10713135  0.50000000  1
  Te  Te443  1  0.76403304  0.10713135  0.50000000  1
  Te  Te444  1  0.23596696  0.00000000  0.60713135  1
  Te  Te445  1  0.76403304  0.00000000  0.60713135  1
  Te  Te446  1  0.23596696  0.00000000  0.39286865  1
  Te  Te447  1  0.76403304  0.00000000  0.39286865  1
  Te  Te448  1  0.50000000  0.89286865  0.76403304  1
  Te  Te449  1  0.50000000  0.89286865  0.23596696  1
  Te  Te450  1  0.50000000  0.10713135  0.76403304  1
  Te  Te451  1  0.50000000  0.10713135  0.23596696  1
  Te  Te452  1  0.39286865  0.73596696  0.50000000  1
  Te  Te453  1  0.39286865  0.26403304  0.50000000  1
  Te  Te454  1  0.60713135  0.73596696  0.50000000  1
  Te  Te455  1  0.60713135  0.26403304  0.50000000  1
  Te  Te456  1  0.50000000  0.23596696  0.89286865  1
  Te  Te457  1  0.50000000  0.76403304  0.89286865  1
  Te  Te458  1  0.50000000  0.23596696  0.10713135  1
  Te  Te459  1  0.50000000  0.76403304  0.10713135  1
  Te  Te460  1  0.39286865  0.50000000  0.73596696  1
  Te  Te461  1  0.39286865  0.50000000  0.26403304  1
  Te  Te462  1  0.60713135  0.50000000  0.73596696  1
  Te  Te463  1  0.60713135  0.50000000  0.26403304  1
  Te  Te464  1  0.23596696  0.39286865  0.00000000  1
  Te  Te465  1  0.76403304  0.39286865  0.00000000  1
  Te  Te466  1  0.23596696  0.60713135  0.00000000  1
  Te  Te467  1  0.76403304  0.60713135  0.00000000  1
  Te  Te468  1  0.23596696  0.50000000  0.10713135  1
  Te  Te469  1  0.76403304  0.50000000  0.10713135  1
  Te  Te470  1  0.23596696  0.50000000  0.89286865  1
  Te  Te471  1  0.76403304  0.50000000  0.89286865  1
  Te  Te472  1  0.50000000  0.39286865  0.26403304  1
  Te  Te473  1  0.50000000  0.39286865  0.73596696  1
  Te  Te474  1  0.50000000  0.60713135  0.26403304  1
  Te  Te475  1  0.50000000  0.60713135  0.73596696  1
  Te  Te476  1  0.39286865  0.23596696  0.00000000  1
  Te  Te477  1  0.39286865  0.76403304  0.00000000  1
  Te  Te478  1  0.60713135  0.23596696  0.00000000  1
  Te  Te479  1  0.60713135  0.76403304  0.00000000  1
