# generated using pymatgen
data_Li2S
_symmetry_space_group_name_H-M   'P 1'
_cell_length_a   9.22826013
_cell_length_b   9.22826013
_cell_length_c   8.38449969
_cell_angle_alpha   90.00000000
_cell_angle_beta   90.00000000
_cell_angle_gamma   90.00000000
_symmetry_Int_Tables_number   1
_chemical_formula_structural   Li2S
_chemical_formula_sum   'Li24 S12'
_cell_volume   714.03057578
_cell_formula_units_Z   12
loop_
 _symmetry_equiv_pos_site_id
 _symmetry_equiv_pos_as_xyz
  1  'x, y, z'
loop_
 _atom_site_type_symbol
 _atom_site_label
 _atom_site_symmetry_multiplicity
 _atom_site_fract_x
 _atom_site_fract_y
 _atom_site_fract_z
 _atom_site_occupancy
  Li  Li0  1  0.00000000  0.00000000  0.50000000  1
  Li  Li1  1  0.50000000  0.00000000  0.00000000  1
  Li  Li2  1  0.25000000  0.75000000  0.75000000  1
  Li  Li3  1  0.25000000  0.25000000  0.25000000  1
  Li  Li4  1  0.50000000  0.50000000  0.00000000  1
  Li  Li5  1  0.00000000  0.50000000  0.50000000  1
  Li  Li6  1  0.75000000  0.25000000  0.25000000  1
  Li  Li7  1  0.75000000  0.75000000  0.75000000  1
  Li  Li8  1  0.36249482  0.61249482  0.87500000  1
  Li  Li9  1  0.13750518  0.38750518  0.37500000  1
  Li  Li10  1  -0.36249482  1.11249482  0.12500000  1
  Li  Li11  1  0.86249482  -0.11249482  0.62500000  1
  Li  Li12  1  -0.36249482  0.38750518  0.12500000  1
  Li  Li13  1  0.86249482  0.61249482  0.62500000  1
  Li  Li14  1  0.36249482  -0.11249482  0.87500000  1
  Li  Li15  1  0.13750518  1.11249482  0.37500000  1
  Li  Li16  1  0.86249482  1.11249482  1.37500000  1
  Li  Li17  1  0.63750518  0.88750518  0.87500000  1
  Li  Li18  1  0.13750518  1.61249482  0.62500000  1
  Li  Li19  1  1.36249482  0.38750518  1.12500000  1
  Li  Li20  1  0.13750518  0.88750518  0.62500000  1
  Li  Li21  1  1.36249482  1.11249482  1.12500000  1
  Li  Li22  1  0.86249482  0.38750518  1.37500000  1
  Li  Li23  1  0.63750518  1.61249482  0.87500000  1
  S  S24  1  0.00000000  0.75000000  0.12500000  1
  S  S25  1  0.50000000  0.75000000  0.37500000  1
  S  S26  1  0.50000000  0.25000000  0.62500000  1
  S  S27  1  0.00000000  0.25000000  0.87500000  1
  S  S28  1  0.00000000  0.00000000  0.00000000  1
  S  S29  1  0.50000000  0.00000000  0.50000000  1
  S  S30  1  0.25000000  0.75000000  0.25000000  1
  S  S31  1  0.25000000  0.25000000  0.75000000  1
  S  S32  1  0.50000000  0.50000000  0.50000000  1
  S  S33  1  0.00000000  0.50000000  0.00000000  1
  S  S34  1  0.75000000  0.25000000  0.75000000  1
  S  S35  1  0.75000000  0.75000000  0.25000000  1
