# generated using pymatgen
data_NaSr12Mg3B6Br48F
_symmetry_space_group_name_H-M   'P 1'
_cell_length_a   13.38092991
_cell_length_b   13.38092991
_cell_length_c   26.95056415
_cell_angle_alpha   90.00000000
_cell_angle_beta   90.00000000
_cell_angle_gamma   120.00000000
_symmetry_Int_Tables_number   1
_chemical_formula_structural   NaSr12Mg3B6Br48F
_chemical_formula_sum   'Na2 Sr24 Mg6 B12 Br96 F2'
_cell_volume   4178.98761449
_cell_formula_units_Z   2
loop_
 _symmetry_equiv_pos_site_id
 _symmetry_equiv_pos_as_xyz
  1  'x, y, z'
loop_
 _atom_site_type_symbol
 _atom_site_label
 _atom_site_symmetry_multiplicity
 _atom_site_fract_x
 _atom_site_fract_y
 _atom_site_fract_z
 _atom_site_occupancy
  B  B0  1  0.33333333  0.66666667  0.75000000  1
  B  B1  1  0.66666667  0.33333333  0.25000000  1
  B  B2  1  0.07826779  0.15653558  0.25000000  1
  B  B3  1  0.84346442  0.92173221  0.25000000  1
  B  B4  1  0.07826779  0.92173221  0.25000000  1
  B  B5  1  0.92173221  0.84346442  0.75000000  1
  B  B6  1  0.15653558  0.07826779  0.75000000  1
  B  B7  1  0.92173221  0.07826779  0.75000000  1
  B  B8  1  0.33333333  0.66666667  0.40810489  1
  B  B9  1  0.66666667  0.33333333  0.90810489  1
  B  B10  1  0.66666667  0.33333333  0.59189511  1
  B  B11  1  0.33333333  0.66666667  0.09189511  1
  Br  Br12  1  0.42202852  0.13412629  0.25000000  1
  Br  Br13  1  0.86587371  0.28790223  0.25000000  1
  Br  Br14  1  0.71209777  0.57797148  0.25000000  1
  Br  Br15  1  0.57797148  0.86587371  0.75000000  1
  Br  Br16  1  0.13412629  0.71209777  0.75000000  1
  Br  Br17  1  0.28790223  0.42202852  0.75000000  1
  Br  Br18  1  0.13412629  0.42202852  0.75000000  1
  Br  Br19  1  0.28790223  0.86587371  0.75000000  1
  Br  Br20  1  0.57797148  0.71209777  0.75000000  1
  Br  Br21  1  0.86587371  0.57797148  0.25000000  1
  Br  Br22  1  0.71209777  0.13412629  0.25000000  1
  Br  Br23  1  0.42202852  0.28790223  0.25000000  1
  Br  Br24  1  0.33348216  0.06351278  0.78243921  1
  Br  Br25  1  -0.06351278  0.26996938  0.78243921  1
  Br  Br26  1  -0.26996938  -0.33348216  0.78243921  1
  Br  Br27  1  -0.33348216  -0.06351278  1.28243921  1
  Br  Br28  1  0.06351278  -0.26996938  1.28243921  1
  Br  Br29  1  0.26996938  0.33348216  1.28243921  1
  Br  Br30  1  0.06351278  0.33348216  -0.78243921  1
  Br  Br31  1  0.26996938  -0.06351278  -0.78243921  1
  Br  Br32  1  -0.33348216  -0.26996938  -0.78243921  1
  Br  Br33  1  -0.06351278  -0.33348216  -0.28243921  1
  Br  Br34  1  -0.26996938  0.06351278  -0.28243921  1
  Br  Br35  1  0.33348216  0.26996938  -0.28243921  1
  Br  Br36  1  -0.33348216  -0.06351278  -0.78243921  1
  Br  Br37  1  0.06351278  -0.26996938  -0.78243921  1
  Br  Br38  1  0.26996938  0.33348216  -0.78243921  1
  Br  Br39  1  0.33348216  0.06351278  -0.28243921  1
  Br  Br40  1  -0.06351278  0.26996938  -0.28243921  1
  Br  Br41  1  -0.26996938  -0.33348216  -0.28243921  1
  Br  Br42  1  -0.06351278  -0.33348216  0.78243921  1
  Br  Br43  1  -0.26996938  0.06351278  0.78243921  1
  Br  Br44  1  0.33348216  0.26996938  0.78243921  1
  Br  Br45  1  0.06351278  0.33348216  1.28243921  1
  Br  Br46  1  0.26996938  -0.06351278  1.28243921  1
  Br  Br47  1  -0.33348216  -0.26996938  1.28243921  1
  Br  Br48  1  0.72193069  0.15309039  0.85383898  1
  Br  Br49  1  0.84690961  0.56884030  0.85383898  1
  Br  Br50  1  0.43115970  0.27806931  0.85383898  1
  Br  Br51  1  0.27806931  0.84690961  0.35383898  1
  Br  Br52  1  0.15309039  0.43115970  0.35383898  1
  Br  Br53  1  0.56884030  0.72193069  0.35383898  1
  Br  Br54  1  0.15309039  0.72193069  0.14616102  1
  Br  Br55  1  0.56884030  0.84690961  0.14616102  1
  Br  Br56  1  0.27806931  0.43115970  0.14616102  1
  Br  Br57  1  0.84690961  0.27806931  0.64616102  1
  Br  Br58  1  0.43115970  0.15309039  0.64616102  1
  Br  Br59  1  0.72193069  0.56884030  0.64616102  1
  Br  Br60  1  0.27806931  0.84690961  0.14616102  1
  Br  Br61  1  0.15309039  0.43115970  0.14616102  1
  Br  Br62  1  0.56884030  0.72193069  0.14616102  1
  Br  Br63  1  0.72193069  0.15309039  0.64616102  1
  Br  Br64  1  0.84690961  0.56884030  0.64616102  1
  Br  Br65  1  0.43115970  0.27806931  0.64616102  1
  Br  Br66  1  0.84690961  0.27806931  0.85383898  1
  Br  Br67  1  0.43115970  0.15309039  0.85383898  1
  Br  Br68  1  0.72193069  0.56884030  0.85383898  1
  Br  Br69  1  0.15309039  0.72193069  0.35383898  1
  Br  Br70  1  0.56884030  0.84690961  0.35383898  1
  Br  Br71  1  0.27806931  0.43115970  0.35383898  1
  Br  Br72  1  0.58273164  0.05387898  0.25000000  1
  Br  Br73  1  0.94612102  0.52885266  0.25000000  1
  Br  Br74  1  0.47114734  0.41726836  0.25000000  1
  Br  Br75  1  0.41726836  0.94612102  0.75000000  1
  Br  Br76  1  0.05387898  0.47114734  0.75000000  1
  Br  Br77  1  0.52885266  0.58273164  0.75000000  1
  Br  Br78  1  0.05387898  0.58273164  0.75000000  1
  Br  Br79  1  0.52885266  0.94612102  0.75000000  1
  Br  Br80  1  0.41726836  0.47114734  0.75000000  1
  Br  Br81  1  0.94612102  0.41726836  0.25000000  1
  Br  Br82  1  0.47114734  0.05387898  0.25000000  1
  Br  Br83  1  0.58273164  0.52885266  0.25000000  1
  Br  Br84  1  0.89132536  0.00000000  -0.00000000  1
  Br  Br85  1  0.00000000  0.89132536  0.00000000  1
  Br  Br86  1  0.10867464  0.10867464  -0.00000000  1
  Br  Br87  1  0.10867464  0.00000000  0.50000000  1
  Br  Br88  1  0.00000000  0.10867464  0.50000000  1
  Br  Br89  1  0.89132536  0.89132536  0.50000000  1
  Br  Br90  1  0.10867464  0.00000000  -0.00000000  1
  Br  Br91  1  0.00000000  0.10867464  -0.00000000  1
  Br  Br92  1  0.89132536  0.89132536  -0.00000000  1
  Br  Br93  1  0.89132536  0.00000000  0.50000000  1
  Br  Br94  1  0.00000000  0.89132536  0.50000000  1
  Br  Br95  1  0.10867464  0.10867464  0.50000000  1
  Br  Br96  1  0.21000694  0.04022800  0.25000000  1
  Br  Br97  1  0.95977200  0.16977893  0.25000000  1
  Br  Br98  1  0.83022107  0.78999306  0.25000000  1
  Br  Br99  1  0.78999306  0.95977200  0.75000000  1
  Br  Br100  1  0.04022800  0.83022107  0.75000000  1
  Br  Br101  1  0.16977893  0.21000694  0.75000000  1
  Br  Br102  1  0.04022800  0.21000694  0.75000000  1
  Br  Br103  1  0.16977893  0.95977200  0.75000000  1
  Br  Br104  1  0.78999306  0.83022107  0.75000000  1
  Br  Br105  1  0.95977200  0.78999306  0.25000000  1
  Br  Br106  1  0.83022107  0.04022800  0.25000000  1
  Br  Br107  1  0.21000694  0.16977893  0.25000000  1
  F  F108  1  0.33333333  0.66666667  0.25000000  1
  F  F109  1  0.66666667  0.33333333  0.75000000  1
  Mg  Mg110  1  0.50000000  0.00000000  -0.00000000  1
  Mg  Mg111  1  0.00000000  0.50000000  0.00000000  1
  Mg  Mg112  1  0.50000000  0.50000000  0.00000000  1
  Mg  Mg113  1  0.50000000  0.00000000  0.50000000  1
  Mg  Mg114  1  0.00000000  0.50000000  0.50000000  1
  Mg  Mg115  1  0.50000000  0.50000000  0.50000000  1
  Na  Na116  1  0.00000000  0.00000000  0.00000000  1
  Na  Na117  1  0.00000000  0.00000000  0.50000000  1
  Sr  Sr118  1  0.09415613  0.18831226  0.05466927  1
  Sr  Sr119  1  0.81168774  0.90584387  0.05466927  1
  Sr  Sr120  1  0.09415613  0.90584387  0.05466927  1
  Sr  Sr121  1  0.90584387  0.81168774  0.55466927  1
  Sr  Sr122  1  0.18831226  0.09415613  0.55466927  1
  Sr  Sr123  1  0.90584387  0.09415613  0.55466927  1
  Sr  Sr124  1  0.18831226  0.09415613  0.94533073  1
  Sr  Sr125  1  0.90584387  0.81168774  0.94533073  1
  Sr  Sr126  1  0.90584387  0.09415613  0.94533073  1
  Sr  Sr127  1  0.81168774  0.90584387  0.44533073  1
  Sr  Sr128  1  0.09415613  0.18831226  0.44533073  1
  Sr  Sr129  1  0.09415613  0.90584387  0.44533073  1
  Sr  Sr130  1  0.00000000  0.00000000  0.09558340  1
  Sr  Sr131  1  0.00000000  0.00000000  0.59558340  1
  Sr  Sr132  1  0.00000000  0.00000000  0.90441660  1
  Sr  Sr133  1  0.00000000  0.00000000  0.40441660  1
  Sr  Sr134  1  0.25846059  0.51692117  0.25000000  1
  Sr  Sr135  1  0.48307883  0.74153941  0.25000000  1
  Sr  Sr136  1  0.25846059  0.74153941  0.25000000  1
  Sr  Sr137  1  0.74153941  0.48307883  0.75000000  1
  Sr  Sr138  1  0.51692117  0.25846059  0.75000000  1
  Sr  Sr139  1  0.74153941  0.25846059  0.75000000  1
  Sr  Sr140  1  0.00000000  0.00000000  0.25000000  1
  Sr  Sr141  1  0.00000000  0.00000000  0.75000000  1
