# generated using pymatgen
data_LiTiClO2
_symmetry_space_group_name_H-M   'P 1'
_cell_length_a   3.98444884
_cell_length_b   3.25205525
_cell_length_c   3.67674495
_cell_angle_alpha   89.50141545
_cell_angle_beta   91.62590774
_cell_angle_gamma   92.02955445
_symmetry_Int_Tables_number   1
_chemical_formula_structural   LiTiClO2
_chemical_formula_sum   'Li1 Ti1 Cl1 O2'
_cell_volume   47.59149786
_cell_formula_units_Z   1
loop_
 _symmetry_equiv_pos_site_id
 _symmetry_equiv_pos_as_xyz
  1  'x, y, z'
loop_
 _atom_site_type_symbol
 _atom_site_label
 _atom_site_symmetry_multiplicity
 _atom_site_fract_x
 _atom_site_fract_y
 _atom_site_fract_z
 _atom_site_occupancy
  Li  Li0  1  0.00000000  0.00000000  0.00000000  1
  Ti  Ti1  1  0.50000000  0.50000000  0.50000000  1
  O  O2  1  0.50000000  0.50000000  0.00000000  1
  O  O3  1  0.50000000  0.00000000  0.50000000  1
  Cl  Cl4  1  0.00000000  0.50000000  0.50000000  1
