# generated using pymatgen
data_BTeI
_symmetry_space_group_name_H-M   'P 1'
_cell_length_a   10.30464974
_cell_length_b   8.33597885
_cell_length_c   15.49704468
_cell_angle_alpha   90.00000000
_cell_angle_beta   90.00000000
_cell_angle_gamma   90.00000000
_symmetry_Int_Tables_number   1
_chemical_formula_structural   BTeI
_chemical_formula_sum   'B16 Te16 I16'
_cell_volume   1331.18594599
_cell_formula_units_Z   16
loop_
 _symmetry_equiv_pos_site_id
 _symmetry_equiv_pos_as_xyz
  1  'x, y, z'
loop_
 _atom_site_type_symbol
 _atom_site_label
 _atom_site_symmetry_multiplicity
 _atom_site_fract_x
 _atom_site_fract_y
 _atom_site_fract_z
 _atom_site_occupancy
  B  B0  1  0.12500000  0.12500000  0.12500000  1
  B  B1  1  0.87500000  0.87500000  0.87500000  1
  B  B2  1  0.12500000  0.62500000  0.62500000  1
  B  B3  1  0.87500000  0.37500000  0.37500000  1
  B  B4  1  0.62500000  0.12500000  0.62500000  1
  B  B5  1  0.37500000  0.87500000  0.37500000  1
  B  B6  1  0.62500000  0.62500000  0.12500000  1
  B  B7  1  0.37500000  0.37500000  0.87500000  1
  B  B8  1  0.12500000  0.12500000  0.62500000  1
  B  B9  1  0.87500000  0.87500000  0.37500000  1
  B  B10  1  0.12500000  0.62500000  0.12500000  1
  B  B11  1  0.87500000  0.37500000  0.87500000  1
  B  B12  1  0.62500000  0.12500000  0.12500000  1
  B  B13  1  0.37500000  0.87500000  0.87500000  1
  B  B14  1  0.62500000  0.62500000  0.62500000  1
  B  B15  1  0.37500000  0.37500000  0.37500000  1
  I  I16  1  0.47297055  0.12500000  0.12500000  1
  I  I17  1  0.27702945  0.62500000  0.12500000  1
  I  I18  1  0.52702945  0.87500000  0.87500000  1
  I  I19  1  0.72297055  0.37500000  0.87500000  1
  I  I20  1  0.47297055  0.62500000  0.62500000  1
  I  I21  1  0.27702945  0.12500000  0.62500000  1
  I  I22  1  0.52702945  0.37500000  0.37500000  1
  I  I23  1  0.72297055  0.87500000  0.37500000  1
  I  I24  1  0.97297055  0.12500000  0.62500000  1
  I  I25  1  0.77702945  0.62500000  0.62500000  1
  I  I26  1  0.02702945  0.87500000  0.37500000  1
  I  I27  1  0.22297055  0.37500000  0.37500000  1
  I  I28  1  0.97297055  0.62500000  0.12500000  1
  I  I29  1  0.77702945  0.12500000  0.12500000  1
  I  I30  1  0.02702945  0.37500000  0.87500000  1
  I  I31  1  0.22297055  0.87500000  0.87500000  1
  Te  Te32  1  0.12500000  0.12500000  0.29861409  1
  Te  Te33  1  0.62500000  0.12500000  0.45138591  1
  Te  Te34  1  0.87500000  0.87500000  -0.29861409  1
  Te  Te35  1  0.37500000  0.87500000  0.54861409  1
  Te  Te36  1  0.12500000  0.62500000  0.79861409  1
  Te  Te37  1  0.62500000  0.62500000  0.95138591  1
  Te  Te38  1  0.87500000  1.37500000  0.20138591  1
  Te  Te39  1  0.37500000  1.37500000  1.04861409  1
  Te  Te40  1  0.62500000  0.12500000  0.79861409  1
  Te  Te41  1  1.12500000  0.12500000  0.95138591  1
  Te  Te42  1  1.37500000  0.87500000  0.20138591  1
  Te  Te43  1  0.87500000  0.87500000  1.04861409  1
  Te  Te44  1  0.62500000  0.62500000  0.29861409  1
  Te  Te45  1  1.12500000  0.62500000  0.45138591  1
  Te  Te46  1  1.37500000  1.37500000  -0.29861409  1
  Te  Te47  1  0.87500000  1.37500000  0.54861409  1
