# generated using pymatgen
data_KLi3Cl4
_symmetry_space_group_name_H-M   'P 1'
_cell_length_a   6.54391720
_cell_length_b   6.54391720
_cell_length_c   6.99937619
_cell_angle_alpha   90.00000000
_cell_angle_beta   90.00000000
_cell_angle_gamma   120.00000000
_symmetry_Int_Tables_number   1
_chemical_formula_structural   KLi3Cl4
_chemical_formula_sum   'K1 Li3 Cl4'
_cell_volume   259.57661150
_cell_formula_units_Z   1
loop_
 _symmetry_equiv_pos_site_id
 _symmetry_equiv_pos_as_xyz
  1  'x, y, z'
loop_
 _atom_site_type_symbol
 _atom_site_label
 _atom_site_symmetry_multiplicity
 _atom_site_fract_x
 _atom_site_fract_y
 _atom_site_fract_z
 _atom_site_occupancy
  Cl  Cl0  1  0.66666667  0.33333333  0.50000000  1
  Cl  Cl1  1  0.00000000  0.00000000  0.00000000  1
  Cl  Cl2  1  0.33333333  0.66666667  0.00000000  1
  Cl  Cl3  1  0.66666667  0.33333333  -0.00000000  1
  K  K4  1  0.00000000  0.00000000  0.50000000  1
  Li  Li5  1  0.84085822  -0.84085822  0.00000000  1
  Li  Li6  1  0.84085822  1.68171643  0.00000000  1
  Li  Li7  1  -1.68171643  -0.84085822  -0.00000000  1
