# generated using pymatgen
data_Li3TiIClO
_symmetry_space_group_name_H-M   'P 1'
_cell_length_a   4.25547981
_cell_length_b   5.06863279
_cell_length_c   3.61756991
_cell_angle_alpha   86.66740117
_cell_angle_beta   87.16409202
_cell_angle_gamma   87.95457175
_symmetry_Int_Tables_number   1
_chemical_formula_structural   Li3TiIClO
_chemical_formula_sum   'Li3 Ti1 I1 Cl1 O1'
_cell_volume   77.75954459
_cell_formula_units_Z   1
loop_
 _symmetry_equiv_pos_site_id
 _symmetry_equiv_pos_as_xyz
  1  'x, y, z'
loop_
 _atom_site_type_symbol
 _atom_site_label
 _atom_site_symmetry_multiplicity
 _atom_site_fract_x
 _atom_site_fract_y
 _atom_site_fract_z
 _atom_site_occupancy
  Li  Li0  1  0.00000000  0.00000000  0.00000000  1
  Li  Li1  1  0.50000000  0.50000000  0.50000000  1
  Li  Li2  1  0.50000000  0.50000000  0.00000000  1
  Ti  Ti3  1  0.50000000  0.00000000  0.50000000  1
  Cl  Cl4  1  0.00000000  0.50000000  0.50000000  1
  O  O5  1  0.18597734  0.25494300  0.71437190  1
  I  I6  1  0.99876721  0.82583150  0.94716744  1
