# generated using pymatgen
data_Li3BO3
_symmetry_space_group_name_H-M   'P 1'
_cell_length_a   18.09468199
_cell_length_b   18.09468199
_cell_length_c   15.10775433
_cell_angle_alpha   90.00000000
_cell_angle_beta   90.00000000
_cell_angle_gamma   120.00000000
_symmetry_Int_Tables_number   1
_chemical_formula_structural   Li3BO3
_chemical_formula_sum   'Li108 B36 O108'
_cell_volume   4283.83224410
_cell_formula_units_Z   36
loop_
 _symmetry_equiv_pos_site_id
 _symmetry_equiv_pos_as_xyz
  1  'x, y, z'
loop_
 _atom_site_type_symbol
 _atom_site_label
 _atom_site_symmetry_multiplicity
 _atom_site_fract_x
 _atom_site_fract_y
 _atom_site_fract_z
 _atom_site_occupancy
  B  B0  1  0.35648206  0.65334156  0.89213864  1
  B  B1  1  -0.65334156  -0.29685950  0.89213864  1
  B  B2  1  0.29685950  -0.35648206  0.89213864  1
  B  B3  1  0.65334156  0.35648206  -0.39213864  1
  B  B4  1  -0.29685950  -0.65334156  -0.39213864  1
  B  B5  1  -0.35648206  0.29685950  -0.39213864  1
  B  B6  1  -0.35648206  -0.65334156  -0.89213864  1
  B  B7  1  0.65334156  0.29685950  -0.89213864  1
  B  B8  1  -0.29685950  0.35648206  -0.89213864  1
  B  B9  1  -0.65334156  -0.35648206  1.39213864  1
  B  B10  1  0.29685950  0.65334156  1.39213864  1
  B  B11  1  0.35648206  -0.29685950  1.39213864  1
  B  B12  1  1.02314872  0.98667489  1.22547197  1
  B  B13  1  0.01332511  0.03647383  1.22547197  1
  B  B14  1  0.96352617  -0.02314872  1.22547197  1
  B  B15  1  1.32000822  0.68981539  -0.05880530  1
  B  B16  1  0.36980717  -0.32000822  -0.05880530  1
  B  B17  1  0.31018461  0.63019283  -0.05880530  1
  B  B18  1  0.31018461  -0.32000822  -0.55880530  1
  B  B19  1  1.32000822  0.63019283  -0.55880530  1
  B  B20  1  0.36980717  0.68981539  -0.55880530  1
  B  B21  1  0.01332511  -0.02314872  1.72547197  1
  B  B22  1  0.96352617  0.98667489  1.72547197  1
  B  B23  1  1.02314872  0.03647383  1.72547197  1
  B  B24  1  0.68981539  1.32000822  1.55880530  1
  B  B25  1  -0.32000822  0.36980717  1.55880530  1
  B  B26  1  0.63019283  0.31018461  1.55880530  1
  B  B27  1  0.98667489  1.02314872  0.27452803  1
  B  B28  1  0.03647383  0.01332511  0.27452803  1
  B  B29  1  -0.02314872  0.96352617  0.27452803  1
  B  B30  1  -0.02314872  0.01332511  -0.22547197  1
  B  B31  1  0.98667489  0.96352617  -0.22547197  1
  B  B32  1  0.03647383  1.02314872  -0.22547197  1
  B  B33  1  -0.32000822  0.31018461  2.05880530  1
  B  B34  1  0.63019283  1.32000822  2.05880530  1
  B  B35  1  0.68981539  0.36980717  2.05880530  1
  Li  Li36  1  0.07517439  0.53165304  0.98344696  1
  Li  Li37  1  0.46834696  0.54352135  0.98344696  1
  Li  Li38  1  0.45647865  0.92482561  0.98344696  1
  Li  Li39  1  0.53165304  0.07517439  0.51655304  1
  Li  Li40  1  0.54352135  0.46834696  0.51655304  1
  Li  Li41  1  0.92482561  0.45647865  0.51655304  1
  Li  Li42  1  0.92482561  0.46834696  0.01655304  1
  Li  Li43  1  0.53165304  0.45647865  0.01655304  1
  Li  Li44  1  0.54352135  0.07517439  0.01655304  1
  Li  Li45  1  0.46834696  0.92482561  0.48344696  1
  Li  Li46  1  0.45647865  0.53165304  0.48344696  1
  Li  Li47  1  0.07517439  0.54352135  0.48344696  1
  Li  Li48  1  0.74184106  0.86498637  0.31678030  1
  Li  Li49  1  0.13501363  0.87685468  0.31678030  1
  Li  Li50  1  0.12314532  0.25815894  0.31678030  1
  Li  Li51  1  0.19831971  0.40850772  0.84988637  1
  Li  Li52  1  0.21018801  0.80168029  0.84988637  1
  Li  Li53  1  0.59149228  0.78981199  0.84988637  1
  Li  Li54  1  0.59149228  0.80168029  0.34988637  1
  Li  Li55  1  0.19831971  0.78981199  0.34988637  1
  Li  Li56  1  0.21018801  0.40850772  0.34988637  1
  Li  Li57  1  0.13501363  0.25815894  0.81678030  1
  Li  Li58  1  0.12314532  0.86498637  0.81678030  1
  Li  Li59  1  0.74184106  0.87685468  0.81678030  1
  Li  Li60  1  0.40850772  0.19831971  0.65011363  1
  Li  Li61  1  0.80168029  0.21018801  0.65011363  1
  Li  Li62  1  0.78981199  0.59149228  0.65011363  1
  Li  Li63  1  0.86498637  0.74184106  0.18321970  1
  Li  Li64  1  0.87685468  0.13501363  0.18321970  1
  Li  Li65  1  0.25815894  0.12314532  0.18321970  1
  Li  Li66  1  0.25815894  0.13501363  0.68321970  1
  Li  Li67  1  0.86498637  0.12314532  0.68321970  1
  Li  Li68  1  0.87685468  0.74184106  0.68321970  1
  Li  Li69  1  0.80168029  0.59149228  0.15011363  1
  Li  Li70  1  0.78981199  0.19831971  0.15011363  1
  Li  Li71  1  0.40850772  0.21018801  0.15011363  1
  Li  Li72  1  0.06900822  0.67424560  0.86023867  1
  Li  Li73  1  0.32575440  0.39476261  0.86023867  1
  Li  Li74  1  0.60523739  0.93099178  0.86023867  1
  Li  Li75  1  0.67424560  0.06900822  0.63976133  1
  Li  Li76  1  0.39476261  0.32575440  0.63976133  1
  Li  Li77  1  0.93099178  0.60523739  0.63976133  1
  Li  Li78  1  0.93099178  0.32575440  0.13976133  1
  Li  Li79  1  0.67424560  0.60523739  0.13976133  1
  Li  Li80  1  0.39476261  0.06900822  0.13976133  1
  Li  Li81  1  0.32575440  0.93099178  0.36023867  1
  Li  Li82  1  0.60523739  0.67424560  0.36023867  1
  Li  Li83  1  0.06900822  0.39476261  0.36023867  1
  Li  Li84  1  0.73567488  0.00757894  0.19357200  1
  Li  Li85  1  0.99242106  0.72809595  0.19357200  1
  Li  Li86  1  0.27190405  0.26432512  0.19357200  1
  Li  Li87  1  0.34091227  0.40234155  0.97309467  1
  Li  Li88  1  0.06142928  0.65908773  0.97309467  1
  Li  Li89  1  0.59765845  0.93857072  0.97309467  1
  Li  Li90  1  0.59765845  0.65908773  0.47309467  1
  Li  Li91  1  0.34091227  0.93857072  0.47309467  1
  Li  Li92  1  0.06142928  0.40234155  0.47309467  1
  Li  Li93  1  0.99242106  0.26432512  0.69357200  1
  Li  Li94  1  0.27190405  0.00757894  0.69357200  1
  Li  Li95  1  0.73567488  0.72809595  0.69357200  1
  Li  Li96  1  0.40234155  0.34091227  0.52690533  1
  Li  Li97  1  0.65908773  0.06142928  0.52690533  1
  Li  Li98  1  0.93857072  0.59765845  0.52690533  1
  Li  Li99  1  0.00757894  0.73567488  0.30642800  1
  Li  Li100  1  0.72809595  0.99242106  0.30642800  1
  Li  Li101  1  0.26432512  0.27190405  0.30642800  1
  Li  Li102  1  0.26432512  0.99242106  0.80642800  1
  Li  Li103  1  0.00757894  0.27190405  0.80642800  1
  Li  Li104  1  0.72809595  0.73567488  0.80642800  1
  Li  Li105  1  0.65908773  0.59765845  0.02690533  1
  Li  Li106  1  0.93857072  0.34091227  0.02690533  1
  Li  Li107  1  0.40234155  0.06142928  0.02690533  1
  Li  Li108  1  0.63498633  0.99147791  0.05233325  1
  Li  Li109  1  0.00852209  0.64350842  0.05233325  1
  Li  Li110  1  0.35649158  0.36501367  0.05233325  1
  Li  Li111  1  0.99147791  0.63498633  0.44766675  1
  Li  Li112  1  0.64350842  0.00852209  0.44766675  1
  Li  Li113  1  0.36501367  0.35649158  0.44766675  1
  Li  Li114  1  0.36501367  0.00852209  0.94766675  1
  Li  Li115  1  0.99147791  0.35649158  0.94766675  1
  Li  Li116  1  0.64350842  0.63498633  0.94766675  1
  Li  Li117  1  0.00852209  0.36501367  0.55233325  1
  Li  Li118  1  0.35649158  0.99147791  0.55233325  1
  Li  Li119  1  0.63498633  0.64350842  0.55233325  1
  Li  Li120  1  0.30165300  0.32481125  0.38566658  1
  Li  Li121  1  0.67518875  0.97684175  0.38566658  1
  Li  Li122  1  0.02315825  0.69834700  0.38566658  1
  Li  Li123  1  0.65814458  0.96831966  0.78100009  1
  Li  Li124  1  0.31017508  0.34185542  0.78100009  1
  Li  Li125  1  0.03168034  0.68982492  0.78100009  1
  Li  Li126  1  0.03168034  0.34185542  0.28100009  1
  Li  Li127  1  0.65814458  0.68982492  0.28100009  1
  Li  Li128  1  0.31017508  0.96831966  0.28100009  1
  Li  Li129  1  0.67518875  0.69834700  0.88566658  1
  Li  Li130  1  0.02315825  0.32481125  0.88566658  1
  Li  Li131  1  0.30165300  0.97684175  0.88566658  1
  Li  Li132  1  0.96831966  0.65814458  0.71899991  1
  Li  Li133  1  0.34185542  0.31017508  0.71899991  1
  Li  Li134  1  0.68982492  0.03168034  0.71899991  1
  Li  Li135  1  0.32481125  0.30165300  0.11433342  1
  Li  Li136  1  0.97684175  0.67518875  0.11433342  1
  Li  Li137  1  0.69834700  0.02315825  0.11433342  1
  Li  Li138  1  0.69834700  0.67518875  0.61433342  1
  Li  Li139  1  0.32481125  0.02315825  0.61433342  1
  Li  Li140  1  0.97684175  0.30165300  0.61433342  1
  Li  Li141  1  0.34185542  0.03168034  0.21899991  1
  Li  Li142  1  0.68982492  0.65814458  0.21899991  1
  Li  Li143  1  0.96831966  0.31017508  0.21899991  1
  O  O144  1  0.68420534  0.17919846  0.12501887  1
  O  O145  1  0.82080154  0.50500687  0.12501887  1
  O  O146  1  0.49499313  0.31579466  0.12501887  1
  O  O147  1  0.17919846  0.68420534  0.37498113  1
  O  O148  1  0.50500687  0.82080154  0.37498113  1
  O  O149  1  0.31579466  0.49499313  0.37498113  1
  O  O150  1  0.31579466  0.82080154  0.87498113  1
  O  O151  1  0.17919846  0.49499313  0.87498113  1
  O  O152  1  0.50500687  0.68420534  0.87498113  1
  O  O153  1  0.82080154  0.31579466  0.62501887  1
  O  O154  1  0.49499313  0.17919846  0.62501887  1
  O  O155  1  0.68420534  0.50500687  0.62501887  1
  O  O156  1  0.35087200  0.51253179  0.45835221  1
  O  O157  1  0.48746821  0.83834021  0.45835221  1
  O  O158  1  0.16165979  0.64912800  0.45835221  1
  O  O159  1  0.84586513  0.01753867  0.70831446  1
  O  O160  1  0.17167354  0.15413487  0.70831446  1
  O  O161  1  0.98246133  0.82832646  0.70831446  1
  O  O162  1  0.98246133  0.15413487  0.20831446  1
  O  O163  1  0.84586513  0.82832646  0.20831446  1
  O  O164  1  0.17167354  0.01753867  0.20831446  1
  O  O165  1  0.48746821  0.64912800  0.95835221  1
  O  O166  1  0.16165979  0.51253179  0.95835221  1
  O  O167  1  0.35087200  0.83834021  0.95835221  1
  O  O168  1  0.01753867  0.84586513  0.79168554  1
  O  O169  1  0.15413487  0.17167354  0.79168554  1
  O  O170  1  0.82832646  0.98246133  0.79168554  1
  O  O171  1  0.51253179  0.35087200  0.04164779  1
  O  O172  1  0.83834021  0.48746821  0.04164779  1
  O  O173  1  0.64912800  0.16165979  0.04164779  1
  O  O174  1  0.64912800  0.48746821  0.54164779  1
  O  O175  1  0.51253179  0.16165979  0.54164779  1
  O  O176  1  0.83834021  0.35087200  0.54164779  1
  O  O177  1  0.15413487  0.98246133  0.29168554  1
  O  O178  1  0.82832646  0.84586513  0.29168554  1
  O  O179  1  0.01753867  0.17167354  0.29168554  1
  O  O180  1  0.50000000  0.00000000  -0.00000000  1
  O  O181  1  0.00000000  0.50000000  0.00000000  1
  O  O182  1  0.50000000  0.50000000  -0.00000000  1
  O  O183  1  0.00000000  0.50000000  0.50000000  1
  O  O184  1  0.50000000  0.00000000  0.50000000  1
  O  O185  1  0.50000000  0.50000000  0.50000000  1
  O  O186  1  0.16666667  0.33333333  0.33333333  1
  O  O187  1  0.66666667  0.83333333  0.33333333  1
  O  O188  1  0.16666667  0.83333333  0.33333333  1
  O  O189  1  0.66666667  0.83333333  0.83333333  1
  O  O190  1  0.16666667  0.33333333  0.83333333  1
  O  O191  1  0.16666667  0.83333333  0.83333333  1
  O  O192  1  0.83333333  0.66666667  0.66666667  1
  O  O193  1  0.33333333  0.16666667  0.66666667  1
  O  O194  1  0.83333333  0.16666667  0.66666667  1
  O  O195  1  0.33333333  0.16666667  0.16666667  1
  O  O196  1  0.83333333  0.66666667  0.16666667  1
  O  O197  1  0.83333333  0.16666667  0.16666667  1
  O  O198  1  0.15612204  0.74637509  0.68623064  1
  O  O199  1  0.25362491  0.40974695  0.68623064  1
  O  O200  1  0.59025305  0.84387796  0.68623064  1
  O  O201  1  0.74637509  0.15612204  0.81376936  1
  O  O202  1  0.40974695  0.25362491  0.81376936  1
  O  O203  1  0.84387796  0.59025305  0.81376936  1
  O  O204  1  0.84387796  0.25362491  0.31376936  1
  O  O205  1  0.74637509  0.59025305  0.31376936  1
  O  O206  1  0.40974695  0.15612204  0.31376936  1
  O  O207  1  0.25362491  0.84387796  0.18623064  1
  O  O208  1  0.59025305  0.74637509  0.18623064  1
  O  O209  1  0.15612204  0.40974695  0.18623064  1
  O  O210  1  0.82278871  0.07970843  0.01956398  1
  O  O211  1  0.92029157  0.74308028  0.01956398  1
  O  O212  1  0.25691972  0.17721129  0.01956398  1
  O  O213  1  0.41304176  0.48945538  0.14710269  1
  O  O214  1  0.07641362  0.58695824  0.14710269  1
  O  O215  1  0.51054462  0.92358638  0.14710269  1
  O  O216  1  0.51054462  0.58695824  0.64710269  1
  O  O217  1  0.41304176  0.92358638  0.64710269  1
  O  O218  1  0.07641362  0.48945538  0.64710269  1
  O  O219  1  0.92029157  0.17721129  0.51956398  1
  O  O220  1  0.25691972  0.07970843  0.51956398  1
  O  O221  1  0.82278871  0.74308028  0.51956398  1
  O  O222  1  0.48945538  0.41304176  0.35289731  1
  O  O223  1  0.58695824  0.07641362  0.35289731  1
  O  O224  1  0.92358638  0.51054462  0.35289731  1
  O  O225  1  0.07970843  0.82278871  0.48043602  1
  O  O226  1  0.74308028  0.92029157  0.48043602  1
  O  O227  1  0.17721129  0.25691972  0.48043602  1
  O  O228  1  0.17721129  0.92029157  0.98043602  1
  O  O229  1  0.07970843  0.25691972  0.98043602  1
  O  O230  1  0.74308028  0.82278871  0.98043602  1
  O  O231  1  0.58695824  0.51054462  0.85289731  1
  O  O232  1  0.92358638  0.41304176  0.85289731  1
  O  O233  1  0.48945538  0.07641362  0.85289731  1
  O  O234  1  0.00000000  0.00000000  0.55102148  1
  O  O235  1  0.00000000  0.00000000  0.94897852  1
  O  O236  1  0.00000000  0.00000000  0.44897852  1
  O  O237  1  0.00000000  0.00000000  0.05102148  1
  O  O238  1  0.66666667  0.33333333  0.88435481  1
  O  O239  1  0.66666667  0.33333333  0.28231185  1
  O  O240  1  0.66666667  0.33333333  0.78231185  1
  O  O241  1  0.66666667  0.33333333  0.38435481  1
  O  O242  1  0.33333333  0.66666667  0.21768815  1
  O  O243  1  0.33333333  0.66666667  0.61564519  1
  O  O244  1  0.33333333  0.66666667  0.11564519  1
  O  O245  1  0.33333333  0.66666667  0.71768815  1
  O  O246  1  0.00000000  0.00000000  0.00000000  1
  O  O247  1  0.00000000  0.00000000  0.50000000  1
  O  O248  1  0.66666667  0.33333333  0.33333333  1
  O  O249  1  0.66666667  0.33333333  0.83333333  1
  O  O250  1  0.33333333  0.66666667  0.66666667  1
  O  O251  1  0.33333333  0.66666667  0.16666667  1
