# generated using pymatgen
data_LiAlI4
_symmetry_space_group_name_H-M   'P 1'
_cell_length_a   10.80673257
_cell_length_b   15.51777354
_cell_length_c   17.03768288
_cell_angle_alpha   90.00000000
_cell_angle_beta   90.00000000
_cell_angle_gamma   90.00000000
_symmetry_Int_Tables_number   1
_chemical_formula_structural   LiAlI4
_chemical_formula_sum   'Li16 Al16 I64'
_cell_volume   2857.15857407
_cell_formula_units_Z   16
loop_
 _symmetry_equiv_pos_site_id
 _symmetry_equiv_pos_as_xyz
  1  'x, y, z'
loop_
 _atom_site_type_symbol
 _atom_site_label
 _atom_site_symmetry_multiplicity
 _atom_site_fract_x
 _atom_site_fract_y
 _atom_site_fract_z
 _atom_site_occupancy
  Al  Al0  1  0.50000000  0.50000000  0.50000000  1
  Al  Al1  1  0.25000000  0.25000000  0.50000000  1
  Al  Al2  1  0.25000000  0.50000000  0.25000000  1
  Al  Al3  1  0.50000000  0.25000000  0.25000000  1
  Al  Al4  1  0.50000000  0.00000000  0.00000000  1
  Al  Al5  1  0.25000000  0.75000000  -0.00000000  1
  Al  Al6  1  0.25000000  0.00000000  0.75000000  1
  Al  Al7  1  0.50000000  0.75000000  0.75000000  1
  Al  Al8  1  0.00000000  0.50000000  -0.00000000  1
  Al  Al9  1  0.75000000  0.25000000  -0.00000000  1
  Al  Al10  1  0.75000000  0.50000000  0.75000000  1
  Al  Al11  1  0.00000000  0.25000000  0.75000000  1
  Al  Al12  1  0.00000000  0.00000000  0.50000000  1
  Al  Al13  1  0.75000000  0.75000000  0.50000000  1
  Al  Al14  1  0.75000000  0.00000000  0.25000000  1
  Al  Al15  1  0.00000000  0.75000000  0.25000000  1
  I  I16  1  0.41127126  0.74620142  0.01915269  1
  I  I17  1  0.33872874  0.00379858  0.01915269  1
  I  I18  1  0.33872874  0.74620142  0.73084731  1
  I  I19  1  0.41127126  0.00379858  0.73084731  1
  I  I20  1  -0.41127126  -0.74620142  -0.01915269  1
  I  I21  1  0.66127126  0.99620142  -0.01915269  1
  I  I22  1  0.66127126  -0.74620142  0.26915269  1
  I  I23  1  -0.41127126  0.99620142  0.26915269  1
  I  I24  1  0.41127126  1.24620142  0.51915269  1
  I  I25  1  0.33872874  0.50379858  0.51915269  1
  I  I26  1  0.33872874  1.24620142  1.23084731  1
  I  I27  1  0.41127126  0.50379858  1.23084731  1
  I  I28  1  -0.41127126  -0.24620142  0.48084731  1
  I  I29  1  0.66127126  1.49620142  0.48084731  1
  I  I30  1  0.66127126  -0.24620142  0.76915269  1
  I  I31  1  -0.41127126  1.49620142  0.76915269  1
  I  I32  1  0.91127126  0.74620142  0.51915269  1
  I  I33  1  0.83872874  0.00379858  0.51915269  1
  I  I34  1  0.83872874  0.74620142  1.23084731  1
  I  I35  1  0.91127126  0.00379858  1.23084731  1
  I  I36  1  0.08872874  -0.74620142  0.48084731  1
  I  I37  1  1.16127126  0.99620142  0.48084731  1
  I  I38  1  1.16127126  -0.74620142  0.76915269  1
  I  I39  1  0.08872874  0.99620142  0.76915269  1
  I  I40  1  0.91127126  1.24620142  0.01915269  1
  I  I41  1  0.83872874  0.50379858  0.01915269  1
  I  I42  1  0.83872874  1.24620142  0.73084731  1
  I  I43  1  0.91127126  0.50379858  0.73084731  1
  I  I44  1  0.08872874  -0.24620142  -0.01915269  1
  I  I45  1  1.16127126  1.49620142  -0.01915269  1
  I  I46  1  1.16127126  -0.24620142  0.26915269  1
  I  I47  1  0.08872874  1.49620142  0.26915269  1
  I  I48  1  0.53967576  0.25488441  0.06982120  1
  I  I49  1  0.21032424  0.49511559  0.06982120  1
  I  I50  1  0.21032424  0.25488441  0.68017880  1
  I  I51  1  0.53967576  0.49511559  0.68017880  1
  I  I52  1  0.46032424  0.74511559  0.93017880  1
  I  I53  1  0.78967576  0.50488441  0.93017880  1
  I  I54  1  0.78967576  0.74511559  0.31982120  1
  I  I55  1  0.46032424  0.50488441  0.31982120  1
  I  I56  1  0.53967576  0.75488441  0.56982120  1
  I  I57  1  0.21032424  0.99511559  0.56982120  1
  I  I58  1  0.21032424  0.75488441  0.18017880  1
  I  I59  1  0.53967576  0.99511559  0.18017880  1
  I  I60  1  0.46032424  0.24511559  0.43017880  1
  I  I61  1  0.78967576  0.00488441  0.43017880  1
  I  I62  1  0.78967576  0.24511559  0.81982120  1
  I  I63  1  0.46032424  0.00488441  0.81982120  1
  I  I64  1  0.03967576  0.25488441  0.56982120  1
  I  I65  1  0.71032424  0.49511559  0.56982120  1
  I  I66  1  0.71032424  0.25488441  0.18017880  1
  I  I67  1  0.03967576  0.49511559  0.18017880  1
  I  I68  1  0.96032424  0.74511559  0.43017880  1
  I  I69  1  0.28967576  0.50488441  0.43017880  1
  I  I70  1  0.28967576  0.74511559  0.81982120  1
  I  I71  1  0.96032424  0.50488441  0.81982120  1
  I  I72  1  0.03967576  0.75488441  0.06982120  1
  I  I73  1  0.71032424  0.99511559  0.06982120  1
  I  I74  1  0.71032424  0.75488441  0.68017880  1
  I  I75  1  0.03967576  0.99511559  0.68017880  1
  I  I76  1  0.96032424  0.24511559  0.93017880  1
  I  I77  1  0.28967576  0.00488441  0.93017880  1
  I  I78  1  0.28967576  0.24511559  0.31982120  1
  I  I79  1  0.96032424  0.00488441  0.31982120  1
  Li  Li80  1  0.12500000  0.12500000  0.43119853  1
  Li  Li81  1  0.62500000  0.12500000  0.31880147  1
  Li  Li82  1  0.87500000  0.87500000  0.56880147  1
  Li  Li83  1  0.37500000  0.87500000  0.68119853  1
  Li  Li84  1  0.12500000  0.62500000  0.93119853  1
  Li  Li85  1  0.62500000  0.62500000  0.81880147  1
  Li  Li86  1  0.87500000  0.37500000  0.06880147  1
  Li  Li87  1  0.37500000  0.37500000  0.18119853  1
  Li  Li88  1  0.62500000  0.12500000  0.93119853  1
  Li  Li89  1  0.12500000  0.12500000  0.81880147  1
  Li  Li90  1  0.37500000  0.87500000  0.06880147  1
  Li  Li91  1  0.87500000  0.87500000  0.18119853  1
  Li  Li92  1  0.62500000  0.62500000  0.43119853  1
  Li  Li93  1  0.12500000  0.62500000  0.31880147  1
  Li  Li94  1  0.37500000  0.37500000  0.56880147  1
  Li  Li95  1  0.87500000  0.37500000  0.68119853  1
