# generated using pymatgen
data_Li3SeCl
_symmetry_space_group_name_H-M   'P 1'
_cell_length_a   20.98321093
_cell_length_b   20.98321093
_cell_length_c   20.98321093
_cell_angle_alpha   90.00000000
_cell_angle_beta   90.00000000
_cell_angle_gamma   90.00000000
_symmetry_Int_Tables_number   1
_chemical_formula_structural   Li3SeCl
_chemical_formula_sum   'Li288 Se96 Cl96'
_cell_volume   9238.80580707
_cell_formula_units_Z   96
loop_
 _symmetry_equiv_pos_site_id
 _symmetry_equiv_pos_as_xyz
  1  'x, y, z'
loop_
 _atom_site_type_symbol
 _atom_site_label
 _atom_site_symmetry_multiplicity
 _atom_site_fract_x
 _atom_site_fract_y
 _atom_site_fract_z
 _atom_site_occupancy
  Cl  Cl0  1  0.00000000  0.89078726  0.34775744  1
  Cl  Cl1  1  0.00000000  -0.89078726  0.34775744  1
  Cl  Cl2  1  0.00000000  0.89078726  -0.34775744  1
  Cl  Cl3  1  0.00000000  -0.89078726  -0.34775744  1
  Cl  Cl4  1  0.34775744  -0.00000000  0.89078726  1
  Cl  Cl5  1  0.34775744  -0.00000000  -0.89078726  1
  Cl  Cl6  1  -0.34775744  0.00000000  0.89078726  1
  Cl  Cl7  1  -0.34775744  0.00000000  -0.89078726  1
  Cl  Cl8  1  0.89078726  0.34775744  0.00000000  1
  Cl  Cl9  1  -0.89078726  0.34775744  -0.00000000  1
  Cl  Cl10  1  0.89078726  -0.34775744  0.00000000  1
  Cl  Cl11  1  -0.89078726  -0.34775744  -0.00000000  1
  Cl  Cl12  1  0.89078726  0.00000000  -0.34775744  1
  Cl  Cl13  1  -0.89078726  -0.00000000  -0.34775744  1
  Cl  Cl14  1  0.89078726  0.00000000  0.34775744  1
  Cl  Cl15  1  -0.89078726  -0.00000000  0.34775744  1
  Cl  Cl16  1  0.00000000  0.34775744  -0.89078726  1
  Cl  Cl17  1  0.00000000  0.34775744  0.89078726  1
  Cl  Cl18  1  0.00000000  -0.34775744  -0.89078726  1
  Cl  Cl19  1  0.00000000  -0.34775744  0.89078726  1
  Cl  Cl20  1  0.34775744  0.89078726  0.00000000  1
  Cl  Cl21  1  0.34775744  -0.89078726  -0.00000000  1
  Cl  Cl22  1  -0.34775744  0.89078726  0.00000000  1
  Cl  Cl23  1  -0.34775744  -0.89078726  -0.00000000  1
  Cl  Cl24  1  0.00000000  1.39078726  0.84775744  1
  Cl  Cl25  1  0.00000000  -0.39078726  0.84775744  1
  Cl  Cl26  1  0.00000000  1.39078726  0.15224256  1
  Cl  Cl27  1  0.00000000  -0.39078726  0.15224256  1
  Cl  Cl28  1  0.34775744  0.50000000  1.39078726  1
  Cl  Cl29  1  0.34775744  0.50000000  -0.39078726  1
  Cl  Cl30  1  -0.34775744  0.50000000  1.39078726  1
  Cl  Cl31  1  -0.34775744  0.50000000  -0.39078726  1
  Cl  Cl32  1  0.89078726  0.84775744  0.50000000  1
  Cl  Cl33  1  -0.89078726  0.84775744  0.50000000  1
  Cl  Cl34  1  0.89078726  0.15224256  0.50000000  1
  Cl  Cl35  1  -0.89078726  0.15224256  0.50000000  1
  Cl  Cl36  1  0.89078726  0.50000000  0.15224256  1
  Cl  Cl37  1  -0.89078726  0.50000000  0.15224256  1
  Cl  Cl38  1  0.89078726  0.50000000  0.84775744  1
  Cl  Cl39  1  -0.89078726  0.50000000  0.84775744  1
  Cl  Cl40  1  0.00000000  0.84775744  -0.39078726  1
  Cl  Cl41  1  0.00000000  0.84775744  1.39078726  1
  Cl  Cl42  1  0.00000000  0.15224256  -0.39078726  1
  Cl  Cl43  1  0.00000000  0.15224256  1.39078726  1
  Cl  Cl44  1  0.34775744  1.39078726  0.50000000  1
  Cl  Cl45  1  0.34775744  -0.39078726  0.50000000  1
  Cl  Cl46  1  -0.34775744  1.39078726  0.50000000  1
  Cl  Cl47  1  -0.34775744  -0.39078726  0.50000000  1
  Cl  Cl48  1  0.50000000  0.89078726  0.84775744  1
  Cl  Cl49  1  0.50000000  -0.89078726  0.84775744  1
  Cl  Cl50  1  0.50000000  0.89078726  0.15224256  1
  Cl  Cl51  1  0.50000000  -0.89078726  0.15224256  1
  Cl  Cl52  1  0.84775744  0.00000000  1.39078726  1
  Cl  Cl53  1  0.84775744  0.00000000  -0.39078726  1
  Cl  Cl54  1  0.15224256  0.00000000  1.39078726  1
  Cl  Cl55  1  0.15224256  0.00000000  -0.39078726  1
  Cl  Cl56  1  1.39078726  0.34775744  0.50000000  1
  Cl  Cl57  1  -0.39078726  0.34775744  0.50000000  1
  Cl  Cl58  1  1.39078726  -0.34775744  0.50000000  1
  Cl  Cl59  1  -0.39078726  -0.34775744  0.50000000  1
  Cl  Cl60  1  1.39078726  -0.00000000  0.15224256  1
  Cl  Cl61  1  -0.39078726  0.00000000  0.15224256  1
  Cl  Cl62  1  1.39078726  -0.00000000  0.84775744  1
  Cl  Cl63  1  -0.39078726  0.00000000  0.84775744  1
  Cl  Cl64  1  0.50000000  0.34775744  -0.39078726  1
  Cl  Cl65  1  0.50000000  0.34775744  1.39078726  1
  Cl  Cl66  1  0.50000000  -0.34775744  -0.39078726  1
  Cl  Cl67  1  0.50000000  -0.34775744  1.39078726  1
  Cl  Cl68  1  0.84775744  0.89078726  0.50000000  1
  Cl  Cl69  1  0.84775744  -0.89078726  0.50000000  1
  Cl  Cl70  1  0.15224256  0.89078726  0.50000000  1
  Cl  Cl71  1  0.15224256  -0.89078726  0.50000000  1
  Cl  Cl72  1  0.50000000  1.39078726  0.34775744  1
  Cl  Cl73  1  0.50000000  -0.39078726  0.34775744  1
  Cl  Cl74  1  0.50000000  1.39078726  -0.34775744  1
  Cl  Cl75  1  0.50000000  -0.39078726  -0.34775744  1
  Cl  Cl76  1  0.84775744  0.50000000  0.89078726  1
  Cl  Cl77  1  0.84775744  0.50000000  -0.89078726  1
  Cl  Cl78  1  0.15224256  0.50000000  0.89078726  1
  Cl  Cl79  1  0.15224256  0.50000000  -0.89078726  1
  Cl  Cl80  1  1.39078726  0.84775744  -0.00000000  1
  Cl  Cl81  1  -0.39078726  0.84775744  0.00000000  1
  Cl  Cl82  1  1.39078726  0.15224256  0.00000000  1
  Cl  Cl83  1  -0.39078726  0.15224256  0.00000000  1
  Cl  Cl84  1  1.39078726  0.50000000  -0.34775744  1
  Cl  Cl85  1  -0.39078726  0.50000000  -0.34775744  1
  Cl  Cl86  1  1.39078726  0.50000000  0.34775744  1
  Cl  Cl87  1  -0.39078726  0.50000000  0.34775744  1
  Cl  Cl88  1  0.50000000  0.84775744  -0.89078726  1
  Cl  Cl89  1  0.50000000  0.84775744  0.89078726  1
  Cl  Cl90  1  0.50000000  0.15224256  -0.89078726  1
  Cl  Cl91  1  0.50000000  0.15224256  0.89078726  1
  Cl  Cl92  1  0.84775744  1.39078726  -0.00000000  1
  Cl  Cl93  1  0.84775744  -0.39078726  0.00000000  1
  Cl  Cl94  1  0.15224256  1.39078726  0.00000000  1
  Cl  Cl95  1  0.15224256  -0.39078726  0.00000000  1
  Li  Li96  1  0.00000000  0.34248950  0.73509425  1
  Li  Li97  1  0.00000000  0.65751050  0.73509425  1
  Li  Li98  1  0.00000000  0.34248950  0.26490575  1
  Li  Li99  1  0.00000000  0.65751050  0.26490575  1
  Li  Li100  1  0.73509425  0.00000000  0.34248950  1
  Li  Li101  1  0.73509425  0.00000000  0.65751050  1
  Li  Li102  1  0.26490575  0.00000000  0.34248950  1
  Li  Li103  1  0.26490575  0.00000000  0.65751050  1
  Li  Li104  1  0.34248950  0.73509425  0.00000000  1
  Li  Li105  1  0.65751050  0.73509425  0.00000000  1
  Li  Li106  1  0.34248950  0.26490575  0.00000000  1
  Li  Li107  1  0.65751050  0.26490575  0.00000000  1
  Li  Li108  1  0.34248950  0.00000000  0.26490575  1
  Li  Li109  1  0.65751050  0.00000000  0.26490575  1
  Li  Li110  1  0.34248950  0.00000000  0.73509425  1
  Li  Li111  1  0.65751050  0.00000000  0.73509425  1
  Li  Li112  1  0.00000000  0.73509425  0.65751050  1
  Li  Li113  1  0.00000000  0.73509425  0.34248950  1
  Li  Li114  1  0.00000000  0.26490575  0.65751050  1
  Li  Li115  1  0.00000000  0.26490575  0.34248950  1
  Li  Li116  1  0.73509425  0.34248950  -0.00000000  1
  Li  Li117  1  0.73509425  0.65751050  0.00000000  1
  Li  Li118  1  0.26490575  0.34248950  0.00000000  1
  Li  Li119  1  0.26490575  0.65751050  0.00000000  1
  Li  Li120  1  0.00000000  0.84248950  0.23509425  1
  Li  Li121  1  0.00000000  0.15751050  0.23509425  1
  Li  Li122  1  0.00000000  0.84248950  0.76490575  1
  Li  Li123  1  0.00000000  0.15751050  0.76490575  1
  Li  Li124  1  0.73509425  0.50000000  0.84248950  1
  Li  Li125  1  0.73509425  0.50000000  0.15751050  1
  Li  Li126  1  0.26490575  0.50000000  0.84248950  1
  Li  Li127  1  0.26490575  0.50000000  0.15751050  1
  Li  Li128  1  0.34248950  0.23509425  0.50000000  1
  Li  Li129  1  0.65751050  0.23509425  0.50000000  1
  Li  Li130  1  0.34248950  0.76490575  0.50000000  1
  Li  Li131  1  0.65751050  0.76490575  0.50000000  1
  Li  Li132  1  0.34248950  0.50000000  0.76490575  1
  Li  Li133  1  0.65751050  0.50000000  0.76490575  1
  Li  Li134  1  0.34248950  0.50000000  0.23509425  1
  Li  Li135  1  0.65751050  0.50000000  0.23509425  1
  Li  Li136  1  0.00000000  0.23509425  0.15751050  1
  Li  Li137  1  0.00000000  0.23509425  0.84248950  1
  Li  Li138  1  0.00000000  0.76490575  0.15751050  1
  Li  Li139  1  0.00000000  0.76490575  0.84248950  1
  Li  Li140  1  0.73509425  0.84248950  0.50000000  1
  Li  Li141  1  0.73509425  0.15751050  0.50000000  1
  Li  Li142  1  0.26490575  0.84248950  0.50000000  1
  Li  Li143  1  0.26490575  0.15751050  0.50000000  1
  Li  Li144  1  0.50000000  0.34248950  0.23509425  1
  Li  Li145  1  0.50000000  0.65751050  0.23509425  1
  Li  Li146  1  0.50000000  0.34248950  0.76490575  1
  Li  Li147  1  0.50000000  0.65751050  0.76490575  1
  Li  Li148  1  0.23509425  0.00000000  0.84248950  1
  Li  Li149  1  0.23509425  0.00000000  0.15751050  1
  Li  Li150  1  0.76490575  0.00000000  0.84248950  1
  Li  Li151  1  0.76490575  0.00000000  0.15751050  1
  Li  Li152  1  0.84248950  0.73509425  0.50000000  1
  Li  Li153  1  0.15751050  0.73509425  0.50000000  1
  Li  Li154  1  0.84248950  0.26490575  0.50000000  1
  Li  Li155  1  0.15751050  0.26490575  0.50000000  1
  Li  Li156  1  0.84248950  0.00000000  0.76490575  1
  Li  Li157  1  0.15751050  0.00000000  0.76490575  1
  Li  Li158  1  0.84248950  0.00000000  0.23509425  1
  Li  Li159  1  0.15751050  0.00000000  0.23509425  1
  Li  Li160  1  0.50000000  0.73509425  0.15751050  1
  Li  Li161  1  0.50000000  0.73509425  0.84248950  1
  Li  Li162  1  0.50000000  0.26490575  0.15751050  1
  Li  Li163  1  0.50000000  0.26490575  0.84248950  1
  Li  Li164  1  0.23509425  0.34248950  0.50000000  1
  Li  Li165  1  0.23509425  0.65751050  0.50000000  1
  Li  Li166  1  0.76490575  0.34248950  0.50000000  1
  Li  Li167  1  0.76490575  0.65751050  0.50000000  1
  Li  Li168  1  0.50000000  0.84248950  0.73509425  1
  Li  Li169  1  0.50000000  0.15751050  0.73509425  1
  Li  Li170  1  0.50000000  0.84248950  0.26490575  1
  Li  Li171  1  0.50000000  0.15751050  0.26490575  1
  Li  Li172  1  0.23509425  0.50000000  0.34248950  1
  Li  Li173  1  0.23509425  0.50000000  0.65751050  1
  Li  Li174  1  0.76490575  0.50000000  0.34248950  1
  Li  Li175  1  0.76490575  0.50000000  0.65751050  1
  Li  Li176  1  0.84248950  0.23509425  0.00000000  1
  Li  Li177  1  0.15751050  0.23509425  0.00000000  1
  Li  Li178  1  0.84248950  0.76490575  0.00000000  1
  Li  Li179  1  0.15751050  0.76490575  0.00000000  1
  Li  Li180  1  0.84248950  0.50000000  0.26490575  1
  Li  Li181  1  0.15751050  0.50000000  0.26490575  1
  Li  Li182  1  0.84248950  0.50000000  0.73509425  1
  Li  Li183  1  0.15751050  0.50000000  0.73509425  1
  Li  Li184  1  0.50000000  0.23509425  0.65751050  1
  Li  Li185  1  0.50000000  0.23509425  0.34248950  1
  Li  Li186  1  0.50000000  0.76490575  0.65751050  1
  Li  Li187  1  0.50000000  0.76490575  0.34248950  1
  Li  Li188  1  0.23509425  0.84248950  0.00000000  1
  Li  Li189  1  0.23509425  0.15751050  -0.00000000  1
  Li  Li190  1  0.76490575  0.84248950  0.00000000  1
  Li  Li191  1  0.76490575  0.15751050  0.00000000  1
  Li  Li192  1  0.68450642  0.68450642  0.38787909  1
  Li  Li193  1  0.31549358  0.31549358  0.38787909  1
  Li  Li194  1  0.31549358  0.68450642  0.61212091  1
  Li  Li195  1  0.68450642  0.31549358  0.61212091  1
  Li  Li196  1  0.38787909  0.68450642  0.68450642  1
  Li  Li197  1  0.38787909  0.31549358  0.31549358  1
  Li  Li198  1  0.61212091  0.31549358  0.68450642  1
  Li  Li199  1  0.61212091  0.68450642  0.31549358  1
  Li  Li200  1  0.68450642  0.38787909  0.68450642  1
  Li  Li201  1  0.31549358  0.38787909  0.31549358  1
  Li  Li202  1  0.68450642  0.61212091  0.31549358  1
  Li  Li203  1  0.31549358  0.61212091  0.68450642  1
  Li  Li204  1  0.68450642  0.68450642  0.61212091  1
  Li  Li205  1  0.31549358  0.31549358  0.61212091  1
  Li  Li206  1  0.68450642  0.31549358  0.38787909  1
  Li  Li207  1  0.31549358  0.68450642  0.38787909  1
  Li  Li208  1  0.68450642  0.38787909  0.31549358  1
  Li  Li209  1  0.31549358  0.38787909  0.68450642  1
  Li  Li210  1  0.31549358  0.61212091  0.31549358  1
  Li  Li211  1  0.68450642  0.61212091  0.68450642  1
  Li  Li212  1  0.38787909  0.68450642  0.31549358  1
  Li  Li213  1  0.38787909  0.31549358  0.68450642  1
  Li  Li214  1  0.61212091  0.68450642  0.68450642  1
  Li  Li215  1  0.61212091  0.31549358  0.31549358  1
  Li  Li216  1  0.68450642  0.18450642  0.88787909  1
  Li  Li217  1  0.31549358  0.81549358  0.88787909  1
  Li  Li218  1  0.31549358  0.18450642  0.11212091  1
  Li  Li219  1  0.68450642  0.81549358  0.11212091  1
  Li  Li220  1  0.38787909  0.18450642  0.18450642  1
  Li  Li221  1  0.38787909  0.81549358  0.81549358  1
  Li  Li222  1  0.61212091  0.81549358  0.18450642  1
  Li  Li223  1  0.61212091  0.18450642  0.81549358  1
  Li  Li224  1  0.68450642  0.88787909  0.18450642  1
  Li  Li225  1  0.31549358  0.88787909  0.81549358  1
  Li  Li226  1  0.68450642  0.11212091  0.81549358  1
  Li  Li227  1  0.31549358  0.11212091  0.18450642  1
  Li  Li228  1  0.68450642  0.18450642  0.11212091  1
  Li  Li229  1  0.31549358  0.81549358  0.11212091  1
  Li  Li230  1  0.68450642  0.81549358  0.88787909  1
  Li  Li231  1  0.31549358  0.18450642  0.88787909  1
  Li  Li232  1  0.68450642  0.88787909  0.81549358  1
  Li  Li233  1  0.31549358  0.88787909  0.18450642  1
  Li  Li234  1  0.31549358  0.11212091  0.81549358  1
  Li  Li235  1  0.68450642  0.11212091  0.18450642  1
  Li  Li236  1  0.38787909  0.18450642  0.81549358  1
  Li  Li237  1  0.38787909  0.81549358  0.18450642  1
  Li  Li238  1  0.61212091  0.18450642  0.18450642  1
  Li  Li239  1  0.61212091  0.81549358  0.81549358  1
  Li  Li240  1  0.18450642  0.68450642  0.88787909  1
  Li  Li241  1  0.81549358  0.31549358  0.88787909  1
  Li  Li242  1  0.81549358  0.68450642  0.11212091  1
  Li  Li243  1  0.18450642  0.31549358  0.11212091  1
  Li  Li244  1  0.88787909  0.68450642  0.18450642  1
  Li  Li245  1  0.88787909  0.31549358  0.81549358  1
  Li  Li246  1  0.11212091  0.31549358  0.18450642  1
  Li  Li247  1  0.11212091  0.68450642  0.81549358  1
  Li  Li248  1  0.18450642  0.38787909  0.18450642  1
  Li  Li249  1  0.81549358  0.38787909  0.81549358  1
  Li  Li250  1  0.18450642  0.61212091  0.81549358  1
  Li  Li251  1  0.81549358  0.61212091  0.18450642  1
  Li  Li252  1  0.18450642  0.68450642  0.11212091  1
  Li  Li253  1  0.81549358  0.31549358  0.11212091  1
  Li  Li254  1  0.18450642  0.31549358  0.88787909  1
  Li  Li255  1  0.81549358  0.68450642  0.88787909  1
  Li  Li256  1  0.18450642  0.38787909  0.81549358  1
  Li  Li257  1  0.81549358  0.38787909  0.18450642  1
  Li  Li258  1  0.81549358  0.61212091  0.81549358  1
  Li  Li259  1  0.18450642  0.61212091  0.18450642  1
  Li  Li260  1  0.88787909  0.68450642  0.81549358  1
  Li  Li261  1  0.88787909  0.31549358  0.18450642  1
  Li  Li262  1  0.11212091  0.68450642  0.18450642  1
  Li  Li263  1  0.11212091  0.31549358  0.81549358  1
  Li  Li264  1  0.18450642  0.18450642  0.38787909  1
  Li  Li265  1  0.81549358  0.81549358  0.38787909  1
  Li  Li266  1  0.81549358  0.18450642  0.61212091  1
  Li  Li267  1  0.18450642  0.81549358  0.61212091  1
  Li  Li268  1  0.88787909  0.18450642  0.68450642  1
  Li  Li269  1  0.88787909  0.81549358  0.31549358  1
  Li  Li270  1  0.11212091  0.81549358  0.68450642  1
  Li  Li271  1  0.11212091  0.18450642  0.31549358  1
  Li  Li272  1  0.18450642  0.88787909  0.68450642  1
  Li  Li273  1  0.81549358  0.88787909  0.31549358  1
  Li  Li274  1  0.18450642  0.11212091  0.31549358  1
  Li  Li275  1  0.81549358  0.11212091  0.68450642  1
  Li  Li276  1  0.18450642  0.18450642  0.61212091  1
  Li  Li277  1  0.81549358  0.81549358  0.61212091  1
  Li  Li278  1  0.18450642  0.81549358  0.38787909  1
  Li  Li279  1  0.81549358  0.18450642  0.38787909  1
  Li  Li280  1  0.18450642  0.88787909  0.31549358  1
  Li  Li281  1  0.81549358  0.88787909  0.68450642  1
  Li  Li282  1  0.81549358  0.11212091  0.31549358  1
  Li  Li283  1  0.18450642  0.11212091  0.68450642  1
  Li  Li284  1  0.88787909  0.18450642  0.31549358  1
  Li  Li285  1  0.88787909  0.81549358  0.68450642  1
  Li  Li286  1  0.11212091  0.18450642  0.68450642  1
  Li  Li287  1  0.11212091  0.81549358  0.31549358  1
  Li  Li288  1  0.00000000  0.14396652  0.44878595  1
  Li  Li289  1  0.00000000  0.85603348  0.44878595  1
  Li  Li290  1  0.00000000  0.14396652  0.55121405  1
  Li  Li291  1  0.00000000  0.85603348  0.55121405  1
  Li  Li292  1  0.44878595  -0.00000000  0.14396652  1
  Li  Li293  1  0.44878595  -0.00000000  0.85603348  1
  Li  Li294  1  0.55121405  0.00000000  0.14396652  1
  Li  Li295  1  0.55121405  0.00000000  0.85603348  1
  Li  Li296  1  0.14396652  0.44878595  0.00000000  1
  Li  Li297  1  0.85603348  0.44878595  0.00000000  1
  Li  Li298  1  0.14396652  0.55121405  0.00000000  1
  Li  Li299  1  0.85603348  0.55121405  0.00000000  1
  Li  Li300  1  0.14396652  0.00000000  0.55121405  1
  Li  Li301  1  0.85603348  0.00000000  0.55121405  1
  Li  Li302  1  0.14396652  0.00000000  0.44878595  1
  Li  Li303  1  0.85603348  0.00000000  0.44878595  1
  Li  Li304  1  0.00000000  0.44878595  0.85603348  1
  Li  Li305  1  0.00000000  0.44878595  0.14396652  1
  Li  Li306  1  0.00000000  0.55121405  0.85603348  1
  Li  Li307  1  0.00000000  0.55121405  0.14396652  1
  Li  Li308  1  0.44878595  0.14396652  0.00000000  1
  Li  Li309  1  0.44878595  0.85603348  0.00000000  1
  Li  Li310  1  0.55121405  0.14396652  0.00000000  1
  Li  Li311  1  0.55121405  0.85603348  0.00000000  1
  Li  Li312  1  0.00000000  0.64396652  0.94878595  1
  Li  Li313  1  0.00000000  0.35603348  0.94878595  1
  Li  Li314  1  0.00000000  0.64396652  0.05121405  1
  Li  Li315  1  0.00000000  0.35603348  0.05121405  1
  Li  Li316  1  0.44878595  0.50000000  0.64396652  1
  Li  Li317  1  0.44878595  0.50000000  0.35603348  1
  Li  Li318  1  0.55121405  0.50000000  0.64396652  1
  Li  Li319  1  0.55121405  0.50000000  0.35603348  1
  Li  Li320  1  0.14396652  0.94878595  0.50000000  1
  Li  Li321  1  0.85603348  0.94878595  0.50000000  1
  Li  Li322  1  0.14396652  0.05121405  0.50000000  1
  Li  Li323  1  0.85603348  0.05121405  0.50000000  1
  Li  Li324  1  0.14396652  0.50000000  0.05121405  1
  Li  Li325  1  0.85603348  0.50000000  0.05121405  1
  Li  Li326  1  0.14396652  0.50000000  0.94878595  1
  Li  Li327  1  0.85603348  0.50000000  0.94878595  1
  Li  Li328  1  0.00000000  0.94878595  0.35603348  1
  Li  Li329  1  0.00000000  0.94878595  0.64396652  1
  Li  Li330  1  0.00000000  0.05121405  0.35603348  1
  Li  Li331  1  0.00000000  0.05121405  0.64396652  1
  Li  Li332  1  0.44878595  0.64396652  0.50000000  1
  Li  Li333  1  0.44878595  0.35603348  0.50000000  1
  Li  Li334  1  0.55121405  0.64396652  0.50000000  1
  Li  Li335  1  0.55121405  0.35603348  0.50000000  1
  Li  Li336  1  0.50000000  0.14396652  0.94878595  1
  Li  Li337  1  0.50000000  0.85603348  0.94878595  1
  Li  Li338  1  0.50000000  0.14396652  0.05121405  1
  Li  Li339  1  0.50000000  0.85603348  0.05121405  1
  Li  Li340  1  0.94878595  0.00000000  0.64396652  1
  Li  Li341  1  0.94878595  0.00000000  0.35603348  1
  Li  Li342  1  0.05121405  -0.00000000  0.64396652  1
  Li  Li343  1  0.05121405  -0.00000000  0.35603348  1
  Li  Li344  1  0.64396652  0.44878595  0.50000000  1
  Li  Li345  1  0.35603348  0.44878595  0.50000000  1
  Li  Li346  1  0.64396652  0.55121405  0.50000000  1
  Li  Li347  1  0.35603348  0.55121405  0.50000000  1
  Li  Li348  1  0.64396652  0.00000000  0.05121405  1
  Li  Li349  1  0.35603348  0.00000000  0.05121405  1
  Li  Li350  1  0.64396652  0.00000000  0.94878595  1
  Li  Li351  1  0.35603348  0.00000000  0.94878595  1
  Li  Li352  1  0.50000000  0.44878595  0.35603348  1
  Li  Li353  1  0.50000000  0.44878595  0.64396652  1
  Li  Li354  1  0.50000000  0.55121405  0.35603348  1
  Li  Li355  1  0.50000000  0.55121405  0.64396652  1
  Li  Li356  1  0.94878595  0.14396652  0.50000000  1
  Li  Li357  1  0.94878595  0.85603348  0.50000000  1
  Li  Li358  1  0.05121405  0.14396652  0.50000000  1
  Li  Li359  1  0.05121405  0.85603348  0.50000000  1
  Li  Li360  1  0.50000000  0.64396652  0.44878595  1
  Li  Li361  1  0.50000000  0.35603348  0.44878595  1
  Li  Li362  1  0.50000000  0.64396652  0.55121405  1
  Li  Li363  1  0.50000000  0.35603348  0.55121405  1
  Li  Li364  1  0.94878595  0.50000000  0.14396652  1
  Li  Li365  1  0.94878595  0.50000000  0.85603348  1
  Li  Li366  1  0.05121405  0.50000000  0.14396652  1
  Li  Li367  1  0.05121405  0.50000000  0.85603348  1
  Li  Li368  1  0.64396652  0.94878595  0.00000000  1
  Li  Li369  1  0.35603348  0.94878595  0.00000000  1
  Li  Li370  1  0.64396652  0.05121405  0.00000000  1
  Li  Li371  1  0.35603348  0.05121405  -0.00000000  1
  Li  Li372  1  0.64396652  0.50000000  0.55121405  1
  Li  Li373  1  0.35603348  0.50000000  0.55121405  1
  Li  Li374  1  0.64396652  0.50000000  0.44878595  1
  Li  Li375  1  0.35603348  0.50000000  0.44878595  1
  Li  Li376  1  0.50000000  0.94878595  0.85603348  1
  Li  Li377  1  0.50000000  0.94878595  0.14396652  1
  Li  Li378  1  0.50000000  0.05121405  0.85603348  1
  Li  Li379  1  0.50000000  0.05121405  0.14396652  1
  Li  Li380  1  0.94878595  0.64396652  -0.00000000  1
  Li  Li381  1  0.94878595  0.35603348  0.00000000  1
  Li  Li382  1  0.05121405  0.64396652  0.00000000  1
  Li  Li383  1  0.05121405  0.35603348  0.00000000  1
  Se  Se384  1  0.35748917  0.35748917  0.35748917  1
  Se  Se385  1  0.64251083  0.64251083  0.35748917  1
  Se  Se386  1  0.64251083  0.35748917  0.64251083  1
  Se  Se387  1  0.35748917  0.64251083  0.64251083  1
  Se  Se388  1  0.35748917  0.35748917  0.64251083  1
  Se  Se389  1  0.64251083  0.64251083  0.64251083  1
  Se  Se390  1  0.35748917  0.64251083  0.35748917  1
  Se  Se391  1  0.64251083  0.35748917  0.35748917  1
  Se  Se392  1  0.35748917  0.85748917  0.85748917  1
  Se  Se393  1  0.64251083  0.14251083  0.85748917  1
  Se  Se394  1  0.64251083  0.85748917  0.14251083  1
  Se  Se395  1  0.35748917  0.14251083  0.14251083  1
  Se  Se396  1  0.35748917  0.85748917  0.14251083  1
  Se  Se397  1  0.64251083  0.14251083  0.14251083  1
  Se  Se398  1  0.35748917  0.14251083  0.85748917  1
  Se  Se399  1  0.64251083  0.85748917  0.85748917  1
  Se  Se400  1  0.85748917  0.35748917  0.85748917  1
  Se  Se401  1  0.14251083  0.64251083  0.85748917  1
  Se  Se402  1  0.14251083  0.35748917  0.14251083  1
  Se  Se403  1  0.85748917  0.64251083  0.14251083  1
  Se  Se404  1  0.85748917  0.35748917  0.14251083  1
  Se  Se405  1  0.14251083  0.64251083  0.14251083  1
  Se  Se406  1  0.85748917  0.64251083  0.85748917  1
  Se  Se407  1  0.14251083  0.35748917  0.85748917  1
  Se  Se408  1  0.85748917  0.85748917  0.35748917  1
  Se  Se409  1  0.14251083  0.14251083  0.35748917  1
  Se  Se410  1  0.14251083  0.85748917  0.64251083  1
  Se  Se411  1  0.85748917  0.14251083  0.64251083  1
  Se  Se412  1  0.85748917  0.85748917  0.64251083  1
  Se  Se413  1  0.14251083  0.14251083  0.64251083  1
  Se  Se414  1  0.85748917  0.14251083  0.35748917  1
  Se  Se415  1  0.14251083  0.85748917  0.35748917  1
  Se  Se416  1  0.15373941  0.25000000  0.25000000  1
  Se  Se417  1  0.84626059  0.75000000  0.25000000  1
  Se  Se418  1  0.25000000  0.15373941  0.25000000  1
  Se  Se419  1  0.25000000  0.84626059  0.75000000  1
  Se  Se420  1  0.25000000  0.25000000  0.15373941  1
  Se  Se421  1  0.75000000  0.25000000  0.84626059  1
  Se  Se422  1  0.25000000  0.15373941  0.75000000  1
  Se  Se423  1  0.75000000  0.84626059  0.75000000  1
  Se  Se424  1  0.15373941  0.25000000  0.75000000  1
  Se  Se425  1  0.84626059  0.25000000  0.25000000  1
  Se  Se426  1  0.25000000  0.25000000  0.84626059  1
  Se  Se427  1  0.25000000  0.75000000  0.15373941  1
  Se  Se428  1  0.15373941  0.75000000  0.75000000  1
  Se  Se429  1  0.84626059  0.25000000  0.75000000  1
  Se  Se430  1  0.25000000  0.65373941  0.75000000  1
  Se  Se431  1  0.25000000  0.34626059  0.25000000  1
  Se  Se432  1  0.25000000  0.75000000  0.65373941  1
  Se  Se433  1  0.75000000  0.75000000  0.34626059  1
  Se  Se434  1  0.25000000  0.65373941  0.25000000  1
  Se  Se435  1  0.75000000  0.34626059  0.25000000  1
  Se  Se436  1  0.15373941  0.75000000  0.25000000  1
  Se  Se437  1  0.84626059  0.75000000  0.75000000  1
  Se  Se438  1  0.25000000  0.75000000  0.34626059  1
  Se  Se439  1  0.25000000  0.25000000  0.65373941  1
  Se  Se440  1  0.65373941  0.25000000  0.75000000  1
  Se  Se441  1  0.34626059  0.75000000  0.75000000  1
  Se  Se442  1  0.75000000  0.15373941  0.75000000  1
  Se  Se443  1  0.75000000  0.84626059  0.25000000  1
  Se  Se444  1  0.75000000  0.25000000  0.65373941  1
  Se  Se445  1  0.25000000  0.25000000  0.34626059  1
  Se  Se446  1  0.75000000  0.15373941  0.25000000  1
  Se  Se447  1  0.25000000  0.84626059  0.25000000  1
  Se  Se448  1  0.65373941  0.25000000  0.25000000  1
  Se  Se449  1  0.34626059  0.25000000  0.75000000  1
  Se  Se450  1  0.75000000  0.25000000  0.34626059  1
  Se  Se451  1  0.75000000  0.75000000  0.65373941  1
  Se  Se452  1  0.65373941  0.75000000  0.25000000  1
  Se  Se453  1  0.34626059  0.25000000  0.25000000  1
  Se  Se454  1  0.75000000  0.65373941  0.25000000  1
  Se  Se455  1  0.75000000  0.34626059  0.75000000  1
  Se  Se456  1  0.75000000  0.75000000  0.15373941  1
  Se  Se457  1  0.25000000  0.75000000  0.84626059  1
  Se  Se458  1  0.75000000  0.65373941  0.75000000  1
  Se  Se459  1  0.25000000  0.34626059  0.75000000  1
  Se  Se460  1  0.65373941  0.75000000  0.75000000  1
  Se  Se461  1  0.34626059  0.75000000  0.25000000  1
  Se  Se462  1  0.75000000  0.75000000  0.84626059  1
  Se  Se463  1  0.75000000  0.25000000  0.15373941  1
  Se  Se464  1  0.25000000  0.25000000  0.25000000  1
  Se  Se465  1  0.25000000  0.25000000  0.75000000  1
  Se  Se466  1  0.25000000  0.75000000  0.75000000  1
  Se  Se467  1  0.25000000  0.75000000  0.25000000  1
  Se  Se468  1  0.75000000  0.25000000  0.75000000  1
  Se  Se469  1  0.75000000  0.25000000  0.25000000  1
  Se  Se470  1  0.75000000  0.75000000  0.25000000  1
  Se  Se471  1  0.75000000  0.75000000  0.75000000  1
  Se  Se472  1  0.50000000  0.50000000  0.50000000  1
  Se  Se473  1  0.50000000  0.00000000  0.00000000  1
  Se  Se474  1  0.00000000  0.50000000  0.00000000  1
  Se  Se475  1  0.00000000  0.00000000  0.50000000  1
  Se  Se476  1  0.00000000  0.00000000  0.00000000  1
  Se  Se477  1  0.00000000  0.50000000  0.50000000  1
  Se  Se478  1  0.50000000  0.00000000  0.50000000  1
  Se  Se479  1  0.50000000  0.50000000  0.00000000  1
