# generated using pymatgen
data_Li2ScTaNbS2Cl7O3
_symmetry_space_group_name_H-M   'P 1'
_cell_length_a   3.86879409
_cell_length_b   3.46579704
_cell_length_c   3.79458387
_cell_angle_alpha   91.07097096
_cell_angle_beta   87.13555509
_cell_angle_gamma   87.55587371
_symmetry_Int_Tables_number   1
_chemical_formula_structural   Li2ScTaNbS2Cl7O3
_chemical_formula_sum   'Li2 Sc1 Ta1 Nb1 S2 Cl7 O3'
_cell_volume   50.75865401
_cell_formula_units_Z   1
loop_
 _symmetry_equiv_pos_site_id
 _symmetry_equiv_pos_as_xyz
  1  'x, y, z'
loop_
 _atom_site_type_symbol
 _atom_site_label
 _atom_site_symmetry_multiplicity
 _atom_site_fract_x
 _atom_site_fract_y
 _atom_site_fract_z
 _atom_site_occupancy
  Li  Li0  1  0.00000000  0.00000000  0.00000000  1
  Li  Li1  1  0.50000000  0.50000000  0.50000000  1
  Sc  Sc2  1  0.50000000  0.50000000  0.00000000  1
  Nb  Nb3  1  0.50000000  0.00000000  0.50000000  1
  Cl  Cl4  1  0.00000000  0.50000000  0.50000000  1
  Cl  Cl5  1  0.10580135  0.85813666  0.26274171  1
  Cl  Cl6  1  0.52700536  0.47272328  0.30487966  1
  Cl  Cl7  1  0.81352130  0.86476097  0.14902223  1
  Cl  Cl8  1  0.77789541  0.13672461  0.78400056  1
  Cl  Cl9  1  0.11177815  0.69133754  0.44718508  1
  Cl  Cl10  1  0.33927715  0.57969752  0.56901609  1
  O  O11  1  0.81092925  0.39939201  0.77672044  1
  O  O12  1  0.72271206  0.52589461  0.44810173  1
  O  O13  1  0.28630195  0.64551455  0.05065373  1
  S  S14  1  0.44209437  0.10036757  0.64312551  1
  S  S15  1  0.82889726  0.05349003  0.47725868  1
  Ta  Ta16  1  0.36310733  0.48264342  0.07502526  1
