# generated using pymatgen
data_Li2ZrCl6
_symmetry_space_group_name_H-M   'P 1'
_cell_length_a   12.52998714
_cell_length_b   12.52998714
_cell_length_c   15.09233683
_cell_angle_alpha   90.00000000
_cell_angle_beta   90.00000000
_cell_angle_gamma   90.00000000
_symmetry_Int_Tables_number   1
_chemical_formula_structural   Li2ZrCl6
_chemical_formula_sum   'Li32 Zr16 Cl96'
_cell_volume   2369.50560211
_cell_formula_units_Z   16
loop_
 _symmetry_equiv_pos_site_id
 _symmetry_equiv_pos_as_xyz
  1  'x, y, z'
loop_
 _atom_site_type_symbol
 _atom_site_label
 _atom_site_symmetry_multiplicity
 _atom_site_fract_x
 _atom_site_fract_y
 _atom_site_fract_z
 _atom_site_occupancy
  Cl  Cl0  1  0.00000000  0.00000000  0.00000000  1
  Cl  Cl1  1  0.50000000  0.00000000  0.50000000  1
  Cl  Cl2  1  0.25000000  0.75000000  0.25000000  1
  Cl  Cl3  1  0.25000000  0.25000000  0.75000000  1
  Cl  Cl4  1  0.50000000  0.50000000  0.50000000  1
  Cl  Cl5  1  0.00000000  0.50000000  0.00000000  1
  Cl  Cl6  1  0.75000000  0.25000000  0.75000000  1
  Cl  Cl7  1  0.75000000  0.75000000  0.25000000  1
  Cl  Cl8  1  0.00000000  0.00000000  0.50000000  1
  Cl  Cl9  1  0.50000000  0.00000000  0.00000000  1
  Cl  Cl10  1  0.25000000  0.75000000  0.75000000  1
  Cl  Cl11  1  0.25000000  0.25000000  0.25000000  1
  Cl  Cl12  1  0.50000000  0.50000000  0.00000000  1
  Cl  Cl13  1  0.00000000  0.50000000  0.50000000  1
  Cl  Cl14  1  0.75000000  0.25000000  0.25000000  1
  Cl  Cl15  1  0.75000000  0.75000000  0.75000000  1
  Cl  Cl16  1  0.00000000  0.25000000  0.73628684  1
  Cl  Cl17  1  0.00000000  0.75000000  0.98628684  1
  Cl  Cl18  1  0.50000000  0.25000000  0.76371316  1
  Cl  Cl19  1  0.50000000  0.75000000  0.51371316  1
  Cl  Cl20  1  0.50000000  0.75000000  0.23628684  1
  Cl  Cl21  1  0.50000000  0.25000000  0.48628684  1
  Cl  Cl22  1  0.00000000  0.75000000  0.26371316  1
  Cl  Cl23  1  0.00000000  0.25000000  0.01371316  1
  Cl  Cl24  1  0.69308046  0.05792790  0.87797074  1
  Cl  Cl25  1  -0.19308046  -0.05792790  1.37797074  1
  Cl  Cl26  1  0.19207210  1.44308046  1.12797074  1
  Cl  Cl27  1  0.30792790  -0.44308046  1.62797074  1
  Cl  Cl28  1  -0.19308046  0.05792790  -0.37797074  1
  Cl  Cl29  1  0.69308046  -0.05792790  -0.87797074  1
  Cl  Cl30  1  0.30792790  1.44308046  -0.62797074  1
  Cl  Cl31  1  0.19207210  -0.44308046  -0.12797074  1
  Cl  Cl32  1  -0.69308046  -0.05792790  -0.87797074  1
  Cl  Cl33  1  1.19308046  0.05792790  -0.37797074  1
  Cl  Cl34  1  0.80792790  -0.44308046  -0.12797074  1
  Cl  Cl35  1  0.69207210  1.44308046  -0.62797074  1
  Cl  Cl36  1  1.19308046  -0.05792790  1.37797074  1
  Cl  Cl37  1  -0.69308046  0.05792790  0.87797074  1
  Cl  Cl38  1  0.69207210  -0.44308046  1.62797074  1
  Cl  Cl39  1  0.80792790  1.44308046  1.12797074  1
  Cl  Cl40  1  1.19308046  0.55792790  1.37797074  1
  Cl  Cl41  1  0.30691954  0.44207210  1.87797074  1
  Cl  Cl42  1  0.69207210  1.94308046  1.62797074  1
  Cl  Cl43  1  0.80792790  0.05691954  2.12797074  1
  Cl  Cl44  1  0.30691954  0.55792790  0.12202926  1
  Cl  Cl45  1  1.19308046  0.44207210  -0.37797074  1
  Cl  Cl46  1  0.80792790  1.94308046  -0.12797074  1
  Cl  Cl47  1  0.69207210  0.05691954  0.37202926  1
  Cl  Cl48  1  -0.19308046  0.44207210  -0.37797074  1
  Cl  Cl49  1  1.69308046  0.55792790  0.12202926  1
  Cl  Cl50  1  1.30792790  0.05691954  0.37202926  1
  Cl  Cl51  1  1.19207210  1.94308046  -0.12797074  1
  Cl  Cl52  1  1.69308046  0.44207210  1.87797074  1
  Cl  Cl53  1  -0.19308046  0.55792790  1.37797074  1
  Cl  Cl54  1  1.19207210  0.05691954  2.12797074  1
  Cl  Cl55  1  1.30792790  1.94308046  1.62797074  1
  Cl  Cl56  1  0.00000000  0.20720383  0.47178582  1
  Cl  Cl57  1  0.50000000  0.79279617  0.97178582  1
  Cl  Cl58  1  0.04279617  0.75000000  0.72178582  1
  Cl  Cl59  1  0.45720383  0.25000000  0.22178582  1
  Cl  Cl60  1  0.50000000  0.20720383  0.02821418  1
  Cl  Cl61  1  0.00000000  0.79279617  0.52821418  1
  Cl  Cl62  1  0.45720383  0.75000000  0.77821418  1
  Cl  Cl63  1  0.04279617  0.25000000  0.27821418  1
  Cl  Cl64  1  0.50000000  0.70720383  0.97178582  1
  Cl  Cl65  1  0.00000000  0.29279617  0.47178582  1
  Cl  Cl66  1  0.54279617  0.25000000  0.22178582  1
  Cl  Cl67  1  0.95720383  0.75000000  0.72178582  1
  Cl  Cl68  1  0.00000000  0.70720383  0.52821418  1
  Cl  Cl69  1  0.50000000  0.29279617  0.02821418  1
  Cl  Cl70  1  0.95720383  0.25000000  0.27821418  1
  Cl  Cl71  1  0.54279617  0.75000000  0.77821418  1
  Cl  Cl72  1  0.29459922  -0.00000000  0.00000000  1
  Cl  Cl73  1  0.20540078  0.00000000  0.50000000  1
  Cl  Cl74  1  0.25000000  0.04459922  0.25000000  1
  Cl  Cl75  1  0.25000000  0.95540078  0.75000000  1
  Cl  Cl76  1  0.70540078  0.00000000  0.00000000  1
  Cl  Cl77  1  0.79459922  0.00000000  0.50000000  1
  Cl  Cl78  1  0.75000000  0.95540078  0.75000000  1
  Cl  Cl79  1  0.75000000  0.04459922  0.25000000  1
  Cl  Cl80  1  0.79459922  0.50000000  0.50000000  1
  Cl  Cl81  1  0.70540078  0.50000000  0.00000000  1
  Cl  Cl82  1  0.75000000  0.54459922  0.75000000  1
  Cl  Cl83  1  0.75000000  0.45540078  0.25000000  1
  Cl  Cl84  1  0.20540078  0.50000000  0.50000000  1
  Cl  Cl85  1  0.29459922  0.50000000  0.00000000  1
  Cl  Cl86  1  0.25000000  0.45540078  0.25000000  1
  Cl  Cl87  1  0.25000000  0.54459922  0.75000000  1
  Cl  Cl88  1  0.00000000  0.75000000  0.12500000  1
  Cl  Cl89  1  0.50000000  0.75000000  0.37500000  1
  Cl  Cl90  1  0.50000000  0.25000000  0.62500000  1
  Cl  Cl91  1  0.00000000  0.25000000  0.87500000  1
  Cl  Cl92  1  0.00000000  0.25000000  0.37500000  1
  Cl  Cl93  1  0.00000000  0.75000000  0.62500000  1
  Cl  Cl94  1  0.50000000  0.75000000  0.87500000  1
  Cl  Cl95  1  0.50000000  0.25000000  0.12500000  1
  Li  Li96  1  0.68561574  0.08678395  0.97833343  1
  Li  Li97  1  0.81438426  0.91321605  0.47833343  1
  Li  Li98  1  0.16321605  0.43561574  0.22833343  1
  Li  Li99  1  0.33678395  0.56438426  0.72833343  1
  Li  Li100  1  0.81438426  0.08678395  0.52166657  1
  Li  Li101  1  0.68561574  0.91321605  0.02166657  1
  Li  Li102  1  0.33678395  0.43561574  0.27166657  1
  Li  Li103  1  0.16321605  0.56438426  0.77166657  1
  Li  Li104  1  0.31438426  0.91321605  0.02166657  1
  Li  Li105  1  0.18561574  0.08678395  0.52166657  1
  Li  Li106  1  0.83678395  0.56438426  0.77166657  1
  Li  Li107  1  0.66321605  0.43561574  0.27166657  1
  Li  Li108  1  0.18561574  0.91321605  0.47833343  1
  Li  Li109  1  0.31438426  0.08678395  0.97833343  1
  Li  Li110  1  0.66321605  0.56438426  0.72833343  1
  Li  Li111  1  0.83678395  0.43561574  0.22833343  1
  Li  Li112  1  0.18561574  0.58678395  0.47833343  1
  Li  Li113  1  0.31438426  0.41321605  0.97833343  1
  Li  Li114  1  0.66321605  0.93561574  0.72833343  1
  Li  Li115  1  0.83678395  0.06438426  0.22833343  1
  Li  Li116  1  0.31438426  0.58678395  0.02166657  1
  Li  Li117  1  0.18561574  0.41321605  0.52166657  1
  Li  Li118  1  0.83678395  0.93561574  0.77166657  1
  Li  Li119  1  0.66321605  0.06438426  0.27166657  1
  Li  Li120  1  0.81438426  0.41321605  0.52166657  1
  Li  Li121  1  0.68561574  0.58678395  0.02166657  1
  Li  Li122  1  0.33678395  0.06438426  0.27166657  1
  Li  Li123  1  0.16321605  0.93561574  0.77166657  1
  Li  Li124  1  0.68561574  0.41321605  0.97833343  1
  Li  Li125  1  0.81438426  0.58678395  0.47833343  1
  Li  Li126  1  0.16321605  0.06438426  0.22833343  1
  Li  Li127  1  0.33678395  0.93561574  0.72833343  1
  Zr  Zr128  1  0.00000000  0.41233323  0.25449879  1
  Zr  Zr129  1  0.50000000  0.58766677  0.75449879  1
  Zr  Zr130  1  0.83766677  0.75000000  0.50449879  1
  Zr  Zr131  1  0.66233323  0.25000000  0.00449879  1
  Zr  Zr132  1  0.50000000  0.41233323  0.24550121  1
  Zr  Zr133  1  0.00000000  0.58766677  0.74550121  1
  Zr  Zr134  1  0.66233323  0.75000000  0.99550121  1
  Zr  Zr135  1  0.83766677  0.25000000  0.49550121  1
  Zr  Zr136  1  0.50000000  0.91233323  0.75449879  1
  Zr  Zr137  1  0.00000000  0.08766677  0.25449879  1
  Zr  Zr138  1  0.33766677  0.25000000  0.00449879  1
  Zr  Zr139  1  0.16233323  0.75000000  0.50449879  1
  Zr  Zr140  1  0.00000000  0.91233323  0.74550121  1
  Zr  Zr141  1  0.50000000  0.08766677  0.24550121  1
  Zr  Zr142  1  0.16233323  0.25000000  0.49550121  1
  Zr  Zr143  1  0.33766677  0.75000000  0.99550121  1
