# generated using pymatgen
data_Li2S
_symmetry_space_group_name_H-M   'P 1'
_cell_length_a   7.91200078
_cell_length_b   7.91200078
_cell_length_c   47.93853583
_cell_angle_alpha   90.00000000
_cell_angle_beta   90.00000000
_cell_angle_gamma   90.00000000
_symmetry_Int_Tables_number   1
_chemical_formula_structural   Li2S
_chemical_formula_sum   'Li96 S48'
_cell_volume   3000.94065894
_cell_formula_units_Z   48
loop_
 _symmetry_equiv_pos_site_id
 _symmetry_equiv_pos_as_xyz
  1  'x, y, z'
loop_
 _atom_site_type_symbol
 _atom_site_label
 _atom_site_symmetry_multiplicity
 _atom_site_fract_x
 _atom_site_fract_y
 _atom_site_fract_z
 _atom_site_occupancy
  Li  Li0  1  0.00000000  0.25000000  0.37500000  1
  Li  Li1  1  0.00000000  0.75000000  0.62500000  1
  Li  Li2  1  0.50000000  0.25000000  0.62500000  1
  Li  Li3  1  0.50000000  0.75000000  0.37500000  1
  Li  Li4  1  0.50000000  0.75000000  0.87500000  1
  Li  Li5  1  0.50000000  0.25000000  0.12500000  1
  Li  Li6  1  0.00000000  0.75000000  0.12500000  1
  Li  Li7  1  0.00000000  0.25000000  0.87500000  1
  Li  Li8  1  0.71109498  0.73674129  0.31667964  1
  Li  Li9  1  -0.21109498  -0.73674129  0.81667964  1
  Li  Li10  1  -0.48674129  1.46109498  0.56667964  1
  Li  Li11  1  0.98674129  -0.46109498  1.06667964  1
  Li  Li12  1  -0.21109498  0.73674129  -0.31667964  1
  Li  Li13  1  0.71109498  -0.73674129  0.18332036  1
  Li  Li14  1  0.98674129  1.46109498  0.43332036  1
  Li  Li15  1  -0.48674129  -0.46109498  -0.06667964  1
  Li  Li16  1  -0.71109498  -0.73674129  -0.31667964  1
  Li  Li17  1  1.21109498  0.73674129  0.18332036  1
  Li  Li18  1  1.48674129  -0.46109498  0.43332036  1
  Li  Li19  1  0.01325871  1.46109498  -0.06667964  1
  Li  Li20  1  1.21109498  -0.73674129  0.31667964  1
  Li  Li21  1  -0.71109498  0.73674129  0.81667964  1
  Li  Li22  1  0.01325871  -0.46109498  0.56667964  1
  Li  Li23  1  1.48674129  1.46109498  1.06667964  1
  Li  Li24  1  1.21109498  1.23674129  0.81667964  1
  Li  Li25  1  0.28890502  -0.23674129  1.31667964  1
  Li  Li26  1  0.01325871  1.96109498  1.06667964  1
  Li  Li27  1  1.48674129  0.03890502  1.56667964  1
  Li  Li28  1  0.28890502  1.23674129  0.18332036  1
  Li  Li29  1  1.21109498  -0.23674129  0.68332036  1
  Li  Li30  1  1.48674129  1.96109498  0.93332036  1
  Li  Li31  1  0.01325871  0.03890502  0.43332036  1
  Li  Li32  1  -0.21109498  -0.23674129  0.18332036  1
  Li  Li33  1  1.71109498  1.23674129  0.68332036  1
  Li  Li34  1  1.98674129  0.03890502  0.93332036  1
  Li  Li35  1  0.51325871  1.96109498  0.43332036  1
  Li  Li36  1  1.71109498  -0.23674129  0.81667964  1
  Li  Li37  1  -0.21109498  1.23674129  1.31667964  1
  Li  Li38  1  0.51325871  0.03890502  1.06667964  1
  Li  Li39  1  1.98674129  1.96109498  1.56667964  1
  Li  Li40  1  0.45307277  0.52485080  0.01267239  1
  Li  Li41  1  0.04692723  0.47514920  0.51267239  1
  Li  Li42  1  0.72514920  0.20307277  0.26267239  1
  Li  Li43  1  0.77485080  0.79692723  0.76267239  1
  Li  Li44  1  0.04692723  0.52485080  0.98732761  1
  Li  Li45  1  0.45307277  0.47514920  0.48732761  1
  Li  Li46  1  0.77485080  0.20307277  0.73732761  1
  Li  Li47  1  0.72514920  0.79692723  0.23732761  1
  Li  Li48  1  0.54692723  0.47514920  0.98732761  1
  Li  Li49  1  0.95307277  0.52485080  0.48732761  1
  Li  Li50  1  0.27485080  0.79692723  0.73732761  1
  Li  Li51  1  0.22514920  0.20307277  0.23732761  1
  Li  Li52  1  0.95307277  0.47514920  0.01267239  1
  Li  Li53  1  0.54692723  0.52485080  0.51267239  1
  Li  Li54  1  0.22514920  0.79692723  0.26267239  1
  Li  Li55  1  0.27485080  0.20307277  0.76267239  1
  Li  Li56  1  0.95307277  0.02485080  0.51267239  1
  Li  Li57  1  0.54692723  0.97514920  0.01267239  1
  Li  Li58  1  0.22514920  0.70307277  0.76267239  1
  Li  Li59  1  0.27485080  0.29692723  0.26267239  1
  Li  Li60  1  0.54692723  0.02485080  0.48732761  1
  Li  Li61  1  0.95307277  0.97514920  0.98732761  1
  Li  Li62  1  0.27485080  0.70307277  0.23732761  1
  Li  Li63  1  0.22514920  0.29692723  0.73732761  1
  Li  Li64  1  0.04692723  0.97514920  0.48732761  1
  Li  Li65  1  0.45307277  0.02485080  0.98732761  1
  Li  Li66  1  0.77485080  0.29692723  0.23732761  1
  Li  Li67  1  0.72514920  0.70307277  0.73732761  1
  Li  Li68  1  0.45307277  0.97514920  0.51267239  1
  Li  Li69  1  0.04692723  0.02485080  0.01267239  1
  Li  Li70  1  0.72514920  0.29692723  0.76267239  1
  Li  Li71  1  0.77485080  0.70307277  0.26267239  1
  Li  Li72  1  0.10288774  -0.00000000  0.25000000  1
  Li  Li73  1  0.39711226  0.00000000  0.75000000  1
  Li  Li74  1  0.25000000  0.85288774  0.50000000  1
  Li  Li75  1  0.25000000  0.14711226  0.00000000  1
  Li  Li76  1  0.89711226  0.00000000  0.75000000  1
  Li  Li77  1  0.60288774  -0.00000000  0.25000000  1
  Li  Li78  1  0.75000000  0.14711226  0.50000000  1
  Li  Li79  1  0.75000000  0.85288774  0.00000000  1
  Li  Li80  1  0.60288774  0.50000000  0.75000000  1
  Li  Li81  1  0.89711226  0.50000000  0.25000000  1
  Li  Li82  1  0.75000000  0.35288774  -0.00000000  1
  Li  Li83  1  0.75000000  0.64711226  0.50000000  1
  Li  Li84  1  0.39711226  0.50000000  0.25000000  1
  Li  Li85  1  0.10288774  0.50000000  0.75000000  1
  Li  Li86  1  0.25000000  0.64711226  0.00000000  1
  Li  Li87  1  0.25000000  0.35288774  0.50000000  1
  Li  Li88  1  0.00000000  0.25000000  0.12500000  1
  Li  Li89  1  0.00000000  0.75000000  0.37500000  1
  Li  Li90  1  0.00000000  0.75000000  0.87500000  1
  Li  Li91  1  0.00000000  0.25000000  0.62500000  1
  Li  Li92  1  0.50000000  0.75000000  0.62500000  1
  Li  Li93  1  0.50000000  0.25000000  0.87500000  1
  Li  Li94  1  0.50000000  0.25000000  0.37500000  1
  Li  Li95  1  0.50000000  0.75000000  0.12500000  1
  S  S96  1  0.25269969  0.04324255  0.70872038  1
  S  S97  1  0.24730031  0.95675745  0.20872038  1
  S  S98  1  0.20675745  0.00269969  0.95872038  1
  S  S99  1  0.29324255  0.99730031  0.45872038  1
  S  S100  1  0.24730031  0.04324255  0.29127962  1
  S  S101  1  0.25269969  0.95675745  0.79127962  1
  S  S102  1  0.29324255  0.00269969  0.04127962  1
  S  S103  1  0.20675745  0.99730031  0.54127962  1
  S  S104  1  0.74730031  0.95675745  0.29127962  1
  S  S105  1  0.75269969  0.04324255  0.79127962  1
  S  S106  1  0.79324255  0.99730031  0.04127962  1
  S  S107  1  0.70675745  0.00269969  0.54127962  1
  S  S108  1  0.75269969  0.95675745  0.70872038  1
  S  S109  1  0.74730031  0.04324255  0.20872038  1
  S  S110  1  0.70675745  0.99730031  0.95872038  1
  S  S111  1  0.79324255  0.00269969  0.45872038  1
  S  S112  1  0.75269969  0.54324255  0.20872038  1
  S  S113  1  0.74730031  0.45675745  0.70872038  1
  S  S114  1  0.70675745  0.50269969  0.45872038  1
  S  S115  1  0.79324255  0.49730031  0.95872038  1
  S  S116  1  0.74730031  0.54324255  0.79127962  1
  S  S117  1  0.75269969  0.45675745  0.29127962  1
  S  S118  1  0.79324255  0.50269969  0.54127962  1
  S  S119  1  0.70675745  0.49730031  0.04127962  1
  S  S120  1  0.24730031  0.45675745  0.79127962  1
  S  S121  1  0.25269969  0.54324255  0.29127962  1
  S  S122  1  0.29324255  0.49730031  0.54127962  1
  S  S123  1  0.20675745  0.50269969  0.04127962  1
  S  S124  1  0.25269969  0.45675745  0.20872038  1
  S  S125  1  0.24730031  0.54324255  0.70872038  1
  S  S126  1  0.20675745  0.49730031  0.45872038  1
  S  S127  1  0.29324255  0.50269969  0.95872038  1
  S  S128  1  0.00000000  0.25000000  0.73624481  1
  S  S129  1  0.00000000  0.75000000  0.98624481  1
  S  S130  1  0.50000000  0.25000000  0.26375519  1
  S  S131  1  0.50000000  0.75000000  0.01375519  1
  S  S132  1  0.00000000  0.75000000  0.26375519  1
  S  S133  1  0.00000000  0.25000000  0.01375519  1
  S  S134  1  0.50000000  0.75000000  0.73624481  1
  S  S135  1  0.50000000  0.25000000  0.98624481  1
  S  S136  1  0.50000000  0.75000000  0.23624481  1
  S  S137  1  0.50000000  0.25000000  0.48624481  1
  S  S138  1  0.00000000  0.75000000  0.76375519  1
  S  S139  1  0.00000000  0.25000000  0.51375519  1
  S  S140  1  0.50000000  0.25000000  0.76375519  1
  S  S141  1  0.50000000  0.75000000  0.51375519  1
  S  S142  1  0.00000000  0.25000000  0.23624481  1
  S  S143  1  0.00000000  0.75000000  0.48624481  1
