# generated using pymatgen
data_Li5Zn2Te2As
_symmetry_space_group_name_H-M   'P 1'
_cell_length_a   3.09964364
_cell_length_b   3.67280335
_cell_length_c   5.76875979
_cell_angle_alpha   112.39099991
_cell_angle_beta   94.48284725
_cell_angle_gamma   90.40850954
_symmetry_Int_Tables_number   1
_chemical_formula_structural   Li5Zn2Te2As
_chemical_formula_sum   'Li5 Zn2 Te2 As1'
_cell_volume   60.48805091
_cell_formula_units_Z   1
loop_
 _symmetry_equiv_pos_site_id
 _symmetry_equiv_pos_as_xyz
  1  'x, y, z'
loop_
 _atom_site_type_symbol
 _atom_site_label
 _atom_site_symmetry_multiplicity
 _atom_site_fract_x
 _atom_site_fract_y
 _atom_site_fract_z
 _atom_site_occupancy
  Li  Li0  1  0.00000000  0.00000000  0.00000000  1
  Li  Li1  1  0.33300000  0.66700000  0.25000000  1
  Li  Li2  1  0.66700000  0.33300000  0.50000000  1
  Li  Li3  1  0.00000000  0.00000000  0.75000000  1
  Li  Li4  1  0.87303998  0.07977288  0.47801940  1
  Zn  Zn5  1  0.78817294  0.06356266  0.76694059  1
  Zn  Zn6  1  0.31647385  0.98067485  0.80240981  1
  Te  Te7  1  0.56953738  0.67343317  0.27091142  1
  Te  Te8  1  0.30481362  0.79698696  0.62430082  1
  As  As9  1  0.28026791  0.38238344  0.73125768  1
