# generated using pymatgen
data_Li2TiCl
_symmetry_space_group_name_H-M   'P 1'
_cell_length_a   3.73719916
_cell_length_b   3.10033814
_cell_length_c   6.65375715
_cell_angle_alpha   90.25081658
_cell_angle_beta   108.38594599
_cell_angle_gamma   96.27694080
_symmetry_Int_Tables_number   1
_chemical_formula_structural   Li2TiCl
_chemical_formula_sum   'Li2 Ti1 Cl1'
_cell_volume   72.65856277
_cell_formula_units_Z   1
loop_
 _symmetry_equiv_pos_site_id
 _symmetry_equiv_pos_as_xyz
  1  'x, y, z'
loop_
 _atom_site_type_symbol
 _atom_site_label
 _atom_site_symmetry_multiplicity
 _atom_site_fract_x
 _atom_site_fract_y
 _atom_site_fract_z
 _atom_site_occupancy
  Li  Li0  1  0.00000000  0.00000000  0.00000000  1
  Li  Li1  1  0.33300000  0.66700000  0.25000000  1
  Ti  Ti2  1  0.66700000  0.33300000  0.50000000  1
  Cl  Cl3  1  0.00000000  0.00000000  0.75000000  1
