# generated using pymatgen
data_Li4Sc2(TeBr)3
_symmetry_space_group_name_H-M   'P 1'
_cell_length_a   8.14967412
_cell_length_b   9.41566957
_cell_length_c   9.01510782
_cell_angle_alpha   90.00000000
_cell_angle_beta   90.00000000
_cell_angle_gamma   90.00000000
_symmetry_Int_Tables_number   1
_chemical_formula_structural   Li4Sc2(TeBr)3
_chemical_formula_sum   'Li4 Sc2 Te3 Br3'
_cell_volume   691.77104097
_cell_formula_units_Z   1
loop_
 _symmetry_equiv_pos_site_id
 _symmetry_equiv_pos_as_xyz
  1  'x, y, z'
loop_
 _atom_site_type_symbol
 _atom_site_label
 _atom_site_symmetry_multiplicity
 _atom_site_fract_x
 _atom_site_fract_y
 _atom_site_fract_z
 _atom_site_occupancy
  Li  Li0  1  0.12500000  0.12500000  0.12500000  1
  Li  Li1  1  0.50000000  0.50000000  0.50000000  1
  Li  Li2  1  0.25000000  0.25000000  0.25000000  1
  Li  Li3  1  0.75000000  0.75000000  0.75000000  1
  Sc  Sc4  1  0.39431591  0.02766274  0.06558991  1
  Sc  Sc5  1  0.69101649  0.73000778  0.01545888  1
  Br  Br6  1  0.72370635  0.65864126  0.29228884  1
  Br  Br7  1  0.52945379  0.31855969  0.41696165  1
  Br  Br8  1  0.79393871  0.12309410  0.97305722  1
  Te  Te9  1  0.92946965  0.58319828  0.41255411  1
  Te  Te10  1  0.22482868  0.63702689  0.27830777  1
  Te  Te11  1  0.71774877  0.41419130  0.91778039  1
