# generated using pymatgen
data_Li6HfSi2Te9
_symmetry_space_group_name_H-M   'P 1'
_cell_length_a   5.74427288
_cell_length_b   5.74427288
_cell_length_c   31.30224537
_cell_angle_alpha   90.00000000
_cell_angle_beta   90.00000000
_cell_angle_gamma   120.00000000
_symmetry_Int_Tables_number   1
_chemical_formula_structural   Li6HfSi2Te9
_chemical_formula_sum   'Li12 Hf2 Si4 Te18'
_cell_volume   894.49156430
_cell_formula_units_Z   2
loop_
 _symmetry_equiv_pos_site_id
 _symmetry_equiv_pos_as_xyz
  1  'x, y, z'
loop_
 _atom_site_type_symbol
 _atom_site_label
 _atom_site_symmetry_multiplicity
 _atom_site_fract_x
 _atom_site_fract_y
 _atom_site_fract_z
 _atom_site_occupancy
  Hf  Hf0  1  0.00000000  0.00000000  0.00000000  1
  Hf  Hf1  1  0.00000000  0.00000000  0.50000000  1
  Li  Li2  1  0.00000000  0.00000000  0.09872914  1
  Li  Li3  1  0.00000000  0.00000000  0.90127086  1
  Li  Li4  1  0.45662566  0.00000000  0.53666704  1
  Li  Li5  1  0.00000000  0.45662566  0.53666704  1
  Li  Li6  1  0.54337434  0.54337434  0.53666704  1
  Li  Li7  1  0.45662566  0.00000000  0.46333296  1
  Li  Li8  1  0.00000000  0.45662566  0.46333296  1
  Li  Li9  1  0.54337434  0.54337434  0.46333296  1
  Li  Li10  1  0.33333333  0.66666667  0.04772223  1
  Li  Li11  1  0.33333333  0.66666667  0.95227777  1
  Li  Li12  1  0.66666667  0.33333333  0.95227777  1
  Li  Li13  1  0.66666667  0.33333333  0.04772223  1
  Si  Si14  1  0.33333333  0.66666667  0.67719992  1
  Si  Si15  1  0.33333333  0.66666667  0.32280008  1
  Si  Si16  1  0.66666667  0.33333333  0.32280008  1
  Si  Si17  1  0.66666667  0.33333333  0.67719992  1
  Te  Te18  1  0.34124700  0.00000000  0.18700396  1
  Te  Te19  1  0.00000000  0.34124700  0.18700396  1
  Te  Te20  1  -0.34124700  -0.34124700  0.18700396  1
  Te  Te21  1  0.34124700  0.00000000  -0.18700396  1
  Te  Te22  1  0.00000000  0.34124700  -0.18700396  1
  Te  Te23  1  -0.34124700  -0.34124700  -0.18700396  1
  Te  Te24  1  0.00000000  0.00000000  0.34649816  1
  Te  Te25  1  0.00000000  0.00000000  0.65350184  1
  Te  Te26  1  0.33333333  0.66666667  0.00000000  1
  Te  Te27  1  0.66666667  0.33333333  0.00000000  1
  Te  Te28  1  0.33333333  0.66666667  0.55883228  1
  Te  Te29  1  0.33333333  0.66666667  0.44116772  1
  Te  Te30  1  0.66666667  0.33333333  0.44116772  1
  Te  Te31  1  0.66666667  0.33333333  0.55883228  1
  Te  Te32  1  0.33333333  0.66666667  0.21878533  1
  Te  Te33  1  0.33333333  0.66666667  0.78121467  1
  Te  Te34  1  0.66666667  0.33333333  0.78121467  1
  Te  Te35  1  0.66666667  0.33333333  0.21878533  1
