# generated using pymatgen
data_Li2O
_symmetry_space_group_name_H-M   'P 1'
_cell_length_a   15.38621885
_cell_length_b   15.38621885
_cell_length_c   15.38621885
_cell_angle_alpha   90.00000000
_cell_angle_beta   90.00000000
_cell_angle_gamma   90.00000000
_symmetry_Int_Tables_number   1
_chemical_formula_structural   Li2O
_chemical_formula_sum   'Li128 O64'
_cell_volume   3642.46775730
_cell_formula_units_Z   64
loop_
 _symmetry_equiv_pos_site_id
 _symmetry_equiv_pos_as_xyz
  1  'x, y, z'
loop_
 _atom_site_type_symbol
 _atom_site_label
 _atom_site_symmetry_multiplicity
 _atom_site_fract_x
 _atom_site_fract_y
 _atom_site_fract_z
 _atom_site_occupancy
  Li  Li0  1  0.50000000  0.91143228  0.91143228  1
  Li  Li1  1  0.50000000  -0.91143228  0.91143228  1
  Li  Li2  1  0.50000000  0.91143228  -0.91143228  1
  Li  Li3  1  0.50000000  -0.91143228  -0.91143228  1
  Li  Li4  1  0.91143228  0.50000000  0.91143228  1
  Li  Li5  1  0.91143228  0.50000000  -0.91143228  1
  Li  Li6  1  -0.91143228  0.50000000  0.91143228  1
  Li  Li7  1  -0.91143228  0.50000000  -0.91143228  1
  Li  Li8  1  0.91143228  0.91143228  0.50000000  1
  Li  Li9  1  -0.91143228  0.91143228  0.50000000  1
  Li  Li10  1  0.91143228  -0.91143228  0.50000000  1
  Li  Li11  1  -0.91143228  -0.91143228  0.50000000  1
  Li  Li12  1  0.50000000  1.41143228  1.41143228  1
  Li  Li13  1  0.50000000  -0.41143228  1.41143228  1
  Li  Li14  1  0.50000000  1.41143228  -0.41143228  1
  Li  Li15  1  0.50000000  -0.41143228  -0.41143228  1
  Li  Li16  1  0.91143228  1.00000000  1.41143228  1
  Li  Li17  1  0.91143228  1.00000000  -0.41143228  1
  Li  Li18  1  -0.91143228  1.00000000  1.41143228  1
  Li  Li19  1  -0.91143228  1.00000000  -0.41143228  1
  Li  Li20  1  0.91143228  1.41143228  1.00000000  1
  Li  Li21  1  -0.91143228  1.41143228  1.00000000  1
  Li  Li22  1  0.91143228  -0.41143228  1.00000000  1
  Li  Li23  1  -0.91143228  -0.41143228  1.00000000  1
  Li  Li24  1  1.00000000  0.91143228  1.41143228  1
  Li  Li25  1  1.00000000  -0.91143228  1.41143228  1
  Li  Li26  1  1.00000000  0.91143228  -0.41143228  1
  Li  Li27  1  1.00000000  -0.91143228  -0.41143228  1
  Li  Li28  1  1.41143228  0.50000000  1.41143228  1
  Li  Li29  1  1.41143228  0.50000000  -0.41143228  1
  Li  Li30  1  -0.41143228  0.50000000  1.41143228  1
  Li  Li31  1  -0.41143228  0.50000000  -0.41143228  1
  Li  Li32  1  1.41143228  0.91143228  1.00000000  1
  Li  Li33  1  -0.41143228  0.91143228  1.00000000  1
  Li  Li34  1  1.41143228  -0.91143228  1.00000000  1
  Li  Li35  1  -0.41143228  -0.91143228  1.00000000  1
  Li  Li36  1  1.00000000  1.41143228  0.91143228  1
  Li  Li37  1  1.00000000  -0.41143228  0.91143228  1
  Li  Li38  1  1.00000000  1.41143228  -0.91143228  1
  Li  Li39  1  1.00000000  -0.41143228  -0.91143228  1
  Li  Li40  1  1.41143228  1.00000000  0.91143228  1
  Li  Li41  1  1.41143228  1.00000000  -0.91143228  1
  Li  Li42  1  -0.41143228  1.00000000  0.91143228  1
  Li  Li43  1  -0.41143228  1.00000000  -0.91143228  1
  Li  Li44  1  1.41143228  1.41143228  0.50000000  1
  Li  Li45  1  -0.41143228  1.41143228  0.50000000  1
  Li  Li46  1  1.41143228  -0.41143228  0.50000000  1
  Li  Li47  1  -0.41143228  -0.41143228  0.50000000  1
  Li  Li48  1  0.33854216  0.25000000  0.25000000  1
  Li  Li49  1  0.66145784  0.75000000  0.25000000  1
  Li  Li50  1  0.25000000  0.33854216  0.25000000  1
  Li  Li51  1  0.25000000  0.66145784  0.75000000  1
  Li  Li52  1  0.25000000  0.25000000  0.33854216  1
  Li  Li53  1  0.75000000  0.25000000  0.66145784  1
  Li  Li54  1  0.25000000  0.33854216  0.75000000  1
  Li  Li55  1  0.75000000  0.66145784  0.75000000  1
  Li  Li56  1  0.33854216  0.25000000  0.75000000  1
  Li  Li57  1  0.66145784  0.25000000  0.25000000  1
  Li  Li58  1  0.25000000  0.25000000  0.66145784  1
  Li  Li59  1  0.25000000  0.75000000  0.33854216  1
  Li  Li60  1  0.33854216  0.75000000  0.75000000  1
  Li  Li61  1  0.66145784  0.25000000  0.75000000  1
  Li  Li62  1  0.25000000  0.83854216  0.75000000  1
  Li  Li63  1  0.25000000  0.16145784  0.25000000  1
  Li  Li64  1  0.25000000  0.75000000  0.83854216  1
  Li  Li65  1  0.75000000  0.75000000  0.16145784  1
  Li  Li66  1  0.25000000  0.83854216  0.25000000  1
  Li  Li67  1  0.75000000  0.16145784  0.25000000  1
  Li  Li68  1  0.33854216  0.75000000  0.25000000  1
  Li  Li69  1  0.66145784  0.75000000  0.75000000  1
  Li  Li70  1  0.25000000  0.75000000  0.16145784  1
  Li  Li71  1  0.25000000  0.25000000  0.83854216  1
  Li  Li72  1  0.83854216  0.25000000  0.75000000  1
  Li  Li73  1  0.16145784  0.75000000  0.75000000  1
  Li  Li74  1  0.75000000  0.33854216  0.75000000  1
  Li  Li75  1  0.75000000  0.66145784  0.25000000  1
  Li  Li76  1  0.75000000  0.25000000  0.83854216  1
  Li  Li77  1  0.25000000  0.25000000  0.16145784  1
  Li  Li78  1  0.75000000  0.33854216  0.25000000  1
  Li  Li79  1  0.25000000  0.66145784  0.25000000  1
  Li  Li80  1  0.83854216  0.25000000  0.25000000  1
  Li  Li81  1  0.16145784  0.25000000  0.75000000  1
  Li  Li82  1  0.75000000  0.25000000  0.16145784  1
  Li  Li83  1  0.75000000  0.75000000  0.83854216  1
  Li  Li84  1  0.83854216  0.75000000  0.25000000  1
  Li  Li85  1  0.16145784  0.25000000  0.25000000  1
  Li  Li86  1  0.75000000  0.83854216  0.25000000  1
  Li  Li87  1  0.75000000  0.16145784  0.75000000  1
  Li  Li88  1  0.75000000  0.75000000  0.33854216  1
  Li  Li89  1  0.25000000  0.75000000  0.66145784  1
  Li  Li90  1  0.75000000  0.83854216  0.75000000  1
  Li  Li91  1  0.25000000  0.16145784  0.75000000  1
  Li  Li92  1  0.83854216  0.75000000  0.75000000  1
  Li  Li93  1  0.16145784  0.75000000  0.25000000  1
  Li  Li94  1  0.75000000  0.75000000  0.66145784  1
  Li  Li95  1  0.75000000  0.25000000  0.33854216  1
  Li  Li96  1  0.00000000  0.25000000  0.25000000  1
  Li  Li97  1  0.00000000  0.75000000  0.25000000  1
  Li  Li98  1  0.25000000  0.00000000  0.25000000  1
  Li  Li99  1  0.25000000  0.00000000  0.75000000  1
  Li  Li100  1  0.25000000  0.25000000  -0.00000000  1
  Li  Li101  1  0.75000000  0.25000000  -0.00000000  1
  Li  Li102  1  0.00000000  0.75000000  0.75000000  1
  Li  Li103  1  0.00000000  0.25000000  0.75000000  1
  Li  Li104  1  0.25000000  0.50000000  0.75000000  1
  Li  Li105  1  0.25000000  0.50000000  0.25000000  1
  Li  Li106  1  0.25000000  0.75000000  0.50000000  1
  Li  Li107  1  0.75000000  0.75000000  0.50000000  1
  Li  Li108  1  0.50000000  0.25000000  0.75000000  1
  Li  Li109  1  0.50000000  0.75000000  0.75000000  1
  Li  Li110  1  0.75000000  0.00000000  0.75000000  1
  Li  Li111  1  0.75000000  0.00000000  0.25000000  1
  Li  Li112  1  0.75000000  0.25000000  0.50000000  1
  Li  Li113  1  0.25000000  0.25000000  0.50000000  1
  Li  Li114  1  0.50000000  0.75000000  0.25000000  1
  Li  Li115  1  0.50000000  0.25000000  0.25000000  1
  Li  Li116  1  0.75000000  0.50000000  0.25000000  1
  Li  Li117  1  0.75000000  0.50000000  0.75000000  1
  Li  Li118  1  0.75000000  0.75000000  0.00000000  1
  Li  Li119  1  0.25000000  0.75000000  0.00000000  1
  Li  Li120  1  0.25000000  0.25000000  0.25000000  1
  Li  Li121  1  0.25000000  0.25000000  0.75000000  1
  Li  Li122  1  0.25000000  0.75000000  0.75000000  1
  Li  Li123  1  0.25000000  0.75000000  0.25000000  1
  Li  Li124  1  0.75000000  0.25000000  0.75000000  1
  Li  Li125  1  0.75000000  0.25000000  0.25000000  1
  Li  Li126  1  0.75000000  0.75000000  0.25000000  1
  Li  Li127  1  0.75000000  0.75000000  0.75000000  1
  O  O128  1  0.03936051  0.03936051  0.03936051  1
  O  O129  1  0.96063949  0.96063949  0.03936051  1
  O  O130  1  0.96063949  0.03936051  0.96063949  1
  O  O131  1  0.03936051  0.96063949  0.96063949  1
  O  O132  1  0.03936051  0.03936051  0.96063949  1
  O  O133  1  0.96063949  0.96063949  0.96063949  1
  O  O134  1  0.03936051  0.96063949  0.03936051  1
  O  O135  1  0.96063949  0.03936051  0.03936051  1
  O  O136  1  0.03936051  0.53936051  0.53936051  1
  O  O137  1  0.96063949  0.46063949  0.53936051  1
  O  O138  1  0.96063949  0.53936051  0.46063949  1
  O  O139  1  0.03936051  0.46063949  0.46063949  1
  O  O140  1  0.03936051  0.53936051  0.46063949  1
  O  O141  1  0.96063949  0.46063949  0.46063949  1
  O  O142  1  0.03936051  0.46063949  0.53936051  1
  O  O143  1  0.96063949  0.53936051  0.53936051  1
  O  O144  1  0.53936051  0.03936051  0.53936051  1
  O  O145  1  0.46063949  0.96063949  0.53936051  1
  O  O146  1  0.46063949  0.03936051  0.46063949  1
  O  O147  1  0.53936051  0.96063949  0.46063949  1
  O  O148  1  0.53936051  0.03936051  0.46063949  1
  O  O149  1  0.46063949  0.96063949  0.46063949  1
  O  O150  1  0.53936051  0.96063949  0.53936051  1
  O  O151  1  0.46063949  0.03936051  0.53936051  1
  O  O152  1  0.53936051  0.53936051  0.03936051  1
  O  O153  1  0.46063949  0.46063949  0.03936051  1
  O  O154  1  0.46063949  0.53936051  0.96063949  1
  O  O155  1  0.53936051  0.46063949  0.96063949  1
  O  O156  1  0.53936051  0.53936051  0.96063949  1
  O  O157  1  0.46063949  0.46063949  0.96063949  1
  O  O158  1  0.53936051  0.46063949  0.03936051  1
  O  O159  1  0.46063949  0.53936051  0.03936051  1
  O  O160  1  0.17129086  0.17129086  0.17129086  1
  O  O161  1  0.82870914  0.82870914  0.17129086  1
  O  O162  1  0.82870914  0.17129086  0.82870914  1
  O  O163  1  0.17129086  0.82870914  0.82870914  1
  O  O164  1  0.17129086  0.17129086  0.82870914  1
  O  O165  1  0.82870914  0.82870914  0.82870914  1
  O  O166  1  0.17129086  0.82870914  0.17129086  1
  O  O167  1  0.82870914  0.17129086  0.17129086  1
  O  O168  1  0.17129086  0.67129086  0.67129086  1
  O  O169  1  0.82870914  0.32870914  0.67129086  1
  O  O170  1  0.82870914  0.67129086  0.32870914  1
  O  O171  1  0.17129086  0.32870914  0.32870914  1
  O  O172  1  0.17129086  0.67129086  0.32870914  1
  O  O173  1  0.82870914  0.32870914  0.32870914  1
  O  O174  1  0.17129086  0.32870914  0.67129086  1
  O  O175  1  0.82870914  0.67129086  0.67129086  1
  O  O176  1  0.67129086  0.17129086  0.67129086  1
  O  O177  1  0.32870914  0.82870914  0.67129086  1
  O  O178  1  0.32870914  0.17129086  0.32870914  1
  O  O179  1  0.67129086  0.82870914  0.32870914  1
  O  O180  1  0.67129086  0.17129086  0.32870914  1
  O  O181  1  0.32870914  0.82870914  0.32870914  1
  O  O182  1  0.67129086  0.82870914  0.67129086  1
  O  O183  1  0.32870914  0.17129086  0.67129086  1
  O  O184  1  0.67129086  0.67129086  0.17129086  1
  O  O185  1  0.32870914  0.32870914  0.17129086  1
  O  O186  1  0.32870914  0.67129086  0.82870914  1
  O  O187  1  0.67129086  0.32870914  0.82870914  1
  O  O188  1  0.67129086  0.67129086  0.82870914  1
  O  O189  1  0.32870914  0.32870914  0.82870914  1
  O  O190  1  0.67129086  0.32870914  0.17129086  1
  O  O191  1  0.32870914  0.67129086  0.17129086  1
