# generated using pymatgen
data_Na6Mg3Si4Te2(SeO)6
_symmetry_space_group_name_H-M   'P 1'
_cell_length_a   21.26368471
_cell_length_b   21.26368471
_cell_length_c   21.26368471
_cell_angle_alpha   90.00000000
_cell_angle_beta   90.00000000
_cell_angle_gamma   90.00000000
_symmetry_Int_Tables_number   1
_chemical_formula_structural   Na6Mg3Si4Te2(SeO)6
_chemical_formula_sum   'Na96 Mg48 Si64 Te32 Se96 O96'
_cell_volume   9614.25357813
_cell_formula_units_Z   16
loop_
 _symmetry_equiv_pos_site_id
 _symmetry_equiv_pos_as_xyz
  1  'x, y, z'
loop_
 _atom_site_type_symbol
 _atom_site_label
 _atom_site_symmetry_multiplicity
 _atom_site_fract_x
 _atom_site_fract_y
 _atom_site_fract_z
 _atom_site_occupancy
  Mg  Mg0  1  0.23175983  -0.00000000  0.25000000  1
  Mg  Mg1  1  0.26824017  0.00000000  0.75000000  1
  Mg  Mg2  1  0.25000000  0.23175983  -0.00000000  1
  Mg  Mg3  1  0.75000000  0.26824017  -0.00000000  1
  Mg  Mg4  1  0.00000000  0.25000000  0.23175983  1
  Mg  Mg5  1  0.00000000  0.75000000  0.26824017  1
  Mg  Mg6  1  0.75000000  0.48175983  0.00000000  1
  Mg  Mg7  1  0.75000000  0.51824017  0.50000000  1
  Mg  Mg8  1  0.98175983  0.50000000  0.25000000  1
  Mg  Mg9  1  0.01824017  -0.00000000  0.25000000  1
  Mg  Mg10  1  0.00000000  0.25000000  0.01824017  1
  Mg  Mg11  1  0.50000000  0.25000000  0.98175983  1
  Mg  Mg12  1  0.76824017  -0.00000000  0.75000000  1
  Mg  Mg13  1  0.73175983  0.00000000  0.25000000  1
  Mg  Mg14  1  0.75000000  0.76824017  -0.00000000  1
  Mg  Mg15  1  0.25000000  0.73175983  0.00000000  1
  Mg  Mg16  1  0.00000000  0.75000000  0.76824017  1
  Mg  Mg17  1  0.00000000  0.25000000  0.73175983  1
  Mg  Mg18  1  0.25000000  0.51824017  -0.00000000  1
  Mg  Mg19  1  0.25000000  0.48175983  0.50000000  1
  Mg  Mg20  1  0.01824017  0.50000000  0.75000000  1
  Mg  Mg21  1  0.98175983  0.00000000  0.75000000  1
  Mg  Mg22  1  0.00000000  0.75000000  0.98175983  1
  Mg  Mg23  1  0.50000000  0.75000000  0.01824017  1
  Mg  Mg24  1  0.73175983  0.50000000  0.75000000  1
  Mg  Mg25  1  0.76824017  0.50000000  0.25000000  1
  Mg  Mg26  1  0.75000000  0.73175983  0.50000000  1
  Mg  Mg27  1  0.25000000  0.76824017  0.50000000  1
  Mg  Mg28  1  0.50000000  0.75000000  0.73175983  1
  Mg  Mg29  1  0.50000000  0.25000000  0.76824017  1
  Mg  Mg30  1  0.25000000  0.98175983  0.50000000  1
  Mg  Mg31  1  0.25000000  0.01824017  -0.00000000  1
  Mg  Mg32  1  0.48175983  0.00000000  0.75000000  1
  Mg  Mg33  1  0.51824017  0.50000000  0.75000000  1
  Mg  Mg34  1  0.50000000  0.75000000  0.51824017  1
  Mg  Mg35  1  0.00000000  0.75000000  0.48175983  1
  Mg  Mg36  1  0.26824017  0.50000000  0.25000000  1
  Mg  Mg37  1  0.23175983  0.50000000  0.75000000  1
  Mg  Mg38  1  0.25000000  0.26824017  0.50000000  1
  Mg  Mg39  1  0.75000000  0.23175983  0.50000000  1
  Mg  Mg40  1  0.50000000  0.25000000  0.26824017  1
  Mg  Mg41  1  0.50000000  0.75000000  0.23175983  1
  Mg  Mg42  1  0.75000000  0.01824017  0.50000000  1
  Mg  Mg43  1  0.75000000  0.98175983  0.00000000  1
  Mg  Mg44  1  0.51824017  -0.00000000  0.25000000  1
  Mg  Mg45  1  0.48175983  0.50000000  0.25000000  1
  Mg  Mg46  1  0.50000000  0.25000000  0.48175983  1
  Mg  Mg47  1  0.00000000  0.25000000  0.51824017  1
  Na  Na48  1  0.06763307  0.32922814  0.90795083  1
  Na  Na49  1  0.43236693  0.67077186  0.40795083  1
  Na  Na50  1  0.93236693  0.82922814  0.59204917  1
  Na  Na51  1  0.56763307  0.17077186  0.09204917  1
  Na  Na52  1  0.90795083  0.06763307  0.32922814  1
  Na  Na53  1  0.40795083  0.43236693  0.67077186  1
  Na  Na54  1  0.59204917  0.93236693  0.82922814  1
  Na  Na55  1  0.09204917  0.56763307  0.17077186  1
  Na  Na56  1  0.32922814  0.90795083  0.06763307  1
  Na  Na57  1  0.67077186  0.40795083  0.43236693  1
  Na  Na58  1  0.82922814  0.59204917  0.93236693  1
  Na  Na59  1  0.17077186  0.09204917  0.56763307  1
  Na  Na60  1  0.07922814  0.31763307  0.34204917  1
  Na  Na61  1  0.42077186  0.68236693  0.84204917  1
  Na  Na62  1  0.57922814  0.18236693  0.65795083  1
  Na  Na63  1  0.92077186  0.81763307  0.15795083  1
  Na  Na64  1  0.81763307  0.15795083  0.92077186  1
  Na  Na65  1  0.18236693  0.65795083  0.57922814  1
  Na  Na66  1  0.68236693  0.84204917  0.42077186  1
  Na  Na67  1  0.31763307  0.34204917  0.07922814  1
  Na  Na68  1  0.65795083  0.57922814  0.18236693  1
  Na  Na69  1  0.15795083  0.92077186  0.81763307  1
  Na  Na70  1  0.34204917  0.07922814  0.31763307  1
  Na  Na71  1  0.84204917  0.42077186  0.68236693  1
  Na  Na72  1  0.93236693  0.67077186  0.09204917  1
  Na  Na73  1  0.56763307  0.32922814  0.59204917  1
  Na  Na74  1  0.06763307  0.17077186  0.40795083  1
  Na  Na75  1  0.43236693  0.82922814  0.90795083  1
  Na  Na76  1  0.09204917  0.93236693  0.67077186  1
  Na  Na77  1  0.59204917  0.56763307  0.32922814  1
  Na  Na78  1  0.40795083  0.06763307  0.17077186  1
  Na  Na79  1  0.90795083  0.43236693  0.82922814  1
  Na  Na80  1  0.67077186  0.09204917  0.93236693  1
  Na  Na81  1  0.32922814  0.59204917  0.56763307  1
  Na  Na82  1  0.17077186  0.40795083  0.06763307  1
  Na  Na83  1  0.82922814  0.90795083  0.43236693  1
  Na  Na84  1  0.92077186  0.68236693  0.65795083  1
  Na  Na85  1  0.57922814  0.31763307  0.15795083  1
  Na  Na86  1  0.42077186  0.81763307  0.34204917  1
  Na  Na87  1  0.07922814  0.18236693  0.84204917  1
  Na  Na88  1  0.18236693  0.84204917  0.07922814  1
  Na  Na89  1  0.81763307  0.34204917  0.42077186  1
  Na  Na90  1  0.31763307  0.15795083  0.57922814  1
  Na  Na91  1  0.68236693  0.65795083  0.92077186  1
  Na  Na92  1  0.34204917  0.42077186  0.81763307  1
  Na  Na93  1  0.84204917  0.07922814  0.18236693  1
  Na  Na94  1  0.65795083  0.92077186  0.68236693  1
  Na  Na95  1  0.15795083  0.57922814  0.31763307  1
  Na  Na96  1  0.56763307  0.82922814  0.40795083  1
  Na  Na97  1  0.93236693  0.17077186  0.90795083  1
  Na  Na98  1  0.43236693  0.32922814  0.09204917  1
  Na  Na99  1  0.06763307  0.67077186  0.59204917  1
  Na  Na100  1  0.40795083  0.56763307  0.82922814  1
  Na  Na101  1  0.90795083  0.93236693  0.17077186  1
  Na  Na102  1  0.09204917  0.43236693  0.32922814  1
  Na  Na103  1  0.59204917  0.06763307  0.67077186  1
  Na  Na104  1  0.82922814  0.40795083  0.56763307  1
  Na  Na105  1  0.17077186  0.90795083  0.93236693  1
  Na  Na106  1  0.32922814  0.09204917  0.43236693  1
  Na  Na107  1  0.67077186  0.59204917  0.06763307  1
  Na  Na108  1  0.57922814  0.81763307  0.84204917  1
  Na  Na109  1  0.92077186  0.18236693  0.34204917  1
  Na  Na110  1  0.07922814  0.68236693  0.15795083  1
  Na  Na111  1  0.42077186  0.31763307  0.65795083  1
  Na  Na112  1  0.31763307  0.65795083  0.42077186  1
  Na  Na113  1  0.68236693  0.15795083  0.07922814  1
  Na  Na114  1  0.18236693  0.34204917  0.92077186  1
  Na  Na115  1  0.81763307  0.84204917  0.57922814  1
  Na  Na116  1  0.15795083  0.07922814  0.68236693  1
  Na  Na117  1  0.65795083  0.42077186  0.31763307  1
  Na  Na118  1  0.84204917  0.57922814  0.81763307  1
  Na  Na119  1  0.34204917  0.92077186  0.18236693  1
  Na  Na120  1  0.43236693  0.17077186  0.59204917  1
  Na  Na121  1  0.06763307  0.82922814  0.09204917  1
  Na  Na122  1  0.56763307  0.67077186  0.90795083  1
  Na  Na123  1  0.93236693  0.32922814  0.40795083  1
  Na  Na124  1  0.59204917  0.43236693  0.17077186  1
  Na  Na125  1  0.09204917  0.06763307  0.82922814  1
  Na  Na126  1  0.90795083  0.56763307  0.67077186  1
  Na  Na127  1  0.40795083  0.93236693  0.32922814  1
  Na  Na128  1  0.17077186  0.59204917  0.43236693  1
  Na  Na129  1  0.82922814  0.09204917  0.06763307  1
  Na  Na130  1  0.67077186  0.90795083  0.56763307  1
  Na  Na131  1  0.32922814  0.40795083  0.93236693  1
  Na  Na132  1  0.42077186  0.18236693  0.15795083  1
  Na  Na133  1  0.07922814  0.81763307  0.65795083  1
  Na  Na134  1  0.92077186  0.31763307  0.84204917  1
  Na  Na135  1  0.57922814  0.68236693  0.34204917  1
  Na  Na136  1  0.68236693  0.34204917  0.57922814  1
  Na  Na137  1  0.31763307  0.84204917  0.92077186  1
  Na  Na138  1  0.81763307  0.65795083  0.07922814  1
  Na  Na139  1  0.18236693  0.15795083  0.42077186  1
  Na  Na140  1  0.84204917  0.92077186  0.31763307  1
  Na  Na141  1  0.34204917  0.57922814  0.68236693  1
  Na  Na142  1  0.15795083  0.42077186  0.18236693  1
  Na  Na143  1  0.65795083  0.07922814  0.81763307  1
  O  O144  1  0.37500000  -0.00000000  0.25000000  1
  O  O145  1  0.12500000  0.00000000  0.75000000  1
  O  O146  1  0.25000000  0.37500000  0.00000000  1
  O  O147  1  0.75000000  0.12500000  -0.00000000  1
  O  O148  1  0.00000000  0.25000000  0.37500000  1
  O  O149  1  0.00000000  0.75000000  0.12500000  1
  O  O150  1  0.75000000  0.62500000  -0.00000000  1
  O  O151  1  0.75000000  0.37500000  0.50000000  1
  O  O152  1  0.12500000  0.50000000  0.25000000  1
  O  O153  1  0.87500000  0.00000000  0.25000000  1
  O  O154  1  0.00000000  0.25000000  0.87500000  1
  O  O155  1  0.50000000  0.25000000  0.12500000  1
  O  O156  1  0.87500000  0.50000000  0.75000000  1
  O  O157  1  0.62500000  0.50000000  0.25000000  1
  O  O158  1  0.75000000  0.87500000  0.50000000  1
  O  O159  1  0.25000000  0.62500000  0.50000000  1
  O  O160  1  0.50000000  0.75000000  0.87500000  1
  O  O161  1  0.50000000  0.25000000  0.62500000  1
  O  O162  1  0.25000000  0.12500000  0.50000000  1
  O  O163  1  0.25000000  0.87500000  0.00000000  1
  O  O164  1  0.62500000  0.00000000  0.75000000  1
  O  O165  1  0.37500000  0.50000000  0.75000000  1
  O  O166  1  0.50000000  0.75000000  0.37500000  1
  O  O167  1  0.00000000  0.75000000  0.62500000  1
  O  O168  1  0.12500000  0.93579559  0.31420441  1
  O  O169  1  0.37500000  0.06420441  0.81420441  1
  O  O170  1  0.87500000  0.43579559  0.18579559  1
  O  O171  1  0.62500000  0.56420441  0.68579559  1
  O  O172  1  0.31420441  0.12500000  0.93579559  1
  O  O173  1  0.81420441  0.37500000  0.06420441  1
  O  O174  1  0.18579559  0.87500000  0.43579559  1
  O  O175  1  0.68579559  0.62500000  0.56420441  1
  O  O176  1  0.93579559  0.31420441  0.12500000  1
  O  O177  1  0.06420441  0.81420441  0.37500000  1
  O  O178  1  0.43579559  0.18579559  0.87500000  1
  O  O179  1  0.56420441  0.68579559  0.62500000  1
  O  O180  1  0.87500000  0.06420441  0.68579559  1
  O  O181  1  0.62500000  0.93579559  0.18579559  1
  O  O182  1  0.12500000  0.56420441  0.81420441  1
  O  O183  1  0.37500000  0.43579559  0.31420441  1
  O  O184  1  0.68579559  0.87500000  0.06420441  1
  O  O185  1  0.18579559  0.62500000  0.93579559  1
  O  O186  1  0.81420441  0.12500000  0.56420441  1
  O  O187  1  0.31420441  0.37500000  0.43579559  1
  O  O188  1  0.06420441  0.68579559  0.87500000  1
  O  O189  1  0.93579559  0.18579559  0.62500000  1
  O  O190  1  0.56420441  0.81420441  0.12500000  1
  O  O191  1  0.43579559  0.31420441  0.37500000  1
  O  O192  1  0.62500000  0.43579559  0.81420441  1
  O  O193  1  0.87500000  0.56420441  0.31420441  1
  O  O194  1  0.37500000  0.93579559  0.68579559  1
  O  O195  1  0.12500000  0.06420441  0.18579559  1
  O  O196  1  0.81420441  0.62500000  0.43579559  1
  O  O197  1  0.31420441  0.87500000  0.56420441  1
  O  O198  1  0.68579559  0.37500000  0.93579559  1
  O  O199  1  0.18579559  0.12500000  0.06420441  1
  O  O200  1  0.43579559  0.81420441  0.62500000  1
  O  O201  1  0.56420441  0.31420441  0.87500000  1
  O  O202  1  0.93579559  0.68579559  0.37500000  1
  O  O203  1  0.06420441  0.18579559  0.12500000  1
  O  O204  1  0.37500000  0.56420441  0.18579559  1
  O  O205  1  0.12500000  0.43579559  0.68579559  1
  O  O206  1  0.62500000  0.06420441  0.31420441  1
  O  O207  1  0.87500000  0.93579559  0.81420441  1
  O  O208  1  0.18579559  0.37500000  0.56420441  1
  O  O209  1  0.68579559  0.12500000  0.43579559  1
  O  O210  1  0.31420441  0.62500000  0.06420441  1
  O  O211  1  0.81420441  0.87500000  0.93579559  1
  O  O212  1  0.56420441  0.18579559  0.37500000  1
  O  O213  1  0.43579559  0.68579559  0.12500000  1
  O  O214  1  0.06420441  0.31420441  0.62500000  1
  O  O215  1  0.93579559  0.81420441  0.87500000  1
  O  O216  1  0.12500000  0.00000000  0.25000000  1
  O  O217  1  0.37500000  -0.00000000  0.75000000  1
  O  O218  1  0.25000000  0.12500000  -0.00000000  1
  O  O219  1  0.75000000  0.37500000  -0.00000000  1
  O  O220  1  0.00000000  0.25000000  0.12500000  1
  O  O221  1  0.00000000  0.75000000  0.37500000  1
  O  O222  1  0.87500000  0.00000000  0.75000000  1
  O  O223  1  0.62500000  0.00000000  0.25000000  1
  O  O224  1  0.75000000  0.87500000  -0.00000000  1
  O  O225  1  0.25000000  0.62500000  0.00000000  1
  O  O226  1  0.00000000  0.75000000  0.87500000  1
  O  O227  1  0.00000000  0.25000000  0.62500000  1
  O  O228  1  0.62500000  0.50000000  0.75000000  1
  O  O229  1  0.87500000  0.50000000  0.25000000  1
  O  O230  1  0.75000000  0.62500000  0.50000000  1
  O  O231  1  0.25000000  0.87500000  0.50000000  1
  O  O232  1  0.50000000  0.75000000  0.62500000  1
  O  O233  1  0.50000000  0.25000000  0.87500000  1
  O  O234  1  0.37500000  0.50000000  0.25000000  1
  O  O235  1  0.12500000  0.50000000  0.75000000  1
  O  O236  1  0.25000000  0.37500000  0.50000000  1
  O  O237  1  0.75000000  0.12500000  0.50000000  1
  O  O238  1  0.50000000  0.25000000  0.37500000  1
  O  O239  1  0.50000000  0.75000000  0.12500000  1
  Se  Se240  1  0.95390797  0.61813492  0.20508615  1
  Se  Se241  1  -0.45390797  -0.61813492  0.70508615  1
  Se  Se242  1  -0.95390797  1.11813492  0.29491385  1
  Se  Se243  1  1.45390797  -0.11813492  -0.20508615  1
  Se  Se244  1  0.20508615  0.95390797  0.61813492  1
  Se  Se245  1  0.70508615  -0.45390797  -0.61813492  1
  Se  Se246  1  0.29491385  -0.95390797  1.11813492  1
  Se  Se247  1  -0.20508615  1.45390797  -0.11813492  1
  Se  Se248  1  0.61813492  0.20508615  0.95390797  1
  Se  Se249  1  -0.61813492  0.70508615  -0.45390797  1
  Se  Se250  1  1.11813492  0.29491385  -0.95390797  1
  Se  Se251  1  -0.11813492  -0.20508615  1.45390797  1
  Se  Se252  1  1.36813492  1.20390797  0.04491385  1
  Se  Se253  1  0.13186508  -0.20390797  0.54491385  1
  Se  Se254  1  0.86813492  -0.70390797  0.95508615  1
  Se  Se255  1  -0.36813492  1.70390797  0.45508615  1
  Se  Se256  1  1.70390797  0.45508615  -0.36813492  1
  Se  Se257  1  -0.70390797  0.95508615  0.86813492  1
  Se  Se258  1  -0.20390797  0.54491385  0.13186508  1
  Se  Se259  1  1.20390797  0.04491385  1.36813492  1
  Se  Se260  1  0.95508615  0.86813492  -0.70390797  1
  Se  Se261  1  0.45508615  -0.36813492  1.70390797  1
  Se  Se262  1  0.04491385  1.36813492  1.20390797  1
  Se  Se263  1  0.54491385  0.13186508  -0.20390797  1
  Se  Se264  1  -0.95390797  -0.61813492  -0.20508615  1
  Se  Se265  1  1.45390797  0.61813492  0.29491385  1
  Se  Se266  1  0.95390797  -0.11813492  0.70508615  1
  Se  Se267  1  -0.45390797  1.11813492  0.20508615  1
  Se  Se268  1  -0.20508615  -0.95390797  -0.61813492  1
  Se  Se269  1  0.29491385  1.45390797  0.61813492  1
  Se  Se270  1  0.70508615  0.95390797  -0.11813492  1
  Se  Se271  1  0.20508615  -0.45390797  1.11813492  1
  Se  Se272  1  -0.61813492  -0.20508615  -0.95390797  1
  Se  Se273  1  0.61813492  0.29491385  1.45390797  1
  Se  Se274  1  -0.11813492  0.70508615  0.95390797  1
  Se  Se275  1  1.11813492  0.20508615  -0.45390797  1
  Se  Se276  1  -0.36813492  -0.20390797  0.95508615  1
  Se  Se277  1  0.86813492  1.20390797  0.45508615  1
  Se  Se278  1  0.13186508  1.70390797  0.04491385  1
  Se  Se279  1  1.36813492  -0.70390797  0.54491385  1
  Se  Se280  1  -0.70390797  0.54491385  1.36813492  1
  Se  Se281  1  1.70390797  0.04491385  0.13186508  1
  Se  Se282  1  1.20390797  0.45508615  0.86813492  1
  Se  Se283  1  -0.20390797  0.95508615  -0.36813492  1
  Se  Se284  1  0.04491385  0.13186508  1.70390797  1
  Se  Se285  1  0.54491385  1.36813492  -0.70390797  1
  Se  Se286  1  0.95508615  -0.36813492  -0.20390797  1
  Se  Se287  1  0.45508615  0.86813492  1.20390797  1
  Se  Se288  1  1.45390797  1.11813492  0.70508615  1
  Se  Se289  1  0.04609203  -0.11813492  1.20508615  1
  Se  Se290  1  -0.45390797  1.61813492  0.79491385  1
  Se  Se291  1  1.95390797  0.38186508  0.29491385  1
  Se  Se292  1  0.70508615  1.45390797  1.11813492  1
  Se  Se293  1  1.20508615  0.04609203  -0.11813492  1
  Se  Se294  1  0.79491385  -0.45390797  1.61813492  1
  Se  Se295  1  0.29491385  1.95390797  0.38186508  1
  Se  Se296  1  1.11813492  0.70508615  1.45390797  1
  Se  Se297  1  -0.11813492  1.20508615  0.04609203  1
  Se  Se298  1  1.61813492  0.79491385  -0.45390797  1
  Se  Se299  1  0.38186508  0.29491385  1.95390797  1
  Se  Se300  1  1.86813492  1.70390797  0.54491385  1
  Se  Se301  1  0.63186508  0.29609203  1.04491385  1
  Se  Se302  1  1.36813492  -0.20390797  1.45508615  1
  Se  Se303  1  0.13186508  2.20390797  0.95508615  1
  Se  Se304  1  2.20390797  0.95508615  0.13186508  1
  Se  Se305  1  -0.20390797  1.45508615  1.36813492  1
  Se  Se306  1  0.29609203  1.04491385  0.63186508  1
  Se  Se307  1  1.70390797  0.54491385  1.86813492  1
  Se  Se308  1  1.45508615  1.36813492  -0.20390797  1
  Se  Se309  1  0.95508615  0.13186508  2.20390797  1
  Se  Se310  1  0.54491385  1.86813492  1.70390797  1
  Se  Se311  1  1.04491385  0.63186508  0.29609203  1
  Se  Se312  1  -0.45390797  -0.11813492  0.29491385  1
  Se  Se313  1  1.95390797  1.11813492  0.79491385  1
  Se  Se314  1  1.45390797  0.38186508  1.20508615  1
  Se  Se315  1  0.04609203  1.61813492  0.70508615  1
  Se  Se316  1  0.29491385  -0.45390797  -0.11813492  1
  Se  Se317  1  0.79491385  1.95390797  1.11813492  1
  Se  Se318  1  1.20508615  1.45390797  0.38186508  1
  Se  Se319  1  0.70508615  0.04609203  1.61813492  1
  Se  Se320  1  -0.11813492  0.29491385  -0.45390797  1
  Se  Se321  1  1.11813492  0.79491385  1.95390797  1
  Se  Se322  1  0.38186508  1.20508615  1.45390797  1
  Se  Se323  1  1.61813492  0.70508615  0.04609203  1
  Se  Se324  1  0.13186508  0.29609203  1.45508615  1
  Se  Se325  1  1.36813492  1.70390797  0.95508615  1
  Se  Se326  1  0.63186508  2.20390797  0.54491385  1
  Se  Se327  1  1.86813492  -0.20390797  1.04491385  1
  Se  Se328  1  -0.20390797  1.04491385  1.86813492  1
  Se  Se329  1  2.20390797  0.54491385  0.63186508  1
  Se  Se330  1  1.70390797  0.95508615  1.36813492  1
  Se  Se331  1  0.29609203  1.45508615  0.13186508  1
  Se  Se332  1  0.54491385  0.63186508  2.20390797  1
  Se  Se333  1  1.04491385  1.86813492  -0.20390797  1
  Se  Se334  1  1.45508615  0.13186508  0.29609203  1
  Se  Se335  1  0.95508615  1.36813492  1.70390797  1
  Si  Si336  1  0.30526920  -0.00000000  0.25000000  1
  Si  Si337  1  0.19473080  -0.00000000  0.75000000  1
  Si  Si338  1  0.25000000  0.30526920  0.00000000  1
  Si  Si339  1  0.75000000  0.19473080  -0.00000000  1
  Si  Si340  1  0.00000000  0.25000000  0.30526920  1
  Si  Si341  1  0.00000000  0.75000000  0.19473080  1
  Si  Si342  1  0.75000000  0.55526920  -0.00000000  1
  Si  Si343  1  0.75000000  0.44473080  0.50000000  1
  Si  Si344  1  0.05526920  0.50000000  0.25000000  1
  Si  Si345  1  0.94473080  0.00000000  0.25000000  1
  Si  Si346  1  0.00000000  0.25000000  0.94473080  1
  Si  Si347  1  0.50000000  0.25000000  0.05526920  1
  Si  Si348  1  0.69473080  -0.00000000  0.75000000  1
  Si  Si349  1  0.80526920  0.00000000  0.25000000  1
  Si  Si350  1  0.75000000  0.69473080  -0.00000000  1
  Si  Si351  1  0.25000000  0.80526920  0.00000000  1
  Si  Si352  1  0.00000000  0.75000000  0.69473080  1
  Si  Si353  1  0.00000000  0.25000000  0.80526920  1
  Si  Si354  1  0.25000000  0.44473080  0.00000000  1
  Si  Si355  1  0.25000000  0.55526920  0.50000000  1
  Si  Si356  1  0.94473080  0.50000000  0.75000000  1
  Si  Si357  1  0.05526920  0.00000000  0.75000000  1
  Si  Si358  1  0.00000000  0.75000000  0.05526920  1
  Si  Si359  1  0.50000000  0.75000000  0.94473080  1
  Si  Si360  1  0.80526920  0.50000000  0.75000000  1
  Si  Si361  1  0.69473080  0.50000000  0.25000000  1
  Si  Si362  1  0.75000000  0.80526920  0.50000000  1
  Si  Si363  1  0.25000000  0.69473080  0.50000000  1
  Si  Si364  1  0.50000000  0.75000000  0.80526920  1
  Si  Si365  1  0.50000000  0.25000000  0.69473080  1
  Si  Si366  1  0.25000000  0.05526920  0.50000000  1
  Si  Si367  1  0.25000000  0.94473080  0.00000000  1
  Si  Si368  1  0.55526920  0.00000000  0.75000000  1
  Si  Si369  1  0.44473080  0.50000000  0.75000000  1
  Si  Si370  1  0.50000000  0.75000000  0.44473080  1
  Si  Si371  1  0.00000000  0.75000000  0.55526920  1
  Si  Si372  1  0.19473080  0.50000000  0.25000000  1
  Si  Si373  1  0.30526920  0.50000000  0.75000000  1
  Si  Si374  1  0.25000000  0.19473080  0.50000000  1
  Si  Si375  1  0.75000000  0.30526920  0.50000000  1
  Si  Si376  1  0.50000000  0.25000000  0.19473080  1
  Si  Si377  1  0.50000000  0.75000000  0.30526920  1
  Si  Si378  1  0.75000000  0.94473080  0.50000000  1
  Si  Si379  1  0.75000000  0.05526920  -0.00000000  1
  Si  Si380  1  0.44473080  -0.00000000  0.25000000  1
  Si  Si381  1  0.55526920  0.50000000  0.25000000  1
  Si  Si382  1  0.50000000  0.25000000  0.55526920  1
  Si  Si383  1  0.00000000  0.25000000  0.44473080  1
  Si  Si384  1  0.00000000  0.00000000  0.00000000  1
  Si  Si385  1  0.50000000  0.00000000  0.50000000  1
  Si  Si386  1  0.00000000  0.50000000  0.50000000  1
  Si  Si387  1  0.50000000  0.50000000  0.00000000  1
  Si  Si388  1  0.75000000  0.25000000  0.25000000  1
  Si  Si389  1  0.75000000  0.75000000  0.75000000  1
  Si  Si390  1  0.25000000  0.25000000  0.75000000  1
  Si  Si391  1  0.25000000  0.75000000  0.25000000  1
  Si  Si392  1  0.50000000  0.50000000  0.50000000  1
  Si  Si393  1  0.00000000  0.50000000  0.00000000  1
  Si  Si394  1  0.50000000  0.00000000  0.00000000  1
  Si  Si395  1  0.00000000  0.00000000  0.50000000  1
  Si  Si396  1  0.25000000  0.75000000  0.75000000  1
  Si  Si397  1  0.25000000  0.25000000  0.25000000  1
  Si  Si398  1  0.75000000  0.75000000  0.25000000  1
  Si  Si399  1  0.75000000  0.25000000  0.75000000  1
  Te  Te400  1  0.57761795  0.57761795  0.57761795  1
  Te  Te401  1  0.92238205  0.42238205  0.07761795  1
  Te  Te402  1  0.42238205  0.07761795  0.92238205  1
  Te  Te403  1  0.07761795  0.92238205  0.42238205  1
  Te  Te404  1  0.32761795  0.82761795  0.67238205  1
  Te  Te405  1  0.17238205  0.17238205  0.17238205  1
  Te  Te406  1  0.82761795  0.67238205  0.32761795  1
  Te  Te407  1  0.67238205  0.32761795  0.82761795  1
  Te  Te408  1  0.42238205  0.42238205  0.42238205  1
  Te  Te409  1  0.07761795  0.57761795  0.92238205  1
  Te  Te410  1  0.57761795  0.92238205  0.07761795  1
  Te  Te411  1  0.92238205  0.07761795  0.57761795  1
  Te  Te412  1  0.67238205  0.17238205  0.32761795  1
  Te  Te413  1  0.82761795  0.82761795  0.82761795  1
  Te  Te414  1  0.17238205  0.32761795  0.67238205  1
  Te  Te415  1  0.32761795  0.67238205  0.17238205  1
  Te  Te416  1  0.07761795  0.07761795  0.07761795  1
  Te  Te417  1  0.42238205  0.92238205  0.57761795  1
  Te  Te418  1  0.92238205  0.57761795  0.42238205  1
  Te  Te419  1  0.57761795  0.42238205  0.92238205  1
  Te  Te420  1  0.82761795  0.32761795  0.17238205  1
  Te  Te421  1  0.67238205  0.67238205  0.67238205  1
  Te  Te422  1  0.32761795  0.17238205  0.82761795  1
  Te  Te423  1  0.17238205  0.82761795  0.32761795  1
  Te  Te424  1  0.92238205  0.92238205  0.92238205  1
  Te  Te425  1  0.57761795  0.07761795  0.42238205  1
  Te  Te426  1  0.07761795  0.42238205  0.57761795  1
  Te  Te427  1  0.42238205  0.57761795  0.07761795  1
  Te  Te428  1  0.17238205  0.67238205  0.82761795  1
  Te  Te429  1  0.32761795  0.32761795  0.32761795  1
  Te  Te430  1  0.67238205  0.82761795  0.17238205  1
  Te  Te431  1  0.82761795  0.17238205  0.67238205  1
