# generated using pymatgen
data_LiPSe3
_symmetry_space_group_name_H-M   'P 1'
_cell_length_a   7.15205213
_cell_length_b   7.15205213
_cell_length_c   23.89719049
_cell_angle_alpha   90.00000000
_cell_angle_beta   90.00000000
_cell_angle_gamma   120.00000000
_symmetry_Int_Tables_number   1
_chemical_formula_structural   LiPSe3
_chemical_formula_sum   'Li12 P12 Se36'
_cell_volume   1058.61689321
_cell_formula_units_Z   12
loop_
 _symmetry_equiv_pos_site_id
 _symmetry_equiv_pos_as_xyz
  1  'x, y, z'
loop_
 _atom_site_type_symbol
 _atom_site_label
 _atom_site_symmetry_multiplicity
 _atom_site_fract_x
 _atom_site_fract_y
 _atom_site_fract_z
 _atom_site_occupancy
  Li  Li0  1  0.00000000  0.00000000  0.35776198  1
  Li  Li1  1  0.00000000  0.00000000  0.14223802  1
  Li  Li2  1  0.00000000  0.00000000  0.64223802  1
  Li  Li3  1  0.00000000  0.00000000  0.85776198  1
  Li  Li4  1  0.66666667  0.33333333  0.69109532  1
  Li  Li5  1  0.66666667  0.33333333  0.47557135  1
  Li  Li6  1  0.66666667  0.33333333  0.97557135  1
  Li  Li7  1  0.66666667  0.33333333  0.19109532  1
  Li  Li8  1  0.33333333  0.66666667  0.02442865  1
  Li  Li9  1  0.33333333  0.66666667  0.80890468  1
  Li  Li10  1  0.33333333  0.66666667  0.30890468  1
  Li  Li11  1  0.33333333  0.66666667  0.52442865  1
  P  P12  1  0.00000000  0.00000000  0.25000000  1
  P  P13  1  0.00000000  0.00000000  0.75000000  1
  P  P14  1  0.66666667  0.33333333  0.58333333  1
  P  P15  1  0.66666667  0.33333333  0.08333333  1
  P  P16  1  0.33333333  0.66666667  0.91666667  1
  P  P17  1  0.33333333  0.66666667  0.41666667  1
  P  P18  1  0.00000000  0.00000000  0.00000000  1
  P  P19  1  0.00000000  0.00000000  0.50000000  1
  P  P20  1  0.66666667  0.33333333  0.33333333  1
  P  P21  1  0.66666667  0.33333333  0.83333333  1
  P  P22  1  0.33333333  0.66666667  0.66666667  1
  P  P23  1  0.33333333  0.66666667  0.16666667  1
  Se  Se24  1  0.14216635  0.84007258  0.76506417  1
  Se  Se25  1  -0.84007258  -0.69790623  0.76506417  1
  Se  Se26  1  0.69790623  -0.14216635  0.76506417  1
  Se  Se27  1  0.84007258  0.14216635  -0.26506417  1
  Se  Se28  1  -0.69790623  -0.84007258  -0.26506417  1
  Se  Se29  1  -0.14216635  0.69790623  -0.26506417  1
  Se  Se30  1  -0.14216635  -0.84007258  -0.76506417  1
  Se  Se31  1  0.84007258  0.69790623  -0.76506417  1
  Se  Se32  1  -0.69790623  0.14216635  -0.76506417  1
  Se  Se33  1  -0.84007258  -0.14216635  1.26506417  1
  Se  Se34  1  0.69790623  0.84007258  1.26506417  1
  Se  Se35  1  0.14216635  -0.69790623  1.26506417  1
  Se  Se36  1  0.80883301  1.17340591  1.09839750  1
  Se  Se37  1  -0.17340591  -0.36457290  1.09839750  1
  Se  Se38  1  1.36457290  0.19116699  1.09839750  1
  Se  Se39  1  1.50673924  0.47549968  0.06826916  1
  Se  Se40  1  -0.03123956  -0.50673924  0.06826916  1
  Se  Se41  1  0.52450032  1.03123956  0.06826916  1
  Se  Se42  1  0.52450032  -0.50673924  -0.43173084  1
  Se  Se43  1  1.50673924  1.03123956  -0.43173084  1
  Se  Se44  1  -0.03123956  0.47549968  -0.43173084  1
  Se  Se45  1  -0.17340591  0.19116699  1.59839750  1
  Se  Se46  1  1.36457290  1.17340591  1.59839750  1
  Se  Se47  1  0.80883301  -0.36457290  1.59839750  1
  Se  Se48  1  0.47549968  1.50673924  1.43173084  1
  Se  Se49  1  -0.50673924  -0.03123956  1.43173084  1
  Se  Se50  1  1.03123956  0.52450032  1.43173084  1
  Se  Se51  1  1.17340591  0.80883301  0.40160250  1
  Se  Se52  1  -0.36457290  -0.17340591  0.40160250  1
  Se  Se53  1  0.19116699  1.36457290  0.40160250  1
  Se  Se54  1  0.19116699  -0.17340591  -0.09839750  1
  Se  Se55  1  1.17340591  1.36457290  -0.09839750  1
  Se  Se56  1  -0.36457290  0.80883301  -0.09839750  1
  Se  Se57  1  -0.50673924  0.52450032  1.93173084  1
  Se  Se58  1  1.03123956  1.50673924  1.93173084  1
  Se  Se59  1  0.47549968  -0.03123956  1.93173084  1
