# generated using pymatgen
data_Ti2Te3O
_symmetry_space_group_name_H-M   'P 1'
_cell_length_a   10.06602594
_cell_length_b   10.06602594
_cell_length_c   14.72068348
_cell_angle_alpha   90.00000000
_cell_angle_beta   90.00000000
_cell_angle_gamma   90.00000000
_symmetry_Int_Tables_number   1
_chemical_formula_structural   Ti2Te3O
_chemical_formula_sum   'Ti16 Te24 O8'
_cell_volume   1491.57146130
_cell_formula_units_Z   8
loop_
 _symmetry_equiv_pos_site_id
 _symmetry_equiv_pos_as_xyz
  1  'x, y, z'
loop_
 _atom_site_type_symbol
 _atom_site_label
 _atom_site_symmetry_multiplicity
 _atom_site_fract_x
 _atom_site_fract_y
 _atom_site_fract_z
 _atom_site_occupancy
  O  O0  1  0.00000000  0.25000000  0.37500000  1
  O  O1  1  0.00000000  0.75000000  0.62500000  1
  O  O2  1  0.50000000  0.25000000  0.62500000  1
  O  O3  1  0.50000000  0.75000000  0.37500000  1
  O  O4  1  0.50000000  0.75000000  0.87500000  1
  O  O5  1  0.50000000  0.25000000  0.12500000  1
  O  O6  1  0.00000000  0.75000000  0.12500000  1
  O  O7  1  0.00000000  0.25000000  0.87500000  1
  Te  Te8  1  0.29184936  0.00000000  0.25000000  1
  Te  Te9  1  0.20815064  0.00000000  0.75000000  1
  Te  Te10  1  0.25000000  0.04184936  0.50000000  1
  Te  Te11  1  0.25000000  0.95815064  0.00000000  1
  Te  Te12  1  0.70815064  0.00000000  0.75000000  1
  Te  Te13  1  0.79184936  0.00000000  0.25000000  1
  Te  Te14  1  0.75000000  0.95815064  0.50000000  1
  Te  Te15  1  0.75000000  0.04184936  0.00000000  1
  Te  Te16  1  0.79184936  0.50000000  0.75000000  1
  Te  Te17  1  0.70815064  0.50000000  0.25000000  1
  Te  Te18  1  0.75000000  0.54184936  0.00000000  1
  Te  Te19  1  0.75000000  0.45815064  0.50000000  1
  Te  Te20  1  0.20815064  0.50000000  0.25000000  1
  Te  Te21  1  0.29184936  0.50000000  0.75000000  1
  Te  Te22  1  0.25000000  0.45815064  0.00000000  1
  Te  Te23  1  0.25000000  0.54184936  0.50000000  1
  Te  Te24  1  0.00000000  0.25000000  0.12500000  1
  Te  Te25  1  0.00000000  0.75000000  0.37500000  1
  Te  Te26  1  0.00000000  0.75000000  0.87500000  1
  Te  Te27  1  0.00000000  0.25000000  0.62500000  1
  Te  Te28  1  0.50000000  0.75000000  0.62500000  1
  Te  Te29  1  0.50000000  0.25000000  0.87500000  1
  Te  Te30  1  0.50000000  0.25000000  0.37500000  1
  Te  Te31  1  0.50000000  0.75000000  0.12500000  1
  Ti  Ti32  1  0.00000000  0.25000000  0.74702966  1
  Ti  Ti33  1  0.00000000  0.75000000  0.99702966  1
  Ti  Ti34  1  0.50000000  0.25000000  -0.74702966  1
  Ti  Ti35  1  0.50000000  0.75000000  0.00297034  1
  Ti  Ti36  1  0.00000000  0.75000000  -0.74702966  1
  Ti  Ti37  1  0.00000000  0.25000000  0.00297034  1
  Ti  Ti38  1  0.50000000  0.75000000  0.74702966  1
  Ti  Ti39  1  0.50000000  0.25000000  0.99702966  1
  Ti  Ti40  1  0.50000000  0.75000000  1.24702966  1
  Ti  Ti41  1  0.50000000  1.25000000  1.49702966  1
  Ti  Ti42  1  1.00000000  0.75000000  -0.24702966  1
  Ti  Ti43  1  1.00000000  1.25000000  0.50297034  1
  Ti  Ti44  1  0.50000000  1.25000000  -0.24702966  1
  Ti  Ti45  1  0.50000000  0.75000000  0.50297034  1
  Ti  Ti46  1  1.00000000  1.25000000  1.24702966  1
  Ti  Ti47  1  1.00000000  0.75000000  1.49702966  1
