# generated using pymatgen
data_SrBrCl
_symmetry_space_group_name_H-M   'P 1'
_cell_length_a   9.67854565
_cell_length_b   9.67854565
_cell_length_c   12.19366599
_cell_angle_alpha   90.00000000
_cell_angle_beta   90.00000000
_cell_angle_gamma   120.00000000
_symmetry_Int_Tables_number   1
_chemical_formula_structural   SrBrCl
_chemical_formula_sum   'Sr12 Br12 Cl12'
_cell_volume   989.20233272
_cell_formula_units_Z   12
loop_
 _symmetry_equiv_pos_site_id
 _symmetry_equiv_pos_as_xyz
  1  'x, y, z'
loop_
 _atom_site_type_symbol
 _atom_site_label
 _atom_site_symmetry_multiplicity
 _atom_site_fract_x
 _atom_site_fract_y
 _atom_site_fract_z
 _atom_site_occupancy
  Br  Br0  1  0.66666667  0.33333333  0.25000000  1
  Br  Br1  1  0.33333333  0.66666667  0.75000000  1
  Br  Br2  1  0.33333333  0.66666667  0.86206330  1
  Br  Br3  1  0.66666667  0.33333333  0.36206330  1
  Br  Br4  1  0.66666667  0.33333333  0.13793670  1
  Br  Br5  1  0.33333333  0.66666667  0.63793670  1
  Br  Br6  1  0.50000000  0.00000000  0.00000000  1
  Br  Br7  1  0.00000000  0.50000000  -0.00000000  1
  Br  Br8  1  0.50000000  0.50000000  0.00000000  1
  Br  Br9  1  0.50000000  0.00000000  0.50000000  1
  Br  Br10  1  0.00000000  0.50000000  0.50000000  1
  Br  Br11  1  0.50000000  0.50000000  0.50000000  1
  Cl  Cl12  1  0.98533142  0.08818546  0.31984557  1
  Cl  Cl13  1  -0.08818546  0.89714595  0.31984557  1
  Cl  Cl14  1  -0.89714595  -0.98533142  0.31984557  1
  Cl  Cl15  1  -0.98533142  -0.08818546  0.81984557  1
  Cl  Cl16  1  0.08818546  -0.89714595  0.81984557  1
  Cl  Cl17  1  0.89714595  0.98533142  0.81984557  1
  Cl  Cl18  1  -0.98533142  -0.08818546  -0.31984557  1
  Cl  Cl19  1  0.08818546  -0.89714595  -0.31984557  1
  Cl  Cl20  1  0.89714595  0.98533142  -0.31984557  1
  Cl  Cl21  1  0.98533142  0.08818546  0.18015443  1
  Cl  Cl22  1  -0.08818546  0.89714595  0.18015443  1
  Cl  Cl23  1  -0.89714595  -0.98533142  0.18015443  1
  Sr  Sr24  1  0.49249632  0.68067485  0.25000000  1
  Sr  Sr25  1  0.31932515  0.81182148  0.25000000  1
  Sr  Sr26  1  0.18817852  0.50750368  0.25000000  1
  Sr  Sr27  1  0.50750368  0.31932515  0.75000000  1
  Sr  Sr28  1  0.68067485  0.18817852  0.75000000  1
  Sr  Sr29  1  0.81182148  0.49249632  0.75000000  1
  Sr  Sr30  1  0.20443369  0.20658201  0.25000000  1
  Sr  Sr31  1  0.79341799  0.99785168  0.25000000  1
  Sr  Sr32  1  0.00214832  0.79556631  0.25000000  1
  Sr  Sr33  1  0.79556631  0.79341799  0.75000000  1
  Sr  Sr34  1  0.20658201  0.00214832  0.75000000  1
  Sr  Sr35  1  0.99785168  0.20443369  0.75000000  1
