# generated using pymatgen
data_Li4TiO3
_symmetry_space_group_name_H-M   'P 1'
_cell_length_a   4.02200220
_cell_length_b   4.09825032
_cell_length_c   3.88101430
_cell_angle_alpha   86.77922638
_cell_angle_beta   86.06856695
_cell_angle_gamma   88.81525462
_symmetry_Int_Tables_number   1
_chemical_formula_structural   Li4TiO3
_chemical_formula_sum   'Li4 Ti1 O3'
_cell_volume   63.71099120
_cell_formula_units_Z   1
loop_
 _symmetry_equiv_pos_site_id
 _symmetry_equiv_pos_as_xyz
  1  'x, y, z'
loop_
 _atom_site_type_symbol
 _atom_site_label
 _atom_site_symmetry_multiplicity
 _atom_site_fract_x
 _atom_site_fract_y
 _atom_site_fract_z
 _atom_site_occupancy
  Li  Li0  1  0.00000000  0.00000000  0.00000000  1
  Li  Li1  1  0.50000000  0.50000000  0.50000000  1
  Li  Li2  1  0.50000000  0.50000000  0.00000000  1
  Li  Li3  1  0.50000000  0.00000000  0.50000000  1
  Ti  Ti4  1  0.00000000  0.50000000  0.50000000  1
  O  O5  1  0.54426481  0.87438028  0.14410370  1
  O  O6  1  0.92991180  0.12115495  0.67628697  1
  O  O7  1  0.96078542  0.30149123  0.55577548  1
