# generated using pymatgen
data_LiI
_symmetry_space_group_name_H-M   'P 1'
_cell_length_a   5.65155700
_cell_length_b   5.65155700
_cell_length_c   10.05219993
_cell_angle_alpha   90.00000000
_cell_angle_beta   90.00000000
_cell_angle_gamma   120.00000000
_symmetry_Int_Tables_number   1
_chemical_formula_structural   LiI
_chemical_formula_sum   'Li6 I6'
_cell_volume   278.05324857
_cell_formula_units_Z   6
loop_
 _symmetry_equiv_pos_site_id
 _symmetry_equiv_pos_as_xyz
  1  'x, y, z'
loop_
 _atom_site_type_symbol
 _atom_site_label
 _atom_site_symmetry_multiplicity
 _atom_site_fract_x
 _atom_site_fract_y
 _atom_site_fract_z
 _atom_site_occupancy
  I  I0  1  0.35420944  0.00000000  0.83274059  1
  I  I1  1  0.00000000  0.35420944  0.83274059  1
  I  I2  1  -0.35420944  -0.35420944  0.83274059  1
  I  I3  1  0.35420944  0.00000000  -0.83274059  1
  I  I4  1  0.00000000  0.35420944  -0.83274059  1
  I  I5  1  -0.35420944  -0.35420944  -0.83274059  1
  Li  Li6  1  0.46317230  0.32651345  0.00000000  1
  Li  Li7  1  0.67348655  0.13665884  0.00000000  1
  Li  Li8  1  0.86334116  0.53682770  0.00000000  1
  Li  Li9  1  0.32651345  0.46317230  0.00000000  1
  Li  Li10  1  0.13665884  0.67348655  0.00000000  1
  Li  Li11  1  0.53682770  0.86334116  0.00000000  1
