# generated using pymatgen
data_Li2YScP3O4
_symmetry_space_group_name_H-M   'P 1'
_cell_length_a   8.89905802
_cell_length_b   7.27294408
_cell_length_c   9.59748655
_cell_angle_alpha   90.00000000
_cell_angle_beta   90.00000000
_cell_angle_gamma   90.00000000
_symmetry_Int_Tables_number   1
_chemical_formula_structural   Li2YScP3O4
_chemical_formula_sum   'Li2 Y1 Sc1 P3 O4'
_cell_volume   621.17189699
_cell_formula_units_Z   1
loop_
 _symmetry_equiv_pos_site_id
 _symmetry_equiv_pos_as_xyz
  1  'x, y, z'
loop_
 _atom_site_type_symbol
 _atom_site_label
 _atom_site_symmetry_multiplicity
 _atom_site_fract_x
 _atom_site_fract_y
 _atom_site_fract_z
 _atom_site_occupancy
  Li  Li0  1  0.00000000  0.00000000  0.00000000  1
  Li  Li1  1  0.50000000  0.50000000  0.50000000  1
  Y  Y2  1  0.25000000  0.25000000  0.25000000  1
  P  P3  1  0.75000000  0.25000000  0.00000000  1
  P  P4  1  0.25000000  0.75000000  0.50000000  1
  P  P5  1  0.88145199  0.24497843  0.34052960  1
  O  O6  1  0.87818491  0.09240874  0.10387405  1
  O  O7  1  0.17661804  0.00939607  0.06055310  1
  O  O8  1  0.90827311  0.27229445  0.54338661  1
  O  O9  1  0.01455255  0.64402618  0.12594899  1
  Sc  Sc10  1  0.37491798  0.58950043  0.28981303  1
