# generated using pymatgen
data_Li4ScTiSiO
_symmetry_space_group_name_H-M   'P 1'
_cell_length_a   12.96274027
_cell_length_b   13.61911432
_cell_length_c   10.62425743
_cell_angle_alpha   90.00000000
_cell_angle_beta   90.00000000
_cell_angle_gamma   90.00000000
_symmetry_Int_Tables_number   1
_chemical_formula_structural   Li4ScTiSiO
_chemical_formula_sum   'Li4 Sc1 Ti1 Si1 O1'
_cell_volume   1875.61747389
_cell_formula_units_Z   1
loop_
 _symmetry_equiv_pos_site_id
 _symmetry_equiv_pos_as_xyz
  1  'x, y, z'
loop_
 _atom_site_type_symbol
 _atom_site_label
 _atom_site_symmetry_multiplicity
 _atom_site_fract_x
 _atom_site_fract_y
 _atom_site_fract_z
 _atom_site_occupancy
  Li  Li0  1  0.12500000  0.00000000  0.25000000  1
  Li  Li1  1  0.00000000  0.00000000  0.00000000  1
  Li  Li2  1  0.37500000  0.00000000  0.25000000  1
  Li  Li3  1  0.25000000  0.25000000  0.25000000  1
  Sc  Sc4  1  0.00000000  0.25000000  0.12500000  1
  Ti  Ti5  1  0.29700226  0.12119597  0.77961318  1
  Si  Si6  1  0.50109003  0.60574288  0.55004246  1
  O  O7  1  0.69893293  0.37557911  0.20638715  1
