# generated using pymatgen
data_LiI
_symmetry_space_group_name_H-M   'P 1'
_cell_length_a   6.38398631
_cell_length_b   6.38398631
_cell_length_c   18.44035808
_cell_angle_alpha   90.00000000
_cell_angle_beta   90.00000000
_cell_angle_gamma   90.00000000
_symmetry_Int_Tables_number   1
_chemical_formula_structural   LiI
_chemical_formula_sum   'Li16 I16'
_cell_volume   751.54197852
_cell_formula_units_Z   16
loop_
 _symmetry_equiv_pos_site_id
 _symmetry_equiv_pos_as_xyz
  1  'x, y, z'
loop_
 _atom_site_type_symbol
 _atom_site_label
 _atom_site_symmetry_multiplicity
 _atom_site_fract_x
 _atom_site_fract_y
 _atom_site_fract_z
 _atom_site_occupancy
  I  I0  1  0.00000000  0.25000000  0.24780958  1
  I  I1  1  0.00000000  0.75000000  0.49780958  1
  I  I2  1  0.50000000  0.25000000  -0.24780958  1
  I  I3  1  0.50000000  0.75000000  0.50219042  1
  I  I4  1  0.00000000  0.75000000  -0.24780958  1
  I  I5  1  0.00000000  0.25000000  0.50219042  1
  I  I6  1  0.50000000  0.75000000  0.24780958  1
  I  I7  1  0.50000000  0.25000000  0.49780958  1
  I  I8  1  0.50000000  0.75000000  0.74780958  1
  I  I9  1  0.50000000  1.25000000  0.99780958  1
  I  I10  1  1.00000000  0.75000000  0.25219042  1
  I  I11  1  1.00000000  1.25000000  1.00219042  1
  I  I12  1  0.50000000  1.25000000  0.25219042  1
  I  I13  1  0.50000000  0.75000000  1.00219042  1
  I  I14  1  1.00000000  1.25000000  0.74780958  1
  I  I15  1  1.00000000  0.75000000  0.99780958  1
  Li  Li16  1  0.05634357  -0.00000000  0.25000000  1
  Li  Li17  1  0.44365643  -0.00000000  0.75000000  1
  Li  Li18  1  0.25000000  0.80634357  0.50000000  1
  Li  Li19  1  0.25000000  0.19365643  0.00000000  1
  Li  Li20  1  0.94365643  -0.00000000  0.75000000  1
  Li  Li21  1  0.55634357  -0.00000000  0.25000000  1
  Li  Li22  1  0.75000000  0.19365643  0.50000000  1
  Li  Li23  1  0.75000000  0.80634357  0.00000000  1
  Li  Li24  1  0.55634357  0.50000000  0.75000000  1
  Li  Li25  1  0.94365643  0.50000000  0.25000000  1
  Li  Li26  1  0.75000000  0.30634357  -0.00000000  1
  Li  Li27  1  0.75000000  0.69365643  0.50000000  1
  Li  Li28  1  0.44365643  0.50000000  0.25000000  1
  Li  Li29  1  0.05634357  0.50000000  0.75000000  1
  Li  Li30  1  0.25000000  0.69365643  -0.00000000  1
  Li  Li31  1  0.25000000  0.30634357  0.50000000  1
