# generated using pymatgen
data_LiBr
_symmetry_space_group_name_H-M   'P 1'
_cell_length_a   13.93428319
_cell_length_b   13.93428319
_cell_length_c   13.93428319
_cell_angle_alpha   90.00000000
_cell_angle_beta   90.00000000
_cell_angle_gamma   90.00000000
_symmetry_Int_Tables_number   1
_chemical_formula_structural   LiBr
_chemical_formula_sum   'Li72 Br72'
_cell_volume   2705.53961951
_cell_formula_units_Z   72
loop_
 _symmetry_equiv_pos_site_id
 _symmetry_equiv_pos_as_xyz
  1  'x, y, z'
loop_
 _atom_site_type_symbol
 _atom_site_label
 _atom_site_symmetry_multiplicity
 _atom_site_fract_x
 _atom_site_fract_y
 _atom_site_fract_z
 _atom_site_occupancy
  Br  Br0  1  0.25000000  0.25000000  0.25000000  1
  Br  Br1  1  0.25000000  0.75000000  0.75000000  1
  Br  Br2  1  0.75000000  0.25000000  0.75000000  1
  Br  Br3  1  0.75000000  0.75000000  0.25000000  1
  Br  Br4  1  0.50000000  0.50000000  0.50000000  1
  Br  Br5  1  0.50000000  0.00000000  0.00000000  1
  Br  Br6  1  0.00000000  0.50000000  0.00000000  1
  Br  Br7  1  0.00000000  0.00000000  0.50000000  1
  Br  Br8  1  0.46025059  0.46025059  0.78470837  1
  Br  Br9  1  -0.46025059  -0.46025059  0.78470837  1
  Br  Br10  1  -0.46025059  0.46025059  -0.78470837  1
  Br  Br11  1  0.46025059  -0.46025059  -0.78470837  1
  Br  Br12  1  0.78470837  0.46025059  0.46025059  1
  Br  Br13  1  0.78470837  -0.46025059  -0.46025059  1
  Br  Br14  1  -0.78470837  -0.46025059  0.46025059  1
  Br  Br15  1  -0.78470837  0.46025059  -0.46025059  1
  Br  Br16  1  0.46025059  0.78470837  0.46025059  1
  Br  Br17  1  -0.46025059  0.78470837  -0.46025059  1
  Br  Br18  1  0.46025059  -0.78470837  -0.46025059  1
  Br  Br19  1  -0.46025059  -0.78470837  0.46025059  1
  Br  Br20  1  0.46025059  0.96025059  1.28470837  1
  Br  Br21  1  -0.46025059  0.03974941  1.28470837  1
  Br  Br22  1  -0.46025059  0.96025059  -0.28470837  1
  Br  Br23  1  0.46025059  0.03974941  -0.28470837  1
  Br  Br24  1  0.78470837  0.96025059  0.96025059  1
  Br  Br25  1  0.78470837  0.03974941  0.03974941  1
  Br  Br26  1  -0.78470837  0.03974941  0.96025059  1
  Br  Br27  1  -0.78470837  0.96025059  0.03974941  1
  Br  Br28  1  0.46025059  1.28470837  0.96025059  1
  Br  Br29  1  -0.46025059  1.28470837  0.03974941  1
  Br  Br30  1  0.46025059  -0.28470837  0.03974941  1
  Br  Br31  1  -0.46025059  -0.28470837  0.96025059  1
  Br  Br32  1  0.96025059  0.46025059  1.28470837  1
  Br  Br33  1  0.03974941  -0.46025059  1.28470837  1
  Br  Br34  1  0.03974941  0.46025059  -0.28470837  1
  Br  Br35  1  0.96025059  -0.46025059  -0.28470837  1
  Br  Br36  1  1.28470837  0.46025059  0.96025059  1
  Br  Br37  1  1.28470837  -0.46025059  0.03974941  1
  Br  Br38  1  -0.28470837  -0.46025059  0.96025059  1
  Br  Br39  1  -0.28470837  0.46025059  0.03974941  1
  Br  Br40  1  0.96025059  0.78470837  0.96025059  1
  Br  Br41  1  0.03974941  0.78470837  0.03974941  1
  Br  Br42  1  0.96025059  -0.78470837  0.03974941  1
  Br  Br43  1  0.03974941  -0.78470837  0.96025059  1
  Br  Br44  1  0.96025059  0.96025059  0.78470837  1
  Br  Br45  1  0.03974941  0.03974941  0.78470837  1
  Br  Br46  1  0.03974941  0.96025059  -0.78470837  1
  Br  Br47  1  0.96025059  0.03974941  -0.78470837  1
  Br  Br48  1  1.28470837  0.96025059  0.46025059  1
  Br  Br49  1  1.28470837  0.03974941  -0.46025059  1
  Br  Br50  1  -0.28470837  0.03974941  0.46025059  1
  Br  Br51  1  -0.28470837  0.96025059  -0.46025059  1
  Br  Br52  1  0.96025059  1.28470837  0.46025059  1
  Br  Br53  1  0.03974941  1.28470837  -0.46025059  1
  Br  Br54  1  0.96025059  -0.28470837  -0.46025059  1
  Br  Br55  1  0.03974941  -0.28470837  0.46025059  1
  Br  Br56  1  0.14120249  0.14120249  0.14120249  1
  Br  Br57  1  0.85879751  0.85879751  0.14120249  1
  Br  Br58  1  0.85879751  0.14120249  0.85879751  1
  Br  Br59  1  0.14120249  0.85879751  0.85879751  1
  Br  Br60  1  0.14120249  0.64120249  0.64120249  1
  Br  Br61  1  0.85879751  0.35879751  0.64120249  1
  Br  Br62  1  0.85879751  0.64120249  0.35879751  1
  Br  Br63  1  0.14120249  0.35879751  0.35879751  1
  Br  Br64  1  0.64120249  0.14120249  0.64120249  1
  Br  Br65  1  0.35879751  0.85879751  0.64120249  1
  Br  Br66  1  0.35879751  0.14120249  0.35879751  1
  Br  Br67  1  0.64120249  0.85879751  0.35879751  1
  Br  Br68  1  0.64120249  0.64120249  0.14120249  1
  Br  Br69  1  0.35879751  0.35879751  0.14120249  1
  Br  Br70  1  0.35879751  0.64120249  0.85879751  1
  Br  Br71  1  0.64120249  0.35879751  0.85879751  1
  Li  Li72  1  0.00000000  0.00000000  0.00000000  1
  Li  Li73  1  0.00000000  0.50000000  0.50000000  1
  Li  Li74  1  0.50000000  0.00000000  0.50000000  1
  Li  Li75  1  0.50000000  0.50000000  0.00000000  1
  Li  Li76  1  0.80002010  0.80002010  0.57836015  1
  Li  Li77  1  0.19997990  0.19997990  0.57836015  1
  Li  Li78  1  0.19997990  0.80002010  0.42163985  1
  Li  Li79  1  0.80002010  0.19997990  0.42163985  1
  Li  Li80  1  0.57836015  0.80002010  0.80002010  1
  Li  Li81  1  0.57836015  0.19997990  0.19997990  1
  Li  Li82  1  0.42163985  0.19997990  0.80002010  1
  Li  Li83  1  0.42163985  0.80002010  0.19997990  1
  Li  Li84  1  0.80002010  0.57836015  0.80002010  1
  Li  Li85  1  0.19997990  0.57836015  0.19997990  1
  Li  Li86  1  0.80002010  0.42163985  0.19997990  1
  Li  Li87  1  0.19997990  0.42163985  0.80002010  1
  Li  Li88  1  0.80002010  0.30002010  0.07836015  1
  Li  Li89  1  0.19997990  0.69997990  0.07836015  1
  Li  Li90  1  0.19997990  0.30002010  0.92163985  1
  Li  Li91  1  0.80002010  0.69997990  0.92163985  1
  Li  Li92  1  0.57836015  0.30002010  0.30002010  1
  Li  Li93  1  0.57836015  0.69997990  0.69997990  1
  Li  Li94  1  0.42163985  0.69997990  0.30002010  1
  Li  Li95  1  0.42163985  0.30002010  0.69997990  1
  Li  Li96  1  0.80002010  0.07836015  0.30002010  1
  Li  Li97  1  0.19997990  0.07836015  0.69997990  1
  Li  Li98  1  0.80002010  0.92163985  0.69997990  1
  Li  Li99  1  0.19997990  0.92163985  0.30002010  1
  Li  Li100  1  0.30002010  0.80002010  0.07836015  1
  Li  Li101  1  0.69997990  0.19997990  0.07836015  1
  Li  Li102  1  0.69997990  0.80002010  0.92163985  1
  Li  Li103  1  0.30002010  0.19997990  0.92163985  1
  Li  Li104  1  0.07836015  0.80002010  0.30002010  1
  Li  Li105  1  0.07836015  0.19997990  0.69997990  1
  Li  Li106  1  0.92163985  0.19997990  0.30002010  1
  Li  Li107  1  0.92163985  0.80002010  0.69997990  1
  Li  Li108  1  0.30002010  0.57836015  0.30002010  1
  Li  Li109  1  0.69997990  0.57836015  0.69997990  1
  Li  Li110  1  0.30002010  0.42163985  0.69997990  1
  Li  Li111  1  0.69997990  0.42163985  0.30002010  1
  Li  Li112  1  0.30002010  0.30002010  0.57836015  1
  Li  Li113  1  0.69997990  0.69997990  0.57836015  1
  Li  Li114  1  0.69997990  0.30002010  0.42163985  1
  Li  Li115  1  0.30002010  0.69997990  0.42163985  1
  Li  Li116  1  0.07836015  0.30002010  0.80002010  1
  Li  Li117  1  0.07836015  0.69997990  0.19997990  1
  Li  Li118  1  0.92163985  0.69997990  0.80002010  1
  Li  Li119  1  0.92163985  0.30002010  0.19997990  1
  Li  Li120  1  0.30002010  0.07836015  0.80002010  1
  Li  Li121  1  0.69997990  0.07836015  0.19997990  1
  Li  Li122  1  0.30002010  0.92163985  0.19997990  1
  Li  Li123  1  0.69997990  0.92163985  0.80002010  1
  Li  Li124  1  0.75000000  0.75000000  0.75000000  1
  Li  Li125  1  0.75000000  0.25000000  0.25000000  1
  Li  Li126  1  0.25000000  0.75000000  0.25000000  1
  Li  Li127  1  0.25000000  0.25000000  0.75000000  1
  Li  Li128  1  0.39770246  0.39770246  0.39770246  1
  Li  Li129  1  0.60229754  0.60229754  0.39770246  1
  Li  Li130  1  0.60229754  0.39770246  0.60229754  1
  Li  Li131  1  0.39770246  0.60229754  0.60229754  1
  Li  Li132  1  0.39770246  0.89770246  0.89770246  1
  Li  Li133  1  0.60229754  0.10229754  0.89770246  1
  Li  Li134  1  0.60229754  0.89770246  0.10229754  1
  Li  Li135  1  0.39770246  0.10229754  0.10229754  1
  Li  Li136  1  0.89770246  0.39770246  0.89770246  1
  Li  Li137  1  0.10229754  0.60229754  0.89770246  1
  Li  Li138  1  0.10229754  0.39770246  0.10229754  1
  Li  Li139  1  0.89770246  0.60229754  0.10229754  1
  Li  Li140  1  0.89770246  0.89770246  0.39770246  1
  Li  Li141  1  0.10229754  0.10229754  0.39770246  1
  Li  Li142  1  0.10229754  0.89770246  0.60229754  1
  Li  Li143  1  0.89770246  0.10229754  0.60229754  1
