# generated using pymatgen
data_Li2S
_symmetry_space_group_name_H-M   'P 1'
_cell_length_a   11.46186560
_cell_length_b   11.46186560
_cell_length_c   6.05491490
_cell_angle_alpha   90.00000000
_cell_angle_beta   90.00000000
_cell_angle_gamma   120.00000000
_symmetry_Int_Tables_number   1
_chemical_formula_structural   Li2S
_chemical_formula_sum   'Li18 S9'
_cell_volume   688.88907753
_cell_formula_units_Z   9
loop_
 _symmetry_equiv_pos_site_id
 _symmetry_equiv_pos_as_xyz
  1  'x, y, z'
loop_
 _atom_site_type_symbol
 _atom_site_label
 _atom_site_symmetry_multiplicity
 _atom_site_fract_x
 _atom_site_fract_y
 _atom_site_fract_z
 _atom_site_occupancy
  Li  Li0  1  0.23547727  0.92264199  0.56503844  1
  Li  Li1  1  -0.92264199  -0.68716473  0.56503844  1
  Li  Li2  1  0.68716473  -0.23547727  0.56503844  1
  Li  Li3  1  -0.92264199  -0.23547727  -0.56503844  1
  Li  Li4  1  0.68716473  0.92264199  -0.56503844  1
  Li  Li5  1  0.23547727  -0.68716473  -0.56503844  1
  Li  Li6  1  0.28295165  0.06493341  0.70465009  1
  Li  Li7  1  0.93506659  0.21801824  0.70465009  1
  Li  Li8  1  0.78198176  0.71704835  0.70465009  1
  Li  Li9  1  0.93506659  0.71704835  0.29534991  1
  Li  Li10  1  0.78198176  0.06493341  0.29534991  1
  Li  Li11  1  0.28295165  0.21801824  0.29534991  1
  Li  Li12  1  0.46189474  0.43927718  0.90830140  1
  Li  Li13  1  0.56072282  0.02261756  0.90830140  1
  Li  Li14  1  0.97738244  0.53810526  0.90830140  1
  Li  Li15  1  0.56072282  0.53810526  0.09169860  1
  Li  Li16  1  0.97738244  0.43927718  0.09169860  1
  Li  Li17  1  0.46189474  0.02261756  0.09169860  1
  S  S18  1  0.00000000  0.00000000  0.50000000  1
  S  S19  1  0.74650182  0.25349818  0.00000000  1
  S  S20  1  0.74650182  0.49300363  -0.00000000  1
  S  S21  1  0.50699637  0.25349818  0.00000000  1
  S  S22  1  0.00000000  0.00000000  0.00000000  1
  S  S23  1  0.66666667  0.33333333  0.70039977  1
  S  S24  1  0.66666667  0.33333333  0.29960023  1
  S  S25  1  0.33333333  0.66666667  0.50000000  1
  S  S26  1  0.66666667  0.33333333  0.00000000  1
