# generated using pymatgen
data_Li2Ti3O2
_symmetry_space_group_name_H-M   'P 1'
_cell_length_a   3.78299354
_cell_length_b   4.53879097
_cell_length_c   6.04798989
_cell_angle_alpha   112.11730377
_cell_angle_beta   116.85185415
_cell_angle_gamma   90.25289571
_symmetry_Int_Tables_number   1
_chemical_formula_structural   Li2Ti3O2
_chemical_formula_sum   'Li2 Ti3 O2'
_cell_volume   83.89674871
_cell_formula_units_Z   1
loop_
 _symmetry_equiv_pos_site_id
 _symmetry_equiv_pos_as_xyz
  1  'x, y, z'
loop_
 _atom_site_type_symbol
 _atom_site_label
 _atom_site_symmetry_multiplicity
 _atom_site_fract_x
 _atom_site_fract_y
 _atom_site_fract_z
 _atom_site_occupancy
  Li  Li0  1  0.00000000  0.00000000  0.00000000  1
  Li  Li1  1  0.33300000  0.66700000  0.25000000  1
  Ti  Ti2  1  0.66700000  0.33300000  0.50000000  1
  Ti  Ti3  1  0.00000000  0.00000000  0.75000000  1
  Ti  Ti4  1  0.49227385  0.85288944  0.94896370  1
  O  O5  1  0.37645160  0.11875875  0.72995723  1
  O  O6  1  0.23789243  0.80113691  0.24208772  1
