# generated using pymatgen
data_Li6TeS2
_symmetry_space_group_name_H-M   'P 1'
_cell_length_a   12.57547728
_cell_length_b   6.90554791
_cell_length_c   6.03251220
_cell_angle_alpha   90.00000000
_cell_angle_beta   90.00000000
_cell_angle_gamma   90.00000000
_symmetry_Int_Tables_number   1
_chemical_formula_structural   Li6TeS2
_chemical_formula_sum   'Li24 Te4 S8'
_cell_volume   523.86674277
_cell_formula_units_Z   4
loop_
 _symmetry_equiv_pos_site_id
 _symmetry_equiv_pos_as_xyz
  1  'x, y, z'
loop_
 _atom_site_type_symbol
 _atom_site_label
 _atom_site_symmetry_multiplicity
 _atom_site_fract_x
 _atom_site_fract_y
 _atom_site_fract_z
 _atom_site_occupancy
  Li  Li0  1  0.56499781  0.90509415  0.23975330  1
  Li  Li1  1  0.43500219  0.09490585  0.23975330  1
  Li  Li2  1  0.93500219  0.40509415  0.76024670  1
  Li  Li3  1  0.06499781  0.59490585  0.76024670  1
  Li  Li4  1  0.43500219  0.09490585  0.76024670  1
  Li  Li5  1  0.56499781  0.90509415  0.76024670  1
  Li  Li6  1  0.06499781  0.59490585  0.23975330  1
  Li  Li7  1  0.93500219  0.40509415  0.23975330  1
  Li  Li8  1  0.00000000  0.50000000  0.50000000  1
  Li  Li9  1  0.50000000  0.00000000  0.50000000  1
  Li  Li10  1  0.24005501  0.24652570  0.78657017  1
  Li  Li11  1  0.75994499  0.75347430  0.78657017  1
  Li  Li12  1  0.25994499  0.74652570  0.21342983  1
  Li  Li13  1  0.74005501  0.25347430  0.21342983  1
  Li  Li14  1  0.75994499  0.75347430  0.21342983  1
  Li  Li15  1  0.24005501  0.24652570  0.21342983  1
  Li  Li16  1  0.74005501  0.25347430  0.78657017  1
  Li  Li17  1  0.25994499  0.74652570  0.78657017  1
  Li  Li18  1  0.00000000  0.00000000  0.80145715  1
  Li  Li19  1  0.50000000  0.50000000  0.19854285  1
  Li  Li20  1  0.00000000  0.00000000  0.19854285  1
  Li  Li21  1  0.50000000  0.50000000  0.80145715  1
  Li  Li22  1  0.00000000  0.00000000  0.50000000  1
  Li  Li23  1  0.50000000  0.50000000  0.50000000  1
  S  S24  1  0.12299449  0.89179452  0.80374366  1
  S  S25  1  -0.12299449  -0.89179452  0.80374366  1
  S  S26  1  0.37700551  1.39179452  -0.80374366  1
  S  S27  1  0.62299449  -0.39179452  -0.80374366  1
  S  S28  1  -0.12299449  -0.89179452  -0.80374366  1
  S  S29  1  0.12299449  0.89179452  -0.80374366  1
  S  S30  1  0.62299449  -0.39179452  0.80374366  1
  S  S31  1  0.37700551  1.39179452  0.80374366  1
  Te  Te32  1  0.68341850  0.51821922  0.00000000  1
  Te  Te33  1  0.31658150  0.48178078  0.00000000  1
  Te  Te34  1  0.81658150  0.01821922  -0.00000000  1
  Te  Te35  1  0.18341850  0.98178078  -0.00000000  1
