# generated using pymatgen
data_Li4Mg2Te2BrCl3
_symmetry_space_group_name_H-M   'P 1'
_cell_length_a   18.28768394
_cell_length_b   18.28768394
_cell_length_c   18.28768394
_cell_angle_alpha   90.00000000
_cell_angle_beta   90.00000000
_cell_angle_gamma   90.00000000
_symmetry_Int_Tables_number   1
_chemical_formula_structural   Li4Mg2Te2BrCl3
_chemical_formula_sum   'Li96 Mg48 Te48 Br24 Cl72'
_cell_volume   6116.12175264
_cell_formula_units_Z   24
loop_
 _symmetry_equiv_pos_site_id
 _symmetry_equiv_pos_as_xyz
  1  'x, y, z'
loop_
 _atom_site_type_symbol
 _atom_site_label
 _atom_site_symmetry_multiplicity
 _atom_site_fract_x
 _atom_site_fract_y
 _atom_site_fract_z
 _atom_site_occupancy
  Br  Br0  1  0.64526840  0.00000000  0.00000000  1
  Br  Br1  1  0.35473160  0.00000000  0.00000000  1
  Br  Br2  1  0.00000000  0.64526840  0.00000000  1
  Br  Br3  1  0.00000000  0.35473160  0.00000000  1
  Br  Br4  1  0.00000000  0.00000000  0.64526840  1
  Br  Br5  1  0.00000000  0.00000000  0.35473160  1
  Br  Br6  1  0.64526840  0.50000000  0.50000000  1
  Br  Br7  1  0.35473160  0.50000000  0.50000000  1
  Br  Br8  1  0.00000000  0.14526840  0.50000000  1
  Br  Br9  1  0.00000000  0.85473160  0.50000000  1
  Br  Br10  1  0.00000000  0.50000000  0.14526840  1
  Br  Br11  1  0.00000000  0.50000000  0.85473160  1
  Br  Br12  1  0.14526840  0.00000000  0.50000000  1
  Br  Br13  1  0.85473160  0.00000000  0.50000000  1
  Br  Br14  1  0.50000000  0.64526840  0.50000000  1
  Br  Br15  1  0.50000000  0.35473160  0.50000000  1
  Br  Br16  1  0.50000000  0.00000000  0.14526840  1
  Br  Br17  1  0.50000000  0.00000000  0.85473160  1
  Br  Br18  1  0.14526840  0.50000000  0.00000000  1
  Br  Br19  1  0.85473160  0.50000000  0.00000000  1
  Br  Br20  1  0.50000000  0.14526840  0.00000000  1
  Br  Br21  1  0.50000000  0.85473160  0.00000000  1
  Br  Br22  1  0.50000000  0.50000000  0.64526840  1
  Br  Br23  1  0.50000000  0.50000000  0.35473160  1
  Cl  Cl24  1  0.12301112  0.25000000  0.25000000  1
  Cl  Cl25  1  0.87698888  0.75000000  0.25000000  1
  Cl  Cl26  1  0.25000000  0.12301112  0.25000000  1
  Cl  Cl27  1  0.25000000  0.87698888  0.75000000  1
  Cl  Cl28  1  0.25000000  0.25000000  0.12301112  1
  Cl  Cl29  1  0.75000000  0.25000000  0.87698888  1
  Cl  Cl30  1  0.12301112  0.75000000  0.75000000  1
  Cl  Cl31  1  0.87698888  0.25000000  0.75000000  1
  Cl  Cl32  1  0.25000000  0.62301112  0.75000000  1
  Cl  Cl33  1  0.25000000  0.37698888  0.25000000  1
  Cl  Cl34  1  0.25000000  0.75000000  0.62301112  1
  Cl  Cl35  1  0.75000000  0.75000000  0.37698888  1
  Cl  Cl36  1  0.62301112  0.25000000  0.75000000  1
  Cl  Cl37  1  0.37698888  0.75000000  0.75000000  1
  Cl  Cl38  1  0.75000000  0.12301112  0.75000000  1
  Cl  Cl39  1  0.75000000  0.87698888  0.25000000  1
  Cl  Cl40  1  0.75000000  0.25000000  0.62301112  1
  Cl  Cl41  1  0.25000000  0.25000000  0.37698888  1
  Cl  Cl42  1  0.62301112  0.75000000  0.25000000  1
  Cl  Cl43  1  0.37698888  0.25000000  0.25000000  1
  Cl  Cl44  1  0.75000000  0.62301112  0.25000000  1
  Cl  Cl45  1  0.75000000  0.37698888  0.75000000  1
  Cl  Cl46  1  0.75000000  0.75000000  0.12301112  1
  Cl  Cl47  1  0.25000000  0.75000000  0.87698888  1
  Cl  Cl48  1  0.07111330  0.07111330  0.07111330  1
  Cl  Cl49  1  0.92888670  0.92888670  0.07111330  1
  Cl  Cl50  1  0.92888670  0.07111330  0.92888670  1
  Cl  Cl51  1  0.07111330  0.92888670  0.92888670  1
  Cl  Cl52  1  0.07111330  0.57111330  0.57111330  1
  Cl  Cl53  1  0.92888670  0.42888670  0.57111330  1
  Cl  Cl54  1  0.92888670  0.57111330  0.42888670  1
  Cl  Cl55  1  0.07111330  0.42888670  0.42888670  1
  Cl  Cl56  1  0.57111330  0.07111330  0.57111330  1
  Cl  Cl57  1  0.42888670  0.92888670  0.57111330  1
  Cl  Cl58  1  0.42888670  0.07111330  0.42888670  1
  Cl  Cl59  1  0.57111330  0.92888670  0.42888670  1
  Cl  Cl60  1  0.57111330  0.57111330  0.07111330  1
  Cl  Cl61  1  0.42888670  0.42888670  0.07111330  1
  Cl  Cl62  1  0.42888670  0.57111330  0.92888670  1
  Cl  Cl63  1  0.57111330  0.42888670  0.92888670  1
  Cl  Cl64  1  0.17796455  0.00000000  0.00000000  1
  Cl  Cl65  1  0.82203545  0.00000000  -0.00000000  1
  Cl  Cl66  1  0.00000000  0.17796455  0.00000000  1
  Cl  Cl67  1  0.00000000  0.82203545  0.00000000  1
  Cl  Cl68  1  0.00000000  0.00000000  0.17796455  1
  Cl  Cl69  1  0.00000000  0.00000000  0.82203545  1
  Cl  Cl70  1  0.17796455  0.50000000  0.50000000  1
  Cl  Cl71  1  0.82203545  0.50000000  0.50000000  1
  Cl  Cl72  1  0.00000000  0.67796455  0.50000000  1
  Cl  Cl73  1  0.00000000  0.32203545  0.50000000  1
  Cl  Cl74  1  0.00000000  0.50000000  0.67796455  1
  Cl  Cl75  1  0.00000000  0.50000000  0.32203545  1
  Cl  Cl76  1  0.67796455  -0.00000000  0.50000000  1
  Cl  Cl77  1  0.32203545  0.00000000  0.50000000  1
  Cl  Cl78  1  0.50000000  0.17796455  0.50000000  1
  Cl  Cl79  1  0.50000000  0.82203545  0.50000000  1
  Cl  Cl80  1  0.50000000  0.00000000  0.67796455  1
  Cl  Cl81  1  0.50000000  0.00000000  0.32203545  1
  Cl  Cl82  1  0.67796455  0.50000000  0.00000000  1
  Cl  Cl83  1  0.32203545  0.50000000  0.00000000  1
  Cl  Cl84  1  0.50000000  0.67796455  0.00000000  1
  Cl  Cl85  1  0.50000000  0.32203545  -0.00000000  1
  Cl  Cl86  1  0.50000000  0.50000000  0.17796455  1
  Cl  Cl87  1  0.50000000  0.50000000  0.82203545  1
  Cl  Cl88  1  0.00000000  0.00000000  0.00000000  1
  Cl  Cl89  1  0.00000000  0.50000000  0.50000000  1
  Cl  Cl90  1  0.50000000  0.00000000  0.50000000  1
  Cl  Cl91  1  0.50000000  0.50000000  0.00000000  1
  Cl  Cl92  1  0.75000000  0.75000000  0.75000000  1
  Cl  Cl93  1  0.75000000  0.25000000  0.25000000  1
  Cl  Cl94  1  0.25000000  0.75000000  0.25000000  1
  Cl  Cl95  1  0.25000000  0.25000000  0.75000000  1
  Li  Li96  1  0.79551402  0.91335574  0.98198366  1
  Li  Li97  1  -0.79551402  -0.91335574  0.98198366  1
  Li  Li98  1  -0.79551402  0.91335574  -0.98198366  1
  Li  Li99  1  0.79551402  -0.91335574  -0.98198366  1
  Li  Li100  1  0.98198366  0.79551402  0.91335574  1
  Li  Li101  1  0.98198366  -0.79551402  -0.91335574  1
  Li  Li102  1  -0.98198366  -0.79551402  0.91335574  1
  Li  Li103  1  -0.98198366  0.79551402  -0.91335574  1
  Li  Li104  1  0.91335574  0.98198366  0.79551402  1
  Li  Li105  1  -0.91335574  0.98198366  -0.79551402  1
  Li  Li106  1  0.91335574  -0.98198366  -0.79551402  1
  Li  Li107  1  -0.91335574  -0.98198366  0.79551402  1
  Li  Li108  1  0.91335574  0.79551402  0.98198366  1
  Li  Li109  1  -0.91335574  -0.79551402  0.98198366  1
  Li  Li110  1  0.91335574  -0.79551402  -0.98198366  1
  Li  Li111  1  -0.91335574  0.79551402  -0.98198366  1
  Li  Li112  1  0.79551402  0.98198366  0.91335574  1
  Li  Li113  1  -0.79551402  0.98198366  -0.91335574  1
  Li  Li114  1  -0.79551402  -0.98198366  0.91335574  1
  Li  Li115  1  0.79551402  -0.98198366  -0.91335574  1
  Li  Li116  1  0.98198366  0.91335574  0.79551402  1
  Li  Li117  1  0.98198366  -0.91335574  -0.79551402  1
  Li  Li118  1  -0.98198366  0.91335574  -0.79551402  1
  Li  Li119  1  -0.98198366  -0.91335574  0.79551402  1
  Li  Li120  1  0.79551402  1.41335574  1.48198366  1
  Li  Li121  1  -0.79551402  -0.41335574  1.48198366  1
  Li  Li122  1  -0.79551402  1.41335574  -0.48198366  1
  Li  Li123  1  0.79551402  -0.41335574  -0.48198366  1
  Li  Li124  1  0.98198366  1.29551402  1.41335574  1
  Li  Li125  1  0.98198366  -0.29551402  -0.41335574  1
  Li  Li126  1  -0.98198366  -0.29551402  1.41335574  1
  Li  Li127  1  -0.98198366  1.29551402  -0.41335574  1
  Li  Li128  1  0.91335574  1.48198366  1.29551402  1
  Li  Li129  1  -0.91335574  1.48198366  -0.29551402  1
  Li  Li130  1  0.91335574  -0.48198366  -0.29551402  1
  Li  Li131  1  -0.91335574  -0.48198366  1.29551402  1
  Li  Li132  1  0.91335574  1.29551402  1.48198366  1
  Li  Li133  1  -0.91335574  -0.29551402  1.48198366  1
  Li  Li134  1  0.91335574  -0.29551402  -0.48198366  1
  Li  Li135  1  -0.91335574  1.29551402  -0.48198366  1
  Li  Li136  1  0.79551402  1.48198366  1.41335574  1
  Li  Li137  1  -0.79551402  1.48198366  -0.41335574  1
  Li  Li138  1  -0.79551402  -0.48198366  1.41335574  1
  Li  Li139  1  0.79551402  -0.48198366  -0.41335574  1
  Li  Li140  1  0.98198366  1.41335574  1.29551402  1
  Li  Li141  1  0.98198366  -0.41335574  -0.29551402  1
  Li  Li142  1  -0.98198366  1.41335574  -0.29551402  1
  Li  Li143  1  -0.98198366  -0.41335574  1.29551402  1
  Li  Li144  1  1.29551402  0.91335574  1.48198366  1
  Li  Li145  1  -0.29551402  -0.91335574  1.48198366  1
  Li  Li146  1  -0.29551402  0.91335574  -0.48198366  1
  Li  Li147  1  1.29551402  -0.91335574  -0.48198366  1
  Li  Li148  1  1.48198366  0.79551402  1.41335574  1
  Li  Li149  1  1.48198366  -0.79551402  -0.41335574  1
  Li  Li150  1  -0.48198366  -0.79551402  1.41335574  1
  Li  Li151  1  -0.48198366  0.79551402  -0.41335574  1
  Li  Li152  1  1.41335574  0.98198366  1.29551402  1
  Li  Li153  1  -0.41335574  0.98198366  -0.29551402  1
  Li  Li154  1  1.41335574  -0.98198366  -0.29551402  1
  Li  Li155  1  -0.41335574  -0.98198366  1.29551402  1
  Li  Li156  1  1.41335574  0.79551402  1.48198366  1
  Li  Li157  1  -0.41335574  -0.79551402  1.48198366  1
  Li  Li158  1  1.41335574  -0.79551402  -0.48198366  1
  Li  Li159  1  -0.41335574  0.79551402  -0.48198366  1
  Li  Li160  1  1.29551402  0.98198366  1.41335574  1
  Li  Li161  1  -0.29551402  0.98198366  -0.41335574  1
  Li  Li162  1  -0.29551402  -0.98198366  1.41335574  1
  Li  Li163  1  1.29551402  -0.98198366  -0.41335574  1
  Li  Li164  1  1.48198366  0.91335574  1.29551402  1
  Li  Li165  1  1.48198366  -0.91335574  -0.29551402  1
  Li  Li166  1  -0.48198366  0.91335574  -0.29551402  1
  Li  Li167  1  -0.48198366  -0.91335574  1.29551402  1
  Li  Li168  1  1.29551402  1.41335574  0.98198366  1
  Li  Li169  1  -0.29551402  -0.41335574  0.98198366  1
  Li  Li170  1  -0.29551402  1.41335574  -0.98198366  1
  Li  Li171  1  1.29551402  -0.41335574  -0.98198366  1
  Li  Li172  1  1.48198366  1.29551402  0.91335574  1
  Li  Li173  1  1.48198366  -0.29551402  -0.91335574  1
  Li  Li174  1  -0.48198366  -0.29551402  0.91335574  1
  Li  Li175  1  -0.48198366  1.29551402  -0.91335574  1
  Li  Li176  1  1.41335574  1.48198366  0.79551402  1
  Li  Li177  1  -0.41335574  1.48198366  -0.79551402  1
  Li  Li178  1  1.41335574  -0.48198366  -0.79551402  1
  Li  Li179  1  -0.41335574  -0.48198366  0.79551402  1
  Li  Li180  1  1.41335574  1.29551402  0.98198366  1
  Li  Li181  1  -0.41335574  -0.29551402  0.98198366  1
  Li  Li182  1  1.41335574  -0.29551402  -0.98198366  1
  Li  Li183  1  -0.41335574  1.29551402  -0.98198366  1
  Li  Li184  1  1.29551402  1.48198366  0.91335574  1
  Li  Li185  1  -0.29551402  1.48198366  -0.91335574  1
  Li  Li186  1  -0.29551402  -0.48198366  0.91335574  1
  Li  Li187  1  1.29551402  -0.48198366  -0.91335574  1
  Li  Li188  1  1.48198366  1.41335574  0.79551402  1
  Li  Li189  1  1.48198366  -0.41335574  -0.79551402  1
  Li  Li190  1  -0.48198366  1.41335574  -0.79551402  1
  Li  Li191  1  -0.48198366  -0.41335574  0.79551402  1
  Mg  Mg192  1  0.66197824  0.66197824  0.91663075  1
  Mg  Mg193  1  0.33802176  0.33802176  0.91663075  1
  Mg  Mg194  1  0.33802176  0.66197824  0.08336925  1
  Mg  Mg195  1  0.66197824  0.33802176  0.08336925  1
  Mg  Mg196  1  0.91663075  0.66197824  0.66197824  1
  Mg  Mg197  1  0.91663075  0.33802176  0.33802176  1
  Mg  Mg198  1  0.08336925  0.33802176  0.66197824  1
  Mg  Mg199  1  0.08336925  0.66197824  0.33802176  1
  Mg  Mg200  1  0.66197824  0.91663075  0.66197824  1
  Mg  Mg201  1  0.33802176  0.91663075  0.33802176  1
  Mg  Mg202  1  0.66197824  0.08336925  0.33802176  1
  Mg  Mg203  1  0.33802176  0.08336925  0.66197824  1
  Mg  Mg204  1  0.66197824  0.16197824  0.41663075  1
  Mg  Mg205  1  0.33802176  0.83802176  0.41663075  1
  Mg  Mg206  1  0.33802176  0.16197824  0.58336925  1
  Mg  Mg207  1  0.66197824  0.83802176  0.58336925  1
  Mg  Mg208  1  0.91663075  0.16197824  0.16197824  1
  Mg  Mg209  1  0.91663075  0.83802176  0.83802176  1
  Mg  Mg210  1  0.08336925  0.83802176  0.16197824  1
  Mg  Mg211  1  0.08336925  0.16197824  0.83802176  1
  Mg  Mg212  1  0.66197824  0.41663075  0.16197824  1
  Mg  Mg213  1  0.33802176  0.41663075  0.83802176  1
  Mg  Mg214  1  0.66197824  0.58336925  0.83802176  1
  Mg  Mg215  1  0.33802176  0.58336925  0.16197824  1
  Mg  Mg216  1  0.16197824  0.66197824  0.41663075  1
  Mg  Mg217  1  0.83802176  0.33802176  0.41663075  1
  Mg  Mg218  1  0.83802176  0.66197824  0.58336925  1
  Mg  Mg219  1  0.16197824  0.33802176  0.58336925  1
  Mg  Mg220  1  0.41663075  0.66197824  0.16197824  1
  Mg  Mg221  1  0.41663075  0.33802176  0.83802176  1
  Mg  Mg222  1  0.58336925  0.33802176  0.16197824  1
  Mg  Mg223  1  0.58336925  0.66197824  0.83802176  1
  Mg  Mg224  1  0.16197824  0.91663075  0.16197824  1
  Mg  Mg225  1  0.83802176  0.91663075  0.83802176  1
  Mg  Mg226  1  0.16197824  0.08336925  0.83802176  1
  Mg  Mg227  1  0.83802176  0.08336925  0.16197824  1
  Mg  Mg228  1  0.16197824  0.16197824  0.91663075  1
  Mg  Mg229  1  0.83802176  0.83802176  0.91663075  1
  Mg  Mg230  1  0.83802176  0.16197824  0.08336925  1
  Mg  Mg231  1  0.16197824  0.83802176  0.08336925  1
  Mg  Mg232  1  0.41663075  0.16197824  0.66197824  1
  Mg  Mg233  1  0.41663075  0.83802176  0.33802176  1
  Mg  Mg234  1  0.58336925  0.83802176  0.66197824  1
  Mg  Mg235  1  0.58336925  0.16197824  0.33802176  1
  Mg  Mg236  1  0.16197824  0.41663075  0.66197824  1
  Mg  Mg237  1  0.83802176  0.41663075  0.33802176  1
  Mg  Mg238  1  0.16197824  0.58336925  0.33802176  1
  Mg  Mg239  1  0.83802176  0.58336925  0.66197824  1
  Te  Te240  1  0.79444933  0.79444933  0.79444933  1
  Te  Te241  1  0.20555067  0.20555067  0.79444933  1
  Te  Te242  1  0.20555067  0.79444933  0.20555067  1
  Te  Te243  1  0.79444933  0.20555067  0.20555067  1
  Te  Te244  1  0.79444933  0.29444933  0.29444933  1
  Te  Te245  1  0.20555067  0.70555067  0.29444933  1
  Te  Te246  1  0.20555067  0.29444933  0.70555067  1
  Te  Te247  1  0.79444933  0.70555067  0.70555067  1
  Te  Te248  1  0.29444933  0.79444933  0.29444933  1
  Te  Te249  1  0.70555067  0.20555067  0.29444933  1
  Te  Te250  1  0.70555067  0.79444933  0.70555067  1
  Te  Te251  1  0.29444933  0.20555067  0.70555067  1
  Te  Te252  1  0.29444933  0.29444933  0.79444933  1
  Te  Te253  1  0.70555067  0.70555067  0.79444933  1
  Te  Te254  1  0.70555067  0.29444933  0.20555067  1
  Te  Te255  1  0.29444933  0.70555067  0.20555067  1
  Te  Te256  1  0.25000000  0.25000000  0.25000000  1
  Te  Te257  1  0.25000000  0.75000000  0.75000000  1
  Te  Te258  1  0.75000000  0.25000000  0.75000000  1
  Te  Te259  1  0.75000000  0.75000000  0.25000000  1
  Te  Te260  1  0.05311484  0.25000000  0.25000000  1
  Te  Te261  1  0.94688516  0.75000000  0.25000000  1
  Te  Te262  1  0.25000000  0.05311484  0.25000000  1
  Te  Te263  1  0.25000000  0.94688516  0.75000000  1
  Te  Te264  1  0.25000000  0.25000000  0.05311484  1
  Te  Te265  1  0.75000000  0.25000000  0.94688516  1
  Te  Te266  1  0.05311484  0.75000000  0.75000000  1
  Te  Te267  1  0.94688516  0.25000000  0.75000000  1
  Te  Te268  1  0.25000000  0.55311484  0.75000000  1
  Te  Te269  1  0.25000000  0.44688516  0.25000000  1
  Te  Te270  1  0.25000000  0.75000000  0.55311484  1
  Te  Te271  1  0.75000000  0.75000000  0.44688516  1
  Te  Te272  1  0.55311484  0.25000000  0.75000000  1
  Te  Te273  1  0.44688516  0.75000000  0.75000000  1
  Te  Te274  1  0.75000000  0.05311484  0.75000000  1
  Te  Te275  1  0.75000000  0.94688516  0.25000000  1
  Te  Te276  1  0.75000000  0.25000000  0.55311484  1
  Te  Te277  1  0.25000000  0.25000000  0.44688516  1
  Te  Te278  1  0.55311484  0.75000000  0.25000000  1
  Te  Te279  1  0.44688516  0.25000000  0.25000000  1
  Te  Te280  1  0.75000000  0.55311484  0.25000000  1
  Te  Te281  1  0.75000000  0.44688516  0.75000000  1
  Te  Te282  1  0.75000000  0.75000000  0.05311484  1
  Te  Te283  1  0.25000000  0.75000000  0.94688516  1
  Te  Te284  1  0.50000000  0.50000000  0.50000000  1
  Te  Te285  1  0.50000000  0.00000000  0.00000000  1
  Te  Te286  1  0.00000000  0.50000000  0.00000000  1
  Te  Te287  1  0.00000000  0.00000000  0.50000000  1
