# generated using pymatgen
data_Li2B2TeF6
_symmetry_space_group_name_H-M   'P 1'
_cell_length_a   7.60952595
_cell_length_b   8.64074040
_cell_length_c   4.68147843
_cell_angle_alpha   90.00000000
_cell_angle_beta   90.00000000
_cell_angle_gamma   90.00000000
_symmetry_Int_Tables_number   1
_chemical_formula_structural   Li2B2TeF6
_chemical_formula_sum   'Li4 B4 Te2 F12'
_cell_volume   307.81628075
_cell_formula_units_Z   2
loop_
 _symmetry_equiv_pos_site_id
 _symmetry_equiv_pos_as_xyz
  1  'x, y, z'
loop_
 _atom_site_type_symbol
 _atom_site_label
 _atom_site_symmetry_multiplicity
 _atom_site_fract_x
 _atom_site_fract_y
 _atom_site_fract_z
 _atom_site_occupancy
  B  B0  1  0.33166813  0.24255719  0.00000000  1
  B  B1  1  0.66833187  0.75744281  -0.00000000  1
  B  B2  1  0.16833187  0.74255719  -0.00000000  1
  B  B3  1  0.83166813  0.25744281  0.00000000  1
  F  F4  1  0.46635248  0.23508411  0.00000000  1
  F  F5  1  0.53364752  0.76491589  0.00000000  1
  F  F6  1  0.03364752  0.73508411  0.00000000  1
  F  F7  1  0.96635248  0.26491589  -0.00000000  1
  F  F8  1  0.88748609  0.45595405  0.26488853  1
  F  F9  1  -0.88748609  -0.45595405  0.26488853  1
  F  F10  1  -0.38748609  0.95595405  -0.26488853  1
  F  F11  1  1.38748609  0.04404595  -0.26488853  1
  F  F12  1  -0.88748609  -0.45595405  -0.26488853  1
  F  F13  1  0.88748609  0.45595405  -0.26488853  1
  F  F14  1  1.38748609  0.04404595  0.26488853  1
  F  F15  1  -0.38748609  0.95595405  0.26488853  1
  Li  Li16  1  0.00000000  0.50000000  0.50000000  1
  Li  Li17  1  0.50000000  0.00000000  0.50000000  1
  Li  Li18  1  0.00000000  0.00000000  0.50000000  1
  Li  Li19  1  0.50000000  0.50000000  0.50000000  1
  Te  Te20  1  0.00000000  0.50000000  0.00000000  1
  Te  Te21  1  0.50000000  0.00000000  0.00000000  1
