# generated using pymatgen
data_K24Sr8Li2(S3O4)3
_symmetry_space_group_name_H-M   'P 1'
_cell_length_a   29.87241029
_cell_length_b   29.87241029
_cell_length_c   22.24626699
_cell_angle_alpha   90.00000000
_cell_angle_beta   90.00000000
_cell_angle_gamma   120.00000000
_symmetry_Int_Tables_number   1
_chemical_formula_structural   K24Sr8Li2(S3O4)3
_chemical_formula_sum   'K144 Sr48 Li12 S54 O72'
_cell_volume   17192.07543873
_cell_formula_units_Z   6
loop_
 _symmetry_equiv_pos_site_id
 _symmetry_equiv_pos_as_xyz
  1  'x, y, z'
loop_
 _atom_site_type_symbol
 _atom_site_label
 _atom_site_symmetry_multiplicity
 _atom_site_fract_x
 _atom_site_fract_y
 _atom_site_fract_z
 _atom_site_occupancy
  K  K0  1  0.64799719  0.92762508  0.13336076  1
  K  K1  1  0.07237492  0.72037211  0.13336076  1
  K  K2  1  0.27962789  0.35200281  0.13336076  1
  K  K3  1  0.92762508  0.64799719  0.36663924  1
  K  K4  1  0.72037211  0.07237492  0.36663924  1
  K  K5  1  0.35200281  0.27962789  0.36663924  1
  K  K6  1  0.35200281  0.07237492  0.86663924  1
  K  K7  1  0.92762508  0.27962789  0.86663924  1
  K  K8  1  0.72037211  0.64799719  0.86663924  1
  K  K9  1  0.07237492  0.35200281  0.63336076  1
  K  K10  1  0.27962789  0.92762508  0.63336076  1
  K  K11  1  0.64799719  0.72037211  0.63336076  1
  K  K12  1  0.31466385  0.26095841  0.46669409  1
  K  K13  1  0.73904159  0.05370544  0.46669409  1
  K  K14  1  0.94629456  0.68533615  0.46669409  1
  K  K15  1  0.59429175  0.98133052  0.69997258  1
  K  K16  1  0.38703877  0.40570825  0.69997258  1
  K  K17  1  0.01866948  0.61296123  0.69997258  1
  K  K18  1  0.01866948  0.40570825  0.19997258  1
  K  K19  1  0.59429175  0.61296123  0.19997258  1
  K  K20  1  0.38703877  0.98133052  0.19997258  1
  K  K21  1  0.73904159  0.68533615  0.96669409  1
  K  K22  1  0.94629456  0.26095841  0.96669409  1
  K  K23  1  0.31466385  0.05370544  0.96669409  1
  K  K24  1  0.98133052  0.59429175  0.80002742  1
  K  K25  1  0.40570825  0.38703877  0.80002742  1
  K  K26  1  0.61296123  0.01866948  0.80002742  1
  K  K27  1  0.26095841  0.31466385  0.03330591  1
  K  K28  1  0.05370544  0.73904159  0.03330591  1
  K  K29  1  0.68533615  0.94629456  0.03330591  1
  K  K30  1  0.68533615  0.73904159  0.53330591  1
  K  K31  1  0.26095841  0.94629456  0.53330591  1
  K  K32  1  0.05370544  0.31466385  0.53330591  1
  K  K33  1  0.40570825  0.01866948  0.30002742  1
  K  K34  1  0.61296123  0.59429175  0.30002742  1
  K  K35  1  0.98133052  0.38703877  0.30002742  1
  K  K36  1  0.49734769  0.00000000  0.25000000  1
  K  K37  1  0.00000000  0.49734769  0.25000000  1
  K  K38  1  0.50265231  0.50265231  0.25000000  1
  K  K39  1  0.50265231  0.00000000  0.75000000  1
  K  K40  1  0.00000000  0.50265231  0.75000000  1
  K  K41  1  0.49734769  0.49734769  0.75000000  1
  K  K42  1  0.16401436  0.33333333  0.58333333  1
  K  K43  1  0.66666667  0.83068102  0.58333333  1
  K  K44  1  0.16931898  0.83598564  0.58333333  1
  K  K45  1  0.16931898  0.33333333  0.08333333  1
  K  K46  1  0.66666667  0.83598564  0.08333333  1
  K  K47  1  0.16401436  0.83068102  0.08333333  1
  K  K48  1  0.83068102  0.66666667  0.91666667  1
  K  K49  1  0.33333333  0.16401436  0.91666667  1
  K  K50  1  0.83598564  0.16931898  0.91666667  1
  K  K51  1  0.83598564  0.66666667  0.41666667  1
  K  K52  1  0.33333333  0.16931898  0.41666667  1
  K  K53  1  0.83068102  0.16401436  0.41666667  1
  K  K54  1  0.25870111  0.06547620  0.29143983  1
  K  K55  1  0.93452380  0.19322491  0.29143983  1
  K  K56  1  0.80677509  0.74129889  0.29143983  1
  K  K57  1  0.06547620  0.25870111  0.20856017  1
  K  K58  1  0.19322491  0.93452380  0.20856017  1
  K  K59  1  0.74129889  0.80677509  0.20856017  1
  K  K60  1  0.74129889  0.93452380  0.70856017  1
  K  K61  1  0.06547620  0.80677509  0.70856017  1
  K  K62  1  0.19322491  0.25870111  0.70856017  1
  K  K63  1  0.93452380  0.74129889  0.79143983  1
  K  K64  1  0.80677509  0.06547620  0.79143983  1
  K  K65  1  0.25870111  0.19322491  0.79143983  1
  K  K66  1  0.92536778  0.39880953  0.62477317  1
  K  K67  1  0.60119047  0.52655824  0.62477317  1
  K  K68  1  0.47344176  0.07463222  0.62477317  1
  K  K69  1  0.73214287  0.59203444  0.54189350  1
  K  K70  1  0.85989158  0.26785713  0.54189350  1
  K  K71  1  0.40796556  0.14010842  0.54189350  1
  K  K72  1  0.40796556  0.26785713  0.04189350  1
  K  K73  1  0.73214287  0.14010842  0.04189350  1
  K  K74  1  0.85989158  0.59203444  0.04189350  1
  K  K75  1  0.60119047  0.07463222  0.12477317  1
  K  K76  1  0.47344176  0.39880953  0.12477317  1
  K  K77  1  0.92536778  0.52655824  0.12477317  1
  K  K78  1  0.59203444  0.73214287  0.95810650  1
  K  K79  1  0.26785713  0.85989158  0.95810650  1
  K  K80  1  0.14010842  0.40796556  0.95810650  1
  K  K81  1  0.39880953  0.92536778  0.87522683  1
  K  K82  1  0.52655824  0.60119047  0.87522683  1
  K  K83  1  0.07463222  0.47344176  0.87522683  1
  K  K84  1  0.07463222  0.60119047  0.37522683  1
  K  K85  1  0.39880953  0.47344176  0.37522683  1
  K  K86  1  0.52655824  0.92536778  0.37522683  1
  K  K87  1  0.26785713  0.40796556  0.45810650  1
  K  K88  1  0.14010842  0.73214287  0.45810650  1
  K  K89  1  0.59203444  0.85989158  0.45810650  1
  K  K90  1  0.23000600  0.96900056  0.04132796  1
  K  K91  1  0.03099944  0.26100544  0.04132796  1
  K  K92  1  0.73899456  0.76999400  0.04132796  1
  K  K93  1  0.96900056  0.23000600  0.45867204  1
  K  K94  1  0.26100544  0.03099944  0.45867204  1
  K  K95  1  0.76999400  0.73899456  0.45867204  1
  K  K96  1  0.76999400  0.03099944  0.95867204  1
  K  K97  1  0.96900056  0.73899456  0.95867204  1
  K  K98  1  0.26100544  0.23000600  0.95867204  1
  K  K99  1  0.03099944  0.76999400  0.54132796  1
  K  K100  1  0.73899456  0.96900056  0.54132796  1
  K  K101  1  0.23000600  0.26100544  0.54132796  1
  K  K102  1  0.89667267  0.30233390  0.37466130  1
  K  K103  1  0.69766610  0.59433877  0.37466130  1
  K  K104  1  0.40566123  0.10332733  0.37466130  1
  K  K105  1  0.63566723  0.56333933  0.79200537  1
  K  K106  1  0.92767210  0.36433277  0.79200537  1
  K  K107  1  0.43666067  0.07232790  0.79200537  1
  K  K108  1  0.43666067  0.36433277  0.29200537  1
  K  K109  1  0.63566723  0.07232790  0.29200537  1
  K  K110  1  0.92767210  0.56333933  0.29200537  1
  K  K111  1  0.69766610  0.10332733  0.87466130  1
  K  K112  1  0.40566123  0.30233390  0.87466130  1
  K  K113  1  0.89667267  0.59433877  0.87466130  1
  K  K114  1  0.56333933  0.63566723  0.70799463  1
  K  K115  1  0.36433277  0.92767210  0.70799463  1
  K  K116  1  0.07232790  0.43666067  0.70799463  1
  K  K117  1  0.30233390  0.89667267  0.12533870  1
  K  K118  1  0.59433877  0.69766610  0.12533870  1
  K  K119  1  0.10332733  0.40566123  0.12533870  1
  K  K120  1  0.10332733  0.69766610  0.62533870  1
  K  K121  1  0.30233390  0.40566123  0.62533870  1
  K  K122  1  0.59433877  0.89667267  0.62533870  1
  K  K123  1  0.36433277  0.43666067  0.20799463  1
  K  K124  1  0.07232790  0.63566723  0.20799463  1
  K  K125  1  0.56333933  0.92767210  0.20799463  1
  K  K126  1  0.14672918  0.00000000  0.25000000  1
  K  K127  1  0.00000000  0.14672918  0.25000000  1
  K  K128  1  0.85327082  0.85327082  0.25000000  1
  K  K129  1  0.85327082  0.00000000  0.75000000  1
  K  K130  1  0.00000000  0.85327082  0.75000000  1
  K  K131  1  0.14672918  0.14672918  0.75000000  1
  K  K132  1  0.81339585  0.33333333  0.58333333  1
  K  K133  1  0.66666667  0.48006251  0.58333333  1
  K  K134  1  0.51993749  0.18660415  0.58333333  1
  K  K135  1  0.51993749  0.33333333  0.08333333  1
  K  K136  1  0.66666667  0.18660415  0.08333333  1
  K  K137  1  0.81339585  0.48006251  0.08333333  1
  K  K138  1  0.48006251  0.66666667  0.91666667  1
  K  K139  1  0.33333333  0.81339585  0.91666667  1
  K  K140  1  0.18660415  0.51993749  0.91666667  1
  K  K141  1  0.18660415  0.66666667  0.41666667  1
  K  K142  1  0.33333333  0.51993749  0.41666667  1
  K  K143  1  0.48006251  0.81339585  0.41666667  1
  Li  Li144  1  0.00000000  0.00000000  0.25000000  1
  Li  Li145  1  0.00000000  0.00000000  0.75000000  1
  Li  Li146  1  0.66666667  0.33333333  0.58333333  1
  Li  Li147  1  0.66666667  0.33333333  0.08333333  1
  Li  Li148  1  0.33333333  0.66666667  0.91666667  1
  Li  Li149  1  0.33333333  0.66666667  0.41666667  1
  Li  Li150  1  0.00000000  0.00000000  0.00000000  1
  Li  Li151  1  0.00000000  0.00000000  0.50000000  1
  Li  Li152  1  0.66666667  0.33333333  0.33333333  1
  Li  Li153  1  0.66666667  0.33333333  0.83333333  1
  Li  Li154  1  0.33333333  0.66666667  0.66666667  1
  Li  Li155  1  0.33333333  0.66666667  0.16666667  1
  O  O156  1  0.09305300  0.77505628  0.78293168  1
  O  O157  1  0.22494372  0.31799672  0.78293168  1
  O  O158  1  0.68200328  0.90694700  0.78293168  1
  O  O159  1  0.77505628  0.09305300  0.71706832  1
  O  O160  1  0.31799672  0.22494372  0.71706832  1
  O  O161  1  0.90694700  0.68200328  0.71706832  1
  O  O162  1  0.90694700  0.22494372  0.21706832  1
  O  O163  1  0.77505628  0.68200328  0.21706832  1
  O  O164  1  0.31799672  0.09305300  0.21706832  1
  O  O165  1  0.22494372  0.90694700  0.28293168  1
  O  O166  1  0.68200328  0.77505628  0.28293168  1
  O  O167  1  0.09305300  0.31799672  0.28293168  1
  O  O168  1  0.75971967  0.10838961  0.11626502  1
  O  O169  1  0.89161039  0.65133006  0.11626502  1
  O  O170  1  0.34866994  0.24028033  0.11626502  1
  O  O171  1  0.44172294  0.42638633  0.05040165  1
  O  O172  1  0.98466339  0.55827706  0.05040165  1
  O  O173  1  0.57361367  0.01533661  0.05040165  1
  O  O174  1  0.57361367  0.55827706  0.55040165  1
  O  O175  1  0.44172294  0.01533661  0.55040165  1
  O  O176  1  0.98466339  0.42638633  0.55040165  1
  O  O177  1  0.89161039  0.24028033  0.61626502  1
  O  O178  1  0.34866994  0.10838961  0.61626502  1
  O  O179  1  0.75971967  0.65133006  0.61626502  1
  O  O180  1  0.42638633  0.44172294  0.44959835  1
  O  O181  1  0.55827706  0.98466339  0.44959835  1
  O  O182  1  0.01533661  0.57361367  0.44959835  1
  O  O183  1  0.10838961  0.75971967  0.38373498  1
  O  O184  1  0.65133006  0.89161039  0.38373498  1
  O  O185  1  0.24028033  0.34866994  0.38373498  1
  O  O186  1  0.24028033  0.89161039  0.88373498  1
  O  O187  1  0.10838961  0.34866994  0.88373498  1
  O  O188  1  0.65133006  0.75971967  0.88373498  1
  O  O189  1  0.55827706  0.57361367  0.94959835  1
  O  O190  1  0.01533661  0.44172294  0.94959835  1
  O  O191  1  0.42638633  0.98466339  0.94959835  1
  O  O192  1  0.50513308  0.23078833  0.03820818  1
  O  O193  1  0.76921167  0.27434475  0.03820818  1
  O  O194  1  0.72565525  0.49486692  0.03820818  1
  O  O195  1  0.23078833  0.50513308  0.46179182  1
  O  O196  1  0.27434475  0.76921167  0.46179182  1
  O  O197  1  0.49486692  0.72565525  0.46179182  1
  O  O198  1  0.49486692  0.76921167  0.96179182  1
  O  O199  1  0.23078833  0.72565525  0.96179182  1
  O  O200  1  0.27434475  0.50513308  0.96179182  1
  O  O201  1  0.76921167  0.49486692  0.53820818  1
  O  O202  1  0.72565525  0.23078833  0.53820818  1
  O  O203  1  0.50513308  0.27434475  0.53820818  1
  O  O204  1  0.17179975  0.56412167  0.37154151  1
  O  O205  1  0.43587833  0.60767808  0.37154151  1
  O  O206  1  0.39232192  0.82820025  0.37154151  1
  O  O207  1  0.89745500  0.83846641  0.79512516  1
  O  O208  1  0.94101141  0.10254500  0.79512516  1
  O  O209  1  0.16153359  0.05898859  0.79512516  1
  O  O210  1  0.16153359  0.10254500  0.29512516  1
  O  O211  1  0.89745500  0.05898859  0.29512516  1
  O  O212  1  0.94101141  0.83846641  0.29512516  1
  O  O213  1  0.43587833  0.82820025  0.87154151  1
  O  O214  1  0.39232192  0.56412167  0.87154151  1
  O  O215  1  0.17179975  0.60767808  0.87154151  1
  O  O216  1  0.83846641  0.89745500  0.70487484  1
  O  O217  1  0.10254500  0.94101141  0.70487484  1
  O  O218  1  0.05898859  0.16153359  0.70487484  1
  O  O219  1  0.56412167  0.17179975  0.12845849  1
  O  O220  1  0.60767808  0.43587833  0.12845849  1
  O  O221  1  0.82820025  0.39232192  0.12845849  1
  O  O222  1  0.82820025  0.43587833  0.62845849  1
  O  O223  1  0.56412167  0.39232192  0.62845849  1
  O  O224  1  0.60767808  0.17179975  0.62845849  1
  O  O225  1  0.10254500  0.16153359  0.20487484  1
  O  O226  1  0.05898859  0.89745500  0.20487484  1
  O  O227  1  0.83846641  0.94101141  0.20487484  1
  S  S228  1  0.94141080  0.59222635  0.55501321  1
  S  S229  1  -0.59222635  0.34918445  0.55501321  1
  S  S230  1  -0.34918445  -0.94141080  0.55501321  1
  S  S231  1  0.59222635  0.94141080  -0.05501321  1
  S  S232  1  0.34918445  -0.59222635  -0.05501321  1
  S  S233  1  -0.94141080  -0.34918445  -0.05501321  1
  S  S234  1  -0.94141080  -0.59222635  -0.55501321  1
  S  S235  1  0.59222635  -0.34918445  -0.55501321  1
  S  S236  1  0.34918445  0.94141080  -0.55501321  1
  S  S237  1  -0.59222635  -0.94141080  1.05501321  1
  S  S238  1  -0.34918445  0.59222635  1.05501321  1
  S  S239  1  0.94141080  0.34918445  1.05501321  1
  S  S240  1  1.60807747  0.92555969  0.88834654  1
  S  S241  1  0.07444031  0.68251778  0.88834654  1
  S  S242  1  0.31748222  -0.60807747  0.88834654  1
  S  S243  1  1.25889302  1.27474414  0.27832012  1
  S  S244  1  1.01585112  -0.25889302  0.27832012  1
  S  S245  1  -0.27474414  -0.01585112  0.27832012  1
  S  S246  1  -0.27474414  -0.25889302  -0.22167988  1
  S  S247  1  1.25889302  -0.01585112  -0.22167988  1
  S  S248  1  1.01585112  1.27474414  -0.22167988  1
  S  S249  1  0.07444031  -0.60807747  1.38834654  1
  S  S250  1  0.31748222  0.92555969  1.38834654  1
  S  S251  1  1.60807747  0.68251778  1.38834654  1
  S  S252  1  1.27474414  1.25889302  1.22167988  1
  S  S253  1  -0.25889302  1.01585112  1.22167988  1
  S  S254  1  -0.01585112  -0.27474414  1.22167988  1
  S  S255  1  0.92555969  1.60807747  0.61165346  1
  S  S256  1  0.68251778  0.07444031  0.61165346  1
  S  S257  1  -0.60807747  0.31748222  0.61165346  1
  S  S258  1  -0.60807747  0.07444031  0.11165346  1
  S  S259  1  0.92555969  0.31748222  0.11165346  1
  S  S260  1  0.68251778  1.60807747  0.11165346  1
  S  S261  1  -0.25889302  -0.27474414  1.72167988  1
  S  S262  1  -0.01585112  1.25889302  1.72167988  1
  S  S263  1  1.27474414  1.01585112  1.72167988  1
  S  S264  1  0.50000000  0.00000000  -0.00000000  1
  S  S265  1  0.00000000  0.50000000  0.00000000  1
  S  S266  1  0.50000000  0.50000000  -0.00000000  1
  S  S267  1  0.00000000  0.50000000  0.50000000  1
  S  S268  1  0.50000000  0.00000000  0.50000000  1
  S  S269  1  0.50000000  0.50000000  0.50000000  1
  S  S270  1  0.16666667  0.33333333  0.33333333  1
  S  S271  1  0.66666667  0.83333333  0.33333333  1
  S  S272  1  0.16666667  0.83333333  0.33333333  1
  S  S273  1  0.66666667  0.83333333  0.83333333  1
  S  S274  1  0.16666667  0.33333333  0.83333333  1
  S  S275  1  0.16666667  0.83333333  0.83333333  1
  S  S276  1  0.83333333  0.66666667  0.66666667  1
  S  S277  1  0.33333333  0.16666667  0.66666667  1
  S  S278  1  0.83333333  0.16666667  0.66666667  1
  S  S279  1  0.33333333  0.16666667  0.16666667  1
  S  S280  1  0.83333333  0.66666667  0.16666667  1
  S  S281  1  0.83333333  0.16666667  0.16666667  1
  Sr  Sr282  1  0.85402376  0.09567753  0.52358258  1
  Sr  Sr283  1  0.90432247  0.75834623  0.52358258  1
  Sr  Sr284  1  0.24165377  0.14597624  0.52358258  1
  Sr  Sr285  1  0.09567753  0.85402376  0.97641742  1
  Sr  Sr286  1  0.75834623  0.90432247  0.97641742  1
  Sr  Sr287  1  0.14597624  0.24165377  0.97641742  1
  Sr  Sr288  1  0.14597624  0.90432247  0.47641742  1
  Sr  Sr289  1  0.09567753  0.24165377  0.47641742  1
  Sr  Sr290  1  0.75834623  0.85402376  0.47641742  1
  Sr  Sr291  1  0.90432247  0.14597624  0.02358258  1
  Sr  Sr292  1  0.24165377  0.09567753  0.02358258  1
  Sr  Sr293  1  0.85402376  0.75834623  0.02358258  1
  Sr  Sr294  1  0.52069043  0.42901087  0.85691592  1
  Sr  Sr295  1  0.57098913  0.09167956  0.85691592  1
  Sr  Sr296  1  0.90832044  0.47930957  0.85691592  1
  Sr  Sr297  1  0.76234420  0.18735709  0.30975075  1
  Sr  Sr298  1  0.42501289  0.23765580  0.30975075  1
  Sr  Sr299  1  0.81264291  0.57498711  0.30975075  1
  Sr  Sr300  1  0.81264291  0.23765580  0.80975075  1
  Sr  Sr301  1  0.76234420  0.57498711  0.80975075  1
  Sr  Sr302  1  0.42501289  0.18735709  0.80975075  1
  Sr  Sr303  1  0.57098913  0.47930957  0.35691592  1
  Sr  Sr304  1  0.90832044  0.42901087  0.35691592  1
  Sr  Sr305  1  0.52069043  0.09167956  0.35691592  1
  Sr  Sr306  1  0.18735709  0.76234420  0.19024925  1
  Sr  Sr307  1  0.23765580  0.42501289  0.19024925  1
  Sr  Sr308  1  0.57498711  0.81264291  0.19024925  1
  Sr  Sr309  1  0.42901087  0.52069043  0.64308408  1
  Sr  Sr310  1  0.09167956  0.57098913  0.64308408  1
  Sr  Sr311  1  0.47930957  0.90832044  0.64308408  1
  Sr  Sr312  1  0.47930957  0.57098913  0.14308408  1
  Sr  Sr313  1  0.42901087  0.90832044  0.14308408  1
  Sr  Sr314  1  0.09167956  0.52069043  0.14308408  1
  Sr  Sr315  1  0.23765580  0.81264291  0.69024925  1
  Sr  Sr316  1  0.57498711  0.76234420  0.69024925  1
  Sr  Sr317  1  0.18735709  0.42501289  0.69024925  1
  Sr  Sr318  1  0.00000000  0.00000000  0.87410140  1
  Sr  Sr319  1  0.00000000  0.00000000  0.62589860  1
  Sr  Sr320  1  0.00000000  0.00000000  0.12589860  1
  Sr  Sr321  1  0.00000000  0.00000000  0.37410140  1
  Sr  Sr322  1  0.66666667  0.33333333  0.20743474  1
  Sr  Sr323  1  0.66666667  0.33333333  0.95923193  1
  Sr  Sr324  1  0.66666667  0.33333333  0.45923193  1
  Sr  Sr325  1  0.66666667  0.33333333  0.70743474  1
  Sr  Sr326  1  0.33333333  0.66666667  0.54076807  1
  Sr  Sr327  1  0.33333333  0.66666667  0.29256526  1
  Sr  Sr328  1  0.33333333  0.66666667  0.79256526  1
  Sr  Sr329  1  0.33333333  0.66666667  0.04076807  1
