# generated using pymatgen
data_LiI
_symmetry_space_group_name_H-M   'P 1'
_cell_length_a   9.64358254
_cell_length_b   9.64358254
_cell_length_c   9.64358254
_cell_angle_alpha   90.00000000
_cell_angle_beta   90.00000000
_cell_angle_gamma   90.00000000
_symmetry_Int_Tables_number   1
_chemical_formula_structural   LiI
_chemical_formula_sum   'Li24 I24'
_cell_volume   896.84048818
_cell_formula_units_Z   24
loop_
 _symmetry_equiv_pos_site_id
 _symmetry_equiv_pos_as_xyz
  1  'x, y, z'
loop_
 _atom_site_type_symbol
 _atom_site_label
 _atom_site_symmetry_multiplicity
 _atom_site_fract_x
 _atom_site_fract_y
 _atom_site_fract_z
 _atom_site_occupancy
  I  I0  1  0.37500000  0.00000000  0.25000000  1
  I  I1  1  0.12500000  0.00000000  0.75000000  1
  I  I2  1  0.25000000  0.37500000  -0.00000000  1
  I  I3  1  0.75000000  0.12500000  0.00000000  1
  I  I4  1  0.00000000  0.25000000  0.37500000  1
  I  I5  1  0.00000000  0.75000000  0.12500000  1
  I  I6  1  0.75000000  0.62500000  0.00000000  1
  I  I7  1  0.75000000  0.37500000  0.50000000  1
  I  I8  1  0.12500000  0.50000000  0.25000000  1
  I  I9  1  0.87500000  0.00000000  0.25000000  1
  I  I10  1  0.00000000  0.25000000  0.87500000  1
  I  I11  1  0.50000000  0.25000000  0.12500000  1
  I  I12  1  0.87500000  0.50000000  0.75000000  1
  I  I13  1  0.62500000  0.50000000  1.25000000  1
  I  I14  1  0.75000000  0.87500000  0.50000000  1
  I  I15  1  1.25000000  0.62500000  0.50000000  1
  I  I16  1  0.50000000  0.75000000  0.87500000  1
  I  I17  1  0.50000000  1.25000000  0.62500000  1
  I  I18  1  1.25000000  1.12500000  0.50000000  1
  I  I19  1  1.25000000  0.87500000  1.00000000  1
  I  I20  1  0.62500000  1.00000000  0.75000000  1
  I  I21  1  1.37500000  0.50000000  0.75000000  1
  I  I22  1  0.50000000  0.75000000  1.37500000  1
  I  I23  1  1.00000000  0.75000000  0.62500000  1
  Li  Li24  1  0.12500000  0.00000000  0.25000000  1
  Li  Li25  1  0.37500000  0.00000000  0.75000000  1
  Li  Li26  1  0.25000000  0.12500000  0.00000000  1
  Li  Li27  1  0.75000000  0.37500000  0.00000000  1
  Li  Li28  1  0.00000000  0.25000000  0.12500000  1
  Li  Li29  1  0.00000000  0.75000000  0.37500000  1
  Li  Li30  1  0.87500000  0.00000000  0.75000000  1
  Li  Li31  1  0.62500000  -0.00000000  0.25000000  1
  Li  Li32  1  0.75000000  0.87500000  -0.00000000  1
  Li  Li33  1  0.25000000  0.62500000  -0.00000000  1
  Li  Li34  1  0.00000000  0.75000000  0.87500000  1
  Li  Li35  1  0.00000000  0.25000000  0.62500000  1
  Li  Li36  1  0.62500000  0.50000000  0.75000000  1
  Li  Li37  1  0.87500000  0.50000000  0.25000000  1
  Li  Li38  1  0.75000000  0.62500000  0.50000000  1
  Li  Li39  1  0.25000000  0.87500000  0.50000000  1
  Li  Li40  1  0.50000000  0.75000000  0.62500000  1
  Li  Li41  1  0.50000000  0.25000000  0.87500000  1
  Li  Li42  1  0.37500000  0.50000000  0.25000000  1
  Li  Li43  1  0.12500000  0.50000000  0.75000000  1
  Li  Li44  1  0.25000000  0.37500000  0.50000000  1
  Li  Li45  1  0.75000000  0.12500000  0.50000000  1
  Li  Li46  1  0.50000000  0.25000000  0.37500000  1
  Li  Li47  1  0.50000000  0.75000000  0.12500000  1
