# generated using pymatgen
data_LiF
_symmetry_space_group_name_H-M   'P 1'
_cell_length_a   11.46302591
_cell_length_b   11.46302591
_cell_length_c   11.68152590
_cell_angle_alpha   90.00000000
_cell_angle_beta   90.00000000
_cell_angle_gamma   90.00000000
_symmetry_Int_Tables_number   1
_chemical_formula_structural   LiF
_chemical_formula_sum   'Li64 F64'
_cell_volume   1534.96375361
_cell_formula_units_Z   64
loop_
 _symmetry_equiv_pos_site_id
 _symmetry_equiv_pos_as_xyz
  1  'x, y, z'
loop_
 _atom_site_type_symbol
 _atom_site_label
 _atom_site_symmetry_multiplicity
 _atom_site_fract_x
 _atom_site_fract_y
 _atom_site_fract_z
 _atom_site_occupancy
  F  F0  1  0.75005336  0.22489872  0.33419607  1
  F  F1  1  -0.25005336  -0.22489872  0.83419607  1
  F  F2  1  0.02510128  1.50005336  0.58419607  1
  F  F3  1  0.47489872  -0.50005336  1.08419607  1
  F  F4  1  -0.25005336  0.22489872  -0.33419607  1
  F  F5  1  0.75005336  -0.22489872  0.16580393  1
  F  F6  1  0.47489872  1.50005336  0.41580393  1
  F  F7  1  0.02510128  -0.50005336  -0.08419607  1
  F  F8  1  -0.75005336  -0.22489872  -0.33419607  1
  F  F9  1  1.25005336  0.22489872  0.16580393  1
  F  F10  1  0.97489872  -0.50005336  0.41580393  1
  F  F11  1  0.52510128  1.50005336  -0.08419607  1
  F  F12  1  1.25005336  -0.22489872  0.33419607  1
  F  F13  1  -0.75005336  0.22489872  0.83419607  1
  F  F14  1  0.52510128  -0.50005336  0.58419607  1
  F  F15  1  0.97489872  1.50005336  1.08419607  1
  F  F16  1  1.25005336  0.72489872  0.83419607  1
  F  F17  1  0.24994664  0.27510128  1.33419607  1
  F  F18  1  0.52510128  2.00005336  1.08419607  1
  F  F19  1  0.97489872  -0.00005336  1.58419607  1
  F  F20  1  0.24994664  0.72489872  0.16580393  1
  F  F21  1  1.25005336  0.27510128  0.66580393  1
  F  F22  1  0.97489872  2.00005336  0.91580393  1
  F  F23  1  0.52510128  -0.00005336  0.41580393  1
  F  F24  1  -0.25005336  0.27510128  0.16580393  1
  F  F25  1  1.75005336  0.72489872  0.66580393  1
  F  F26  1  1.47489872  -0.00005336  0.91580393  1
  F  F27  1  1.02510128  2.00005336  0.41580393  1
  F  F28  1  1.75005336  0.27510128  0.83419607  1
  F  F29  1  -0.25005336  0.72489872  1.33419607  1
  F  F30  1  1.02510128  -0.00005336  1.08419607  1
  F  F31  1  1.47489872  2.00005336  1.58419607  1
  F  F32  1  0.00000000  0.25000000  0.12500000  1
  F  F33  1  0.00000000  0.75000000  0.37500000  1
  F  F34  1  0.00000000  0.75000000  0.87500000  1
  F  F35  1  0.00000000  0.25000000  0.62500000  1
  F  F36  1  0.50000000  0.75000000  0.62500000  1
  F  F37  1  0.50000000  0.25000000  0.87500000  1
  F  F38  1  0.50000000  0.25000000  0.37500000  1
  F  F39  1  0.50000000  0.75000000  0.12500000  1
  F  F40  1  0.38476774  0.00000000  0.25000000  1
  F  F41  1  0.11523226  0.00000000  0.75000000  1
  F  F42  1  0.25000000  0.13476774  0.50000000  1
  F  F43  1  0.25000000  0.86523226  0.00000000  1
  F  F44  1  0.61523226  0.00000000  0.75000000  1
  F  F45  1  0.88476774  -0.00000000  0.25000000  1
  F  F46  1  0.75000000  0.86523226  0.50000000  1
  F  F47  1  0.75000000  0.13476774  0.00000000  1
  F  F48  1  0.88476774  0.50000000  0.75000000  1
  F  F49  1  0.61523226  0.50000000  0.25000000  1
  F  F50  1  0.75000000  0.63476774  0.00000000  1
  F  F51  1  0.75000000  0.36523226  0.50000000  1
  F  F52  1  0.11523226  0.50000000  0.25000000  1
  F  F53  1  0.38476774  0.50000000  0.75000000  1
  F  F54  1  0.25000000  0.36523226  0.00000000  1
  F  F55  1  0.25000000  0.63476774  0.50000000  1
  F  F56  1  0.00000000  0.25000000  0.37500000  1
  F  F57  1  0.00000000  0.75000000  0.62500000  1
  F  F58  1  0.50000000  0.25000000  0.62500000  1
  F  F59  1  0.50000000  0.75000000  0.37500000  1
  F  F60  1  0.50000000  0.75000000  0.87500000  1
  F  F61  1  0.50000000  0.25000000  0.12500000  1
  F  F62  1  0.00000000  0.75000000  0.12500000  1
  F  F63  1  0.00000000  0.25000000  0.87500000  1
  Li  Li64  1  0.20642360  0.45642360  0.12500000  1
  Li  Li65  1  0.29357640  0.54357640  0.62500000  1
  Li  Li66  1  0.79357640  0.95642360  0.37500000  1
  Li  Li67  1  0.70642360  0.04357640  0.87500000  1
  Li  Li68  1  0.79357640  0.54357640  0.87500000  1
  Li  Li69  1  0.70642360  0.45642360  0.37500000  1
  Li  Li70  1  0.20642360  0.04357640  0.62500000  1
  Li  Li71  1  0.29357640  0.95642360  0.12500000  1
  Li  Li72  1  0.70642360  0.95642360  0.62500000  1
  Li  Li73  1  0.79357640  0.04357640  0.12500000  1
  Li  Li74  1  0.29357640  0.45642360  0.87500000  1
  Li  Li75  1  0.20642360  0.54357640  0.37500000  1
  Li  Li76  1  0.29357640  0.04357640  0.37500000  1
  Li  Li77  1  0.20642360  0.95642360  0.87500000  1
  Li  Li78  1  0.70642360  0.54357640  0.12500000  1
  Li  Li79  1  0.79357640  0.45642360  0.62500000  1
  Li  Li80  1  0.46088362  0.87604329  0.96585175  1
  Li  Li81  1  0.03911638  0.12395671  0.46585175  1
  Li  Li82  1  0.37395671  0.21088362  0.21585175  1
  Li  Li83  1  0.12604329  0.78911638  0.71585175  1
  Li  Li84  1  0.03911638  0.87604329  0.03414825  1
  Li  Li85  1  0.46088362  0.12395671  0.53414825  1
  Li  Li86  1  0.12604329  0.21088362  0.78414825  1
  Li  Li87  1  0.37395671  0.78911638  0.28414825  1
  Li  Li88  1  0.53911638  0.12395671  0.03414825  1
  Li  Li89  1  0.96088362  0.87604329  0.53414825  1
  Li  Li90  1  0.62604329  0.78911638  0.78414825  1
  Li  Li91  1  0.87395671  0.21088362  0.28414825  1
  Li  Li92  1  0.96088362  0.12395671  0.96585175  1
  Li  Li93  1  0.53911638  0.87604329  0.46585175  1
  Li  Li94  1  0.87395671  0.78911638  0.21585175  1
  Li  Li95  1  0.62604329  0.21088362  0.71585175  1
  Li  Li96  1  0.96088362  0.37604329  0.46585175  1
  Li  Li97  1  0.53911638  0.62395671  0.96585175  1
  Li  Li98  1  0.87395671  0.71088362  0.71585175  1
  Li  Li99  1  0.62604329  0.28911638  0.21585175  1
  Li  Li100  1  0.53911638  0.37604329  0.53414825  1
  Li  Li101  1  0.96088362  0.62395671  0.03414825  1
  Li  Li102  1  0.62604329  0.71088362  0.28414825  1
  Li  Li103  1  0.87395671  0.28911638  0.78414825  1
  Li  Li104  1  0.03911638  0.62395671  0.53414825  1
  Li  Li105  1  0.46088362  0.37604329  0.03414825  1
  Li  Li106  1  0.12604329  0.28911638  0.28414825  1
  Li  Li107  1  0.37395671  0.71088362  0.78414825  1
  Li  Li108  1  0.46088362  0.62395671  0.46585175  1
  Li  Li109  1  0.03911638  0.37604329  0.96585175  1
  Li  Li110  1  0.37395671  0.28911638  0.71585175  1
  Li  Li111  1  0.12604329  0.71088362  0.21585175  1
  Li  Li112  1  0.74409565  0.00000000  0.25000000  1
  Li  Li113  1  0.75590435  0.00000000  0.75000000  1
  Li  Li114  1  0.25000000  0.49409565  0.50000000  1
  Li  Li115  1  0.25000000  0.50590435  0.00000000  1
  Li  Li116  1  0.25590435  0.00000000  0.75000000  1
  Li  Li117  1  0.24409565  0.00000000  0.25000000  1
  Li  Li118  1  0.75000000  0.50590435  0.50000000  1
  Li  Li119  1  0.75000000  0.49409565  0.00000000  1
  Li  Li120  1  0.24409565  0.50000000  0.75000000  1
  Li  Li121  1  0.25590435  0.50000000  0.25000000  1
  Li  Li122  1  0.75000000  0.99409565  0.00000000  1
  Li  Li123  1  0.75000000  0.00590435  0.50000000  1
  Li  Li124  1  0.75590435  0.50000000  0.25000000  1
  Li  Li125  1  0.74409565  0.50000000  0.75000000  1
  Li  Li126  1  0.25000000  0.00590435  0.00000000  1
  Li  Li127  1  0.25000000  0.99409565  0.50000000  1
