# generated using pymatgen
data_LiBr
_symmetry_space_group_name_H-M   'P 1'
_cell_length_a   5.82543545
_cell_length_b   7.99204361
_cell_length_c   10.23166222
_cell_angle_alpha   90.00000000
_cell_angle_beta   90.00000000
_cell_angle_gamma   90.00000000
_symmetry_Int_Tables_number   1
_chemical_formula_structural   LiBr
_chemical_formula_sum   'Li12 Br12'
_cell_volume   476.35687106
_cell_formula_units_Z   12
loop_
 _symmetry_equiv_pos_site_id
 _symmetry_equiv_pos_as_xyz
  1  'x, y, z'
loop_
 _atom_site_type_symbol
 _atom_site_label
 _atom_site_symmetry_multiplicity
 _atom_site_fract_x
 _atom_site_fract_y
 _atom_site_fract_z
 _atom_site_occupancy
  Br  Br0  1  0.01079708  0.61923189  0.82089998  1
  Br  Br1  1  0.48920292  -0.61923189  1.32089998  1
  Br  Br2  1  -0.01079708  1.11923189  -0.82089998  1
  Br  Br3  1  0.51079708  -0.11923189  -0.32089998  1
  Br  Br4  1  -0.01079708  -0.61923189  -0.82089998  1
  Br  Br5  1  0.51079708  0.61923189  -0.32089998  1
  Br  Br6  1  0.01079708  -0.11923189  0.82089998  1
  Br  Br7  1  0.48920292  1.11923189  1.32089998  1
  Br  Br8  1  0.00000000  0.00000000  0.50000000  1
  Br  Br9  1  0.50000000  0.00000000  0.00000000  1
  Br  Br10  1  0.00000000  0.50000000  0.50000000  1
  Br  Br11  1  0.50000000  0.50000000  0.00000000  1
  Li  Li12  1  0.91624925  0.25000000  0.63037872  1
  Li  Li13  1  0.58375075  0.75000000  0.13037872  1
  Li  Li14  1  0.08375075  0.75000000  0.36962128  1
  Li  Li15  1  0.41624925  0.25000000  0.86962128  1
  Li  Li16  1  0.57402936  0.25000000  0.41686614  1
  Li  Li17  1  0.92597064  0.75000000  0.91686614  1
  Li  Li18  1  0.42597064  0.75000000  0.58313386  1
  Li  Li19  1  0.07402936  0.25000000  0.08313386  1
  Li  Li20  1  0.00000000  0.00000000  0.00000000  1
  Li  Li21  1  0.50000000  0.00000000  0.50000000  1
  Li  Li22  1  0.00000000  0.50000000  0.00000000  1
  Li  Li23  1  0.50000000  0.50000000  0.50000000  1
