# generated using pymatgen
data_Li2B3S4Cl3
_symmetry_space_group_name_H-M   'P 1'
_cell_length_a   6.11726418
_cell_length_b   6.11726418
_cell_length_c   22.25689755
_cell_angle_alpha   90.00000000
_cell_angle_beta   90.00000000
_cell_angle_gamma   90.00000000
_symmetry_Int_Tables_number   1
_chemical_formula_structural   Li2B3S4Cl3
_chemical_formula_sum   'Li8 B12 S16 Cl12'
_cell_volume   832.87360729
_cell_formula_units_Z   4
loop_
 _symmetry_equiv_pos_site_id
 _symmetry_equiv_pos_as_xyz
  1  'x, y, z'
loop_
 _atom_site_type_symbol
 _atom_site_label
 _atom_site_symmetry_multiplicity
 _atom_site_fract_x
 _atom_site_fract_y
 _atom_site_fract_z
 _atom_site_occupancy
  B  B0  1  0.50000000  0.50000000  0.32744422  1
  B  B1  1  0.50000000  0.50000000  0.67255578  1
  B  B2  1  0.70009302  0.00000000  0.00000000  1
  B  B3  1  0.29990698  0.00000000  0.00000000  1
  B  B4  1  0.00000000  0.70009302  0.00000000  1
  B  B5  1  0.00000000  0.29990698  0.00000000  1
  B  B6  1  0.00000000  0.50000000  0.36203991  1
  B  B7  1  0.50000000  0.00000000  0.36203991  1
  B  B8  1  0.00000000  0.50000000  0.63796009  1
  B  B9  1  0.50000000  0.00000000  0.63796009  1
  B  B10  1  0.00000000  0.00000000  0.59483406  1
  B  B11  1  0.00000000  0.00000000  0.40516594  1
  Cl  Cl12  1  0.00000000  0.50000000  0.50000000  1
  Cl  Cl13  1  0.50000000  0.00000000  0.50000000  1
  Cl  Cl14  1  0.00000000  0.00000000  0.00000000  1
  Cl  Cl15  1  0.50000000  0.50000000  0.20406909  1
  Cl  Cl16  1  0.50000000  0.50000000  0.79593091  1
  Cl  Cl17  1  0.77831477  0.00000000  0.50000000  1
  Cl  Cl18  1  0.22168523  0.00000000  0.50000000  1
  Cl  Cl19  1  0.00000000  0.77831477  0.50000000  1
  Cl  Cl20  1  0.00000000  0.22168523  0.50000000  1
  Cl  Cl21  1  0.00000000  0.00000000  0.25074096  1
  Cl  Cl22  1  0.00000000  0.00000000  0.74925904  1
  Cl  Cl23  1  0.00000000  0.00000000  0.50000000  1
  Li  Li24  1  0.31331873  0.00000000  0.30908623  1
  Li  Li25  1  0.68668127  0.00000000  0.30908623  1
  Li  Li26  1  0.00000000  0.31331873  0.30908623  1
  Li  Li27  1  0.00000000  0.68668127  0.30908623  1
  Li  Li28  1  0.68668127  0.00000000  0.69091377  1
  Li  Li29  1  0.31331873  0.00000000  0.69091377  1
  Li  Li30  1  0.00000000  0.31331873  0.69091377  1
  Li  Li31  1  0.00000000  0.68668127  0.69091377  1
  S  S32  1  0.78244474  0.50000000  0.20383837  1
  S  S33  1  -0.78244474  0.50000000  0.20383837  1
  S  S34  1  0.50000000  0.78244474  0.20383837  1
  S  S35  1  0.50000000  -0.78244474  0.20383837  1
  S  S36  1  -0.78244474  0.50000000  -0.20383837  1
  S  S37  1  0.78244474  0.50000000  -0.20383837  1
  S  S38  1  0.50000000  0.78244474  -0.20383837  1
  S  S39  1  0.50000000  -0.78244474  -0.20383837  1
  S  S40  1  0.00000000  0.00000000  0.15017863  1
  S  S41  1  0.00000000  0.00000000  0.84982137  1
  S  S42  1  0.00000000  0.50000000  0.00000000  1
  S  S43  1  0.50000000  0.00000000  0.00000000  1
  S  S44  1  0.27674786  0.50000000  0.50000000  1
  S  S45  1  0.72325214  0.50000000  0.50000000  1
  S  S46  1  0.50000000  0.27674786  0.50000000  1
  S  S47  1  0.50000000  0.72325214  0.50000000  1
