# generated using pymatgen
data_NaBBr4
_symmetry_space_group_name_H-M   'P 1'
_cell_length_a   10.77111566
_cell_length_b   6.22418215
_cell_length_c   10.68293023
_cell_angle_alpha   90.00000000
_cell_angle_beta   90.00000000
_cell_angle_gamma   90.00000000
_symmetry_Int_Tables_number   1
_chemical_formula_structural   NaBBr4
_chemical_formula_sum   'Na6 B6 Br24'
_cell_volume   716.19844706
_cell_formula_units_Z   6
loop_
 _symmetry_equiv_pos_site_id
 _symmetry_equiv_pos_as_xyz
  1  'x, y, z'
loop_
 _atom_site_type_symbol
 _atom_site_label
 _atom_site_symmetry_multiplicity
 _atom_site_fract_x
 _atom_site_fract_y
 _atom_site_fract_z
 _atom_site_occupancy
  B  B0  1  0.00000000  0.00000000  0.34601062  1
  B  B1  1  0.50000000  0.50000000  0.65398938  1
  B  B2  1  0.00000000  0.00000000  0.65398938  1
  B  B3  1  0.50000000  0.50000000  0.34601062  1
  B  B4  1  0.00000000  0.50000000  0.00000000  1
  B  B5  1  0.50000000  -0.00000000  -0.00000000  1
  Br  Br6  1  0.74090843  0.47523911  0.25034161  1
  Br  Br7  1  -0.74090843  -0.47523911  0.25034161  1
  Br  Br8  1  -0.24090843  0.97523911  -0.25034161  1
  Br  Br9  1  1.24090843  0.02476089  -0.25034161  1
  Br  Br10  1  -0.74090843  -0.47523911  -0.25034161  1
  Br  Br11  1  0.74090843  0.47523911  -0.25034161  1
  Br  Br12  1  1.24090843  0.02476089  0.25034161  1
  Br  Br13  1  -0.24090843  0.97523911  0.25034161  1
  Br  Br14  1  0.00000000  0.50000000  0.50000000  1
  Br  Br15  1  0.50000000  -0.00000000  0.50000000  1
  Br  Br16  1  0.04244864  0.29162049  0.93853910  1
  Br  Br17  1  0.95755136  0.70837951  0.93853910  1
  Br  Br18  1  0.45755136  0.79162049  0.06146090  1
  Br  Br19  1  0.54244864  0.20837951  0.06146090  1
  Br  Br20  1  0.95755136  0.70837951  0.06146090  1
  Br  Br21  1  0.04244864  0.29162049  0.06146090  1
  Br  Br22  1  0.54244864  0.20837951  0.93853910  1
  Br  Br23  1  0.45755136  0.79162049  0.93853910  1
  Br  Br24  1  0.00000000  0.00000000  0.50000000  1
  Br  Br25  1  0.50000000  0.50000000  0.50000000  1
  Br  Br26  1  0.00000000  0.50000000  0.12317111  1
  Br  Br27  1  0.50000000  -0.00000000  0.87682889  1
  Br  Br28  1  0.00000000  0.50000000  0.87682889  1
  Br  Br29  1  0.50000000  -0.00000000  0.12317111  1
  Na  Na30  1  0.00000000  0.00000000  0.16289044  1
  Na  Na31  1  0.50000000  0.50000000  0.83710956  1
  Na  Na32  1  0.00000000  0.00000000  0.83710956  1
  Na  Na33  1  0.50000000  0.50000000  0.16289044  1
  Na  Na34  1  0.00000000  0.00000000  0.00000000  1
  Na  Na35  1  0.50000000  0.50000000  -0.00000000  1
