# generated using pymatgen
data_Li7(ZnS3)2
_symmetry_space_group_name_H-M   'P 1'
_cell_length_a   3.33392243
_cell_length_b   3.16108055
_cell_length_c   6.54956484
_cell_angle_alpha   110.06742915
_cell_angle_beta   119.39057861
_cell_angle_gamma   105.48018886
_symmetry_Int_Tables_number   1
_chemical_formula_structural   Li7(ZnS3)2
_chemical_formula_sum   'Li7 Zn2 S6'
_cell_volume   47.83608365
_cell_formula_units_Z   1
loop_
 _symmetry_equiv_pos_site_id
 _symmetry_equiv_pos_as_xyz
  1  'x, y, z'
loop_
 _atom_site_type_symbol
 _atom_site_label
 _atom_site_symmetry_multiplicity
 _atom_site_fract_x
 _atom_site_fract_y
 _atom_site_fract_z
 _atom_site_occupancy
  Li  Li0  1  0.00000000  0.00000000  0.00000000  1
  Li  Li1  1  0.33300000  0.66700000  0.25000000  1
  Li  Li2  1  0.66700000  0.33300000  0.50000000  1
  Li  Li3  1  0.00000000  0.00000000  0.75000000  1
  Li  Li4  1  0.34282693  0.21611974  0.42940948  1
  Li  Li5  1  0.01443611  0.47699964  0.40933912  1
  Li  Li6  1  0.28008319  0.94506690  0.27023769  1
  Zn  Zn7  1  0.42126382  0.72769834  0.92239933  1
  Zn  Zn8  1  0.08132351  0.98943595  0.81738585  1
  S  S9  1  0.68632776  0.13146177  0.48848891  1
  S  S10  1  0.82557948  0.92314712  0.52896185  1
  S  S11  1  0.90784657  0.42646976  0.67502837  1
  S  S12  1  0.69396721  0.32460466  0.50726758  1
  S  S13  1  0.47949130  0.25967944  0.35479666  1
  S  S14  1  0.90222329  0.83004576  0.86618421  1
