# generated using pymatgen
data_Li2TiS3Cl
_symmetry_space_group_name_H-M   'P 1'
_cell_length_a   8.54979687
_cell_length_b   8.47981050
_cell_length_c   10.03003064
_cell_angle_alpha   90.00000000
_cell_angle_beta   90.00000000
_cell_angle_gamma   90.00000000
_symmetry_Int_Tables_number   1
_chemical_formula_structural   Li2TiS3Cl
_chemical_formula_sum   'Li6 Ti3 S9 Cl3'
_cell_volume   727.18381394
_cell_formula_units_Z   3
loop_
 _symmetry_equiv_pos_site_id
 _symmetry_equiv_pos_as_xyz
  1  'x, y, z'
loop_
 _atom_site_type_symbol
 _atom_site_label
 _atom_site_symmetry_multiplicity
 _atom_site_fract_x
 _atom_site_fract_y
 _atom_site_fract_z
 _atom_site_occupancy
  Li  Li0  1  0.00000000  0.00000000  0.00000000  1
  Li  Li1  1  0.50000000  0.50000000  0.50000000  1
  Li  Li2  1  0.25000000  0.25000000  0.25000000  1
  Li  Li3  1  0.75000000  0.25000000  0.00000000  1
  Li  Li4  1  0.25000000  0.75000000  0.50000000  1
  Li  Li5  1  0.79632654  0.42919782  0.77231142  1
  Ti  Ti6  1  0.31748592  0.04444396  0.85877181  1
  Ti  Ti7  1  0.06816782  0.91545216  0.00172797  1
  Ti  Ti8  1  0.02617281  0.23775299  0.64041212  1
  Cl  Cl9  1  0.90012393  0.19943028  0.20987405  1
  Cl  Cl10  1  0.35895753  0.31222662  0.46432374  1
  Cl  Cl11  1  0.08127059  0.74575312  0.68703372  1
  S  S12  1  0.85372601  0.50935220  0.22844055  1
  S  S13  1  0.39089658  0.86216161  0.11938303  1
  S  S14  1  0.05305378  0.23978057  0.82601885  1
  S  S15  1  0.18733331  0.86302854  0.04608295  1
  S  S16  1  0.85298088  0.14477586  0.24618115  1
  S  S17  1  0.25798396  0.14601164  0.82259085  1
  S  S18  1  0.31809840  0.27449528  0.53349658  1
  S  S19  1  0.83415929  0.99750788  0.45437036  1
  S  S20  1  0.29999605  0.09926720  0.34422809  1
