# generated using pymatgen
data_LiZr2Ni2(BrO2)3
_symmetry_space_group_name_H-M   'P 1'
_cell_length_a   8.06575584
_cell_length_b   7.30764543
_cell_length_c   9.11503955
_cell_angle_alpha   90.00000000
_cell_angle_beta   90.00000000
_cell_angle_gamma   90.00000000
_symmetry_Int_Tables_number   1
_chemical_formula_structural   LiZr2Ni2(BrO2)3
_chemical_formula_sum   'Li1 Zr2 Ni2 Br3 O6'
_cell_volume   537.25577973
_cell_formula_units_Z   1
loop_
 _symmetry_equiv_pos_site_id
 _symmetry_equiv_pos_as_xyz
  1  'x, y, z'
loop_
 _atom_site_type_symbol
 _atom_site_label
 _atom_site_symmetry_multiplicity
 _atom_site_fract_x
 _atom_site_fract_y
 _atom_site_fract_z
 _atom_site_occupancy
  Li  Li0  1  0.00000000  0.00000000  0.00000000  1
  Ni  Ni1  1  0.50000000  0.50000000  0.50000000  1
  Ni  Ni2  1  0.25000000  0.25000000  0.25000000  1
  Zr  Zr3  1  0.75000000  0.25000000  0.00000000  1
  Zr  Zr4  1  0.25000000  0.75000000  0.50000000  1
  Br  Br5  1  0.60501820  0.68981791  0.28682526  1
  Br  Br6  1  0.11967936  0.46742770  0.13103638  1
  Br  Br7  1  0.94570756  0.83518974  0.56876427  1
  O  O8  1  0.15545701  0.95325621  0.93810894  1
  O  O9  1  0.21860798  0.44096363  0.32374996  1
  O  O10  1  0.11793098  0.77459840  0.77601390  1
  O  O11  1  0.40917604  0.31101937  0.40030804  1
  O  O12  1  0.86656309  0.51743329  0.67354635  1
  O  O13  1  0.56734071  0.71220814  0.78012149  1
