# generated using pymatgen
data_Li3CoBrCl5O2
_symmetry_space_group_name_H-M   'P 1'
_cell_length_a   8.47500859
_cell_length_b   8.30112320
_cell_length_c   8.95981580
_cell_angle_alpha   90.00000000
_cell_angle_beta   90.00000000
_cell_angle_gamma   90.00000000
_symmetry_Int_Tables_number   1
_chemical_formula_structural   Li3CoBrCl5O2
_chemical_formula_sum   'Li3 Co1 Br1 Cl5 O2'
_cell_volume   630.34177171
_cell_formula_units_Z   1
loop_
 _symmetry_equiv_pos_site_id
 _symmetry_equiv_pos_as_xyz
  1  'x, y, z'
loop_
 _atom_site_type_symbol
 _atom_site_label
 _atom_site_symmetry_multiplicity
 _atom_site_fract_x
 _atom_site_fract_y
 _atom_site_fract_z
 _atom_site_occupancy
  Li  Li0  1  0.00000000  0.00000000  0.00000000  1
  Li  Li1  1  0.50000000  0.50000000  0.50000000  1
  Li  Li2  1  0.25000000  0.25000000  0.25000000  1
  Co  Co3  1  0.75000000  0.25000000  0.00000000  1
  Br  Br4  1  0.25000000  0.75000000  0.50000000  1
  Cl  Cl5  1  0.20008205  0.09901767  0.50846736  1
  Cl  Cl6  1  0.51427721  0.33713285  0.29425939  1
  Cl  Cl7  1  0.31401148  0.47094550  0.00444437  1
  Cl  Cl8  1  0.94291477  0.97159037  0.86668937  1
  Cl  Cl9  1  0.27502379  0.12242838  0.08042911  1
  O  O10  1  0.51595862  0.36153725  0.19485558  1
  O  O11  1  0.81862391  0.47229751  0.30917927  1
