# generated using pymatgen
data_LiNb2OF2
_symmetry_space_group_name_H-M   'P 1'
_cell_length_a   8.24588423
_cell_length_b   8.92532196
_cell_length_c   7.37470540
_cell_angle_alpha   90.00000000
_cell_angle_beta   90.00000000
_cell_angle_gamma   90.00000000
_symmetry_Int_Tables_number   1
_chemical_formula_structural   LiNb2OF2
_chemical_formula_sum   'Li1 Nb2 O1 F2'
_cell_volume   542.75745915
_cell_formula_units_Z   1
loop_
 _symmetry_equiv_pos_site_id
 _symmetry_equiv_pos_as_xyz
  1  'x, y, z'
loop_
 _atom_site_type_symbol
 _atom_site_label
 _atom_site_symmetry_multiplicity
 _atom_site_fract_x
 _atom_site_fract_y
 _atom_site_fract_z
 _atom_site_occupancy
  Li  Li0  1  0.12500000  0.12500000  0.12500000  1
  Nb  Nb1  1  0.50000000  0.50000000  0.50000000  1
  Nb  Nb2  1  0.25000000  0.25000000  0.25000000  1
  O  O3  1  0.75000000  0.75000000  0.75000000  1
  F  F4  1  0.31251275  0.34041535  0.04373802  1
  F  F5  1  0.21998888  0.91953740  0.24884392  1
