# generated using pymatgen
data_LiYP2
_symmetry_space_group_name_H-M   'P 1'
_cell_length_a   3.55186792
_cell_length_b   3.81882479
_cell_length_c   6.61489091
_cell_angle_alpha   97.31029627
_cell_angle_beta   105.92030548
_cell_angle_gamma   119.36255467
_symmetry_Int_Tables_number   1
_chemical_formula_structural   LiYP2
_chemical_formula_sum   'Li2 Y2 P4'
_cell_volume   71.43714200
_cell_formula_units_Z   2
loop_
 _symmetry_equiv_pos_site_id
 _symmetry_equiv_pos_as_xyz
  1  'x, y, z'
loop_
 _atom_site_type_symbol
 _atom_site_label
 _atom_site_symmetry_multiplicity
 _atom_site_fract_x
 _atom_site_fract_y
 _atom_site_fract_z
 _atom_site_occupancy
  Li  Li0  1  0.00000000  0.00000000  0.00000000  1
  Li  Li1  1  0.33300000  0.66700000  0.25000000  1
  Y  Y2  1  0.66700000  0.33300000  0.50000000  1
  Y  Y3  1  0.00000000  0.00000000  0.75000000  1
  P  P4  1  0.73261448  0.87975053  0.11424971  1
  P  P5  1  0.54986864  0.49589017  0.54981342  1
  P  P6  1  0.42262491  0.79102371  0.23523483  1
  P  P7  1  0.34962757  0.76126538  0.23411387  1
