# generated using pymatgen
data_SrLi12(PI12)2
_symmetry_space_group_name_H-M   'P 1'
_cell_length_a   16.70055305
_cell_length_b   16.70055305
_cell_length_c   16.70055305
_cell_angle_alpha   90.00000000
_cell_angle_beta   90.00000000
_cell_angle_gamma   90.00000000
_symmetry_Int_Tables_number   1
_chemical_formula_structural   SrLi12(PI12)2
_chemical_formula_sum   'Sr4 Li48 P8 I96'
_cell_volume   4657.92573436
_cell_formula_units_Z   4
loop_
 _symmetry_equiv_pos_site_id
 _symmetry_equiv_pos_as_xyz
  1  'x, y, z'
loop_
 _atom_site_type_symbol
 _atom_site_label
 _atom_site_symmetry_multiplicity
 _atom_site_fract_x
 _atom_site_fract_y
 _atom_site_fract_z
 _atom_site_occupancy
  I  I0  1  0.50000000  0.71175908  0.71175908  1
  I  I1  1  0.50000000  0.28824092  0.71175908  1
  I  I2  1  0.50000000  0.71175908  0.28824092  1
  I  I3  1  0.50000000  0.28824092  0.28824092  1
  I  I4  1  0.71175908  0.50000000  0.71175908  1
  I  I5  1  0.71175908  0.50000000  0.28824092  1
  I  I6  1  0.28824092  0.50000000  0.71175908  1
  I  I7  1  0.28824092  0.50000000  0.28824092  1
  I  I8  1  0.71175908  0.71175908  0.50000000  1
  I  I9  1  0.28824092  0.71175908  0.50000000  1
  I  I10  1  0.71175908  0.28824092  0.50000000  1
  I  I11  1  0.28824092  0.28824092  0.50000000  1
  I  I12  1  0.50000000  0.21175908  0.21175908  1
  I  I13  1  0.50000000  0.78824092  0.21175908  1
  I  I14  1  0.50000000  0.21175908  0.78824092  1
  I  I15  1  0.50000000  0.78824092  0.78824092  1
  I  I16  1  0.71175908  0.00000000  0.21175908  1
  I  I17  1  0.71175908  0.00000000  0.78824092  1
  I  I18  1  0.28824092  0.00000000  0.21175908  1
  I  I19  1  0.28824092  0.00000000  0.78824092  1
  I  I20  1  0.71175908  0.21175908  0.00000000  1
  I  I21  1  0.28824092  0.21175908  0.00000000  1
  I  I22  1  0.71175908  0.78824092  0.00000000  1
  I  I23  1  0.28824092  0.78824092  0.00000000  1
  I  I24  1  0.00000000  0.71175908  0.21175908  1
  I  I25  1  0.00000000  0.28824092  0.21175908  1
  I  I26  1  0.00000000  0.71175908  0.78824092  1
  I  I27  1  0.00000000  0.28824092  0.78824092  1
  I  I28  1  0.21175908  0.50000000  0.21175908  1
  I  I29  1  0.21175908  0.50000000  0.78824092  1
  I  I30  1  0.78824092  0.50000000  0.21175908  1
  I  I31  1  0.78824092  0.50000000  0.78824092  1
  I  I32  1  0.21175908  0.71175908  0.00000000  1
  I  I33  1  0.78824092  0.71175908  0.00000000  1
  I  I34  1  0.21175908  0.28824092  0.00000000  1
  I  I35  1  0.78824092  0.28824092  0.00000000  1
  I  I36  1  0.00000000  0.21175908  0.71175908  1
  I  I37  1  0.00000000  0.78824092  0.71175908  1
  I  I38  1  0.00000000  0.21175908  0.28824092  1
  I  I39  1  0.00000000  0.78824092  0.28824092  1
  I  I40  1  0.21175908  0.00000000  0.71175908  1
  I  I41  1  0.21175908  0.00000000  0.28824092  1
  I  I42  1  0.78824092  0.00000000  0.71175908  1
  I  I43  1  0.78824092  0.00000000  0.28824092  1
  I  I44  1  0.21175908  0.21175908  0.50000000  1
  I  I45  1  0.78824092  0.21175908  0.50000000  1
  I  I46  1  0.21175908  0.78824092  0.50000000  1
  I  I47  1  0.78824092  0.78824092  0.50000000  1
  I  I48  1  0.00000000  0.70137675  0.70137675  1
  I  I49  1  0.00000000  0.29862325  0.70137675  1
  I  I50  1  0.00000000  0.70137675  0.29862325  1
  I  I51  1  0.00000000  0.29862325  0.29862325  1
  I  I52  1  0.70137675  0.00000000  0.70137675  1
  I  I53  1  0.70137675  0.00000000  0.29862325  1
  I  I54  1  0.29862325  0.00000000  0.70137675  1
  I  I55  1  0.29862325  0.00000000  0.29862325  1
  I  I56  1  0.70137675  0.70137675  0.00000000  1
  I  I57  1  0.29862325  0.70137675  0.00000000  1
  I  I58  1  0.70137675  0.29862325  -0.00000000  1
  I  I59  1  0.29862325  0.29862325  0.00000000  1
  I  I60  1  0.00000000  0.20137675  0.20137675  1
  I  I61  1  0.00000000  0.79862325  0.20137675  1
  I  I62  1  0.00000000  0.20137675  0.79862325  1
  I  I63  1  0.00000000  0.79862325  0.79862325  1
  I  I64  1  0.70137675  0.50000000  0.20137675  1
  I  I65  1  0.70137675  0.50000000  0.79862325  1
  I  I66  1  0.29862325  0.50000000  0.20137675  1
  I  I67  1  0.29862325  0.50000000  0.79862325  1
  I  I68  1  0.70137675  0.20137675  0.50000000  1
  I  I69  1  0.29862325  0.20137675  0.50000000  1
  I  I70  1  0.70137675  0.79862325  0.50000000  1
  I  I71  1  0.29862325  0.79862325  0.50000000  1
  I  I72  1  0.50000000  0.70137675  0.20137675  1
  I  I73  1  0.50000000  0.29862325  0.20137675  1
  I  I74  1  0.50000000  0.70137675  0.79862325  1
  I  I75  1  0.50000000  0.29862325  0.79862325  1
  I  I76  1  0.20137675  0.00000000  0.20137675  1
  I  I77  1  0.20137675  0.00000000  0.79862325  1
  I  I78  1  0.79862325  -0.00000000  0.20137675  1
  I  I79  1  0.79862325  -0.00000000  0.79862325  1
  I  I80  1  0.20137675  0.70137675  0.50000000  1
  I  I81  1  0.79862325  0.70137675  0.50000000  1
  I  I82  1  0.20137675  0.29862325  0.50000000  1
  I  I83  1  0.79862325  0.29862325  0.50000000  1
  I  I84  1  0.50000000  0.20137675  0.70137675  1
  I  I85  1  0.50000000  0.79862325  0.70137675  1
  I  I86  1  0.50000000  0.20137675  0.29862325  1
  I  I87  1  0.50000000  0.79862325  0.29862325  1
  I  I88  1  0.20137675  0.50000000  0.70137675  1
  I  I89  1  0.20137675  0.50000000  0.29862325  1
  I  I90  1  0.79862325  0.50000000  0.70137675  1
  I  I91  1  0.79862325  0.50000000  0.29862325  1
  I  I92  1  0.20137675  0.20137675  0.00000000  1
  I  I93  1  0.79862325  0.20137675  -0.00000000  1
  I  I94  1  0.20137675  0.79862325  -0.00000000  1
  I  I95  1  0.79862325  0.79862325  -0.00000000  1
  Li  Li96  1  0.50000000  0.93779488  0.93779488  1
  Li  Li97  1  0.50000000  -0.93779488  0.93779488  1
  Li  Li98  1  0.50000000  0.93779488  -0.93779488  1
  Li  Li99  1  0.50000000  -0.93779488  -0.93779488  1
  Li  Li100  1  0.93779488  0.50000000  0.93779488  1
  Li  Li101  1  0.93779488  0.50000000  -0.93779488  1
  Li  Li102  1  -0.93779488  0.50000000  0.93779488  1
  Li  Li103  1  -0.93779488  0.50000000  -0.93779488  1
  Li  Li104  1  0.93779488  0.93779488  0.50000000  1
  Li  Li105  1  -0.93779488  0.93779488  0.50000000  1
  Li  Li106  1  0.93779488  -0.93779488  0.50000000  1
  Li  Li107  1  -0.93779488  -0.93779488  0.50000000  1
  Li  Li108  1  0.50000000  1.43779488  1.43779488  1
  Li  Li109  1  0.50000000  -0.43779488  1.43779488  1
  Li  Li110  1  0.50000000  1.43779488  -0.43779488  1
  Li  Li111  1  0.50000000  -0.43779488  -0.43779488  1
  Li  Li112  1  0.93779488  1.00000000  1.43779488  1
  Li  Li113  1  0.93779488  1.00000000  -0.43779488  1
  Li  Li114  1  -0.93779488  1.00000000  1.43779488  1
  Li  Li115  1  -0.93779488  1.00000000  -0.43779488  1
  Li  Li116  1  0.93779488  1.43779488  1.00000000  1
  Li  Li117  1  -0.93779488  1.43779488  1.00000000  1
  Li  Li118  1  0.93779488  -0.43779488  1.00000000  1
  Li  Li119  1  -0.93779488  -0.43779488  1.00000000  1
  Li  Li120  1  1.00000000  0.93779488  1.43779488  1
  Li  Li121  1  1.00000000  -0.93779488  1.43779488  1
  Li  Li122  1  1.00000000  0.93779488  -0.43779488  1
  Li  Li123  1  1.00000000  -0.93779488  -0.43779488  1
  Li  Li124  1  1.43779488  0.50000000  1.43779488  1
  Li  Li125  1  1.43779488  0.50000000  -0.43779488  1
  Li  Li126  1  -0.43779488  0.50000000  1.43779488  1
  Li  Li127  1  -0.43779488  0.50000000  -0.43779488  1
  Li  Li128  1  1.43779488  0.93779488  1.00000000  1
  Li  Li129  1  -0.43779488  0.93779488  1.00000000  1
  Li  Li130  1  1.43779488  -0.93779488  1.00000000  1
  Li  Li131  1  -0.43779488  -0.93779488  1.00000000  1
  Li  Li132  1  1.00000000  1.43779488  0.93779488  1
  Li  Li133  1  1.00000000  -0.43779488  0.93779488  1
  Li  Li134  1  1.00000000  1.43779488  -0.93779488  1
  Li  Li135  1  1.00000000  -0.43779488  -0.93779488  1
  Li  Li136  1  1.43779488  1.00000000  0.93779488  1
  Li  Li137  1  1.43779488  1.00000000  -0.93779488  1
  Li  Li138  1  -0.43779488  1.00000000  0.93779488  1
  Li  Li139  1  -0.43779488  1.00000000  -0.93779488  1
  Li  Li140  1  1.43779488  1.43779488  0.50000000  1
  Li  Li141  1  -0.43779488  1.43779488  0.50000000  1
  Li  Li142  1  1.43779488  -0.43779488  0.50000000  1
  Li  Li143  1  -0.43779488  -0.43779488  0.50000000  1
  P  P144  1  0.25000000  0.25000000  0.25000000  1
  P  P145  1  0.25000000  0.25000000  0.75000000  1
  P  P146  1  0.25000000  0.75000000  0.75000000  1
  P  P147  1  0.25000000  0.75000000  0.25000000  1
  P  P148  1  0.75000000  0.25000000  0.75000000  1
  P  P149  1  0.75000000  0.25000000  0.25000000  1
  P  P150  1  0.75000000  0.75000000  0.25000000  1
  P  P151  1  0.75000000  0.75000000  0.75000000  1
  Sr  Sr152  1  0.00000000  0.00000000  0.00000000  1
  Sr  Sr153  1  0.00000000  0.50000000  0.50000000  1
  Sr  Sr154  1  0.50000000  0.00000000  0.50000000  1
  Sr  Sr155  1  0.50000000  0.50000000  0.00000000  1
