# generated using pymatgen
data_Li6Zr(I4F)2
_symmetry_space_group_name_H-M   'P 1'
_cell_length_a   17.66753313
_cell_length_b   17.66753313
_cell_length_c   11.26863453
_cell_angle_alpha   90.00000000
_cell_angle_beta   90.00000000
_cell_angle_gamma   120.00000000
_symmetry_Int_Tables_number   1
_chemical_formula_structural   Li6Zr(I4F)2
_chemical_formula_sum   'Li54 Zr9 I72 F18'
_cell_volume   3046.16731886
_cell_formula_units_Z   9
loop_
 _symmetry_equiv_pos_site_id
 _symmetry_equiv_pos_as_xyz
  1  'x, y, z'
loop_
 _atom_site_type_symbol
 _atom_site_label
 _atom_site_symmetry_multiplicity
 _atom_site_fract_x
 _atom_site_fract_y
 _atom_site_fract_z
 _atom_site_occupancy
  F  F0  1  0.50000000  0.00000000  0.50000000  1
  F  F1  1  0.00000000  0.50000000  0.50000000  1
  F  F2  1  0.50000000  0.50000000  0.50000000  1
  F  F3  1  0.16666667  0.33333333  0.83333333  1
  F  F4  1  0.66666667  0.83333333  0.83333333  1
  F  F5  1  0.16666667  0.83333333  0.83333333  1
  F  F6  1  0.83333333  0.66666667  0.16666667  1
  F  F7  1  0.33333333  0.16666667  0.16666667  1
  F  F8  1  0.83333333  0.16666667  0.16666667  1
  F  F9  1  0.50000000  0.00000000  0.00000000  1
  F  F10  1  0.00000000  0.50000000  0.00000000  1
  F  F11  1  0.50000000  0.50000000  0.00000000  1
  F  F12  1  0.16666667  0.33333333  0.33333333  1
  F  F13  1  0.66666667  0.83333333  0.33333333  1
  F  F14  1  0.16666667  0.83333333  0.33333333  1
  F  F15  1  0.83333333  0.66666667  0.66666667  1
  F  F16  1  0.33333333  0.16666667  0.66666667  1
  F  F17  1  0.83333333  0.16666667  0.66666667  1
  I  I18  1  0.66281108  0.10733364  0.68336086  1
  I  I19  1  -0.10733364  0.55547744  0.68336086  1
  I  I20  1  -0.55547744  -0.66281108  0.68336086  1
  I  I21  1  0.10733364  0.66281108  -0.68336086  1
  I  I22  1  0.55547744  -0.10733364  -0.68336086  1
  I  I23  1  -0.66281108  -0.55547744  -0.68336086  1
  I  I24  1  -0.66281108  -0.10733364  -0.68336086  1
  I  I25  1  0.10733364  -0.55547744  -0.68336086  1
  I  I26  1  0.55547744  0.66281108  -0.68336086  1
  I  I27  1  -0.10733364  -0.66281108  0.68336086  1
  I  I28  1  -0.55547744  0.10733364  0.68336086  1
  I  I29  1  0.66281108  0.55547744  0.68336086  1
  I  I30  1  1.32947774  0.44066697  1.01669419  1
  I  I31  1  0.55933303  0.88881077  1.01669419  1
  I  I32  1  0.11118923  -0.32947774  1.01669419  1
  I  I33  1  0.77400031  0.99614441  -0.35002752  1
  I  I34  1  1.22214410  0.22599969  -0.35002752  1
  I  I35  1  0.00385559  -0.22214410  -0.35002752  1
  I  I36  1  0.00385559  0.22599969  -0.35002752  1
  I  I37  1  0.77400031  -0.22214410  -0.35002752  1
  I  I38  1  1.22214410  0.99614441  -0.35002752  1
  I  I39  1  0.55933303  -0.32947774  1.01669419  1
  I  I40  1  0.11118923  0.44066697  1.01669419  1
  I  I41  1  1.32947774  0.88881077  1.01669419  1
  I  I42  1  0.99614441  0.77400031  1.35002752  1
  I  I43  1  0.22599969  1.22214410  1.35002752  1
  I  I44  1  -0.22214410  0.00385559  1.35002752  1
  I  I45  1  0.44066697  1.32947774  -0.01669419  1
  I  I46  1  0.88881077  0.55933303  -0.01669419  1
  I  I47  1  -0.32947774  0.11118923  -0.01669419  1
  I  I48  1  -0.32947774  0.55933303  -0.01669419  1
  I  I49  1  0.44066697  0.11118923  -0.01669419  1
  I  I50  1  0.88881077  1.32947774  -0.01669419  1
  I  I51  1  0.22599969  0.00385559  1.35002752  1
  I  I52  1  -0.22214410  0.77400031  1.35002752  1
  I  I53  1  0.99614441  1.22214410  1.35002752  1
  I  I54  1  0.07397443  0.92602557  0.71017373  1
  I  I55  1  0.07397443  0.14794886  0.71017373  1
  I  I56  1  0.85205114  0.92602557  0.71017373  1
  I  I57  1  0.92602557  0.07397443  0.28982627  1
  I  I58  1  0.14794886  0.07397443  0.28982627  1
  I  I59  1  0.92602557  0.85205114  0.28982627  1
  I  I60  1  0.74064110  0.25935890  0.04350707  1
  I  I61  1  0.74064110  0.48128220  0.04350707  1
  I  I62  1  0.51871780  0.25935890  0.04350707  1
  I  I63  1  0.59269224  0.40730776  0.62315960  1
  I  I64  1  0.81461553  0.40730776  0.62315960  1
  I  I65  1  0.59269224  0.18538447  0.62315960  1
  I  I66  1  0.40730776  0.59269224  0.37684040  1
  I  I67  1  0.40730776  0.81461553  0.37684040  1
  I  I68  1  0.18538447  0.59269224  0.37684040  1
  I  I69  1  0.25935890  0.74064110  0.95649293  1
  I  I70  1  0.48128220  0.74064110  0.95649293  1
  I  I71  1  0.25935890  0.51871780  0.95649293  1
  I  I72  1  0.30131084  0.00000000  0.50000000  1
  I  I73  1  0.00000000  0.30131084  0.50000000  1
  I  I74  1  0.69868916  0.69868916  0.50000000  1
  I  I75  1  0.69868916  0.00000000  0.50000000  1
  I  I76  1  0.00000000  0.69868916  0.50000000  1
  I  I77  1  0.30131084  0.30131084  0.50000000  1
  I  I78  1  0.96797750  0.33333333  0.83333333  1
  I  I79  1  0.66666667  0.63464417  0.83333333  1
  I  I80  1  0.36535583  0.03202250  0.83333333  1
  I  I81  1  0.36535583  0.33333333  0.83333333  1
  I  I82  1  0.66666667  0.03202250  0.83333333  1
  I  I83  1  0.96797750  0.63464417  0.83333333  1
  I  I84  1  0.63464417  0.66666667  0.16666667  1
  I  I85  1  0.33333333  0.96797750  0.16666667  1
  I  I86  1  0.03202250  0.36535583  0.16666667  1
  I  I87  1  0.03202250  0.66666667  0.16666667  1
  I  I88  1  0.33333333  0.36535583  0.16666667  1
  I  I89  1  0.63464417  0.96797750  0.16666667  1
  Li  Li90  1  0.34092473  0.00000000  0.00000000  1
  Li  Li91  1  0.00000000  0.34092473  -0.00000000  1
  Li  Li92  1  0.65907527  0.65907527  0.00000000  1
  Li  Li93  1  0.65907527  0.00000000  0.00000000  1
  Li  Li94  1  0.00000000  0.65907527  0.00000000  1
  Li  Li95  1  0.34092473  0.34092473  0.00000000  1
  Li  Li96  1  0.00759140  0.33333333  0.33333333  1
  Li  Li97  1  0.66666667  0.67425807  0.33333333  1
  Li  Li98  1  0.32574193  0.99240860  0.33333333  1
  Li  Li99  1  0.32574193  0.33333333  0.33333333  1
  Li  Li100  1  0.66666667  0.99240860  0.33333333  1
  Li  Li101  1  0.00759140  0.67425807  0.33333333  1
  Li  Li102  1  0.67425807  0.66666667  0.66666667  1
  Li  Li103  1  0.33333333  0.00759140  0.66666667  1
  Li  Li104  1  0.99240860  0.32574193  0.66666667  1
  Li  Li105  1  0.99240860  0.66666667  0.66666667  1
  Li  Li106  1  0.33333333  0.32574193  0.66666667  1
  Li  Li107  1  0.67425807  0.00759140  0.66666667  1
  Li  Li108  1  0.31025725  0.21124439  0.94825854  1
  Li  Li109  1  0.78875561  0.09901286  0.94825854  1
  Li  Li110  1  0.90098714  0.68974275  0.94825854  1
  Li  Li111  1  0.21124439  0.31025725  0.05174146  1
  Li  Li112  1  0.09901286  0.78875561  0.05174146  1
  Li  Li113  1  0.68974275  0.90098714  0.05174146  1
  Li  Li114  1  0.68974275  0.78875561  0.05174146  1
  Li  Li115  1  0.21124439  0.90098714  0.05174146  1
  Li  Li116  1  0.09901286  0.31025725  0.05174146  1
  Li  Li117  1  0.78875561  0.68974275  0.94825854  1
  Li  Li118  1  0.90098714  0.21124439  0.94825854  1
  Li  Li119  1  0.31025725  0.09901286  0.94825854  1
  Li  Li120  1  0.97692391  0.54457772  0.28159187  1
  Li  Li121  1  0.45542228  0.43234619  0.28159187  1
  Li  Li122  1  0.56765381  0.02307609  0.28159187  1
  Li  Li123  1  0.87791105  0.64359058  0.38507480  1
  Li  Li124  1  0.76567953  0.12208895  0.38507480  1
  Li  Li125  1  0.35640942  0.23432047  0.38507480  1
  Li  Li126  1  0.35640942  0.12208895  0.38507480  1
  Li  Li127  1  0.87791105  0.23432047  0.38507480  1
  Li  Li128  1  0.76567953  0.64359058  0.38507480  1
  Li  Li129  1  0.45542228  0.02307609  0.28159187  1
  Li  Li130  1  0.56765381  0.54457772  0.28159187  1
  Li  Li131  1  0.97692391  0.43234619  0.28159187  1
  Li  Li132  1  0.64359058  0.87791105  0.61492520  1
  Li  Li133  1  0.12208895  0.76567953  0.61492520  1
  Li  Li134  1  0.23432047  0.35640942  0.61492520  1
  Li  Li135  1  0.54457772  0.97692391  0.71840813  1
  Li  Li136  1  0.43234619  0.45542228  0.71840813  1
  Li  Li137  1  0.02307609  0.56765381  0.71840813  1
  Li  Li138  1  0.02307609  0.45542228  0.71840813  1
  Li  Li139  1  0.54457772  0.56765381  0.71840813  1
  Li  Li140  1  0.43234619  0.97692391  0.71840813  1
  Li  Li141  1  0.12208895  0.35640942  0.61492520  1
  Li  Li142  1  0.23432047  0.87791105  0.61492520  1
  Li  Li143  1  0.64359058  0.76567953  0.61492520  1
  Zr  Zr144  1  0.00000000  0.00000000  0.00000000  1
  Zr  Zr145  1  0.66666667  0.33333333  0.33333333  1
  Zr  Zr146  1  0.33333333  0.66666667  0.66666667  1
  Zr  Zr147  1  0.00000000  0.00000000  0.80516752  1
  Zr  Zr148  1  0.00000000  0.00000000  0.19483248  1
  Zr  Zr149  1  0.66666667  0.33333333  0.13850085  1
  Zr  Zr150  1  0.66666667  0.33333333  0.52816581  1
  Zr  Zr151  1  0.33333333  0.66666667  0.47183419  1
  Zr  Zr152  1  0.33333333  0.66666667  0.86149915  1
