# generated using pymatgen
data_Li2Al3Te4MoP3Se2
_symmetry_space_group_name_H-M   'P 1'
_cell_length_a   8.31557770
_cell_length_b   8.69953176
_cell_length_c   7.95157458
_cell_angle_alpha   90.00000000
_cell_angle_beta   90.00000000
_cell_angle_gamma   90.00000000
_symmetry_Int_Tables_number   1
_chemical_formula_structural   Li2Al3Te4MoP3Se2
_chemical_formula_sum   'Li2 Al3 Te4 Mo1 P3 Se2'
_cell_volume   575.22988381
_cell_formula_units_Z   1
loop_
 _symmetry_equiv_pos_site_id
 _symmetry_equiv_pos_as_xyz
  1  'x, y, z'
loop_
 _atom_site_type_symbol
 _atom_site_label
 _atom_site_symmetry_multiplicity
 _atom_site_fract_x
 _atom_site_fract_y
 _atom_site_fract_z
 _atom_site_occupancy
  Li  Li0  1  0.12500000  0.12500000  0.12500000  1
  Li  Li1  1  0.50000000  0.50000000  0.50000000  1
  Al  Al2  1  0.25000000  0.25000000  0.25000000  1
  Al  Al3  1  0.75000000  0.75000000  0.75000000  1
  Al  Al4  1  0.02667927  0.94057590  0.17438019  1
  Se  Se5  1  0.36401582  0.46060415  0.36993411  1
  Se  Se6  1  0.39697007  0.91195095  0.76700375  1
  P  P7  1  0.68007371  0.64128652  0.87464354  1
  P  P8  1  0.73234818  0.14799905  0.16993846  1
  P  P9  1  0.91601977  0.59041406  0.71255080  1
  Te  Te10  1  0.11362625  0.43897927  0.40764335  1
  Te  Te11  1  0.94589487  0.78130688  0.31539341  1
  Te  Te12  1  0.29627456  0.79687228  0.57667169  1
  Te  Te13  1  0.25943628  0.71492178  0.79649943  1
  Mo  Mo14  1  0.36383737  0.67400648  0.17826513  1
