# generated using pymatgen
data_Li2Se
_symmetry_space_group_name_H-M   'P 1'
_cell_length_a   14.02752360
_cell_length_b   14.02752360
_cell_length_c   3.84250269
_cell_angle_alpha   90.00000000
_cell_angle_beta   90.00000000
_cell_angle_gamma   90.00000000
_symmetry_Int_Tables_number   1
_chemical_formula_structural   Li2Se
_chemical_formula_sum   'Li32 Se16'
_cell_volume   756.09470462
_cell_formula_units_Z   16
loop_
 _symmetry_equiv_pos_site_id
 _symmetry_equiv_pos_as_xyz
  1  'x, y, z'
loop_
 _atom_site_type_symbol
 _atom_site_label
 _atom_site_symmetry_multiplicity
 _atom_site_fract_x
 _atom_site_fract_y
 _atom_site_fract_z
 _atom_site_occupancy
  Li  Li0  1  0.05215723  0.00000000  -0.00000000  1
  Li  Li1  1  0.44784277  0.00000000  0.50000000  1
  Li  Li2  1  0.25000000  0.80215723  0.25000000  1
  Li  Li3  1  0.25000000  0.19784277  0.75000000  1
  Li  Li4  1  0.94784277  0.00000000  -0.00000000  1
  Li  Li5  1  0.55215723  -0.00000000  0.50000000  1
  Li  Li6  1  0.75000000  0.19784277  0.75000000  1
  Li  Li7  1  0.75000000  0.80215723  0.25000000  1
  Li  Li8  1  0.55215723  0.50000000  0.50000000  1
  Li  Li9  1  0.94784277  0.50000000  0.00000000  1
  Li  Li10  1  0.75000000  0.30215723  0.75000000  1
  Li  Li11  1  0.75000000  0.69784277  0.25000000  1
  Li  Li12  1  0.44784277  0.50000000  0.50000000  1
  Li  Li13  1  0.05215723  0.50000000  0.00000000  1
  Li  Li14  1  0.25000000  0.69784277  0.25000000  1
  Li  Li15  1  0.25000000  0.30215723  0.75000000  1
  Li  Li16  1  0.00000000  0.68020003  0.73573091  1
  Li  Li17  1  0.50000000  0.31979997  0.23573091  1
  Li  Li18  1  0.56979997  0.75000000  0.98573091  1
  Li  Li19  1  0.93020003  0.25000000  0.48573091  1
  Li  Li20  1  0.50000000  0.68020003  0.76426909  1
  Li  Li21  1  0.00000000  0.31979997  0.26426909  1
  Li  Li22  1  0.93020003  0.75000000  0.51426909  1
  Li  Li23  1  0.56979997  0.25000000  0.01426909  1
  Li  Li24  1  0.50000000  0.18020003  0.23573091  1
  Li  Li25  1  0.00000000  0.81979997  0.73573091  1
  Li  Li26  1  0.06979997  0.25000000  0.48573091  1
  Li  Li27  1  0.43020003  0.75000000  0.98573091  1
  Li  Li28  1  0.00000000  0.18020003  0.26426909  1
  Li  Li29  1  0.50000000  0.81979997  0.76426909  1
  Li  Li30  1  0.43020003  0.25000000  0.01426909  1
  Li  Li31  1  0.06979997  0.75000000  0.51426909  1
  Se  Se32  1  0.19716592  0.00000000  -0.00000000  1
  Se  Se33  1  0.30283408  -0.00000000  0.50000000  1
  Se  Se34  1  0.25000000  0.94716592  0.25000000  1
  Se  Se35  1  0.25000000  0.05283408  0.75000000  1
  Se  Se36  1  -0.19716592  0.00000000  0.00000000  1
  Se  Se37  1  0.69716592  0.00000000  0.50000000  1
  Se  Se38  1  0.75000000  0.05283408  0.75000000  1
  Se  Se39  1  0.75000000  0.94716592  0.25000000  1
  Se  Se40  1  0.69716592  0.50000000  0.50000000  1
  Se  Se41  1  0.80283408  0.50000000  1.00000000  1
  Se  Se42  1  0.75000000  1.44716592  0.75000000  1
  Se  Se43  1  0.75000000  0.55283408  1.25000000  1
  Se  Se44  1  0.30283408  0.50000000  0.50000000  1
  Se  Se45  1  1.19716592  0.50000000  1.00000000  1
  Se  Se46  1  1.25000000  0.55283408  1.25000000  1
  Se  Se47  1  1.25000000  1.44716592  0.75000000  1
