# generated using pymatgen
data_Li8Ni3O
_symmetry_space_group_name_H-M   'P 1'
_cell_length_a   3.95662845
_cell_length_b   4.42318883
_cell_length_c   6.07868376
_cell_angle_alpha   102.35946650
_cell_angle_beta   106.84222795
_cell_angle_gamma   104.53228800
_symmetry_Int_Tables_number   1
_chemical_formula_structural   Li8Ni3O
_chemical_formula_sum   'Li8 Ni3 O1'
_cell_volume   93.72237735
_cell_formula_units_Z   1
loop_
 _symmetry_equiv_pos_site_id
 _symmetry_equiv_pos_as_xyz
  1  'x, y, z'
loop_
 _atom_site_type_symbol
 _atom_site_label
 _atom_site_symmetry_multiplicity
 _atom_site_fract_x
 _atom_site_fract_y
 _atom_site_fract_z
 _atom_site_occupancy
  Li  Li0  1  0.00000000  0.00000000  0.00000000  1
  Li  Li1  1  0.33300000  0.66700000  0.25000000  1
  Li  Li2  1  0.66700000  0.33300000  0.50000000  1
  Li  Li3  1  0.00000000  0.00000000  0.75000000  1
  Li  Li4  1  0.70572907  0.72496313  0.18064498  1
  Li  Li5  1  0.36040790  0.22867182  0.41905498  1
  Li  Li6  1  0.70038723  0.97853561  0.63010329  1
  Li  Li7  1  0.51595880  0.75577431  0.70796188  1
  Ni  Ni8  1  0.30299242  0.42629438  0.78133430  1
  Ni  Ni9  1  0.06994152  0.43091617  0.26900228  1
  Ni  Ni10  1  0.84262599  0.41749843  0.09878504  1
  O  O11  1  0.51254631  0.82432671  0.81431864  1
