# generated using pymatgen
data_Li6Zr2Te4O3
_symmetry_space_group_name_H-M   'P 1'
_cell_length_a   8.01228473
_cell_length_b   8.01228473
_cell_length_c   36.55002935
_cell_angle_alpha   90.00000000
_cell_angle_beta   90.00000000
_cell_angle_gamma   90.00000000
_symmetry_Int_Tables_number   1
_chemical_formula_structural   Li6Zr2Te4O3
_chemical_formula_sum   'Li48 Zr16 Te32 O24'
_cell_volume   2346.39151037
_cell_formula_units_Z   8
loop_
 _symmetry_equiv_pos_site_id
 _symmetry_equiv_pos_as_xyz
  1  'x, y, z'
loop_
 _atom_site_type_symbol
 _atom_site_label
 _atom_site_symmetry_multiplicity
 _atom_site_fract_x
 _atom_site_fract_y
 _atom_site_fract_z
 _atom_site_occupancy
  Li  Li0  1  0.16643442  0.86871137  0.81902835  1
  Li  Li1  1  0.33356558  -0.86871137  1.31902835  1
  Li  Li2  1  -0.61871137  0.91643442  1.06902835  1
  Li  Li3  1  1.11871137  0.08356558  1.56902835  1
  Li  Li4  1  0.33356558  0.86871137  -0.81902835  1
  Li  Li5  1  0.16643442  -0.86871137  -0.31902835  1
  Li  Li6  1  1.11871137  0.91643442  -0.06902835  1
  Li  Li7  1  -0.61871137  0.08356558  -0.56902835  1
  Li  Li8  1  -0.16643442  -0.86871137  -0.81902835  1
  Li  Li9  1  0.66643442  0.86871137  -0.31902835  1
  Li  Li10  1  1.61871137  0.08356558  -0.06902835  1
  Li  Li11  1  -0.11871137  0.91643442  -0.56902835  1
  Li  Li12  1  0.66643442  -0.86871137  0.81902835  1
  Li  Li13  1  -0.16643442  0.86871137  1.31902835  1
  Li  Li14  1  -0.11871137  0.08356558  1.06902835  1
  Li  Li15  1  1.61871137  0.91643442  1.56902835  1
  Li  Li16  1  0.66643442  1.36871137  1.31902835  1
  Li  Li17  1  0.83356558  -0.36871137  1.81902835  1
  Li  Li18  1  -0.11871137  1.41643442  1.56902835  1
  Li  Li19  1  1.61871137  0.58356558  2.06902835  1
  Li  Li20  1  0.83356558  1.36871137  -0.31902835  1
  Li  Li21  1  0.66643442  -0.36871137  0.18097165  1
  Li  Li22  1  1.61871137  1.41643442  0.43097165  1
  Li  Li23  1  -0.11871137  0.58356558  -0.06902835  1
  Li  Li24  1  0.33356558  -0.36871137  -0.31902835  1
  Li  Li25  1  1.16643442  1.36871137  0.18097165  1
  Li  Li26  1  2.11871137  0.58356558  0.43097165  1
  Li  Li27  1  0.38128863  1.41643442  -0.06902835  1
  Li  Li28  1  1.16643442  -0.36871137  1.31902835  1
  Li  Li29  1  0.33356558  1.36871137  1.81902835  1
  Li  Li30  1  0.38128863  0.58356558  1.56902835  1
  Li  Li31  1  2.11871137  1.41643442  2.06902835  1
  Li  Li32  1  0.00000000  0.25000000  0.52939344  1
  Li  Li33  1  0.00000000  0.75000000  0.77939344  1
  Li  Li34  1  0.50000000  0.25000000  0.47060656  1
  Li  Li35  1  0.50000000  0.75000000  0.22060656  1
  Li  Li36  1  0.00000000  0.75000000  0.47060656  1
  Li  Li37  1  0.00000000  0.25000000  0.22060656  1
  Li  Li38  1  0.50000000  0.75000000  0.52939344  1
  Li  Li39  1  0.50000000  0.25000000  0.77939344  1
  Li  Li40  1  0.50000000  0.75000000  0.02939344  1
  Li  Li41  1  0.50000000  0.25000000  0.27939344  1
  Li  Li42  1  0.00000000  0.75000000  0.97060656  1
  Li  Li43  1  0.00000000  0.25000000  0.72060656  1
  Li  Li44  1  0.50000000  0.25000000  0.97060656  1
  Li  Li45  1  0.50000000  0.75000000  0.72060656  1
  Li  Li46  1  0.00000000  0.25000000  0.02939344  1
  Li  Li47  1  0.00000000  0.75000000  0.27939344  1
  O  O48  1  0.37859570  -0.00000000  0.25000000  1
  O  O49  1  0.12140430  -0.00000000  0.75000000  1
  O  O50  1  0.25000000  0.12859570  0.50000000  1
  O  O51  1  0.25000000  0.87140430  0.00000000  1
  O  O52  1  0.62140430  0.00000000  0.75000000  1
  O  O53  1  0.87859570  -0.00000000  0.25000000  1
  O  O54  1  0.75000000  0.87140430  0.50000000  1
  O  O55  1  0.75000000  0.12859570  0.00000000  1
  O  O56  1  0.87859570  0.50000000  0.75000000  1
  O  O57  1  0.62140430  0.50000000  0.25000000  1
  O  O58  1  0.75000000  0.62859570  0.00000000  1
  O  O59  1  0.75000000  0.37140430  0.50000000  1
  O  O60  1  0.12140430  0.50000000  0.25000000  1
  O  O61  1  0.37859570  0.50000000  0.75000000  1
  O  O62  1  0.25000000  0.37140430  0.00000000  1
  O  O63  1  0.25000000  0.62859570  0.50000000  1
  O  O64  1  0.00000000  0.25000000  0.37500000  1
  O  O65  1  0.00000000  0.75000000  0.62500000  1
  O  O66  1  0.50000000  0.25000000  0.62500000  1
  O  O67  1  0.50000000  0.75000000  0.37500000  1
  O  O68  1  0.50000000  0.75000000  0.87500000  1
  O  O69  1  0.50000000  0.25000000  0.12500000  1
  O  O70  1  0.00000000  0.75000000  0.12500000  1
  O  O71  1  0.00000000  0.25000000  0.87500000  1
  Te  Te72  1  0.20070606  0.00000000  0.25000000  1
  Te  Te73  1  0.29929394  -0.00000000  0.75000000  1
  Te  Te74  1  0.25000000  0.95070606  0.50000000  1
  Te  Te75  1  0.25000000  0.04929394  0.00000000  1
  Te  Te76  1  0.79929394  -0.00000000  0.75000000  1
  Te  Te77  1  0.70070606  0.00000000  0.25000000  1
  Te  Te78  1  0.75000000  0.04929394  0.50000000  1
  Te  Te79  1  0.75000000  0.95070606  0.00000000  1
  Te  Te80  1  0.70070606  0.50000000  0.75000000  1
  Te  Te81  1  0.79929394  0.50000000  0.25000000  1
  Te  Te82  1  0.75000000  0.45070606  0.00000000  1
  Te  Te83  1  0.75000000  0.54929394  0.50000000  1
  Te  Te84  1  0.29929394  0.50000000  0.25000000  1
  Te  Te85  1  0.20070606  0.50000000  0.75000000  1
  Te  Te86  1  0.25000000  0.54929394  0.00000000  1
  Te  Te87  1  0.25000000  0.45070606  0.50000000  1
  Te  Te88  1  0.93595930  0.18595930  0.12500000  1
  Te  Te89  1  0.56404070  0.81404070  0.62500000  1
  Te  Te90  1  0.06404070  0.68595930  0.37500000  1
  Te  Te91  1  0.43595930  0.31404070  0.87500000  1
  Te  Te92  1  0.06404070  0.81404070  0.87500000  1
  Te  Te93  1  0.43595930  0.18595930  0.37500000  1
  Te  Te94  1  0.93595930  0.31404070  0.62500000  1
  Te  Te95  1  0.56404070  0.68595930  0.12500000  1
  Te  Te96  1  0.43595930  0.68595930  0.62500000  1
  Te  Te97  1  0.06404070  0.31404070  0.12500000  1
  Te  Te98  1  0.56404070  0.18595930  0.87500000  1
  Te  Te99  1  0.93595930  0.81404070  0.37500000  1
  Te  Te100  1  0.56404070  0.31404070  0.37500000  1
  Te  Te101  1  0.93595930  0.68595930  0.87500000  1
  Te  Te102  1  0.43595930  0.81404070  0.12500000  1
  Te  Te103  1  0.06404070  0.18595930  0.62500000  1
  Zr  Zr104  1  0.72031676  0.97031676  0.12500000  1
  Zr  Zr105  1  0.77968324  0.02968324  0.62500000  1
  Zr  Zr106  1  0.27968324  0.47031676  0.37500000  1
  Zr  Zr107  1  0.22031676  0.52968324  0.87500000  1
  Zr  Zr108  1  0.27968324  0.02968324  0.87500000  1
  Zr  Zr109  1  0.22031676  0.97031676  0.37500000  1
  Zr  Zr110  1  0.72031676  0.52968324  0.62500000  1
  Zr  Zr111  1  0.77968324  0.47031676  0.12500000  1
  Zr  Zr112  1  0.22031676  0.47031676  0.62500000  1
  Zr  Zr113  1  0.27968324  0.52968324  0.12500000  1
  Zr  Zr114  1  0.77968324  0.97031676  0.87500000  1
  Zr  Zr115  1  0.72031676  0.02968324  0.37500000  1
  Zr  Zr116  1  0.77968324  0.52968324  0.37500000  1
  Zr  Zr117  1  0.72031676  0.47031676  0.87500000  1
  Zr  Zr118  1  0.22031676  0.02968324  0.12500000  1
  Zr  Zr119  1  0.27968324  0.97031676  0.62500000  1
