# generated using pymatgen
data_KAl4Si2SbO12
_symmetry_space_group_name_H-M   'P 1'
_cell_length_a   20.14834948
_cell_length_b   11.60426806
_cell_length_c   12.76358891
_cell_angle_alpha   90.00000000
_cell_angle_beta   90.00000000
_cell_angle_gamma   90.00000000
_symmetry_Int_Tables_number   1
_chemical_formula_structural   KAl4Si2SbO12
_chemical_formula_sum   'K8 Al32 Si16 Sb8 O96'
_cell_volume   2984.21449680
_cell_formula_units_Z   8
loop_
 _symmetry_equiv_pos_site_id
 _symmetry_equiv_pos_as_xyz
  1  'x, y, z'
loop_
 _atom_site_type_symbol
 _atom_site_label
 _atom_site_symmetry_multiplicity
 _atom_site_fract_x
 _atom_site_fract_y
 _atom_site_fract_z
 _atom_site_occupancy
  Al  Al0  1  0.70923021  0.24752707  0.86758736  1
  Al  Al1  1  0.04076979  0.50247293  0.86758736  1
  Al  Al2  1  0.04076979  0.24752707  0.88241264  1
  Al  Al3  1  0.70923021  0.50247293  0.88241264  1
  Al  Al4  1  0.29076979  0.75247293  0.13241264  1
  Al  Al5  1  0.95923021  0.49752707  0.13241264  1
  Al  Al6  1  0.95923021  0.75247293  0.11758736  1
  Al  Al7  1  0.29076979  0.49752707  0.11758736  1
  Al  Al8  1  0.70923021  0.74752707  0.36758736  1
  Al  Al9  1  0.04076979  0.00247293  0.36758736  1
  Al  Al10  1  0.04076979  0.74752707  0.38241264  1
  Al  Al11  1  0.70923021  0.00247293  0.38241264  1
  Al  Al12  1  0.29076979  0.25247293  0.63241264  1
  Al  Al13  1  0.95923021  0.99752707  0.63241264  1
  Al  Al14  1  0.95923021  0.25247293  0.61758736  1
  Al  Al15  1  0.29076979  0.99752707  0.61758736  1
  Al  Al16  1  0.20923021  0.24752707  0.36758736  1
  Al  Al17  1  0.54076979  0.50247293  0.36758736  1
  Al  Al18  1  0.54076979  0.24752707  0.38241264  1
  Al  Al19  1  0.20923021  0.50247293  0.38241264  1
  Al  Al20  1  0.79076979  0.75247293  0.63241264  1
  Al  Al21  1  0.45923021  0.49752707  0.63241264  1
  Al  Al22  1  0.45923021  0.75247293  0.61758736  1
  Al  Al23  1  0.79076979  0.49752707  0.61758736  1
  Al  Al24  1  0.20923021  0.74752707  0.86758736  1
  Al  Al25  1  0.54076979  0.00247293  0.86758736  1
  Al  Al26  1  0.54076979  0.74752707  0.88241264  1
  Al  Al27  1  0.20923021  0.00247293  0.88241264  1
  Al  Al28  1  0.79076979  0.25247293  0.13241264  1
  Al  Al29  1  0.45923021  0.99752707  0.13241264  1
  Al  Al30  1  0.45923021  0.25247293  0.11758736  1
  Al  Al31  1  0.79076979  0.99752707  0.11758736  1
  K  K32  1  0.12500000  0.12500000  0.12500000  1
  K  K33  1  0.87500000  0.87500000  0.87500000  1
  K  K34  1  0.12500000  0.62500000  0.62500000  1
  K  K35  1  0.87500000  0.37500000  0.37500000  1
  K  K36  1  0.62500000  0.12500000  0.62500000  1
  K  K37  1  0.37500000  0.87500000  0.37500000  1
  K  K38  1  0.62500000  0.62500000  0.12500000  1
  K  K39  1  0.37500000  0.37500000  0.87500000  1
  O  O40  1  0.51686011  0.89535243  0.48908038  1
  O  O41  1  0.23313989  -0.14535243  0.48908038  1
  O  O42  1  0.23313989  0.89535243  0.26091962  1
  O  O43  1  0.51686011  -0.14535243  0.26091962  1
  O  O44  1  -0.51686011  -0.89535243  -0.48908038  1
  O  O45  1  0.76686011  1.14535243  -0.48908038  1
  O  O46  1  0.76686011  -0.89535243  0.73908038  1
  O  O47  1  -0.51686011  1.14535243  0.73908038  1
  O  O48  1  0.51686011  1.39535243  0.98908038  1
  O  O49  1  0.23313989  0.35464757  0.98908038  1
  O  O50  1  0.23313989  1.39535243  0.76091962  1
  O  O51  1  0.51686011  0.35464757  0.76091962  1
  O  O52  1  -0.51686011  -0.39535243  0.01091962  1
  O  O53  1  0.76686011  1.64535243  0.01091962  1
  O  O54  1  0.76686011  -0.39535243  1.23908038  1
  O  O55  1  -0.51686011  1.64535243  1.23908038  1
  O  O56  1  1.01686011  0.89535243  0.98908038  1
  O  O57  1  0.73313989  -0.14535243  0.98908038  1
  O  O58  1  0.73313989  0.89535243  0.76091962  1
  O  O59  1  1.01686011  -0.14535243  0.76091962  1
  O  O60  1  -0.01686011  -0.89535243  0.01091962  1
  O  O61  1  1.26686011  1.14535243  0.01091962  1
  O  O62  1  1.26686011  -0.89535243  1.23908038  1
  O  O63  1  -0.01686011  1.14535243  1.23908038  1
  O  O64  1  1.01686011  1.39535243  0.48908038  1
  O  O65  1  0.73313989  0.35464757  0.48908038  1
  O  O66  1  0.73313989  1.39535243  0.26091962  1
  O  O67  1  1.01686011  0.35464757  0.26091962  1
  O  O68  1  -0.01686011  -0.39535243  -0.48908038  1
  O  O69  1  1.26686011  1.64535243  -0.48908038  1
  O  O70  1  1.26686011  -0.39535243  0.73908038  1
  O  O71  1  -0.01686011  1.64535243  0.73908038  1
  O  O72  1  0.76359876  0.43775530  0.07113896  1
  O  O73  1  0.98640124  0.31224470  0.07113896  1
  O  O74  1  0.98640124  0.43775530  0.67886104  1
  O  O75  1  0.76359876  0.31224470  0.67886104  1
  O  O76  1  0.23640124  0.56224470  0.92886104  1
  O  O77  1  0.01359876  0.68775530  0.92886104  1
  O  O78  1  0.01359876  0.56224470  0.32113896  1
  O  O79  1  0.23640124  0.68775530  0.32113896  1
  O  O80  1  0.76359876  0.93775530  0.57113896  1
  O  O81  1  0.98640124  0.81224470  0.57113896  1
  O  O82  1  0.98640124  0.93775530  0.17886104  1
  O  O83  1  0.76359876  0.81224470  0.17886104  1
  O  O84  1  0.23640124  0.06224470  0.42886104  1
  O  O85  1  0.01359876  0.18775530  0.42886104  1
  O  O86  1  0.01359876  0.06224470  0.82113896  1
  O  O87  1  0.23640124  0.18775530  0.82113896  1
  O  O88  1  0.26359876  0.43775530  0.57113896  1
  O  O89  1  0.48640124  0.31224470  0.57113896  1
  O  O90  1  0.48640124  0.43775530  0.17886104  1
  O  O91  1  0.26359876  0.31224470  0.17886104  1
  O  O92  1  0.73640124  0.56224470  0.42886104  1
  O  O93  1  0.51359876  0.68775530  0.42886104  1
  O  O94  1  0.51359876  0.56224470  0.82113896  1
  O  O95  1  0.73640124  0.68775530  0.82113896  1
  O  O96  1  0.26359876  0.93775530  0.07113896  1
  O  O97  1  0.48640124  0.81224470  0.07113896  1
  O  O98  1  0.48640124  0.93775530  0.67886104  1
  O  O99  1  0.26359876  0.81224470  0.67886104  1
  O  O100  1  0.73640124  0.06224470  0.92886104  1
  O  O101  1  0.51359876  0.18775530  0.92886104  1
  O  O102  1  0.51359876  0.06224470  0.32113896  1
  O  O103  1  0.73640124  0.18775530  0.32113896  1
  O  O104  1  0.39384620  0.01982238  0.53257818  1
  O  O105  1  0.35615380  0.73017762  0.53257818  1
  O  O106  1  0.35615380  0.01982238  0.21742182  1
  O  O107  1  0.39384620  0.73017762  0.21742182  1
  O  O108  1  0.60615380  0.98017762  0.46742182  1
  O  O109  1  0.64384620  0.26982238  0.46742182  1
  O  O110  1  0.64384620  0.98017762  0.78257818  1
  O  O111  1  0.60615380  0.26982238  0.78257818  1
  O  O112  1  0.39384620  0.51982238  0.03257818  1
  O  O113  1  0.35615380  0.23017762  0.03257818  1
  O  O114  1  0.35615380  0.51982238  0.71742182  1
  O  O115  1  0.39384620  0.23017762  0.71742182  1
  O  O116  1  0.60615380  0.48017762  0.96742182  1
  O  O117  1  0.64384620  0.76982238  0.96742182  1
  O  O118  1  0.64384620  0.48017762  0.28257818  1
  O  O119  1  0.60615380  0.76982238  0.28257818  1
  O  O120  1  0.89384620  0.01982238  0.03257818  1
  O  O121  1  0.85615380  0.73017762  0.03257818  1
  O  O122  1  0.85615380  0.01982238  0.71742182  1
  O  O123  1  0.89384620  0.73017762  0.71742182  1
  O  O124  1  0.10615380  0.98017762  0.96742182  1
  O  O125  1  0.14384620  0.26982238  0.96742182  1
  O  O126  1  0.14384620  0.98017762  0.28257818  1
  O  O127  1  0.10615380  0.26982238  0.28257818  1
  O  O128  1  0.89384620  0.51982238  0.53257818  1
  O  O129  1  0.85615380  0.23017762  0.53257818  1
  O  O130  1  0.85615380  0.51982238  0.21742182  1
  O  O131  1  0.89384620  0.23017762  0.21742182  1
  O  O132  1  0.10615380  0.48017762  0.46742182  1
  O  O133  1  0.14384620  0.76982238  0.46742182  1
  O  O134  1  0.14384620  0.48017762  0.78257818  1
  O  O135  1  0.10615380  0.76982238  0.78257818  1
  Sb  Sb136  1  0.12500000  0.12500000  0.62500000  1
  Sb  Sb137  1  0.87500000  0.87500000  0.37500000  1
  Sb  Sb138  1  0.12500000  0.62500000  0.12500000  1
  Sb  Sb139  1  0.87500000  0.37500000  0.87500000  1
  Sb  Sb140  1  0.62500000  0.12500000  0.12500000  1
  Sb  Sb141  1  0.37500000  0.87500000  0.87500000  1
  Sb  Sb142  1  0.62500000  0.62500000  0.62500000  1
  Sb  Sb143  1  0.37500000  0.37500000  0.37500000  1
  Si  Si144  1  0.12500000  0.89614859  0.12500000  1
  Si  Si145  1  0.62500000  0.85385141  0.12500000  1
  Si  Si146  1  0.87500000  0.10385141  0.87500000  1
  Si  Si147  1  0.37500000  0.14614859  0.87500000  1
  Si  Si148  1  0.12500000  0.39614859  0.62500000  1
  Si  Si149  1  0.62500000  0.35385141  0.62500000  1
  Si  Si150  1  0.87500000  0.60385141  0.37500000  1
  Si  Si151  1  0.37500000  0.64614859  0.37500000  1
  Si  Si152  1  0.62500000  0.89614859  0.62500000  1
  Si  Si153  1  0.12500000  0.85385141  0.62500000  1
  Si  Si154  1  0.37500000  0.10385141  0.37500000  1
  Si  Si155  1  0.87500000  0.14614859  0.37500000  1
  Si  Si156  1  0.62500000  0.39614859  0.12500000  1
  Si  Si157  1  0.12500000  0.35385141  0.12500000  1
  Si  Si158  1  0.37500000  0.60385141  0.87500000  1
  Si  Si159  1  0.87500000  0.64614859  0.87500000  1
