# generated using pymatgen
data_Li4TeS
_symmetry_space_group_name_H-M   'P 1'
_cell_length_a   12.83869598
_cell_length_b   6.96597781
_cell_length_c   7.73946642
_cell_angle_alpha   90.00000000
_cell_angle_beta   90.00000000
_cell_angle_gamma   90.00000000
_symmetry_Int_Tables_number   1
_chemical_formula_structural   Li4TeS
_chemical_formula_sum   'Li24 Te6 S6'
_cell_volume   692.17199191
_cell_formula_units_Z   6
loop_
 _symmetry_equiv_pos_site_id
 _symmetry_equiv_pos_as_xyz
  1  'x, y, z'
loop_
 _atom_site_type_symbol
 _atom_site_label
 _atom_site_symmetry_multiplicity
 _atom_site_fract_x
 _atom_site_fract_y
 _atom_site_fract_z
 _atom_site_occupancy
  Li  Li0  1  0.94214744  0.41821418  0.26502936  1
  Li  Li1  1  -0.94214744  -0.41821418  0.26502936  1
  Li  Li2  1  -0.44214744  0.91821418  -0.26502936  1
  Li  Li3  1  1.44214744  0.08178582  -0.26502936  1
  Li  Li4  1  -0.94214744  -0.41821418  -0.26502936  1
  Li  Li5  1  0.94214744  0.41821418  -0.26502936  1
  Li  Li6  1  1.44214744  0.08178582  0.26502936  1
  Li  Li7  1  -0.44214744  0.91821418  0.26502936  1
  Li  Li8  1  0.71962188  0.89155365  0.77500325  1
  Li  Li9  1  0.28037812  0.10844635  0.77500325  1
  Li  Li10  1  0.78037812  0.39155365  0.22499675  1
  Li  Li11  1  0.21962188  0.60844635  0.22499675  1
  Li  Li12  1  0.28037812  0.10844635  0.22499675  1
  Li  Li13  1  0.71962188  0.89155365  0.22499675  1
  Li  Li14  1  0.21962188  0.60844635  0.77500325  1
  Li  Li15  1  0.78037812  0.39155365  0.77500325  1
  Li  Li16  1  0.63309781  0.33256566  0.50000000  1
  Li  Li17  1  0.36690219  0.66743434  0.50000000  1
  Li  Li18  1  0.86690219  0.83256566  0.50000000  1
  Li  Li19  1  0.13309781  0.16743434  0.50000000  1
  Li  Li20  1  0.00000000  0.50000000  0.88157949  1
  Li  Li21  1  0.50000000  0.00000000  0.11842051  1
  Li  Li22  1  0.00000000  0.50000000  0.11842051  1
  Li  Li23  1  0.50000000  0.00000000  0.88157949  1
  S  S24  1  0.00000000  0.00000000  0.50000000  1
  S  S25  1  0.50000000  0.50000000  0.50000000  1
  S  S26  1  0.15457906  0.05935943  0.00000000  1
  S  S27  1  0.84542094  0.94064057  0.00000000  1
  S  S28  1  0.34542094  0.55935943  0.00000000  1
  S  S29  1  0.65457906  0.44064057  0.00000000  1
  Te  Te30  1  0.76262318  0.44305663  0.50000000  1
  Te  Te31  1  0.23737682  0.55694337  0.50000000  1
  Te  Te32  1  0.73737682  0.94305663  0.50000000  1
  Te  Te33  1  0.26262318  0.05694337  0.50000000  1
  Te  Te34  1  0.00000000  0.00000000  0.00000000  1
  Te  Te35  1  0.50000000  0.50000000  0.00000000  1
