# generated using pymatgen
data_Na3SrLiO3
_symmetry_space_group_name_H-M   'P 1'
_cell_length_a   11.92076205
_cell_length_b   11.92076205
_cell_length_c   8.00749723
_cell_angle_alpha   90.00000000
_cell_angle_beta   90.00000000
_cell_angle_gamma   120.00000000
_symmetry_Int_Tables_number   1
_chemical_formula_structural   Na3SrLiO3
_chemical_formula_sum   'Na12 Sr4 Li4 O12'
_cell_volume   985.45198105
_cell_formula_units_Z   4
loop_
 _symmetry_equiv_pos_site_id
 _symmetry_equiv_pos_as_xyz
  1  'x, y, z'
loop_
 _atom_site_type_symbol
 _atom_site_label
 _atom_site_symmetry_multiplicity
 _atom_site_fract_x
 _atom_site_fract_y
 _atom_site_fract_z
 _atom_site_occupancy
  Li  Li0  1  0.00000000  0.00000000  0.00000000  1
  Li  Li1  1  0.00000000  0.00000000  0.50000000  1
  Li  Li2  1  0.33333333  0.66666667  0.75000000  1
  Li  Li3  1  0.66666667  0.33333333  0.25000000  1
  Na  Na4  1  0.90311781  0.33797764  0.25000000  1
  Na  Na5  1  0.66202236  0.56514018  0.25000000  1
  Na  Na6  1  0.43485982  0.09688219  0.25000000  1
  Na  Na7  1  0.09688219  0.66202236  0.75000000  1
  Na  Na8  1  0.33797764  0.43485982  0.75000000  1
  Na  Na9  1  0.56514018  0.90311781  0.75000000  1
  Na  Na10  1  0.33797764  0.90311781  0.75000000  1
  Na  Na11  1  0.56514018  0.66202236  0.75000000  1
  Na  Na12  1  0.09688219  0.43485982  0.75000000  1
  Na  Na13  1  0.66202236  0.09688219  0.25000000  1
  Na  Na14  1  0.43485982  0.33797764  0.25000000  1
  Na  Na15  1  0.90311781  0.56514018  0.25000000  1
  O  O16  1  0.30106520  -0.00000000  0.00000000  1
  O  O17  1  0.00000000  0.30106520  -0.00000000  1
  O  O18  1  -0.30106520  -0.30106520  0.00000000  1
  O  O19  1  -0.30106520  0.00000000  0.50000000  1
  O  O20  1  0.00000000  -0.30106520  0.50000000  1
  O  O21  1  0.30106520  0.30106520  0.50000000  1
  O  O22  1  -0.30106520  0.00000000  -0.00000000  1
  O  O23  1  0.00000000  -0.30106520  0.00000000  1
  O  O24  1  0.30106520  0.30106520  0.00000000  1
  O  O25  1  0.30106520  -0.00000000  0.50000000  1
  O  O26  1  0.00000000  0.30106520  0.50000000  1
  O  O27  1  -0.30106520  -0.30106520  0.50000000  1
  Sr  Sr28  1  0.00000000  0.00000000  0.25000000  1
  Sr  Sr29  1  0.00000000  0.00000000  0.75000000  1
  Sr  Sr30  1  0.33333333  0.66666667  0.25000000  1
  Sr  Sr31  1  0.66666667  0.33333333  0.75000000  1
