# generated using pymatgen
data_LiSi2S2OF3
_symmetry_space_group_name_H-M   'P 1'
_cell_length_a   8.49172280
_cell_length_b   8.49172280
_cell_length_c   11.67282647
_cell_angle_alpha   90.00000000
_cell_angle_beta   90.00000000
_cell_angle_gamma   120.00000000
_symmetry_Int_Tables_number   1
_chemical_formula_structural   LiSi2S2OF3
_chemical_formula_sum   'Li6 Si12 S12 O6 F18'
_cell_volume   728.95090406
_cell_formula_units_Z   6
loop_
 _symmetry_equiv_pos_site_id
 _symmetry_equiv_pos_as_xyz
  1  'x, y, z'
loop_
 _atom_site_type_symbol
 _atom_site_label
 _atom_site_symmetry_multiplicity
 _atom_site_fract_x
 _atom_site_fract_y
 _atom_site_fract_z
 _atom_site_occupancy
  F  F0  1  0.67417296  0.60999865  0.39758809  1
  F  F1  1  0.39000135  0.06417431  0.39758809  1
  F  F2  1  0.93582569  0.32582704  0.39758809  1
  F  F3  1  0.32582704  0.39000135  0.89758809  1
  F  F4  1  0.60999865  0.93582569  0.89758809  1
  F  F5  1  0.06417431  0.67417296  0.89758809  1
  F  F6  1  0.32582704  0.39000135  0.60241191  1
  F  F7  1  0.60999865  0.93582569  0.60241191  1
  F  F8  1  0.06417431  0.67417296  0.60241191  1
  F  F9  1  0.67417296  0.60999865  0.10241191  1
  F  F10  1  0.39000135  0.06417431  0.10241191  1
  F  F11  1  0.93582569  0.32582704  0.10241191  1
  F  F12  1  0.33333333  0.66666667  0.25000000  1
  F  F13  1  0.66666667  0.33333333  0.75000000  1
  F  F14  1  0.00000000  0.00000000  0.25000000  1
  F  F15  1  0.00000000  0.00000000  0.75000000  1
  F  F16  1  0.00000000  0.00000000  0.00000000  1
  F  F17  1  0.00000000  0.00000000  0.50000000  1
  Li  Li18  1  0.50000000  -0.00000000  0.00000000  1
  Li  Li19  1  0.00000000  0.50000000  0.00000000  1
  Li  Li20  1  0.50000000  0.50000000  0.00000000  1
  Li  Li21  1  0.50000000  -0.00000000  0.50000000  1
  Li  Li22  1  0.00000000  0.50000000  0.50000000  1
  Li  Li23  1  0.50000000  0.50000000  0.50000000  1
  O  O24  1  0.04328514  0.35439818  0.25000000  1
  O  O25  1  0.64560182  0.68888696  0.25000000  1
  O  O26  1  0.31111304  0.95671486  0.25000000  1
  O  O27  1  0.95671486  0.64560182  0.75000000  1
  O  O28  1  0.35439818  0.31111304  0.75000000  1
  O  O29  1  0.68888696  0.04328514  0.75000000  1
  S  S30  1  0.17323999  0.87548001  0.11957293  1
  S  S31  1  -0.87548001  -0.70224002  0.11957293  1
  S  S32  1  0.70224002  -0.17323999  0.11957293  1
  S  S33  1  -0.17323999  -0.87548001  0.61957293  1
  S  S34  1  0.87548001  0.70224002  0.61957293  1
  S  S35  1  -0.70224002  0.17323999  0.61957293  1
  S  S36  1  -0.17323999  -0.87548001  -0.11957293  1
  S  S37  1  0.87548001  0.70224002  -0.11957293  1
  S  S38  1  -0.70224002  0.17323999  -0.11957293  1
  S  S39  1  0.17323999  0.87548001  0.38042707  1
  S  S40  1  -0.87548001  -0.70224002  0.38042707  1
  S  S41  1  0.70224002  -0.17323999  0.38042707  1
  Si  Si42  1  0.73271657  0.99141076  0.99798424  1
  Si  Si43  1  0.00858924  0.74130581  0.99798424  1
  Si  Si44  1  0.25869419  0.26728343  0.99798424  1
  Si  Si45  1  0.26728343  0.00858924  0.49798424  1
  Si  Si46  1  0.99141076  0.25869419  0.49798424  1
  Si  Si47  1  0.74130581  0.73271657  0.49798424  1
  Si  Si48  1  0.26728343  0.00858924  0.00201576  1
  Si  Si49  1  0.99141076  0.25869419  0.00201576  1
  Si  Si50  1  0.74130581  0.73271657  0.00201576  1
  Si  Si51  1  0.73271657  0.99141076  0.50201576  1
  Si  Si52  1  0.00858924  0.74130581  0.50201576  1
  Si  Si53  1  0.25869419  0.26728343  0.50201576  1
