# generated using pymatgen
data_Li3PS4
_symmetry_space_group_name_H-M   'P 1'
_cell_length_a   13.19437239
_cell_length_b   13.19437239
_cell_length_c   13.19437239
_cell_angle_alpha   90.00000000
_cell_angle_beta   90.00000000
_cell_angle_gamma   90.00000000
_symmetry_Int_Tables_number   1
_chemical_formula_structural   Li3PS4
_chemical_formula_sum   'Li48 P16 S64'
_cell_volume   2297.02759030
_cell_formula_units_Z   16
loop_
 _symmetry_equiv_pos_site_id
 _symmetry_equiv_pos_as_xyz
  1  'x, y, z'
loop_
 _atom_site_type_symbol
 _atom_site_label
 _atom_site_symmetry_multiplicity
 _atom_site_fract_x
 _atom_site_fract_y
 _atom_site_fract_z
 _atom_site_occupancy
  Li  Li0  1  0.12500000  0.20181620  0.04818380  1
  Li  Li1  1  0.37500000  -0.20181620  0.54818380  1
  Li  Li2  1  0.87500000  0.70181620  0.45181620  1
  Li  Li3  1  0.62500000  0.29818380  0.95181620  1
  Li  Li4  1  0.04818380  0.12500000  0.20181620  1
  Li  Li5  1  0.54818380  0.37500000  -0.20181620  1
  Li  Li6  1  0.45181620  0.87500000  0.70181620  1
  Li  Li7  1  0.95181620  0.62500000  0.29818380  1
  Li  Li8  1  0.20181620  0.04818380  0.12500000  1
  Li  Li9  1  -0.20181620  0.54818380  0.37500000  1
  Li  Li10  1  0.70181620  0.45181620  0.87500000  1
  Li  Li11  1  0.29818380  0.95181620  0.62500000  1
  Li  Li12  1  0.87500000  -0.20181620  0.95181620  1
  Li  Li13  1  0.62500000  0.20181620  0.45181620  1
  Li  Li14  1  0.12500000  0.29818380  0.54818380  1
  Li  Li15  1  0.37500000  0.70181620  0.04818380  1
  Li  Li16  1  0.95181620  0.87500000  -0.20181620  1
  Li  Li17  1  0.45181620  0.62500000  0.20181620  1
  Li  Li18  1  0.54818380  0.12500000  0.29818380  1
  Li  Li19  1  0.04818380  0.37500000  0.70181620  1
  Li  Li20  1  -0.20181620  0.95181620  0.87500000  1
  Li  Li21  1  0.20181620  0.45181620  0.62500000  1
  Li  Li22  1  0.29818380  0.54818380  0.12500000  1
  Li  Li23  1  0.70181620  0.04818380  0.37500000  1
  Li  Li24  1  0.62500000  0.70181620  0.54818380  1
  Li  Li25  1  0.87500000  0.29818380  1.04818380  1
  Li  Li26  1  1.37500000  1.20181620  0.95181620  1
  Li  Li27  1  1.12500000  0.79818380  1.45181620  1
  Li  Li28  1  0.54818380  0.62500000  0.70181620  1
  Li  Li29  1  1.04818380  0.87500000  0.29818380  1
  Li  Li30  1  0.95181620  1.37500000  1.20181620  1
  Li  Li31  1  1.45181620  1.12500000  0.79818380  1
  Li  Li32  1  0.70181620  0.54818380  0.62500000  1
  Li  Li33  1  0.29818380  1.04818380  0.87500000  1
  Li  Li34  1  1.20181620  0.95181620  1.37500000  1
  Li  Li35  1  0.79818380  1.45181620  1.12500000  1
  Li  Li36  1  1.37500000  0.29818380  1.45181620  1
  Li  Li37  1  1.12500000  0.70181620  0.95181620  1
  Li  Li38  1  0.62500000  0.79818380  1.04818380  1
  Li  Li39  1  0.87500000  1.20181620  0.54818380  1
  Li  Li40  1  1.45181620  1.37500000  0.29818380  1
  Li  Li41  1  0.95181620  1.12500000  0.70181620  1
  Li  Li42  1  1.04818380  0.62500000  0.79818380  1
  Li  Li43  1  0.54818380  0.87500000  1.20181620  1
  Li  Li44  1  0.29818380  1.45181620  1.37500000  1
  Li  Li45  1  0.70181620  0.95181620  1.12500000  1
  Li  Li46  1  0.79818380  1.04818380  0.62500000  1
  Li  Li47  1  1.20181620  0.54818380  0.87500000  1
  P  P48  1  0.12500000  0.12500000  0.12500000  1
  P  P49  1  0.37500000  0.87500000  0.62500000  1
  P  P50  1  0.87500000  0.62500000  0.37500000  1
  P  P51  1  0.62500000  0.37500000  0.87500000  1
  P  P52  1  0.87500000  0.87500000  0.87500000  1
  P  P53  1  0.62500000  0.12500000  0.37500000  1
  P  P54  1  0.12500000  0.37500000  0.62500000  1
  P  P55  1  0.37500000  0.62500000  0.12500000  1
  P  P56  1  0.62500000  0.62500000  0.62500000  1
  P  P57  1  0.87500000  0.37500000  0.12500000  1
  P  P58  1  0.37500000  0.12500000  0.87500000  1
  P  P59  1  0.12500000  0.87500000  0.37500000  1
  P  P60  1  0.37500000  0.37500000  0.37500000  1
  P  P61  1  0.12500000  0.62500000  0.87500000  1
  P  P62  1  0.62500000  0.87500000  0.12500000  1
  P  P63  1  0.87500000  0.12500000  0.62500000  1
  S  S64  1  0.37500000  0.00000000  0.25000000  1
  S  S65  1  0.12500000  0.00000000  0.75000000  1
  S  S66  1  0.25000000  0.37500000  0.00000000  1
  S  S67  1  0.75000000  0.12500000  0.00000000  1
  S  S68  1  0.00000000  0.25000000  0.37500000  1
  S  S69  1  0.00000000  0.75000000  0.12500000  1
  S  S70  1  0.75000000  0.62500000  0.00000000  1
  S  S71  1  0.75000000  0.37500000  0.50000000  1
  S  S72  1  0.12500000  0.50000000  0.25000000  1
  S  S73  1  0.87500000  0.00000000  0.25000000  1
  S  S74  1  0.00000000  0.25000000  0.87500000  1
  S  S75  1  0.50000000  0.25000000  0.12500000  1
  S  S76  1  0.87500000  0.50000000  0.75000000  1
  S  S77  1  0.62500000  0.50000000  0.25000000  1
  S  S78  1  0.75000000  0.87500000  0.50000000  1
  S  S79  1  0.25000000  0.62500000  0.50000000  1
  S  S80  1  0.50000000  0.75000000  0.87500000  1
  S  S81  1  0.50000000  0.25000000  0.62500000  1
  S  S82  1  0.25000000  0.12500000  0.50000000  1
  S  S83  1  0.25000000  0.87500000  0.00000000  1
  S  S84  1  0.62500000  0.00000000  0.75000000  1
  S  S85  1  0.37500000  0.50000000  0.75000000  1
  S  S86  1  0.50000000  0.75000000  0.37500000  1
  S  S87  1  0.00000000  0.75000000  0.62500000  1
  S  S88  1  0.00000000  0.00000000  0.00000000  1
  S  S89  1  0.50000000  0.00000000  0.50000000  1
  S  S90  1  0.00000000  0.50000000  0.50000000  1
  S  S91  1  0.50000000  0.50000000  0.00000000  1
  S  S92  1  0.75000000  0.25000000  0.25000000  1
  S  S93  1  0.75000000  0.75000000  0.75000000  1
  S  S94  1  0.25000000  0.25000000  0.75000000  1
  S  S95  1  0.25000000  0.75000000  0.25000000  1
  S  S96  1  0.50000000  0.50000000  0.50000000  1
  S  S97  1  0.00000000  0.50000000  0.00000000  1
  S  S98  1  0.50000000  0.00000000  0.00000000  1
  S  S99  1  0.00000000  0.00000000  0.50000000  1
  S  S100  1  0.25000000  0.75000000  0.75000000  1
  S  S101  1  0.25000000  0.25000000  0.25000000  1
  S  S102  1  0.75000000  0.75000000  0.25000000  1
  S  S103  1  0.75000000  0.25000000  0.75000000  1
  S  S104  1  0.12500000  0.00000000  0.25000000  1
  S  S105  1  0.37500000  0.00000000  0.75000000  1
  S  S106  1  0.25000000  0.12500000  0.00000000  1
  S  S107  1  0.75000000  0.37500000  0.00000000  1
  S  S108  1  0.00000000  0.25000000  0.12500000  1
  S  S109  1  0.00000000  0.75000000  0.37500000  1
  S  S110  1  0.87500000  0.00000000  0.75000000  1
  S  S111  1  0.62500000  0.00000000  0.25000000  1
  S  S112  1  0.75000000  0.87500000  0.00000000  1
  S  S113  1  0.25000000  0.62500000  0.00000000  1
  S  S114  1  0.00000000  0.75000000  0.87500000  1
  S  S115  1  0.00000000  0.25000000  0.62500000  1
  S  S116  1  0.62500000  0.50000000  0.75000000  1
  S  S117  1  0.87500000  0.50000000  0.25000000  1
  S  S118  1  0.75000000  0.62500000  0.50000000  1
  S  S119  1  0.25000000  0.87500000  0.50000000  1
  S  S120  1  0.50000000  0.75000000  0.62500000  1
  S  S121  1  0.50000000  0.25000000  0.87500000  1
  S  S122  1  0.37500000  0.50000000  0.25000000  1
  S  S123  1  0.12500000  0.50000000  0.75000000  1
  S  S124  1  0.25000000  0.37500000  0.50000000  1
  S  S125  1  0.75000000  0.12500000  0.50000000  1
  S  S126  1  0.50000000  0.25000000  0.37500000  1
  S  S127  1  0.50000000  0.75000000  0.12500000  1
