# generated using pymatgen
data_LiTi2(I2Cl)3
_symmetry_space_group_name_H-M   'P 1'
_cell_length_a   11.28044073
_cell_length_b   10.67646623
_cell_length_c   7.58832990
_cell_angle_alpha   90.00000000
_cell_angle_beta   90.00000000
_cell_angle_gamma   90.00000000
_symmetry_Int_Tables_number   1
_chemical_formula_structural   LiTi2(I2Cl)3
_chemical_formula_sum   'Li4 Ti8 I24 Cl12'
_cell_volume   913.90236623
_cell_formula_units_Z   4
loop_
 _symmetry_equiv_pos_site_id
 _symmetry_equiv_pos_as_xyz
  1  'x, y, z'
loop_
 _atom_site_type_symbol
 _atom_site_label
 _atom_site_symmetry_multiplicity
 _atom_site_fract_x
 _atom_site_fract_y
 _atom_site_fract_z
 _atom_site_occupancy
  Cl  Cl0  1  0.00000000  0.00000000  0.33415591  1
  Cl  Cl1  1  0.50000000  0.50000000  0.16584409  1
  Cl  Cl2  1  0.00000000  0.00000000  0.66584409  1
  Cl  Cl3  1  0.50000000  0.50000000  0.83415591  1
  Cl  Cl4  1  0.82537463  0.86890231  0.84632068  1
  Cl  Cl5  1  0.17462537  0.13109769  0.84632068  1
  Cl  Cl6  1  0.67462537  0.36890231  0.65367932  1
  Cl  Cl7  1  0.32537463  0.63109769  0.65367932  1
  Cl  Cl8  1  0.17462537  0.13109769  0.15367932  1
  Cl  Cl9  1  0.82537463  0.86890231  0.15367932  1
  Cl  Cl10  1  0.32537463  0.63109769  0.34632068  1
  Cl  Cl11  1  0.67462537  0.36890231  0.34632068  1
  I  I12  1  0.00000000  0.00000000  0.50000000  1
  I  I13  1  0.50000000  0.50000000  -0.00000000  1
  I  I14  1  0.83971076  0.24844050  -0.00000000  1
  I  I15  1  0.16028924  0.75155950  -0.00000000  1
  I  I16  1  0.66028924  0.74844050  0.50000000  1
  I  I17  1  0.33971076  0.25155950  0.50000000  1
  I  I18  1  0.00000000  0.50000000  0.35593943  1
  I  I19  1  0.50000000  0.00000000  0.14406057  1
  I  I20  1  0.00000000  0.50000000  0.64406057  1
  I  I21  1  0.50000000  0.00000000  0.85593943  1
  I  I22  1  0.36217762  0.09990082  -0.00000000  1
  I  I23  1  0.63782238  0.90009918  -0.00000000  1
  I  I24  1  0.13782238  0.59990082  0.50000000  1
  I  I25  1  0.86217762  0.40009918  0.50000000  1
  I  I26  1  0.00000000  0.50000000  -0.00000000  1
  I  I27  1  0.50000000  0.00000000  0.50000000  1
  I  I28  1  0.29346364  0.29077874  0.00000000  1
  I  I29  1  0.70653636  0.70922126  -0.00000000  1
  I  I30  1  0.20653636  0.79077874  0.50000000  1
  I  I31  1  0.79346364  0.20922126  0.50000000  1
  I  I32  1  0.27679769  0.89292737  0.00000000  1
  I  I33  1  0.72320231  0.10707263  -0.00000000  1
  I  I34  1  0.22320231  0.39292737  0.50000000  1
  I  I35  1  0.77679769  0.60707263  0.50000000  1
  Li  Li36  1  0.00000000  0.00000000  0.15527276  1
  Li  Li37  1  0.50000000  0.50000000  0.34472724  1
  Li  Li38  1  0.00000000  0.00000000  0.84472724  1
  Li  Li39  1  0.50000000  0.50000000  0.65527276  1
  Ti  Ti40  1  0.84628668  0.38914736  0.24852916  1
  Ti  Ti41  1  -0.84628668  -0.38914736  0.24852916  1
  Ti  Ti42  1  -0.34628668  0.88914736  0.25147084  1
  Ti  Ti43  1  1.34628668  0.11085264  0.25147084  1
  Ti  Ti44  1  -0.84628668  -0.38914736  -0.24852916  1
  Ti  Ti45  1  0.84628668  0.38914736  -0.24852916  1
  Ti  Ti46  1  1.34628668  0.11085264  0.74852916  1
  Ti  Ti47  1  -0.34628668  0.88914736  0.74852916  1
