# generated using pymatgen
data_Li8Mg2B2S3(I4O)2
_symmetry_space_group_name_H-M   'P 1'
_cell_length_a   11.70598823
_cell_length_b   13.00295600
_cell_length_c   14.02172496
_cell_angle_alpha   90.00000000
_cell_angle_beta   90.00000000
_cell_angle_gamma   90.00000000
_symmetry_Int_Tables_number   1
_chemical_formula_structural   Li8Mg2B2S3(I4O)2
_chemical_formula_sum   'Li32 Mg8 B8 S12 I32 O8'
_cell_volume   2134.28110665
_cell_formula_units_Z   4
loop_
 _symmetry_equiv_pos_site_id
 _symmetry_equiv_pos_as_xyz
  1  'x, y, z'
loop_
 _atom_site_type_symbol
 _atom_site_label
 _atom_site_symmetry_multiplicity
 _atom_site_fract_x
 _atom_site_fract_y
 _atom_site_fract_z
 _atom_site_occupancy
  B  B0  1  0.81839397  0.80269335  0.19924530  1
  B  B1  1  -0.31839397  -0.80269335  0.69924530  1
  B  B2  1  -0.81839397  1.30269335  -0.19924530  1
  B  B3  1  1.31839397  -0.30269335  0.30075470  1
  B  B4  1  -0.81839397  -0.80269335  -0.19924530  1
  B  B5  1  1.31839397  0.80269335  0.30075470  1
  B  B6  1  0.81839397  -0.30269335  0.19924530  1
  B  B7  1  -0.31839397  1.30269335  0.69924530  1
  I  I8  1  0.51357207  0.25000000  0.93457087  1
  I  I9  1  0.98642793  0.75000000  0.43457087  1
  I  I10  1  0.48642793  0.75000000  0.06542913  1
  I  I11  1  0.01357207  0.25000000  0.56542913  1
  I  I12  1  0.33770483  0.33402877  0.13130435  1
  I  I13  1  0.16229517  0.66597123  0.63130435  1
  I  I14  1  0.66229517  0.83402877  0.86869565  1
  I  I15  1  0.83770483  0.16597123  0.36869565  1
  I  I16  1  0.66229517  0.66597123  0.86869565  1
  I  I17  1  0.83770483  0.33402877  0.36869565  1
  I  I18  1  0.33770483  0.16597123  0.13130435  1
  I  I19  1  0.16229517  0.83402877  0.63130435  1
  I  I20  1  0.68133936  0.84366587  0.41865516  1
  I  I21  1  0.81866064  0.15633413  0.91865516  1
  I  I22  1  0.31866064  0.34366587  0.58134484  1
  I  I23  1  0.18133936  0.65633413  0.08134484  1
  I  I24  1  0.31866064  0.15633413  0.58134484  1
  I  I25  1  0.18133936  0.84366587  0.08134484  1
  I  I26  1  0.68133936  0.65633413  0.41865516  1
  I  I27  1  0.81866064  0.34366587  0.91865516  1
  I  I28  1  0.45170107  0.02938344  0.01435920  1
  I  I29  1  0.04829893  0.97061656  0.51435920  1
  I  I30  1  0.54829893  0.52938344  0.98564080  1
  I  I31  1  0.95170107  0.47061656  0.48564080  1
  I  I32  1  0.54829893  0.97061656  0.98564080  1
  I  I33  1  0.95170107  0.02938344  0.48564080  1
  I  I34  1  0.45170107  0.47061656  0.01435920  1
  I  I35  1  0.04829893  0.52938344  0.51435920  1
  I  I36  1  0.74866853  0.25000000  0.93533030  1
  I  I37  1  0.75133147  0.75000000  0.43533030  1
  I  I38  1  0.25133147  0.75000000  0.06466970  1
  I  I39  1  0.24866853  0.25000000  0.56466970  1
  Li  Li40  1  0.03313059  0.38294384  0.66890002  1
  Li  Li41  1  0.46686941  0.61705616  0.16890002  1
  Li  Li42  1  0.96686941  0.88294384  0.33109998  1
  Li  Li43  1  0.53313059  0.11705616  0.83109998  1
  Li  Li44  1  0.96686941  0.61705616  0.33109998  1
  Li  Li45  1  0.53313059  0.38294384  0.83109998  1
  Li  Li46  1  0.03313059  0.11705616  0.66890002  1
  Li  Li47  1  0.46686941  0.88294384  0.16890002  1
  Li  Li48  1  0.49209628  0.50917305  0.14458444  1
  Li  Li49  1  0.00790372  0.49082695  0.64458444  1
  Li  Li50  1  0.50790372  0.00917305  0.85541556  1
  Li  Li51  1  0.99209628  0.99082695  0.35541556  1
  Li  Li52  1  0.50790372  0.49082695  0.85541556  1
  Li  Li53  1  0.99209628  0.50917305  0.35541556  1
  Li  Li54  1  0.49209628  0.99082695  0.14458444  1
  Li  Li55  1  0.00790372  0.00917305  0.64458444  1
  Li  Li56  1  0.94648731  0.25000000  0.91149942  1
  Li  Li57  1  0.55351269  0.75000000  0.41149942  1
  Li  Li58  1  0.05351269  0.75000000  0.08850058  1
  Li  Li59  1  0.44648731  0.25000000  0.58850058  1
  Li  Li60  1  0.03633349  0.90271502  0.23803238  1
  Li  Li61  1  0.46366651  0.09728498  0.73803238  1
  Li  Li62  1  0.96366651  0.40271502  0.76196762  1
  Li  Li63  1  0.53633349  0.59728498  0.26196762  1
  Li  Li64  1  0.96366651  0.09728498  0.76196762  1
  Li  Li65  1  0.53633349  0.90271502  0.26196762  1
  Li  Li66  1  0.03633349  0.59728498  0.23803238  1
  Li  Li67  1  0.46366651  0.40271502  0.73803238  1
  Li  Li68  1  0.12012004  0.25000000  0.71698316  1
  Li  Li69  1  0.37987996  0.75000000  0.21698316  1
  Li  Li70  1  0.87987996  0.75000000  0.28301684  1
  Li  Li71  1  0.62012004  0.25000000  0.78301684  1
  Mg  Mg72  1  0.67434493  0.68561212  0.05196001  1
  Mg  Mg73  1  0.82565507  0.31438788  0.55196001  1
  Mg  Mg74  1  0.32565507  0.18561212  0.94803999  1
  Mg  Mg75  1  0.17434493  0.81438788  0.44803999  1
  Mg  Mg76  1  0.32565507  0.31438788  0.94803999  1
  Mg  Mg77  1  0.17434493  0.68561212  0.44803999  1
  Mg  Mg78  1  0.67434493  0.81438788  0.05196001  1
  Mg  Mg79  1  0.82565507  0.18561212  0.55196001  1
  O  O80  1  0.04275244  0.57270099  0.97543716  1
  O  O81  1  0.45724756  0.42729901  0.47543716  1
  O  O82  1  0.95724756  0.07270099  0.02456284  1
  O  O83  1  0.54275244  0.92729901  0.52456284  1
  O  O84  1  0.95724756  0.42729901  0.02456284  1
  O  O85  1  0.54275244  0.57270099  0.52456284  1
  O  O86  1  0.04275244  0.92729901  0.97543716  1
  O  O87  1  0.45724756  0.07270099  0.47543716  1
  S  S88  1  0.71576711  0.33505702  0.16016551  1
  S  S89  1  0.78423289  0.66494298  0.66016551  1
  S  S90  1  0.28423289  0.83505702  0.83983449  1
  S  S91  1  0.21576711  0.16494298  0.33983449  1
  S  S92  1  0.28423289  0.66494298  0.83983449  1
  S  S93  1  0.21576711  0.33505702  0.33983449  1
  S  S94  1  0.71576711  0.16494298  0.16016551  1
  S  S95  1  0.78423289  0.83505702  0.66016551  1
  S  S96  1  0.00000000  0.00000000  0.00000000  1
  S  S97  1  0.50000000  0.00000000  0.50000000  1
  S  S98  1  0.00000000  0.50000000  0.00000000  1
  S  S99  1  0.50000000  0.50000000  0.50000000  1
