# generated using pymatgen
data_Li2Mg2I3Cl2F
_symmetry_space_group_name_H-M   'P 1'
_cell_length_a   14.73159191
_cell_length_b   14.73159191
_cell_length_c   5.82762487
_cell_angle_alpha   90.00000000
_cell_angle_beta   90.00000000
_cell_angle_gamma   120.00000000
_symmetry_Int_Tables_number   1
_chemical_formula_structural   Li2Mg2I3Cl2F
_chemical_formula_sum   'Li12 Mg12 I18 Cl12 F6'
_cell_volume   1095.27097442
_cell_formula_units_Z   6
loop_
 _symmetry_equiv_pos_site_id
 _symmetry_equiv_pos_as_xyz
  1  'x, y, z'
loop_
 _atom_site_type_symbol
 _atom_site_label
 _atom_site_symmetry_multiplicity
 _atom_site_fract_x
 _atom_site_fract_y
 _atom_site_fract_z
 _atom_site_occupancy
  Cl  Cl0  1  0.89079890  0.78159780  0.25000000  1
  Cl  Cl1  1  0.21840220  0.10920110  0.25000000  1
  Cl  Cl2  1  0.89079890  0.10920110  0.25000000  1
  Cl  Cl3  1  0.10920110  0.21840220  0.75000000  1
  Cl  Cl4  1  0.78159780  0.89079890  0.75000000  1
  Cl  Cl5  1  0.10920110  0.89079890  0.75000000  1
  Cl  Cl6  1  0.50000000  0.00000000  0.00000000  1
  Cl  Cl7  1  0.00000000  0.50000000  0.00000000  1
  Cl  Cl8  1  0.50000000  0.50000000  0.00000000  1
  Cl  Cl9  1  0.50000000  0.00000000  0.50000000  1
  Cl  Cl10  1  0.00000000  0.50000000  0.50000000  1
  Cl  Cl11  1  0.50000000  0.50000000  0.50000000  1
  F  F12  1  0.33333333  0.66666667  0.75000000  1
  F  F13  1  0.66666667  0.33333333  0.25000000  1
  F  F14  1  0.00000000  0.00000000  0.00000000  1
  F  F15  1  0.00000000  0.00000000  0.50000000  1
  F  F16  1  0.33333333  0.66666667  0.25000000  1
  F  F17  1  0.66666667  0.33333333  0.75000000  1
  I  I18  1  0.13200466  0.00000000  -0.00000000  1
  I  I19  1  0.00000000  0.13200466  0.00000000  1
  I  I20  1  -0.13200466  -0.13200466  0.00000000  1
  I  I21  1  -0.13200466  0.00000000  0.50000000  1
  I  I22  1  0.00000000  -0.13200466  0.50000000  1
  I  I23  1  0.13200466  0.13200466  0.50000000  1
  I  I24  1  -0.13200466  0.00000000  0.00000000  1
  I  I25  1  0.00000000  -0.13200466  0.00000000  1
  I  I26  1  0.13200466  0.13200466  -0.00000000  1
  I  I27  1  0.13200466  0.00000000  0.50000000  1
  I  I28  1  0.00000000  0.13200466  0.50000000  1
  I  I29  1  -0.13200466  -0.13200466  0.50000000  1
  I  I30  1  0.83478190  0.66956380  0.25000000  1
  I  I31  1  0.33043620  0.16521810  0.25000000  1
  I  I32  1  0.83478190  0.16521810  0.25000000  1
  I  I33  1  0.16521810  0.33043620  0.75000000  1
  I  I34  1  0.66956380  0.83478190  0.75000000  1
  I  I35  1  0.16521810  0.83478190  0.75000000  1
  Li  Li36  1  0.08718372  0.60856264  0.25000000  1
  Li  Li37  1  0.39143736  0.47862108  0.25000000  1
  Li  Li38  1  0.52137892  0.91281628  0.25000000  1
  Li  Li39  1  0.91281628  0.39143736  0.75000000  1
  Li  Li40  1  0.60856264  0.52137892  0.75000000  1
  Li  Li41  1  0.47862108  0.08718372  0.75000000  1
  Li  Li42  1  0.60856264  0.08718372  0.75000000  1
  Li  Li43  1  0.47862108  0.39143736  0.75000000  1
  Li  Li44  1  0.91281628  0.52137892  0.75000000  1
  Li  Li45  1  0.39143736  0.91281628  0.25000000  1
  Li  Li46  1  0.52137892  0.60856264  0.25000000  1
  Li  Li47  1  0.08718372  0.47862108  0.25000000  1
  Mg  Mg48  1  0.56314704  0.12629408  0.25000000  1
  Mg  Mg49  1  0.87370592  0.43685296  0.25000000  1
  Mg  Mg50  1  0.56314704  0.43685296  0.25000000  1
  Mg  Mg51  1  0.43685296  0.87370592  0.75000000  1
  Mg  Mg52  1  0.12629408  0.56314704  0.75000000  1
  Mg  Mg53  1  0.43685296  0.56314704  0.75000000  1
  Mg  Mg54  1  0.40879249  0.81758499  0.25000000  1
  Mg  Mg55  1  0.18241501  0.59120751  0.25000000  1
  Mg  Mg56  1  0.40879249  0.59120751  0.25000000  1
  Mg  Mg57  1  0.59120751  0.18241501  0.75000000  1
  Mg  Mg58  1  0.81758499  0.40879249  0.75000000  1
  Mg  Mg59  1  0.59120751  0.40879249  0.75000000  1
