# generated using pymatgen
data_Li8Hf3Br8(Cl4O)2
_symmetry_space_group_name_H-M   'P 1'
_cell_length_a   25.83472636
_cell_length_b   25.83472636
_cell_length_c   5.91725007
_cell_angle_alpha   90.00000000
_cell_angle_beta   90.00000000
_cell_angle_gamma   90.00000000
_symmetry_Int_Tables_number   1
_chemical_formula_structural   Li8Hf3Br8(Cl4O)2
_chemical_formula_sum   'Li64 Hf24 Br64 Cl64 O16'
_cell_volume   3949.36847189
_cell_formula_units_Z   8
loop_
 _symmetry_equiv_pos_site_id
 _symmetry_equiv_pos_as_xyz
  1  'x, y, z'
loop_
 _atom_site_type_symbol
 _atom_site_label
 _atom_site_symmetry_multiplicity
 _atom_site_fract_x
 _atom_site_fract_y
 _atom_site_fract_z
 _atom_site_occupancy
  Br  Br0  1  0.68852748  0.93852748  0.12500000  1
  Br  Br1  1  0.81147252  0.06147252  0.62500000  1
  Br  Br2  1  0.31147252  0.43852748  0.37500000  1
  Br  Br3  1  0.18852748  0.56147252  0.87500000  1
  Br  Br4  1  0.31147252  0.06147252  0.87500000  1
  Br  Br5  1  0.18852748  0.93852748  0.37500000  1
  Br  Br6  1  0.68852748  0.56147252  0.62500000  1
  Br  Br7  1  0.81147252  0.43852748  0.12500000  1
  Br  Br8  1  0.18852748  0.43852748  0.62500000  1
  Br  Br9  1  0.31147252  0.56147252  0.12500000  1
  Br  Br10  1  0.81147252  0.93852748  0.87500000  1
  Br  Br11  1  0.68852748  0.06147252  0.37500000  1
  Br  Br12  1  0.81147252  0.56147252  0.37500000  1
  Br  Br13  1  0.68852748  0.43852748  0.87500000  1
  Br  Br14  1  0.18852748  0.06147252  0.12500000  1
  Br  Br15  1  0.31147252  0.93852748  0.62500000  1
  Br  Br16  1  0.05132912  0.70476378  0.16606442  1
  Br  Br17  1  0.44867088  -0.70476378  0.66606442  1
  Br  Br18  1  -0.45476378  0.80132912  0.41606442  1
  Br  Br19  1  0.95476378  0.19867088  0.91606442  1
  Br  Br20  1  0.44867088  0.70476378  -0.16606442  1
  Br  Br21  1  0.05132912  -0.70476378  0.33393558  1
  Br  Br22  1  0.95476378  0.80132912  0.58393558  1
  Br  Br23  1  -0.45476378  0.19867088  0.08393558  1
  Br  Br24  1  -0.05132912  -0.70476378  -0.16606442  1
  Br  Br25  1  0.55132912  0.70476378  0.33393558  1
  Br  Br26  1  1.45476378  0.19867088  0.58393558  1
  Br  Br27  1  0.04523622  0.80132912  0.08393558  1
  Br  Br28  1  0.55132912  -0.70476378  0.16606442  1
  Br  Br29  1  -0.05132912  0.70476378  0.66606442  1
  Br  Br30  1  0.04523622  0.19867088  0.41606442  1
  Br  Br31  1  1.45476378  0.80132912  0.91606442  1
  Br  Br32  1  0.55132912  1.20476378  0.66606442  1
  Br  Br33  1  0.94867088  -0.20476378  1.16606442  1
  Br  Br34  1  0.04523622  1.30132912  0.91606442  1
  Br  Br35  1  1.45476378  0.69867088  1.41606442  1
  Br  Br36  1  0.94867088  1.20476378  0.33393558  1
  Br  Br37  1  0.55132912  -0.20476378  0.83393558  1
  Br  Br38  1  1.45476378  1.30132912  1.08393558  1
  Br  Br39  1  0.04523622  0.69867088  0.58393558  1
  Br  Br40  1  0.44867088  -0.20476378  0.33393558  1
  Br  Br41  1  1.05132912  1.20476378  0.83393558  1
  Br  Br42  1  1.95476378  0.69867088  1.08393558  1
  Br  Br43  1  0.54523622  1.30132912  0.58393558  1
  Br  Br44  1  1.05132912  -0.20476378  0.66606442  1
  Br  Br45  1  0.44867088  1.20476378  1.16606442  1
  Br  Br46  1  0.54523622  0.69867088  0.91606442  1
  Br  Br47  1  1.95476378  1.30132912  1.41606442  1
  Br  Br48  1  0.42551635  0.67551635  0.12500000  1
  Br  Br49  1  0.07448365  0.32448365  0.62500000  1
  Br  Br50  1  0.57448365  0.17551635  0.37500000  1
  Br  Br51  1  0.92551635  0.82448365  0.87500000  1
  Br  Br52  1  0.57448365  0.32448365  0.87500000  1
  Br  Br53  1  0.92551635  0.67551635  0.37500000  1
  Br  Br54  1  0.42551635  0.82448365  0.62500000  1
  Br  Br55  1  0.07448365  0.17551635  0.12500000  1
  Br  Br56  1  0.92551635  0.17551635  0.62500000  1
  Br  Br57  1  0.57448365  0.82448365  0.12500000  1
  Br  Br58  1  0.07448365  0.67551635  0.87500000  1
  Br  Br59  1  0.42551635  0.32448365  0.37500000  1
  Br  Br60  1  0.07448365  0.82448365  0.37500000  1
  Br  Br61  1  0.42551635  0.17551635  0.87500000  1
  Br  Br62  1  0.92551635  0.32448365  0.12500000  1
  Br  Br63  1  0.57448365  0.67551635  0.62500000  1
  Cl  Cl64  1  0.60350380  0.95620548  0.81731291  1
  Cl  Cl65  1  0.89649620  0.04379452  0.31731291  1
  Cl  Cl66  1  0.29379452  0.35350380  0.06731291  1
  Cl  Cl67  1  0.20620548  0.64649620  0.56731291  1
  Cl  Cl68  1  0.89649620  0.95620548  0.18268709  1
  Cl  Cl69  1  0.60350380  0.04379452  0.68268709  1
  Cl  Cl70  1  0.20620548  0.35350380  0.93268709  1
  Cl  Cl71  1  0.29379452  0.64649620  0.43268709  1
  Cl  Cl72  1  0.39649620  0.04379452  0.18268709  1
  Cl  Cl73  1  0.10350380  0.95620548  0.68268709  1
  Cl  Cl74  1  0.70620548  0.64649620  0.93268709  1
  Cl  Cl75  1  0.79379452  0.35350380  0.43268709  1
  Cl  Cl76  1  0.10350380  0.04379452  0.81731291  1
  Cl  Cl77  1  0.39649620  0.95620548  0.31731291  1
  Cl  Cl78  1  0.79379452  0.64649620  0.06731291  1
  Cl  Cl79  1  0.70620548  0.35350380  0.56731291  1
  Cl  Cl80  1  0.10350380  0.45620548  0.31731291  1
  Cl  Cl81  1  0.39649620  0.54379452  0.81731291  1
  Cl  Cl82  1  0.79379452  0.85350380  0.56731291  1
  Cl  Cl83  1  0.70620548  0.14649620  0.06731291  1
  Cl  Cl84  1  0.39649620  0.45620548  0.68268709  1
  Cl  Cl85  1  0.10350380  0.54379452  0.18268709  1
  Cl  Cl86  1  0.70620548  0.85350380  0.43268709  1
  Cl  Cl87  1  0.79379452  0.14649620  0.93268709  1
  Cl  Cl88  1  0.89649620  0.54379452  0.68268709  1
  Cl  Cl89  1  0.60350380  0.45620548  0.18268709  1
  Cl  Cl90  1  0.20620548  0.14649620  0.43268709  1
  Cl  Cl91  1  0.29379452  0.85350380  0.93268709  1
  Cl  Cl92  1  0.60350380  0.54379452  0.31731291  1
  Cl  Cl93  1  0.89649620  0.45620548  0.81731291  1
  Cl  Cl94  1  0.29379452  0.14649620  0.56731291  1
  Cl  Cl95  1  0.20620548  0.85350380  0.06731291  1
  Cl  Cl96  1  0.13332427  0.94575402  0.10007866  1
  Cl  Cl97  1  0.36667573  0.05424598  0.60007866  1
  Cl  Cl98  1  0.30424598  0.88332427  0.35007866  1
  Cl  Cl99  1  0.19575402  0.11667573  0.85007866  1
  Cl  Cl100  1  0.36667573  0.94575402  0.89992134  1
  Cl  Cl101  1  0.13332427  0.05424598  0.39992134  1
  Cl  Cl102  1  0.19575402  0.88332427  0.64992134  1
  Cl  Cl103  1  0.30424598  0.11667573  0.14992134  1
  Cl  Cl104  1  0.86667573  0.05424598  0.89992134  1
  Cl  Cl105  1  0.63332427  0.94575402  0.39992134  1
  Cl  Cl106  1  0.69575402  0.11667573  0.64992134  1
  Cl  Cl107  1  0.80424598  0.88332427  0.14992134  1
  Cl  Cl108  1  0.63332427  0.05424598  0.10007866  1
  Cl  Cl109  1  0.86667573  0.94575402  0.60007866  1
  Cl  Cl110  1  0.80424598  0.11667573  0.35007866  1
  Cl  Cl111  1  0.69575402  0.88332427  0.85007866  1
  Cl  Cl112  1  0.63332427  0.44575402  0.60007866  1
  Cl  Cl113  1  0.86667573  0.55424598  0.10007866  1
  Cl  Cl114  1  0.80424598  0.38332427  0.85007866  1
  Cl  Cl115  1  0.69575402  0.61667573  0.35007866  1
  Cl  Cl116  1  0.86667573  0.44575402  0.39992134  1
  Cl  Cl117  1  0.63332427  0.55424598  0.89992134  1
  Cl  Cl118  1  0.69575402  0.38332427  0.14992134  1
  Cl  Cl119  1  0.80424598  0.61667573  0.64992134  1
  Cl  Cl120  1  0.36667573  0.55424598  0.39992134  1
  Cl  Cl121  1  0.13332427  0.44575402  0.89992134  1
  Cl  Cl122  1  0.19575402  0.61667573  0.14992134  1
  Cl  Cl123  1  0.30424598  0.38332427  0.64992134  1
  Cl  Cl124  1  0.13332427  0.55424598  0.60007866  1
  Cl  Cl125  1  0.36667573  0.44575402  0.10007866  1
  Cl  Cl126  1  0.30424598  0.61667573  0.85007866  1
  Cl  Cl127  1  0.19575402  0.38332427  0.35007866  1
  Hf  Hf128  1  0.00000000  0.00000000  0.00000000  1
  Hf  Hf129  1  0.50000000  0.00000000  0.50000000  1
  Hf  Hf130  1  0.25000000  0.75000000  0.25000000  1
  Hf  Hf131  1  0.25000000  0.25000000  0.75000000  1
  Hf  Hf132  1  0.50000000  0.00000000  0.00000000  1
  Hf  Hf133  1  0.00000000  0.00000000  0.50000000  1
  Hf  Hf134  1  0.25000000  0.75000000  0.75000000  1
  Hf  Hf135  1  0.25000000  0.25000000  0.25000000  1
  Hf  Hf136  1  0.50000000  0.50000000  0.50000000  1
  Hf  Hf137  1  0.00000000  0.50000000  0.00000000  1
  Hf  Hf138  1  0.75000000  0.25000000  0.75000000  1
  Hf  Hf139  1  0.75000000  0.75000000  0.25000000  1
  Hf  Hf140  1  0.00000000  0.50000000  0.50000000  1
  Hf  Hf141  1  0.50000000  0.50000000  0.00000000  1
  Hf  Hf142  1  0.75000000  0.25000000  0.25000000  1
  Hf  Hf143  1  0.75000000  0.75000000  0.75000000  1
  Hf  Hf144  1  0.00000000  0.25000000  0.12500000  1
  Hf  Hf145  1  0.00000000  0.75000000  0.37500000  1
  Hf  Hf146  1  0.00000000  0.75000000  0.87500000  1
  Hf  Hf147  1  0.00000000  0.25000000  0.62500000  1
  Hf  Hf148  1  0.50000000  0.75000000  0.62500000  1
  Hf  Hf149  1  0.50000000  0.25000000  0.87500000  1
  Hf  Hf150  1  0.50000000  0.25000000  0.37500000  1
  Hf  Hf151  1  0.50000000  0.75000000  0.12500000  1
  Li  Li152  1  0.97778482  0.00000000  0.25000000  1
  Li  Li153  1  0.52221518  0.00000000  0.75000000  1
  Li  Li154  1  0.25000000  0.72778482  0.50000000  1
  Li  Li155  1  0.25000000  0.27221518  -0.00000000  1
  Li  Li156  1  0.02221518  0.00000000  0.75000000  1
  Li  Li157  1  0.47778482  -0.00000000  0.25000000  1
  Li  Li158  1  0.75000000  0.27221518  0.50000000  1
  Li  Li159  1  0.75000000  0.72778482  0.00000000  1
  Li  Li160  1  0.47778482  0.50000000  0.75000000  1
  Li  Li161  1  0.02221518  0.50000000  0.25000000  1
  Li  Li162  1  0.75000000  0.22778482  0.00000000  1
  Li  Li163  1  0.75000000  0.77221518  0.50000000  1
  Li  Li164  1  0.52221518  0.50000000  0.25000000  1
  Li  Li165  1  0.97778482  0.50000000  0.75000000  1
  Li  Li166  1  0.25000000  0.77221518  0.00000000  1
  Li  Li167  1  0.25000000  0.22778482  0.50000000  1
  Li  Li168  1  0.37557800  0.13300468  0.63516564  1
  Li  Li169  1  0.12442200  0.86699532  0.13516564  1
  Li  Li170  1  0.11699532  0.12557800  0.88516564  1
  Li  Li171  1  0.38300468  0.87442200  0.38516564  1
  Li  Li172  1  0.12442200  0.13300468  0.36483436  1
  Li  Li173  1  0.37557800  0.86699532  0.86483436  1
  Li  Li174  1  0.38300468  0.12557800  0.11483436  1
  Li  Li175  1  0.11699532  0.87442200  0.61483436  1
  Li  Li176  1  0.62442200  0.86699532  0.36483436  1
  Li  Li177  1  0.87557800  0.13300468  0.86483436  1
  Li  Li178  1  0.88300468  0.87442200  0.11483436  1
  Li  Li179  1  0.61699532  0.12557800  0.61483436  1
  Li  Li180  1  0.87557800  0.86699532  0.63516564  1
  Li  Li181  1  0.62442200  0.13300468  0.13516564  1
  Li  Li182  1  0.61699532  0.87442200  0.88516564  1
  Li  Li183  1  0.88300468  0.12557800  0.38516564  1
  Li  Li184  1  0.87557800  0.63300468  0.13516564  1
  Li  Li185  1  0.62442200  0.36699532  0.63516564  1
  Li  Li186  1  0.61699532  0.62557800  0.38516564  1
  Li  Li187  1  0.88300468  0.37442200  0.88516564  1
  Li  Li188  1  0.62442200  0.63300468  0.86483436  1
  Li  Li189  1  0.87557800  0.36699532  0.36483436  1
  Li  Li190  1  0.88300468  0.62557800  0.61483436  1
  Li  Li191  1  0.61699532  0.37442200  0.11483436  1
  Li  Li192  1  0.12442200  0.36699532  0.86483436  1
  Li  Li193  1  0.37557800  0.63300468  0.36483436  1
  Li  Li194  1  0.38300468  0.37442200  0.61483436  1
  Li  Li195  1  0.11699532  0.62557800  0.11483436  1
  Li  Li196  1  0.37557800  0.36699532  0.13516564  1
  Li  Li197  1  0.12442200  0.63300468  0.63516564  1
  Li  Li198  1  0.11699532  0.37442200  0.38516564  1
  Li  Li199  1  0.38300468  0.62557800  0.88516564  1
  Li  Li200  1  0.64362255  0.89362255  0.12500000  1
  Li  Li201  1  0.85637745  0.10637745  0.62500000  1
  Li  Li202  1  0.35637745  0.39362255  0.37500000  1
  Li  Li203  1  0.14362255  0.60637745  0.87500000  1
  Li  Li204  1  0.35637745  0.10637745  0.87500000  1
  Li  Li205  1  0.14362255  0.89362255  0.37500000  1
  Li  Li206  1  0.64362255  0.60637745  0.62500000  1
  Li  Li207  1  0.85637745  0.39362255  0.12500000  1
  Li  Li208  1  0.14362255  0.39362255  0.62500000  1
  Li  Li209  1  0.35637745  0.60637745  0.12500000  1
  Li  Li210  1  0.85637745  0.89362255  0.87500000  1
  Li  Li211  1  0.64362255  0.10637745  0.37500000  1
  Li  Li212  1  0.85637745  0.60637745  0.37500000  1
  Li  Li213  1  0.64362255  0.39362255  0.87500000  1
  Li  Li214  1  0.14362255  0.10637745  0.12500000  1
  Li  Li215  1  0.35637745  0.89362255  0.62500000  1
  O  O216  1  0.93483069  0.00000000  0.25000000  1
  O  O217  1  0.56516931  -0.00000000  0.75000000  1
  O  O218  1  0.25000000  0.68483069  0.50000000  1
  O  O219  1  0.25000000  0.31516931  0.00000000  1
  O  O220  1  0.06516931  0.00000000  0.75000000  1
  O  O221  1  0.43483069  -0.00000000  0.25000000  1
  O  O222  1  0.75000000  0.31516931  0.50000000  1
  O  O223  1  0.75000000  0.68483069  0.00000000  1
  O  O224  1  0.43483069  0.50000000  0.75000000  1
  O  O225  1  0.06516931  0.50000000  0.25000000  1
  O  O226  1  0.75000000  0.18483069  0.00000000  1
  O  O227  1  0.75000000  0.81516931  0.50000000  1
  O  O228  1  0.56516931  0.50000000  0.25000000  1
  O  O229  1  0.93483069  0.50000000  0.75000000  1
  O  O230  1  0.25000000  0.81516931  0.00000000  1
  O  O231  1  0.25000000  0.18483069  0.50000000  1
