# generated using pymatgen
data_Li3OF
_symmetry_space_group_name_H-M   'P 1'
_cell_length_a   7.86078314
_cell_length_b   7.86078314
_cell_length_c   12.57237991
_cell_angle_alpha   90.00000000
_cell_angle_beta   90.00000000
_cell_angle_gamma   120.00000000
_symmetry_Int_Tables_number   1
_chemical_formula_structural   Li3OF
_chemical_formula_sum   'Li36 O12 F12'
_cell_volume   672.79035616
_cell_formula_units_Z   12
loop_
 _symmetry_equiv_pos_site_id
 _symmetry_equiv_pos_as_xyz
  1  'x, y, z'
loop_
 _atom_site_type_symbol
 _atom_site_label
 _atom_site_symmetry_multiplicity
 _atom_site_fract_x
 _atom_site_fract_y
 _atom_site_fract_z
 _atom_site_occupancy
  F  F0  1  0.50000000  0.00000000  0.50000000  1
  F  F1  1  0.00000000  0.50000000  0.50000000  1
  F  F2  1  0.50000000  0.50000000  0.50000000  1
  F  F3  1  0.16666667  0.33333333  0.83333333  1
  F  F4  1  0.66666667  0.83333333  0.83333333  1
  F  F5  1  0.16666667  0.83333333  0.83333333  1
  F  F6  1  0.83333333  0.66666667  0.16666667  1
  F  F7  1  0.33333333  0.16666667  0.16666667  1
  F  F8  1  0.83333333  0.16666667  0.16666667  1
  F  F9  1  0.00000000  0.00000000  0.50000000  1
  F  F10  1  0.66666667  0.33333333  0.83333333  1
  F  F11  1  0.33333333  0.66666667  0.16666667  1
  Li  Li12  1  0.09185880  -0.09185880  0.98542670  1
  Li  Li13  1  0.09185880  0.18371759  0.98542670  1
  Li  Li14  1  -0.18371759  -0.09185880  0.98542670  1
  Li  Li15  1  -0.09185880  0.09185880  -0.98542670  1
  Li  Li16  1  0.18371759  0.09185880  -0.98542670  1
  Li  Li17  1  -0.09185880  -0.18371759  -0.98542670  1
  Li  Li18  1  0.75852546  0.24147454  1.31876003  1
  Li  Li19  1  0.75852546  0.51705093  1.31876003  1
  Li  Li20  1  0.48294907  0.24147454  1.31876003  1
  Li  Li21  1  0.57480787  0.42519213  -0.65209337  1
  Li  Li22  1  0.85038426  0.42519213  -0.65209337  1
  Li  Li23  1  0.57480787  0.14961574  -0.65209337  1
  Li  Li24  1  0.42519213  0.57480787  1.65209337  1
  Li  Li25  1  0.42519213  0.85038426  1.65209337  1
  Li  Li26  1  0.14961574  0.57480787  1.65209337  1
  Li  Li27  1  0.24147454  0.75852546  -0.31876003  1
  Li  Li28  1  0.51705093  0.75852546  -0.31876003  1
  Li  Li29  1  0.24147454  0.48294907  -0.31876003  1
  Li  Li30  1  0.66368329  0.00000000  0.00000000  1
  Li  Li31  1  0.00000000  0.66368329  0.00000000  1
  Li  Li32  1  0.33631671  0.33631671  0.00000000  1
  Li  Li33  1  0.33631671  0.00000000  0.00000000  1
  Li  Li34  1  0.00000000  0.33631671  0.00000000  1
  Li  Li35  1  0.66368329  0.66368329  0.00000000  1
  Li  Li36  1  0.33034996  0.33333333  0.33333333  1
  Li  Li37  1  0.66666667  0.99701662  0.33333333  1
  Li  Li38  1  0.00298338  0.66965004  0.33333333  1
  Li  Li39  1  0.00298338  0.33333333  0.33333333  1
  Li  Li40  1  0.66666667  0.66965004  0.33333333  1
  Li  Li41  1  0.33034996  0.99701662  0.33333333  1
  Li  Li42  1  0.99701662  0.66666667  0.66666667  1
  Li  Li43  1  0.33333333  0.33034996  0.66666667  1
  Li  Li44  1  0.66965004  0.00298338  0.66666667  1
  Li  Li45  1  0.66965004  0.66666667  0.66666667  1
  Li  Li46  1  0.33333333  0.00298338  0.66666667  1
  Li  Li47  1  0.99701662  0.33034996  0.66666667  1
  O  O48  1  0.50000000  0.00000000  0.00000000  1
  O  O49  1  0.00000000  0.50000000  0.00000000  1
  O  O50  1  0.50000000  0.50000000  0.00000000  1
  O  O51  1  0.16666667  0.33333333  0.33333333  1
  O  O52  1  0.66666667  0.83333333  0.33333333  1
  O  O53  1  0.16666667  0.83333333  0.33333333  1
  O  O54  1  0.83333333  0.66666667  0.66666667  1
  O  O55  1  0.33333333  0.16666667  0.66666667  1
  O  O56  1  0.83333333  0.16666667  0.66666667  1
  O  O57  1  0.00000000  0.00000000  0.00000000  1
  O  O58  1  0.66666667  0.33333333  0.33333333  1
  O  O59  1  0.33333333  0.66666667  0.66666667  1
