# generated using pymatgen
data_LiTiIO2
_symmetry_space_group_name_H-M   'P 1'
_cell_length_a   4.32856881
_cell_length_b   4.91056577
_cell_length_c   5.01749829
_cell_angle_alpha   94.37692218
_cell_angle_beta   87.98834194
_cell_angle_gamma   94.80618339
_symmetry_Int_Tables_number   1
_chemical_formula_structural   LiTiIO2
_chemical_formula_sum   'Li1 Ti1 I1 O2'
_cell_volume   105.92135776
_cell_formula_units_Z   1
loop_
 _symmetry_equiv_pos_site_id
 _symmetry_equiv_pos_as_xyz
  1  'x, y, z'
loop_
 _atom_site_type_symbol
 _atom_site_label
 _atom_site_symmetry_multiplicity
 _atom_site_fract_x
 _atom_site_fract_y
 _atom_site_fract_z
 _atom_site_occupancy
  Li  Li0  1  0.00000000  0.00000000  0.00000000  1
  Ti  Ti1  1  0.50000000  0.50000000  0.50000000  1
  O  O2  1  0.50000000  0.50000000  0.00000000  1
  O  O3  1  0.50000000  0.00000000  0.50000000  1
  I  I4  1  0.00000000  0.50000000  0.50000000  1
