# generated using pymatgen
data_Li4SiP4(S3Cl)4
_symmetry_space_group_name_H-M   'P 1'
_cell_length_a   16.50622876
_cell_length_b   5.95221977
_cell_length_c   8.39609726
_cell_angle_alpha   90.00000000
_cell_angle_beta   90.00000000
_cell_angle_gamma   90.00000000
_symmetry_Int_Tables_number   1
_chemical_formula_structural   Li4SiP4(S3Cl)4
_chemical_formula_sum   'Li8 Si2 P8 S24 Cl8'
_cell_volume   824.90565076
_cell_formula_units_Z   2
loop_
 _symmetry_equiv_pos_site_id
 _symmetry_equiv_pos_as_xyz
  1  'x, y, z'
loop_
 _atom_site_type_symbol
 _atom_site_label
 _atom_site_symmetry_multiplicity
 _atom_site_fract_x
 _atom_site_fract_y
 _atom_site_fract_z
 _atom_site_occupancy
  Cl  Cl0  1  0.56591215  0.69942199  0.50000000  1
  Cl  Cl1  1  0.43408785  0.30057801  0.50000000  1
  Cl  Cl2  1  0.93408785  0.19942199  0.50000000  1
  Cl  Cl3  1  0.06591215  0.80057801  0.50000000  1
  Cl  Cl4  1  0.59934622  0.51947093  0.50000000  1
  Cl  Cl5  1  0.40065378  0.48052907  0.50000000  1
  Cl  Cl6  1  0.90065378  0.01947093  0.50000000  1
  Cl  Cl7  1  0.09934622  0.98052907  0.50000000  1
  Li  Li8  1  0.10335920  0.47632853  0.00000000  1
  Li  Li9  1  0.89664080  0.52367147  -0.00000000  1
  Li  Li10  1  0.39664080  0.97632853  0.00000000  1
  Li  Li11  1  0.60335920  0.02367147  0.00000000  1
  Li  Li12  1  0.25856932  0.90855895  0.00000000  1
  Li  Li13  1  0.74143068  0.09144105  -0.00000000  1
  Li  Li14  1  0.24143068  0.40855895  0.00000000  1
  Li  Li15  1  0.75856932  0.59144105  -0.00000000  1
  P  P16  1  0.08235684  0.67762144  0.16420119  1
  P  P17  1  -0.08235684  -0.67762144  0.16420119  1
  P  P18  1  0.41764316  1.17762144  -0.16420119  1
  P  P19  1  0.58235684  -0.17762144  -0.16420119  1
  P  P20  1  -0.08235684  -0.67762144  -0.16420119  1
  P  P21  1  0.08235684  0.67762144  -0.16420119  1
  P  P22  1  0.58235684  -0.17762144  0.16420119  1
  P  P23  1  0.41764316  1.17762144  0.16420119  1
  S  S24  1  0.88444535  0.09217656  0.00000000  1
  S  S25  1  0.11555465  0.90782344  0.00000000  1
  S  S26  1  0.61555465  0.59217656  -0.00000000  1
  S  S27  1  0.38444535  0.40782344  0.00000000  1
  S  S28  1  0.41195433  0.81886723  0.09904488  1
  S  S29  1  0.58804567  0.18113277  0.09904488  1
  S  S30  1  0.08804567  0.31886723  0.90095512  1
  S  S31  1  0.91195433  0.68113277  0.90095512  1
  S  S32  1  0.58804567  0.18113277  0.90095512  1
  S  S33  1  0.41195433  0.81886723  0.90095512  1
  S  S34  1  0.91195433  0.68113277  0.09904488  1
  S  S35  1  0.08804567  0.31886723  0.09904488  1
  S  S36  1  0.00000000  0.50000000  0.00000000  1
  S  S37  1  0.50000000  0.00000000  0.00000000  1
  S  S38  1  0.00000000  0.50000000  0.76735622  1
  S  S39  1  0.50000000  0.00000000  0.23264378  1
  S  S40  1  0.00000000  0.50000000  0.23264378  1
  S  S41  1  0.50000000  0.00000000  0.76735622  1
  S  S42  1  0.00000000  0.00000000  0.77887077  1
  S  S43  1  0.50000000  0.50000000  0.22112923  1
  S  S44  1  0.00000000  0.00000000  0.22112923  1
  S  S45  1  0.50000000  0.50000000  0.77887077  1
  S  S46  1  0.00000000  0.50000000  0.50000000  1
  S  S47  1  0.50000000  0.00000000  0.50000000  1
  Si  Si48  1  0.00000000  0.00000000  0.50000000  1
  Si  Si49  1  0.50000000  0.50000000  0.50000000  1
