# generated using pymatgen
data_LiF
_symmetry_space_group_name_H-M   'P 1'
_cell_length_a   9.18941166
_cell_length_b   9.18941166
_cell_length_c   16.61481208
_cell_angle_alpha   90.00000000
_cell_angle_beta   90.00000000
_cell_angle_gamma   120.00000000
_symmetry_Int_Tables_number   1
_chemical_formula_structural   LiF
_chemical_formula_sum   'Li36 F36'
_cell_volume   1215.07050733
_cell_formula_units_Z   36
loop_
 _symmetry_equiv_pos_site_id
 _symmetry_equiv_pos_as_xyz
  1  'x, y, z'
loop_
 _atom_site_type_symbol
 _atom_site_label
 _atom_site_symmetry_multiplicity
 _atom_site_fract_x
 _atom_site_fract_y
 _atom_site_fract_z
 _atom_site_occupancy
  F  F0  1  0.33333333  0.66666667  0.90605945  1
  F  F1  1  0.66666667  0.33333333  0.40605945  1
  F  F2  1  0.66666667  0.33333333  0.09394055  1
  F  F3  1  0.33333333  0.66666667  0.59394055  1
  F  F4  1  0.00000000  0.00000000  0.00000000  1
  F  F5  1  0.00000000  0.00000000  0.50000000  1
  F  F6  1  0.76186688  0.14940182  0.07977782  1
  F  F7  1  -0.14940182  0.61246506  0.07977782  1
  F  F8  1  -0.61246506  -0.76186688  0.07977782  1
  F  F9  1  -0.76186688  -0.14940182  0.57977782  1
  F  F10  1  0.14940182  -0.61246506  0.57977782  1
  F  F11  1  0.61246506  0.76186688  0.57977782  1
  F  F12  1  -0.76186688  -0.14940182  -0.07977782  1
  F  F13  1  0.14940182  -0.61246506  -0.07977782  1
  F  F14  1  0.61246506  0.76186688  -0.07977782  1
  F  F15  1  0.76186688  0.14940182  0.42022218  1
  F  F16  1  -0.14940182  0.61246506  0.42022218  1
  F  F17  1  -0.61246506  -0.76186688  0.42022218  1
  F  F18  1  0.66666667  0.33333333  0.25000000  1
  F  F19  1  0.33333333  0.66666667  0.75000000  1
  F  F20  1  0.99040730  0.50550277  0.20294418  1
  F  F21  1  0.49449723  0.48490453  0.20294418  1
  F  F22  1  0.51509547  0.00959270  0.20294418  1
  F  F23  1  0.00959270  0.49449723  0.70294418  1
  F  F24  1  0.50550277  0.51509547  0.70294418  1
  F  F25  1  0.48490453  0.99040730  0.70294418  1
  F  F26  1  0.00959270  0.49449723  0.79705582  1
  F  F27  1  0.50550277  0.51509547  0.79705582  1
  F  F28  1  0.48490453  0.99040730  0.79705582  1
  F  F29  1  0.99040730  0.50550277  0.29705582  1
  F  F30  1  0.49449723  0.48490453  0.29705582  1
  F  F31  1  0.51509547  0.00959270  0.29705582  1
  F  F32  1  0.00000000  0.00000000  0.59063753  1
  F  F33  1  0.00000000  0.00000000  0.09063753  1
  F  F34  1  0.00000000  0.00000000  0.40936247  1
  F  F35  1  0.00000000  0.00000000  0.90936247  1
  Li  Li36  1  0.12010747  0.84498556  0.89022233  1
  Li  Li37  1  0.15501444  0.27512191  0.89022233  1
  Li  Li38  1  0.72487809  0.87989253  0.89022233  1
  Li  Li39  1  0.87989253  0.15501444  0.39022233  1
  Li  Li40  1  0.84498556  0.72487809  0.39022233  1
  Li  Li41  1  0.27512191  0.12010747  0.39022233  1
  Li  Li42  1  0.87989253  0.15501444  0.10977767  1
  Li  Li43  1  0.84498556  0.72487809  0.10977767  1
  Li  Li44  1  0.27512191  0.12010747  0.10977767  1
  Li  Li45  1  0.12010747  0.84498556  0.60977767  1
  Li  Li46  1  0.15501444  0.27512191  0.60977767  1
  Li  Li47  1  0.72487809  0.87989253  0.60977767  1
  Li  Li48  1  0.84379092  0.35052445  0.25000000  1
  Li  Li49  1  0.64947555  0.49326646  0.25000000  1
  Li  Li50  1  0.50673354  0.15620908  0.25000000  1
  Li  Li51  1  0.15620908  0.64947555  0.75000000  1
  Li  Li52  1  0.35052445  0.50673354  0.75000000  1
  Li  Li53  1  0.49326646  0.84379092  0.75000000  1
  Li  Li54  1  0.55161570  0.64398834  0.01754845  1
  Li  Li55  1  0.35601166  0.90762736  0.01754845  1
  Li  Li56  1  0.09237264  0.44838430  0.01754845  1
  Li  Li57  1  0.44838430  0.35601166  0.51754845  1
  Li  Li58  1  0.64398834  0.09237264  0.51754845  1
  Li  Li59  1  0.90762736  0.55161570  0.51754845  1
  Li  Li60  1  0.44838430  0.35601166  0.98245155  1
  Li  Li61  1  0.64398834  0.09237264  0.98245155  1
  Li  Li62  1  0.90762736  0.55161570  0.98245155  1
  Li  Li63  1  0.55161570  0.64398834  0.48245155  1
  Li  Li64  1  0.35601166  0.90762736  0.48245155  1
  Li  Li65  1  0.09237264  0.44838430  0.48245155  1
  Li  Li66  1  0.85364369  0.78120254  0.25000000  1
  Li  Li67  1  0.21879746  0.07244114  0.25000000  1
  Li  Li68  1  0.92755886  0.14635631  0.25000000  1
  Li  Li69  1  0.14635631  0.21879746  0.75000000  1
  Li  Li70  1  0.78120254  0.92755886  0.75000000  1
  Li  Li71  1  0.07244114  0.85364369  0.75000000  1
