# generated using pymatgen
data_Li6Ca2Mg3Al12(Cl12F)4
_symmetry_space_group_name_H-M   'P 1'
_cell_length_a   11.78679853
_cell_length_b   11.78679853
_cell_length_c   18.08918513
_cell_angle_alpha   90.00000000
_cell_angle_beta   90.00000000
_cell_angle_gamma   120.00000000
_symmetry_Int_Tables_number   1
_chemical_formula_structural   Li6Ca2Mg3Al12(Cl12F)4
_chemical_formula_sum   'Li18 Ca6 Mg9 Al36 Cl144 F12'
_cell_volume   2176.41322128
_cell_formula_units_Z   3
loop_
 _symmetry_equiv_pos_site_id
 _symmetry_equiv_pos_as_xyz
  1  'x, y, z'
loop_
 _atom_site_type_symbol
 _atom_site_label
 _atom_site_symmetry_multiplicity
 _atom_site_fract_x
 _atom_site_fract_y
 _atom_site_fract_z
 _atom_site_occupancy
  Al  Al0  1  0.33654089  0.00000000  0.00000000  1
  Al  Al1  1  0.00000000  0.33654089  0.00000000  1
  Al  Al2  1  0.66345911  0.66345911  0.00000000  1
  Al  Al3  1  0.66345911  0.00000000  0.00000000  1
  Al  Al4  1  0.00000000  0.66345911  0.00000000  1
  Al  Al5  1  0.33654089  0.33654089  0.00000000  1
  Al  Al6  1  0.00320756  0.33333333  0.33333333  1
  Al  Al7  1  0.66666667  0.66987422  0.33333333  1
  Al  Al8  1  0.33012578  0.99679244  0.33333333  1
  Al  Al9  1  0.33012578  0.33333333  0.33333333  1
  Al  Al10  1  0.66666667  0.99679244  0.33333333  1
  Al  Al11  1  0.00320756  0.66987422  0.33333333  1
  Al  Al12  1  0.66987422  0.66666667  0.66666667  1
  Al  Al13  1  0.33333333  0.00320756  0.66666667  1
  Al  Al14  1  0.99679244  0.33012578  0.66666667  1
  Al  Al15  1  0.99679244  0.66666667  0.66666667  1
  Al  Al16  1  0.33333333  0.33012578  0.66666667  1
  Al  Al17  1  0.66987422  0.00320756  0.66666667  1
  Al  Al18  1  0.37255339  0.62744661  0.04908244  1
  Al  Al19  1  0.37255339  0.74510678  0.04908244  1
  Al  Al20  1  0.25489322  0.62744661  0.04908244  1
  Al  Al21  1  0.62744661  0.37255339  0.95091756  1
  Al  Al22  1  0.74510678  0.37255339  0.95091756  1
  Al  Al23  1  0.62744661  0.25489322  0.95091756  1
  Al  Al24  1  0.03922005  0.96077995  0.38241577  1
  Al  Al25  1  0.03922005  0.07844011  0.38241577  1
  Al  Al26  1  0.92155989  0.96077995  0.38241577  1
  Al  Al27  1  0.29411328  0.70588672  0.28425089  1
  Al  Al28  1  0.41177344  0.70588672  0.28425089  1
  Al  Al29  1  0.29411328  0.58822656  0.28425089  1
  Al  Al30  1  0.70588672  0.29411328  0.71574911  1
  Al  Al31  1  0.70588672  0.41177344  0.71574911  1
  Al  Al32  1  0.58822656  0.29411328  0.71574911  1
  Al  Al33  1  0.96077995  0.03922005  0.61758423  1
  Al  Al34  1  0.07844011  0.03922005  0.61758423  1
  Al  Al35  1  0.96077995  0.92155989  0.61758423  1
  Ca  Ca36  1  0.00000000  0.00000000  0.77956296  1
  Ca  Ca37  1  0.00000000  0.00000000  0.22043704  1
  Ca  Ca38  1  0.66666667  0.33333333  0.11289630  1
  Ca  Ca39  1  0.66666667  0.33333333  0.55377037  1
  Ca  Ca40  1  0.33333333  0.66666667  0.44622963  1
  Ca  Ca41  1  0.33333333  0.66666667  0.88710370  1
  Cl  Cl42  1  0.11233286  0.88766714  0.68254186  1
  Cl  Cl43  1  0.11233286  0.22466572  0.68254186  1
  Cl  Cl44  1  0.77533428  0.88766714  0.68254186  1
  Cl  Cl45  1  0.88766714  0.11233286  0.31745814  1
  Cl  Cl46  1  0.22466572  0.11233286  0.31745814  1
  Cl  Cl47  1  0.88766714  0.77533428  0.31745814  1
  Cl  Cl48  1  0.77899953  0.22100047  0.01587520  1
  Cl  Cl49  1  0.77899953  0.55799906  0.01587520  1
  Cl  Cl50  1  0.44200094  0.22100047  0.01587520  1
  Cl  Cl51  1  0.55433380  0.44566620  0.65079147  1
  Cl  Cl52  1  0.89133239  0.44566620  0.65079147  1
  Cl  Cl53  1  0.55433380  0.10866761  0.65079147  1
  Cl  Cl54  1  0.44566620  0.55433380  0.34920853  1
  Cl  Cl55  1  0.44566620  0.89133239  0.34920853  1
  Cl  Cl56  1  0.10866761  0.55433380  0.34920853  1
  Cl  Cl57  1  0.22100047  0.77899953  0.98412480  1
  Cl  Cl58  1  0.55799906  0.77899953  0.98412480  1
  Cl  Cl59  1  0.22100047  0.44200094  0.98412480  1
  Cl  Cl60  1  0.57917844  0.00000000  0.50000000  1
  Cl  Cl61  1  0.00000000  0.57917844  0.50000000  1
  Cl  Cl62  1  0.42082156  0.42082156  0.50000000  1
  Cl  Cl63  1  0.42082156  -0.00000000  0.50000000  1
  Cl  Cl64  1  0.00000000  0.42082156  0.50000000  1
  Cl  Cl65  1  0.57917844  0.57917844  0.50000000  1
  Cl  Cl66  1  0.24584510  0.33333333  0.83333333  1
  Cl  Cl67  1  0.66666667  0.91251177  0.83333333  1
  Cl  Cl68  1  0.08748823  0.75415490  0.83333333  1
  Cl  Cl69  1  0.08748823  0.33333333  0.83333333  1
  Cl  Cl70  1  0.66666667  0.75415490  0.83333333  1
  Cl  Cl71  1  0.24584510  0.91251177  0.83333333  1
  Cl  Cl72  1  0.91251177  0.66666667  0.16666667  1
  Cl  Cl73  1  0.33333333  0.24584510  0.16666667  1
  Cl  Cl74  1  0.75415490  0.08748823  0.16666667  1
  Cl  Cl75  1  0.75415490  0.66666667  0.16666667  1
  Cl  Cl76  1  0.33333333  0.08748823  0.16666667  1
  Cl  Cl77  1  0.91251177  0.24584510  0.16666667  1
  Cl  Cl78  1  0.18799090  0.28055038  0.52251893  1
  Cl  Cl79  1  -0.28055038  -0.09255948  0.52251893  1
  Cl  Cl80  1  0.09255948  -0.18799090  0.52251893  1
  Cl  Cl81  1  0.28055038  0.18799090  -0.52251893  1
  Cl  Cl82  1  -0.09255948  -0.28055038  -0.52251893  1
  Cl  Cl83  1  -0.18799090  0.09255948  -0.52251893  1
  Cl  Cl84  1  -0.18799090  -0.28055038  -0.52251893  1
  Cl  Cl85  1  0.28055038  0.09255948  -0.52251893  1
  Cl  Cl86  1  -0.09255948  0.18799090  -0.52251893  1
  Cl  Cl87  1  -0.28055038  -0.18799090  0.52251893  1
  Cl  Cl88  1  0.09255948  0.28055038  0.52251893  1
  Cl  Cl89  1  0.18799090  -0.09255948  0.52251893  1
  Cl  Cl90  1  0.85465757  0.61388372  0.85585226  1
  Cl  Cl91  1  0.38611628  0.24077385  0.85585226  1
  Cl  Cl92  1  0.75922615  0.14534243  0.85585226  1
  Cl  Cl93  1  0.94721705  0.52132423  -0.18918559  1
  Cl  Cl94  1  0.57410718  0.05278295  -0.18918559  1
  Cl  Cl95  1  0.47867577  0.42589282  -0.18918559  1
  Cl  Cl96  1  0.47867577  0.05278295  -0.18918559  1
  Cl  Cl97  1  0.94721705  0.42589282  -0.18918559  1
  Cl  Cl98  1  0.57410718  0.52132423  -0.18918559  1
  Cl  Cl99  1  0.38611628  0.14534243  0.85585226  1
  Cl  Cl100  1  0.75922615  0.61388372  0.85585226  1
  Cl  Cl101  1  0.85465757  0.24077385  0.85585226  1
  Cl  Cl102  1  0.52132423  0.94721705  1.18918559  1
  Cl  Cl103  1  0.05278295  0.57410718  1.18918559  1
  Cl  Cl104  1  0.42589282  0.47867577  1.18918559  1
  Cl  Cl105  1  0.61388372  0.85465757  0.14414774  1
  Cl  Cl106  1  0.24077385  0.38611628  0.14414774  1
  Cl  Cl107  1  0.14534243  0.75922615  0.14414774  1
  Cl  Cl108  1  0.14534243  0.38611628  0.14414774  1
  Cl  Cl109  1  0.61388372  0.75922615  0.14414774  1
  Cl  Cl110  1  0.24077385  0.85465757  0.14414774  1
  Cl  Cl111  1  0.05278295  0.47867577  1.18918559  1
  Cl  Cl112  1  0.42589282  0.94721705  1.18918559  1
  Cl  Cl113  1  0.52132423  0.57410718  1.18918559  1
  Cl  Cl114  1  0.99108981  0.81848917  0.69852640  1
  Cl  Cl115  1  0.18151083  0.17260065  0.69852640  1
  Cl  Cl116  1  0.82739935  0.00891019  0.69852640  1
  Cl  Cl117  1  0.81848917  0.99108981  0.30147360  1
  Cl  Cl118  1  0.17260065  0.18151083  0.30147360  1
  Cl  Cl119  1  0.00891019  0.82739935  0.30147360  1
  Cl  Cl120  1  0.00891019  0.18151083  0.30147360  1
  Cl  Cl121  1  0.81848917  0.82739935  0.30147360  1
  Cl  Cl122  1  0.17260065  0.99108981  0.30147360  1
  Cl  Cl123  1  0.18151083  0.00891019  0.69852640  1
  Cl  Cl124  1  0.82739935  0.81848917  0.69852640  1
  Cl  Cl125  1  0.99108981  0.17260065  0.69852640  1
  Cl  Cl126  1  0.65775648  0.15182250  0.03185973  1
  Cl  Cl127  1  0.84817750  0.50593398  0.03185973  1
  Cl  Cl128  1  0.49406602  0.34224352  0.03185973  1
  Cl  Cl129  1  0.48515583  0.32442315  0.63480694  1
  Cl  Cl130  1  0.83926731  0.51484417  0.63480694  1
  Cl  Cl131  1  0.67557685  0.16073269  0.63480694  1
  Cl  Cl132  1  0.67557685  0.51484417  0.63480694  1
  Cl  Cl133  1  0.48515583  0.16073269  0.63480694  1
  Cl  Cl134  1  0.83926731  0.32442315  0.63480694  1
  Cl  Cl135  1  0.84817750  0.34224352  0.03185973  1
  Cl  Cl136  1  0.49406602  0.15182250  0.03185973  1
  Cl  Cl137  1  0.65775648  0.50593398  0.03185973  1
  Cl  Cl138  1  0.32442315  0.48515583  0.36519306  1
  Cl  Cl139  1  0.51484417  0.83926731  0.36519306  1
  Cl  Cl140  1  0.16073269  0.67557685  0.36519306  1
  Cl  Cl141  1  0.15182250  0.65775648  0.96814027  1
  Cl  Cl142  1  0.50593398  0.84817750  0.96814027  1
  Cl  Cl143  1  0.34224352  0.49406602  0.96814027  1
  Cl  Cl144  1  0.34224352  0.84817750  0.96814027  1
  Cl  Cl145  1  0.15182250  0.49406602  0.96814027  1
  Cl  Cl146  1  0.50593398  0.65775648  0.96814027  1
  Cl  Cl147  1  0.51484417  0.67557685  0.36519306  1
  Cl  Cl148  1  0.16073269  0.48515583  0.36519306  1
  Cl  Cl149  1  0.32442315  0.83926731  0.36519306  1
  Cl  Cl150  1  0.69829399  0.21257607  0.41749310  1
  Cl  Cl151  1  0.78742393  0.48571793  0.41749310  1
  Cl  Cl152  1  0.51428207  0.30170601  0.41749310  1
  Cl  Cl153  1  0.21257607  0.69829399  0.58250690  1
  Cl  Cl154  1  0.48571793  0.78742393  0.58250690  1
  Cl  Cl155  1  0.30170601  0.51428207  0.58250690  1
  Cl  Cl156  1  0.30170601  0.78742393  0.58250690  1
  Cl  Cl157  1  0.21257607  0.51428207  0.58250690  1
  Cl  Cl158  1  0.48571793  0.69829399  0.58250690  1
  Cl  Cl159  1  0.78742393  0.30170601  0.41749310  1
  Cl  Cl160  1  0.51428207  0.21257607  0.41749310  1
  Cl  Cl161  1  0.69829399  0.48571793  0.41749310  1
  Cl  Cl162  1  0.36496066  0.54590940  0.75082643  1
  Cl  Cl163  1  0.45409060  0.81905126  0.75082643  1
  Cl  Cl164  1  0.18094874  0.63503934  0.75082643  1
  Cl  Cl165  1  0.87924273  0.03162733  0.91584024  1
  Cl  Cl166  1  0.15238460  0.12075727  0.91584024  1
  Cl  Cl167  1  0.96837267  0.84761540  0.91584024  1
  Cl  Cl168  1  0.96837267  0.12075727  0.91584024  1
  Cl  Cl169  1  0.87924273  0.84761540  0.91584024  1
  Cl  Cl170  1  0.15238460  0.03162733  0.91584024  1
  Cl  Cl171  1  0.45409060  0.63503934  0.75082643  1
  Cl  Cl172  1  0.18094874  0.54590940  0.75082643  1
  Cl  Cl173  1  0.36496066  0.81905126  0.75082643  1
  Cl  Cl174  1  0.03162733  0.87924273  0.08415976  1
  Cl  Cl175  1  0.12075727  0.15238460  0.08415976  1
  Cl  Cl176  1  0.84761540  0.96837267  0.08415976  1
  Cl  Cl177  1  0.54590940  0.36496066  0.24917357  1
  Cl  Cl178  1  0.81905126  0.45409060  0.24917357  1
  Cl  Cl179  1  0.63503934  0.18094874  0.24917357  1
  Cl  Cl180  1  0.63503934  0.45409060  0.24917357  1
  Cl  Cl181  1  0.54590940  0.18094874  0.24917357  1
  Cl  Cl182  1  0.81905126  0.36496066  0.24917357  1
  Cl  Cl183  1  0.12075727  0.96837267  0.08415976  1
  Cl  Cl184  1  0.84761540  0.87924273  0.08415976  1
  Cl  Cl185  1  0.03162733  0.15238460  0.08415976  1
  F  F186  1  0.00000000  0.00000000  0.00000000  1
  F  F187  1  0.66666667  0.33333333  0.33333333  1
  F  F188  1  0.33333333  0.66666667  0.66666667  1
  F  F189  1  0.50000000  0.00000000  0.00000000  1
  F  F190  1  0.00000000  0.50000000  0.00000000  1
  F  F191  1  0.50000000  0.50000000  0.00000000  1
  F  F192  1  0.16666667  0.33333333  0.33333333  1
  F  F193  1  0.66666667  0.83333333  0.33333333  1
  F  F194  1  0.16666667  0.83333333  0.33333333  1
  F  F195  1  0.83333333  0.66666667  0.66666667  1
  F  F196  1  0.33333333  0.16666667  0.66666667  1
  F  F197  1  0.83333333  0.16666667  0.66666667  1
  Li  Li198  1  0.15124376  0.84875624  0.24846597  1
  Li  Li199  1  0.15124376  0.30248753  0.24846597  1
  Li  Li200  1  0.69751247  0.84875624  0.24846597  1
  Li  Li201  1  0.84875624  0.15124376  0.75153403  1
  Li  Li202  1  0.30248753  0.15124376  0.75153403  1
  Li  Li203  1  0.84875624  0.69751247  0.75153403  1
  Li  Li204  1  0.81791043  0.18208957  0.58179930  1
  Li  Li205  1  0.81791043  0.63582086  0.58179930  1
  Li  Li206  1  0.36417914  0.18208957  0.58179930  1
  Li  Li207  1  0.51542290  0.48457710  0.08486737  1
  Li  Li208  1  0.96915420  0.48457710  0.08486737  1
  Li  Li209  1  0.51542290  0.03084580  0.08486737  1
  Li  Li210  1  0.48457710  0.51542290  0.91513263  1
  Li  Li211  1  0.48457710  0.96915420  0.91513263  1
  Li  Li212  1  0.03084580  0.51542290  0.91513263  1
  Li  Li213  1  0.18208957  0.81791043  0.41820070  1
  Li  Li214  1  0.63582086  0.81791043  0.41820070  1
  Li  Li215  1  0.18208957  0.36417914  0.41820070  1
  Mg  Mg216  1  0.00000000  0.00000000  0.50000000  1
  Mg  Mg217  1  0.66666667  0.33333333  0.83333333  1
  Mg  Mg218  1  0.33333333  0.66666667  0.16666667  1
  Mg  Mg219  1  0.00000000  0.00000000  0.91595635  1
  Mg  Mg220  1  0.00000000  0.00000000  0.08404365  1
  Mg  Mg221  1  0.66666667  0.33333333  0.24928969  1
  Mg  Mg222  1  0.66666667  0.33333333  0.41737698  1
  Mg  Mg223  1  0.33333333  0.66666667  0.58262302  1
  Mg  Mg224  1  0.33333333  0.66666667  0.75071031  1
