# generated using pymatgen
data_Li2TiAsSe2
_symmetry_space_group_name_H-M   'P 1'
_cell_length_a   3.41885907
_cell_length_b   4.01556085
_cell_length_c   5.51937661
_cell_angle_alpha   97.50892757
_cell_angle_beta   100.95961869
_cell_angle_gamma   93.95086005
_symmetry_Int_Tables_number   1
_chemical_formula_structural   Li2TiAsSe2
_chemical_formula_sum   'Li2 Ti1 As1 Se2'
_cell_volume   73.41069768
_cell_formula_units_Z   1
loop_
 _symmetry_equiv_pos_site_id
 _symmetry_equiv_pos_as_xyz
  1  'x, y, z'
loop_
 _atom_site_type_symbol
 _atom_site_label
 _atom_site_symmetry_multiplicity
 _atom_site_fract_x
 _atom_site_fract_y
 _atom_site_fract_z
 _atom_site_occupancy
  Li  Li0  1  0.00000000  0.00000000  0.00000000  1
  Li  Li1  1  0.33300000  0.66700000  0.25000000  1
  Ti  Ti2  1  0.66700000  0.33300000  0.50000000  1
  Se  Se3  1  0.00000000  0.00000000  0.75000000  1
  Se  Se4  1  0.47804338  0.90304526  0.84421858  1
  As  As5  1  0.89812137  0.90535657  0.70913769  1
