# generated using pymatgen
data_Li5AlFeSb6N2O3
_symmetry_space_group_name_H-M   'P 1'
_cell_length_a   8.19286060
_cell_length_b   7.07208956
_cell_length_c   9.64817258
_cell_angle_alpha   90.00000000
_cell_angle_beta   90.00000000
_cell_angle_gamma   90.00000000
_symmetry_Int_Tables_number   1
_chemical_formula_structural   Li5AlFeSb6N2O3
_chemical_formula_sum   'Li5 Al1 Fe1 Sb6 N2 O3'
_cell_volume   559.02133138
_cell_formula_units_Z   1
loop_
 _symmetry_equiv_pos_site_id
 _symmetry_equiv_pos_as_xyz
  1  'x, y, z'
loop_
 _atom_site_type_symbol
 _atom_site_label
 _atom_site_symmetry_multiplicity
 _atom_site_fract_x
 _atom_site_fract_y
 _atom_site_fract_z
 _atom_site_occupancy
  Li  Li0  1  0.00000000  0.00000000  0.00000000  1
  Li  Li1  1  0.50000000  0.50000000  0.50000000  1
  Li  Li2  1  0.25000000  0.25000000  0.25000000  1
  Li  Li3  1  0.75000000  0.25000000  0.00000000  1
  Li  Li4  1  0.25000000  0.75000000  0.50000000  1
  Al  Al5  1  0.07744745  0.27962970  0.34538722  1
  Fe  Fe6  1  0.33174657  0.86607746  0.42661518  1
  N  N7  1  0.39725691  0.15804688  0.49204912  1
  N  N8  1  0.96486851  0.77142345  0.92231841  1
  Sb  Sb9  1  0.86067051  0.16676382  0.94058483  1
  Sb  Sb10  1  0.37024871  0.26322701  0.97188935  1
  Sb  Sb11  1  0.35388009  0.96744876  0.87292325  1
  Sb  Sb12  1  0.64617202  0.41920836  0.84528358  1
  Sb  Sb13  1  0.98423250  0.39074473  0.83159327  1
  Sb  Sb14  1  0.21758414  0.73595787  0.61416958  1
  O  O15  1  0.60303997  0.50009755  0.40550175  1
  O  O16  1  0.27059676  0.06196022  0.62696036  1
  O  O17  1  0.91838392  0.79127616  0.87296486  1
