# generated using pymatgen
data_KBr
_symmetry_space_group_name_H-M   'P 1'
_cell_length_a   11.51180288
_cell_length_b   11.51180288
_cell_length_c   12.83942127
_cell_angle_alpha   90.00000000
_cell_angle_beta   90.00000000
_cell_angle_gamma   90.00000000
_symmetry_Int_Tables_number   1
_chemical_formula_structural   KBr
_chemical_formula_sum   'K32 Br32'
_cell_volume   1701.50072085
_cell_formula_units_Z   32
loop_
 _symmetry_equiv_pos_site_id
 _symmetry_equiv_pos_as_xyz
  1  'x, y, z'
loop_
 _atom_site_type_symbol
 _atom_site_label
 _atom_site_symmetry_multiplicity
 _atom_site_fract_x
 _atom_site_fract_y
 _atom_site_fract_z
 _atom_site_occupancy
  Br  Br0  1  0.18487560  0.30396368  0.91560595  1
  Br  Br1  1  0.31512440  0.69603632  0.41560595  1
  Br  Br2  1  0.94603632  0.93487560  0.16560595  1
  Br  Br3  1  0.55396368  0.06512440  0.66560595  1
  Br  Br4  1  0.31512440  0.30396368  0.58439405  1
  Br  Br5  1  0.18487560  0.69603632  0.08439405  1
  Br  Br6  1  0.55396368  0.93487560  0.33439405  1
  Br  Br7  1  0.94603632  0.06512440  0.83439405  1
  Br  Br8  1  0.81512440  0.69603632  0.08439405  1
  Br  Br9  1  0.68487560  0.30396368  0.58439405  1
  Br  Br10  1  0.05396368  0.06512440  0.83439405  1
  Br  Br11  1  0.44603632  0.93487560  0.33439405  1
  Br  Br12  1  0.68487560  0.69603632  0.41560595  1
  Br  Br13  1  0.81512440  0.30396368  0.91560595  1
  Br  Br14  1  0.44603632  0.06512440  0.66560595  1
  Br  Br15  1  0.05396368  0.93487560  0.16560595  1
  Br  Br16  1  0.68487560  0.80396368  0.41560595  1
  Br  Br17  1  0.81512440  0.19603632  0.91560595  1
  Br  Br18  1  0.44603632  0.43487560  0.66560595  1
  Br  Br19  1  0.05396368  0.56512440  0.16560595  1
  Br  Br20  1  0.81512440  0.80396368  0.08439405  1
  Br  Br21  1  0.68487560  0.19603632  0.58439405  1
  Br  Br22  1  0.05396368  0.43487560  0.83439405  1
  Br  Br23  1  0.44603632  0.56512440  0.33439405  1
  Br  Br24  1  0.31512440  0.19603632  0.58439405  1
  Br  Br25  1  0.18487560  0.80396368  0.08439405  1
  Br  Br26  1  0.55396368  0.56512440  0.33439405  1
  Br  Br27  1  0.94603632  0.43487560  0.83439405  1
  Br  Br28  1  0.18487560  0.19603632  0.91560595  1
  Br  Br29  1  0.31512440  0.80396368  0.41560595  1
  Br  Br30  1  0.94603632  0.56512440  0.16560595  1
  Br  Br31  1  0.55396368  0.43487560  0.66560595  1
  K  K32  1  0.84873500  0.63220244  0.33297345  1
  K  K33  1  -0.34873500  -0.63220244  0.83297345  1
  K  K34  1  -0.38220244  1.59873500  0.58297345  1
  K  K35  1  0.88220244  -0.59873500  1.08297345  1
  K  K36  1  -0.34873500  0.63220244  0.16702655  1
  K  K37  1  0.84873500  -0.63220244  -0.33297345  1
  K  K38  1  0.88220244  1.59873500  -0.08297345  1
  K  K39  1  -0.38220244  -0.59873500  0.41702655  1
  K  K40  1  -0.84873500  -0.63220244  -0.33297345  1
  K  K41  1  1.34873500  0.63220244  0.16702655  1
  K  K42  1  1.38220244  -0.59873500  0.41702655  1
  K  K43  1  0.11779756  1.59873500  -0.08297345  1
  K  K44  1  1.34873500  -0.63220244  0.83297345  1
  K  K45  1  -0.84873500  0.63220244  0.33297345  1
  K  K46  1  0.11779756  -0.59873500  1.08297345  1
  K  K47  1  1.38220244  1.59873500  0.58297345  1
  K  K48  1  1.34873500  1.13220244  0.83297345  1
  K  K49  1  0.15126500  -0.13220244  1.33297345  1
  K  K50  1  0.11779756  2.09873500  1.08297345  1
  K  K51  1  1.38220244  -0.09873500  1.58297345  1
  K  K52  1  0.15126500  1.13220244  0.66702655  1
  K  K53  1  1.34873500  -0.13220244  0.16702655  1
  K  K54  1  1.38220244  2.09873500  0.41702655  1
  K  K55  1  0.11779756  -0.09873500  0.91702655  1
  K  K56  1  -0.34873500  -0.13220244  0.16702655  1
  K  K57  1  1.84873500  1.13220244  0.66702655  1
  K  K58  1  1.88220244  -0.09873500  0.91702655  1
  K  K59  1  0.61779756  2.09873500  0.41702655  1
  K  K60  1  1.84873500  -0.13220244  1.33297345  1
  K  K61  1  -0.34873500  1.13220244  0.83297345  1
  K  K62  1  0.61779756  -0.09873500  1.58297345  1
  K  K63  1  1.88220244  2.09873500  1.08297345  1
