# generated using pymatgen
data_Li2Se
_symmetry_space_group_name_H-M   'P 1'
_cell_length_a   12.34606058
_cell_length_b   12.34606058
_cell_length_c   12.34606058
_cell_angle_alpha   90.00000000
_cell_angle_beta   90.00000000
_cell_angle_gamma   90.00000000
_symmetry_Int_Tables_number   1
_chemical_formula_structural   Li2Se
_chemical_formula_sum   'Li64 Se32'
_cell_volume   1881.85089750
_cell_formula_units_Z   32
loop_
 _symmetry_equiv_pos_site_id
 _symmetry_equiv_pos_as_xyz
  1  'x, y, z'
loop_
 _atom_site_type_symbol
 _atom_site_label
 _atom_site_symmetry_multiplicity
 _atom_site_fract_x
 _atom_site_fract_y
 _atom_site_fract_z
 _atom_site_occupancy
  Li  Li0  1  0.37500000  -0.00000000  0.25000000  1
  Li  Li1  1  0.12500000  0.00000000  0.75000000  1
  Li  Li2  1  0.25000000  0.37500000  0.00000000  1
  Li  Li3  1  0.75000000  0.12500000  -0.00000000  1
  Li  Li4  1  0.00000000  0.25000000  0.37500000  1
  Li  Li5  1  0.00000000  0.75000000  0.12500000  1
  Li  Li6  1  0.75000000  0.62500000  -0.00000000  1
  Li  Li7  1  0.75000000  0.37500000  0.50000000  1
  Li  Li8  1  0.12500000  0.50000000  0.25000000  1
  Li  Li9  1  0.87500000  0.00000000  0.25000000  1
  Li  Li10  1  0.00000000  0.25000000  0.87500000  1
  Li  Li11  1  0.50000000  0.25000000  0.12500000  1
  Li  Li12  1  0.87500000  0.50000000  0.75000000  1
  Li  Li13  1  0.62500000  0.50000000  0.25000000  1
  Li  Li14  1  0.75000000  0.87500000  0.50000000  1
  Li  Li15  1  0.25000000  0.62500000  0.50000000  1
  Li  Li16  1  0.50000000  0.75000000  0.87500000  1
  Li  Li17  1  0.50000000  0.25000000  0.62500000  1
  Li  Li18  1  0.25000000  0.12500000  0.50000000  1
  Li  Li19  1  0.25000000  0.87500000  -0.00000000  1
  Li  Li20  1  0.62500000  0.00000000  0.75000000  1
  Li  Li21  1  0.37500000  0.50000000  0.75000000  1
  Li  Li22  1  0.50000000  0.75000000  0.37500000  1
  Li  Li23  1  0.00000000  0.75000000  0.62500000  1
  Li  Li24  1  0.00000000  0.00000000  0.00000000  1
  Li  Li25  1  0.50000000  0.00000000  0.50000000  1
  Li  Li26  1  0.00000000  0.50000000  0.50000000  1
  Li  Li27  1  0.50000000  0.50000000  0.00000000  1
  Li  Li28  1  0.75000000  0.25000000  0.25000000  1
  Li  Li29  1  0.75000000  0.75000000  0.75000000  1
  Li  Li30  1  0.25000000  0.25000000  0.75000000  1
  Li  Li31  1  0.25000000  0.75000000  0.25000000  1
  Li  Li32  1  0.50000000  0.50000000  0.50000000  1
  Li  Li33  1  0.00000000  0.50000000  0.00000000  1
  Li  Li34  1  0.50000000  0.00000000  0.00000000  1
  Li  Li35  1  0.00000000  0.00000000  0.50000000  1
  Li  Li36  1  0.25000000  0.75000000  0.75000000  1
  Li  Li37  1  0.25000000  0.25000000  0.25000000  1
  Li  Li38  1  0.75000000  0.75000000  0.25000000  1
  Li  Li39  1  0.75000000  0.25000000  0.75000000  1
  Li  Li40  1  0.12500000  0.00000000  0.25000000  1
  Li  Li41  1  0.37500000  -0.00000000  0.75000000  1
  Li  Li42  1  0.25000000  0.12500000  -0.00000000  1
  Li  Li43  1  0.75000000  0.37500000  -0.00000000  1
  Li  Li44  1  0.00000000  0.25000000  0.12500000  1
  Li  Li45  1  0.00000000  0.75000000  0.37500000  1
  Li  Li46  1  0.87500000  0.00000000  0.75000000  1
  Li  Li47  1  0.62500000  0.00000000  0.25000000  1
  Li  Li48  1  0.75000000  0.87500000  0.00000000  1
  Li  Li49  1  0.25000000  0.62500000  0.00000000  1
  Li  Li50  1  0.00000000  0.75000000  0.87500000  1
  Li  Li51  1  0.00000000  0.25000000  0.62500000  1
  Li  Li52  1  0.62500000  0.50000000  0.75000000  1
  Li  Li53  1  0.87500000  0.50000000  0.25000000  1
  Li  Li54  1  0.75000000  0.62500000  0.50000000  1
  Li  Li55  1  0.25000000  0.87500000  0.50000000  1
  Li  Li56  1  0.50000000  0.75000000  0.62500000  1
  Li  Li57  1  0.50000000  0.25000000  0.87500000  1
  Li  Li58  1  0.37500000  0.50000000  0.25000000  1
  Li  Li59  1  0.12500000  0.50000000  0.75000000  1
  Li  Li60  1  0.25000000  0.37500000  0.50000000  1
  Li  Li61  1  0.75000000  0.12500000  0.50000000  1
  Li  Li62  1  0.50000000  0.25000000  0.37500000  1
  Li  Li63  1  0.50000000  0.75000000  0.12500000  1
  Se  Se64  1  0.40890717  0.40890717  0.40890717  1
  Se  Se65  1  0.09109283  -0.40890717  0.90890717  1
  Se  Se66  1  -0.40890717  0.90890717  0.09109283  1
  Se  Se67  1  0.90890717  0.09109283  -0.40890717  1
  Se  Se68  1  1.15890717  0.65890717  -0.15890717  1
  Se  Se69  1  0.34109283  0.34109283  0.34109283  1
  Se  Se70  1  0.65890717  -0.15890717  1.15890717  1
  Se  Se71  1  -0.15890717  1.15890717  0.65890717  1
  Se  Se72  1  -0.40890717  -0.40890717  -0.40890717  1
  Se  Se73  1  0.90890717  0.40890717  0.09109283  1
  Se  Se74  1  0.40890717  0.09109283  0.90890717  1
  Se  Se75  1  0.09109283  0.90890717  0.40890717  1
  Se  Se76  1  -0.15890717  0.34109283  1.15890717  1
  Se  Se77  1  0.65890717  0.65890717  0.65890717  1
  Se  Se78  1  0.34109283  1.15890717  -0.15890717  1
  Se  Se79  1  1.15890717  -0.15890717  0.34109283  1
  Se  Se80  1  0.90890717  0.90890717  0.90890717  1
  Se  Se81  1  0.59109283  0.09109283  1.40890717  1
  Se  Se82  1  0.09109283  1.40890717  0.59109283  1
  Se  Se83  1  1.40890717  0.59109283  0.09109283  1
  Se  Se84  1  1.65890717  1.15890717  0.34109283  1
  Se  Se85  1  0.84109283  0.84109283  0.84109283  1
  Se  Se86  1  1.15890717  0.34109283  1.65890717  1
  Se  Se87  1  0.34109283  1.65890717  1.15890717  1
  Se  Se88  1  0.09109283  0.09109283  0.09109283  1
  Se  Se89  1  1.40890717  0.90890717  0.59109283  1
  Se  Se90  1  0.90890717  0.59109283  1.40890717  1
  Se  Se91  1  0.59109283  1.40890717  0.90890717  1
  Se  Se92  1  0.34109283  0.84109283  1.65890717  1
  Se  Se93  1  1.15890717  1.15890717  1.15890717  1
  Se  Se94  1  0.84109283  1.65890717  0.34109283  1
  Se  Se95  1  1.65890717  0.34109283  0.84109283  1
