# generated using pymatgen
data_LiCl
_symmetry_space_group_name_H-M   'P 1'
_cell_length_a   5.87718514
_cell_length_b   13.78479535
_cell_length_c   15.42903125
_cell_angle_alpha   90.00000000
_cell_angle_beta   90.00000000
_cell_angle_gamma   90.00000000
_symmetry_Int_Tables_number   1
_chemical_formula_structural   LiCl
_chemical_formula_sum   'Li32 Cl32'
_cell_volume   1249.99522340
_cell_formula_units_Z   32
loop_
 _symmetry_equiv_pos_site_id
 _symmetry_equiv_pos_as_xyz
  1  'x, y, z'
loop_
 _atom_site_type_symbol
 _atom_site_label
 _atom_site_symmetry_multiplicity
 _atom_site_fract_x
 _atom_site_fract_y
 _atom_site_fract_z
 _atom_site_occupancy
  Cl  Cl0  1  0.22660115  0.72142897  0.58296852  1
  Cl  Cl1  1  0.52339885  0.02857103  0.58296852  1
  Cl  Cl2  1  0.52339885  0.72142897  0.16703148  1
  Cl  Cl3  1  0.22660115  0.02857103  0.16703148  1
  Cl  Cl4  1  -0.22660115  -0.72142897  -0.58296852  1
  Cl  Cl5  1  0.47660115  0.97142897  -0.58296852  1
  Cl  Cl6  1  0.47660115  -0.72142897  0.83296852  1
  Cl  Cl7  1  -0.22660115  0.97142897  0.83296852  1
  Cl  Cl8  1  0.22660115  1.22142897  1.08296852  1
  Cl  Cl9  1  0.52339885  0.52857103  1.08296852  1
  Cl  Cl10  1  0.52339885  1.22142897  0.66703148  1
  Cl  Cl11  1  0.22660115  0.52857103  0.66703148  1
  Cl  Cl12  1  -0.22660115  -0.22142897  -0.08296852  1
  Cl  Cl13  1  0.47660115  1.47142897  -0.08296852  1
  Cl  Cl14  1  0.47660115  -0.22142897  1.33296852  1
  Cl  Cl15  1  -0.22660115  1.47142897  1.33296852  1
  Cl  Cl16  1  0.72660115  0.72142897  1.08296852  1
  Cl  Cl17  1  1.02339885  0.02857103  1.08296852  1
  Cl  Cl18  1  1.02339885  0.72142897  0.66703148  1
  Cl  Cl19  1  0.72660115  0.02857103  0.66703148  1
  Cl  Cl20  1  0.27339885  -0.72142897  -0.08296852  1
  Cl  Cl21  1  0.97660115  0.97142897  -0.08296852  1
  Cl  Cl22  1  0.97660115  -0.72142897  1.33296852  1
  Cl  Cl23  1  0.27339885  0.97142897  1.33296852  1
  Cl  Cl24  1  0.72660115  1.22142897  0.58296852  1
  Cl  Cl25  1  1.02339885  0.52857103  0.58296852  1
  Cl  Cl26  1  1.02339885  1.22142897  0.16703148  1
  Cl  Cl27  1  0.72660115  0.52857103  0.16703148  1
  Cl  Cl28  1  0.27339885  -0.22142897  -0.58296852  1
  Cl  Cl29  1  0.97660115  1.47142897  -0.58296852  1
  Cl  Cl30  1  0.97660115  -0.22142897  0.83296852  1
  Cl  Cl31  1  0.27339885  1.47142897  0.83296852  1
  Li  Li32  1  0.05016401  0.27532910  0.44523510  1
  Li  Li33  1  0.69983599  0.47467090  0.44523510  1
  Li  Li34  1  0.69983599  0.27532910  0.30476490  1
  Li  Li35  1  0.05016401  0.47467090  0.30476490  1
  Li  Li36  1  0.94983599  0.72467090  0.55476490  1
  Li  Li37  1  0.30016401  0.52532910  0.55476490  1
  Li  Li38  1  0.30016401  0.72467090  0.69523510  1
  Li  Li39  1  0.94983599  0.52532910  0.69523510  1
  Li  Li40  1  0.05016401  0.77532910  0.94523510  1
  Li  Li41  1  0.69983599  0.97467090  0.94523510  1
  Li  Li42  1  0.69983599  0.77532910  0.80476490  1
  Li  Li43  1  0.05016401  0.97467090  0.80476490  1
  Li  Li44  1  0.94983599  0.22467090  0.05476490  1
  Li  Li45  1  0.30016401  0.02532910  0.05476490  1
  Li  Li46  1  0.30016401  0.22467090  0.19523510  1
  Li  Li47  1  0.94983599  0.02532910  0.19523510  1
  Li  Li48  1  0.55016401  0.27532910  0.94523510  1
  Li  Li49  1  0.19983599  0.47467090  0.94523510  1
  Li  Li50  1  0.19983599  0.27532910  0.80476490  1
  Li  Li51  1  0.55016401  0.47467090  0.80476490  1
  Li  Li52  1  0.44983599  0.72467090  0.05476490  1
  Li  Li53  1  0.80016401  0.52532910  0.05476490  1
  Li  Li54  1  0.80016401  0.72467090  0.19523510  1
  Li  Li55  1  0.44983599  0.52532910  0.19523510  1
  Li  Li56  1  0.55016401  0.77532910  0.44523510  1
  Li  Li57  1  0.19983599  0.97467090  0.44523510  1
  Li  Li58  1  0.19983599  0.77532910  0.30476490  1
  Li  Li59  1  0.55016401  0.97467090  0.30476490  1
  Li  Li60  1  0.44983599  0.22467090  0.55476490  1
  Li  Li61  1  0.80016401  0.02532910  0.55476490  1
  Li  Li62  1  0.80016401  0.22467090  0.69523510  1
  Li  Li63  1  0.44983599  0.02532910  0.69523510  1
