# generated using pymatgen
data_Li2Mg3SeCl6
_symmetry_space_group_name_H-M   'P 1'
_cell_length_a   12.56005324
_cell_length_b   12.56005324
_cell_length_c   12.56005324
_cell_angle_alpha   90.00000000
_cell_angle_beta   90.00000000
_cell_angle_gamma   90.00000000
_symmetry_Int_Tables_number   1
_chemical_formula_structural   Li2Mg3SeCl6
_chemical_formula_sum   'Li16 Mg24 Se8 Cl48'
_cell_volume   1981.41041215
_cell_formula_units_Z   8
loop_
 _symmetry_equiv_pos_site_id
 _symmetry_equiv_pos_as_xyz
  1  'x, y, z'
loop_
 _atom_site_type_symbol
 _atom_site_label
 _atom_site_symmetry_multiplicity
 _atom_site_fract_x
 _atom_site_fract_y
 _atom_site_fract_z
 _atom_site_occupancy
  Cl  Cl0  1  0.54700269  0.25000000  0.25000000  1
  Cl  Cl1  1  -0.54700269  0.75000000  0.25000000  1
  Cl  Cl2  1  0.25000000  0.54700269  0.25000000  1
  Cl  Cl3  1  0.25000000  -0.54700269  0.75000000  1
  Cl  Cl4  1  0.25000000  0.25000000  0.54700269  1
  Cl  Cl5  1  0.75000000  0.25000000  -0.54700269  1
  Cl  Cl6  1  0.54700269  0.75000000  0.75000000  1
  Cl  Cl7  1  -0.54700269  1.25000000  0.75000000  1
  Cl  Cl8  1  0.25000000  1.04700269  0.75000000  1
  Cl  Cl9  1  0.25000000  -0.04700269  1.25000000  1
  Cl  Cl10  1  0.25000000  0.75000000  1.04700269  1
  Cl  Cl11  1  0.75000000  0.75000000  -0.04700269  1
  Cl  Cl12  1  1.04700269  0.25000000  0.75000000  1
  Cl  Cl13  1  -0.04700269  0.75000000  0.75000000  1
  Cl  Cl14  1  0.75000000  0.54700269  0.75000000  1
  Cl  Cl15  1  0.75000000  -0.54700269  1.25000000  1
  Cl  Cl16  1  0.75000000  0.25000000  1.04700269  1
  Cl  Cl17  1  1.25000000  0.25000000  -0.04700269  1
  Cl  Cl18  1  1.04700269  0.75000000  0.25000000  1
  Cl  Cl19  1  -0.04700269  1.25000000  0.25000000  1
  Cl  Cl20  1  0.75000000  1.04700269  0.25000000  1
  Cl  Cl21  1  0.75000000  -0.04700269  0.75000000  1
  Cl  Cl22  1  0.75000000  0.75000000  0.54700269  1
  Cl  Cl23  1  1.25000000  0.75000000  -0.54700269  1
  Cl  Cl24  1  0.00000000  0.00000000  0.00000000  1
  Cl  Cl25  1  0.00000000  0.50000000  0.50000000  1
  Cl  Cl26  1  0.50000000  0.00000000  0.50000000  1
  Cl  Cl27  1  0.50000000  0.50000000  0.00000000  1
  Cl  Cl28  1  0.50000000  0.50000000  0.50000000  1
  Cl  Cl29  1  0.50000000  0.00000000  0.00000000  1
  Cl  Cl30  1  0.00000000  0.50000000  0.00000000  1
  Cl  Cl31  1  0.00000000  0.00000000  0.50000000  1
  Cl  Cl32  1  0.08277012  0.08277012  0.08277012  1
  Cl  Cl33  1  0.91722988  0.91722988  0.08277012  1
  Cl  Cl34  1  0.91722988  0.08277012  0.91722988  1
  Cl  Cl35  1  0.08277012  0.91722988  0.91722988  1
  Cl  Cl36  1  0.08277012  0.58277012  0.58277012  1
  Cl  Cl37  1  0.91722988  0.41722988  0.58277012  1
  Cl  Cl38  1  0.91722988  0.58277012  0.41722988  1
  Cl  Cl39  1  0.08277012  0.41722988  0.41722988  1
  Cl  Cl40  1  0.58277012  0.08277012  0.58277012  1
  Cl  Cl41  1  0.41722988  0.91722988  0.58277012  1
  Cl  Cl42  1  0.41722988  0.08277012  0.41722988  1
  Cl  Cl43  1  0.58277012  0.91722988  0.41722988  1
  Cl  Cl44  1  0.58277012  0.58277012  0.08277012  1
  Cl  Cl45  1  0.41722988  0.41722988  0.08277012  1
  Cl  Cl46  1  0.41722988  0.58277012  0.91722988  1
  Cl  Cl47  1  0.58277012  0.41722988  0.91722988  1
  Li  Li48  1  0.17724377  0.17724377  0.17724377  1
  Li  Li49  1  0.82275623  0.82275623  0.17724377  1
  Li  Li50  1  0.82275623  0.17724377  0.82275623  1
  Li  Li51  1  0.17724377  0.82275623  0.82275623  1
  Li  Li52  1  0.17724377  0.67724377  0.67724377  1
  Li  Li53  1  0.82275623  0.32275623  0.67724377  1
  Li  Li54  1  0.82275623  0.67724377  0.32275623  1
  Li  Li55  1  0.17724377  0.32275623  0.32275623  1
  Li  Li56  1  0.67724377  0.17724377  0.67724377  1
  Li  Li57  1  0.32275623  0.82275623  0.67724377  1
  Li  Li58  1  0.32275623  0.17724377  0.32275623  1
  Li  Li59  1  0.67724377  0.82275623  0.32275623  1
  Li  Li60  1  0.67724377  0.67724377  0.17724377  1
  Li  Li61  1  0.32275623  0.32275623  0.17724377  1
  Li  Li62  1  0.32275623  0.67724377  0.82275623  1
  Li  Li63  1  0.67724377  0.32275623  0.82275623  1
  Mg  Mg64  1  0.13518295  0.00000000  0.00000000  1
  Mg  Mg65  1  0.86481705  0.00000000  -0.00000000  1
  Mg  Mg66  1  0.00000000  0.13518295  0.00000000  1
  Mg  Mg67  1  0.00000000  0.86481705  0.00000000  1
  Mg  Mg68  1  0.00000000  0.00000000  0.13518295  1
  Mg  Mg69  1  0.00000000  0.00000000  0.86481705  1
  Mg  Mg70  1  0.13518295  0.50000000  0.50000000  1
  Mg  Mg71  1  0.86481705  0.50000000  0.50000000  1
  Mg  Mg72  1  0.00000000  0.63518295  0.50000000  1
  Mg  Mg73  1  0.00000000  0.36481705  0.50000000  1
  Mg  Mg74  1  0.00000000  0.50000000  0.63518295  1
  Mg  Mg75  1  0.00000000  0.50000000  0.36481705  1
  Mg  Mg76  1  0.63518295  -0.00000000  0.50000000  1
  Mg  Mg77  1  0.36481705  -0.00000000  0.50000000  1
  Mg  Mg78  1  0.50000000  0.13518295  0.50000000  1
  Mg  Mg79  1  0.50000000  0.86481705  0.50000000  1
  Mg  Mg80  1  0.50000000  0.00000000  0.63518295  1
  Mg  Mg81  1  0.50000000  0.00000000  0.36481705  1
  Mg  Mg82  1  0.63518295  0.50000000  -0.00000000  1
  Mg  Mg83  1  0.36481705  0.50000000  0.00000000  1
  Mg  Mg84  1  0.50000000  0.63518295  0.00000000  1
  Mg  Mg85  1  0.50000000  0.36481705  0.00000000  1
  Mg  Mg86  1  0.50000000  0.50000000  0.13518295  1
  Mg  Mg87  1  0.50000000  0.50000000  0.86481705  1
  Se  Se88  1  0.25000000  0.25000000  0.25000000  1
  Se  Se89  1  0.25000000  0.75000000  0.75000000  1
  Se  Se90  1  0.75000000  0.25000000  0.75000000  1
  Se  Se91  1  0.75000000  0.75000000  0.25000000  1
  Se  Se92  1  0.75000000  0.75000000  0.75000000  1
  Se  Se93  1  0.75000000  0.25000000  0.25000000  1
  Se  Se94  1  0.25000000  0.75000000  0.25000000  1
  Se  Se95  1  0.25000000  0.25000000  0.75000000  1
