# generated using pymatgen
data_LiF
_symmetry_space_group_name_H-M   'P 1'
_cell_length_a   5.49783109
_cell_length_b   5.49783109
_cell_length_c   10.90729139
_cell_angle_alpha   90.00000000
_cell_angle_beta   90.00000000
_cell_angle_gamma   120.00000000
_symmetry_Int_Tables_number   1
_chemical_formula_structural   LiF
_chemical_formula_sum   'Li9 F9'
_cell_volume   285.51592294
_cell_formula_units_Z   9
loop_
 _symmetry_equiv_pos_site_id
 _symmetry_equiv_pos_as_xyz
  1  'x, y, z'
loop_
 _atom_site_type_symbol
 _atom_site_label
 _atom_site_symmetry_multiplicity
 _atom_site_fract_x
 _atom_site_fract_y
 _atom_site_fract_z
 _atom_site_occupancy
  F  F0  1  0.52006153  0.47993847  0.00000000  1
  F  F1  1  0.52006153  0.04012306  0.00000000  1
  F  F2  1  0.95987694  0.47993847  -0.00000000  1
  F  F3  1  0.00000000  0.00000000  0.00000000  1
  F  F4  1  0.33333333  0.66666667  0.10294841  1
  F  F5  1  0.33333333  0.66666667  0.89705159  1
  F  F6  1  0.33333333  0.66666667  0.00000000  1
  F  F7  1  0.66666667  0.33333333  0.50000000  1
  F  F8  1  0.33333333  0.66666667  0.50000000  1
  Li  Li9  1  0.44691036  0.55308964  0.50000000  1
  Li  Li10  1  0.44691036  0.89382072  0.50000000  1
  Li  Li11  1  0.10617928  0.55308964  0.50000000  1
  Li  Li12  1  0.67879838  0.99668690  0.39429082  1
  Li  Li13  1  -0.99668690  -0.31788852  0.39429082  1
  Li  Li14  1  0.31788852  -0.67879838  0.39429082  1
  Li  Li15  1  -0.99668690  -0.67879838  -0.39429082  1
  Li  Li16  1  0.31788852  0.99668690  -0.39429082  1
  Li  Li17  1  0.67879838  -0.31788852  -0.39429082  1
