# generated using pymatgen
data_KI
_symmetry_space_group_name_H-M   'P 1'
_cell_length_a   17.77515958
_cell_length_b   17.77515958
_cell_length_c   8.69044339
_cell_angle_alpha   90.00000000
_cell_angle_beta   90.00000000
_cell_angle_gamma   90.00000000
_symmetry_Int_Tables_number   1
_chemical_formula_structural   KI
_chemical_formula_sum   'K32 I32'
_cell_volume   2745.80032373
_cell_formula_units_Z   32
loop_
 _symmetry_equiv_pos_site_id
 _symmetry_equiv_pos_as_xyz
  1  'x, y, z'
loop_
 _atom_site_type_symbol
 _atom_site_label
 _atom_site_symmetry_multiplicity
 _atom_site_fract_x
 _atom_site_fract_y
 _atom_site_fract_z
 _atom_site_occupancy
  I  I0  1  0.20337167  0.83082278  0.68713311  1
  I  I1  1  0.29662833  -0.83082278  1.18713311  1
  I  I2  1  -0.58082278  0.95337167  0.93713311  1
  I  I3  1  1.08082278  0.04662833  1.43713311  1
  I  I4  1  0.29662833  0.83082278  -0.68713311  1
  I  I5  1  0.20337167  -0.83082278  -0.18713311  1
  I  I6  1  1.08082278  0.95337167  0.06286689  1
  I  I7  1  -0.58082278  0.04662833  -0.43713311  1
  I  I8  1  -0.20337167  -0.83082278  -0.68713311  1
  I  I9  1  0.70337167  0.83082278  -0.18713311  1
  I  I10  1  1.58082278  0.04662833  0.06286689  1
  I  I11  1  -0.08082278  0.95337167  -0.43713311  1
  I  I12  1  0.70337167  -0.83082278  0.68713311  1
  I  I13  1  -0.20337167  0.83082278  1.18713311  1
  I  I14  1  -0.08082278  0.04662833  0.93713311  1
  I  I15  1  1.58082278  0.95337167  1.43713311  1
  I  I16  1  0.70337167  1.33082278  1.18713311  1
  I  I17  1  0.79662833  -0.33082278  1.68713311  1
  I  I18  1  -0.08082278  1.45337167  1.43713311  1
  I  I19  1  1.58082278  0.54662833  1.93713311  1
  I  I20  1  0.79662833  1.33082278  -0.18713311  1
  I  I21  1  0.70337167  -0.33082278  0.31286689  1
  I  I22  1  1.58082278  1.45337167  0.56286689  1
  I  I23  1  -0.08082278  0.54662833  0.06286689  1
  I  I24  1  0.29662833  -0.33082278  -0.18713311  1
  I  I25  1  1.20337167  1.33082278  0.31286689  1
  I  I26  1  2.08082278  0.54662833  0.56286689  1
  I  I27  1  0.41917722  1.45337167  0.06286689  1
  I  I28  1  1.20337167  -0.33082278  1.18713311  1
  I  I29  1  0.29662833  1.33082278  1.68713311  1
  I  I30  1  0.41917722  0.54662833  1.43713311  1
  I  I31  1  2.08082278  1.45337167  1.93713311  1
  K  K32  1  0.38236787  -0.00000000  0.25000000  1
  K  K33  1  0.11763213  -0.00000000  0.75000000  1
  K  K34  1  0.25000000  0.13236787  0.50000000  1
  K  K35  1  0.25000000  0.86763213  0.00000000  1
  K  K36  1  0.61763213  0.00000000  0.75000000  1
  K  K37  1  0.88236787  0.00000000  0.25000000  1
  K  K38  1  0.75000000  0.86763213  0.50000000  1
  K  K39  1  0.75000000  0.13236787  0.00000000  1
  K  K40  1  0.88236787  0.50000000  0.75000000  1
  K  K41  1  0.61763213  0.50000000  0.25000000  1
  K  K42  1  0.75000000  0.63236787  0.00000000  1
  K  K43  1  0.75000000  0.36763213  0.50000000  1
  K  K44  1  0.11763213  0.50000000  0.25000000  1
  K  K45  1  0.38236787  0.50000000  0.75000000  1
  K  K46  1  0.25000000  0.36763213  0.00000000  1
  K  K47  1  0.25000000  0.63236787  0.50000000  1
  K  K48  1  0.24731927  0.49731927  0.12500000  1
  K  K49  1  0.25268073  0.50268073  0.62500000  1
  K  K50  1  0.75268073  0.99731927  0.37500000  1
  K  K51  1  0.74731927  0.00268073  0.87500000  1
  K  K52  1  0.75268073  0.50268073  0.87500000  1
  K  K53  1  0.74731927  0.49731927  0.37500000  1
  K  K54  1  0.24731927  0.00268073  0.62500000  1
  K  K55  1  0.25268073  0.99731927  0.12500000  1
  K  K56  1  0.74731927  0.99731927  0.62500000  1
  K  K57  1  0.75268073  0.00268073  0.12500000  1
  K  K58  1  0.25268073  0.49731927  0.87500000  1
  K  K59  1  0.24731927  0.50268073  0.37500000  1
  K  K60  1  0.25268073  0.00268073  0.37500000  1
  K  K61  1  0.24731927  0.99731927  0.87500000  1
  K  K62  1  0.74731927  0.50268073  0.12500000  1
  K  K63  1  0.75268073  0.49731927  0.62500000  1
