# generated using pymatgen
data_LiBr
_symmetry_space_group_name_H-M   'P 1'
_cell_length_a   10.93793909
_cell_length_b   10.93793909
_cell_length_c   9.81022543
_cell_angle_alpha   90.00000000
_cell_angle_beta   90.00000000
_cell_angle_gamma   120.00000000
_symmetry_Int_Tables_number   1
_chemical_formula_structural   LiBr
_chemical_formula_sum   'Li36 Br36'
_cell_volume   1016.43736170
_cell_formula_units_Z   36
loop_
 _symmetry_equiv_pos_site_id
 _symmetry_equiv_pos_as_xyz
  1  'x, y, z'
loop_
 _atom_site_type_symbol
 _atom_site_label
 _atom_site_symmetry_multiplicity
 _atom_site_fract_x
 _atom_site_fract_y
 _atom_site_fract_z
 _atom_site_occupancy
  Br  Br0  1  0.79598433  0.81131701  0.40109808  1
  Br  Br1  1  -0.81131701  -0.01533268  0.40109808  1
  Br  Br2  1  0.01533268  -0.79598433  0.40109808  1
  Br  Br3  1  0.81131701  0.79598433  0.09890192  1
  Br  Br4  1  -0.01533268  -0.81131701  0.09890192  1
  Br  Br5  1  -0.79598433  0.01533268  0.09890192  1
  Br  Br6  1  -0.79598433  -0.81131701  -0.40109808  1
  Br  Br7  1  0.81131701  0.01533268  -0.40109808  1
  Br  Br8  1  -0.01533268  0.79598433  -0.40109808  1
  Br  Br9  1  -0.81131701  -0.79598433  0.90109808  1
  Br  Br10  1  0.01533268  0.81131701  0.90109808  1
  Br  Br11  1  0.79598433  -0.01533268  0.90109808  1
  Br  Br12  1  1.46265100  1.14465035  0.73443141  1
  Br  Br13  1  -0.14465035  0.31800065  0.73443141  1
  Br  Br14  1  0.68199935  -0.46265100  0.73443141  1
  Br  Br15  1  1.47798368  1.12931767  0.43223525  1
  Br  Br16  1  0.65133399  -0.47798368  0.43223525  1
  Br  Br17  1  -0.12931767  0.34866601  0.43223525  1
  Br  Br18  1  -0.12931767  -0.47798368  -0.06776475  1
  Br  Br19  1  1.47798368  0.34866601  -0.06776475  1
  Br  Br20  1  0.65133399  1.12931767  -0.06776475  1
  Br  Br21  1  -0.14465035  -0.46265100  1.23443141  1
  Br  Br22  1  0.68199935  1.14465035  1.23443141  1
  Br  Br23  1  1.46265100  0.31800065  1.23443141  1
  Br  Br24  1  1.12931767  1.47798368  1.06776475  1
  Br  Br25  1  -0.47798368  0.65133399  1.06776475  1
  Br  Br26  1  0.34866601  -0.12931767  1.06776475  1
  Br  Br27  1  1.14465035  1.46265100  0.76556859  1
  Br  Br28  1  0.31800065  -0.14465035  0.76556859  1
  Br  Br29  1  -0.46265100  0.68199935  0.76556859  1
  Br  Br30  1  -0.46265100  -0.14465035  0.26556859  1
  Br  Br31  1  1.14465035  0.68199935  0.26556859  1
  Br  Br32  1  0.31800065  1.46265100  0.26556859  1
  Br  Br33  1  -0.47798368  -0.12931767  1.56776475  1
  Br  Br34  1  0.34866601  1.47798368  1.56776475  1
  Br  Br35  1  1.12931767  0.65133399  1.56776475  1
  Li  Li36  1  0.94427341  0.14320849  0.82613325  1
  Li  Li37  1  0.85679151  0.80106491  0.82613325  1
  Li  Li38  1  0.19893509  0.05572659  0.82613325  1
  Li  Li39  1  0.14320849  0.94427341  0.67386675  1
  Li  Li40  1  0.80106491  0.85679151  0.67386675  1
  Li  Li41  1  0.05572659  0.19893509  0.67386675  1
  Li  Li42  1  0.05572659  0.85679151  0.17386675  1
  Li  Li43  1  0.14320849  0.19893509  0.17386675  1
  Li  Li44  1  0.80106491  0.94427341  0.17386675  1
  Li  Li45  1  0.85679151  0.05572659  0.32613325  1
  Li  Li46  1  0.19893509  0.14320849  0.32613325  1
  Li  Li47  1  0.94427341  0.80106491  0.32613325  1
  Li  Li48  1  0.61094007  0.47654183  0.15946658  1
  Li  Li49  1  0.52345817  0.13439825  0.15946658  1
  Li  Li50  1  0.86560175  0.38905993  0.15946658  1
  Li  Li51  1  0.80987516  0.27760674  0.00720008  1
  Li  Li52  1  0.46773158  0.19012484  0.00720008  1
  Li  Li53  1  0.72239326  0.53226842  0.00720008  1
  Li  Li54  1  0.72239326  0.19012484  0.50720008  1
  Li  Li55  1  0.80987516  0.53226842  0.50720008  1
  Li  Li56  1  0.46773158  0.27760674  0.50720008  1
  Li  Li57  1  0.52345817  0.38905993  0.65946658  1
  Li  Li58  1  0.86560175  0.47654183  0.65946658  1
  Li  Li59  1  0.61094007  0.13439825  0.65946658  1
  Li  Li60  1  0.27760674  0.80987516  0.49279992  1
  Li  Li61  1  0.19012484  0.46773158  0.49279992  1
  Li  Li62  1  0.53226842  0.72239326  0.49279992  1
  Li  Li63  1  0.47654183  0.61094007  0.34053342  1
  Li  Li64  1  0.13439825  0.52345817  0.34053342  1
  Li  Li65  1  0.38905993  0.86560175  0.34053342  1
  Li  Li66  1  0.38905993  0.52345817  0.84053342  1
  Li  Li67  1  0.47654183  0.86560175  0.84053342  1
  Li  Li68  1  0.13439825  0.61094007  0.84053342  1
  Li  Li69  1  0.19012484  0.72239326  0.99279992  1
  Li  Li70  1  0.53226842  0.80987516  0.99279992  1
  Li  Li71  1  0.27760674  0.46773158  0.99279992  1
