# generated using pymatgen
data_LiAlTe2
_symmetry_space_group_name_H-M   'P 1'
_cell_length_a   9.86063655
_cell_length_b   9.86063655
_cell_length_c   7.95531532
_cell_angle_alpha   90.00000000
_cell_angle_beta   90.00000000
_cell_angle_gamma   90.00000000
_symmetry_Int_Tables_number   1
_chemical_formula_structural   LiAlTe2
_chemical_formula_sum   'Li8 Al8 Te16'
_cell_volume   773.51243764
_cell_formula_units_Z   8
loop_
 _symmetry_equiv_pos_site_id
 _symmetry_equiv_pos_as_xyz
  1  'x, y, z'
loop_
 _atom_site_type_symbol
 _atom_site_label
 _atom_site_symmetry_multiplicity
 _atom_site_fract_x
 _atom_site_fract_y
 _atom_site_fract_z
 _atom_site_occupancy
  Al  Al0  1  0.00000000  0.00000000  0.50000000  1
  Al  Al1  1  0.50000000  0.00000000  0.00000000  1
  Al  Al2  1  0.25000000  0.75000000  0.75000000  1
  Al  Al3  1  0.25000000  0.25000000  0.25000000  1
  Al  Al4  1  0.50000000  0.50000000  0.00000000  1
  Al  Al5  1  0.00000000  0.50000000  0.50000000  1
  Al  Al6  1  0.75000000  0.25000000  0.25000000  1
  Al  Al7  1  0.75000000  0.75000000  0.75000000  1
  Li  Li8  1  0.00000000  0.75000000  0.12500000  1
  Li  Li9  1  0.50000000  0.75000000  0.37500000  1
  Li  Li10  1  0.50000000  0.25000000  0.62500000  1
  Li  Li11  1  0.00000000  0.25000000  0.87500000  1
  Li  Li12  1  0.00000000  0.25000000  0.37500000  1
  Li  Li13  1  0.00000000  0.75000000  0.62500000  1
  Li  Li14  1  0.50000000  0.75000000  0.87500000  1
  Li  Li15  1  0.50000000  0.25000000  0.12500000  1
  Te  Te16  1  0.33281164  0.00000000  0.00000000  1
  Te  Te17  1  0.16718836  0.00000000  0.50000000  1
  Te  Te18  1  0.25000000  1.08281164  0.25000000  1
  Te  Te19  1  0.25000000  -0.08281164  0.75000000  1
  Te  Te20  1  -0.33281164  0.00000000  0.00000000  1
  Te  Te21  1  0.83281164  0.00000000  0.50000000  1
  Te  Te22  1  0.75000000  -0.08281164  0.75000000  1
  Te  Te23  1  0.75000000  1.08281164  0.25000000  1
  Te  Te24  1  0.83281164  0.50000000  0.50000000  1
  Te  Te25  1  0.66718836  0.50000000  1.00000000  1
  Te  Te26  1  0.75000000  1.58281164  0.75000000  1
  Te  Te27  1  0.75000000  0.41718836  1.25000000  1
  Te  Te28  1  0.16718836  0.50000000  0.50000000  1
  Te  Te29  1  1.33281164  0.50000000  1.00000000  1
  Te  Te30  1  1.25000000  0.41718836  1.25000000  1
  Te  Te31  1  1.25000000  1.58281164  0.75000000  1
