# generated using pymatgen
data_Li(NiO4)2
_symmetry_space_group_name_H-M   'P 1'
_cell_length_a   4.31835311
_cell_length_b   3.66169207
_cell_length_c   4.85882991
_cell_angle_alpha   93.77671820
_cell_angle_beta   85.35074343
_cell_angle_gamma   92.35226784
_symmetry_Int_Tables_number   1
_chemical_formula_structural   Li(NiO4)2
_chemical_formula_sum   'Li1 Ni2 O8'
_cell_volume   76.36178526
_cell_formula_units_Z   1
loop_
 _symmetry_equiv_pos_site_id
 _symmetry_equiv_pos_as_xyz
  1  'x, y, z'
loop_
 _atom_site_type_symbol
 _atom_site_label
 _atom_site_symmetry_multiplicity
 _atom_site_fract_x
 _atom_site_fract_y
 _atom_site_fract_z
 _atom_site_occupancy
  Li  Li0  1  0.00000000  0.00000000  0.00000000  1
  Ni  Ni1  1  0.50000000  0.50000000  0.50000000  1
  Ni  Ni2  1  0.50000000  0.50000000  0.00000000  1
  O  O3  1  0.50000000  0.00000000  0.50000000  1
  O  O4  1  0.00000000  0.50000000  0.50000000  1
  O  O5  1  0.85811405  0.73524098  0.14649701  1
  O  O6  1  0.06304054  0.27478217  0.03058925  1
  O  O7  1  0.27740498  0.08027658  0.83122777  1
  O  O8  1  0.72088655  0.60358078  0.04202934  1
  O  O9  1  0.10158389  0.31673401  0.26526915  1
  O  O10  1  0.52102062  0.23921424  0.57021525  1
