# generated using pymatgen
data_Li6TiO3
_symmetry_space_group_name_H-M   'P 1'
_cell_length_a   3.45290909
_cell_length_b   2.86791397
_cell_length_c   5.19263056
_cell_angle_alpha   119.36294129
_cell_angle_beta   97.53270122
_cell_angle_gamma   91.21581971
_symmetry_Int_Tables_number   1
_chemical_formula_structural   Li6TiO3
_chemical_formula_sum   'Li6 Ti1 O3'
_cell_volume   44.21001423
_cell_formula_units_Z   1
loop_
 _symmetry_equiv_pos_site_id
 _symmetry_equiv_pos_as_xyz
  1  'x, y, z'
loop_
 _atom_site_type_symbol
 _atom_site_label
 _atom_site_symmetry_multiplicity
 _atom_site_fract_x
 _atom_site_fract_y
 _atom_site_fract_z
 _atom_site_occupancy
  Li  Li0  1  0.00000000  0.00000000  0.00000000  1
  Li  Li1  1  0.33300000  0.66700000  0.25000000  1
  Li  Li2  1  0.66700000  0.33300000  0.50000000  1
  Li  Li3  1  0.00000000  0.00000000  0.75000000  1
  Li  Li4  1  0.41747265  0.29275316  0.51419476  1
  Li  Li5  1  0.87124226  0.68922854  0.36214152  1
  Ti  Ti6  1  0.23336641  0.82690950  0.23213457  1
  O  O7  1  0.78444095  0.09907253  0.22103821  1
  O  O8  1  0.08135934  0.97301704  0.73472554  1
  O  O9  1  0.69710784  0.45637199  0.16588776  1
