# generated using pymatgen
data_LiBr
_symmetry_space_group_name_H-M   'P 1'
_cell_length_a   7.33348198
_cell_length_b   7.33348198
_cell_length_c   14.69604061
_cell_angle_alpha   90.00000000
_cell_angle_beta   90.00000000
_cell_angle_gamma   90.00000000
_symmetry_Int_Tables_number   1
_chemical_formula_structural   LiBr
_chemical_formula_sum   'Li16 Br16'
_cell_volume   790.35244544
_cell_formula_units_Z   16
loop_
 _symmetry_equiv_pos_site_id
 _symmetry_equiv_pos_as_xyz
  1  'x, y, z'
loop_
 _atom_site_type_symbol
 _atom_site_label
 _atom_site_symmetry_multiplicity
 _atom_site_fract_x
 _atom_site_fract_y
 _atom_site_fract_z
 _atom_site_occupancy
  Br  Br0  1  0.79248571  0.79248571  0.10166278  1
  Br  Br1  1  -0.79248571  -0.79248571  0.10166278  1
  Br  Br2  1  -0.79248571  0.79248571  0.10166278  1
  Br  Br3  1  0.79248571  -0.79248571  0.10166278  1
  Br  Br4  1  -0.79248571  0.79248571  -0.10166278  1
  Br  Br5  1  0.79248571  -0.79248571  -0.10166278  1
  Br  Br6  1  0.79248571  0.79248571  -0.10166278  1
  Br  Br7  1  -0.79248571  -0.79248571  -0.10166278  1
  Br  Br8  1  0.83159425  0.60372393  0.50000000  1
  Br  Br9  1  0.16840575  0.39627607  0.50000000  1
  Br  Br10  1  0.39627607  0.83159425  0.50000000  1
  Br  Br11  1  0.60372393  0.16840575  0.50000000  1
  Br  Br12  1  0.16840575  0.60372393  0.50000000  1
  Br  Br13  1  0.83159425  0.39627607  0.50000000  1
  Br  Br14  1  0.60372393  0.83159425  0.50000000  1
  Br  Br15  1  0.39627607  0.16840575  0.50000000  1
  Li  Li16  1  0.66334741  0.50000000  0.73022924  1
  Li  Li17  1  0.33665259  0.50000000  0.73022924  1
  Li  Li18  1  0.50000000  0.66334741  0.73022924  1
  Li  Li19  1  0.50000000  0.33665259  0.73022924  1
  Li  Li20  1  0.33665259  0.50000000  0.26977076  1
  Li  Li21  1  0.66334741  0.50000000  0.26977076  1
  Li  Li22  1  0.50000000  0.66334741  0.26977076  1
  Li  Li23  1  0.50000000  0.33665259  0.26977076  1
  Li  Li24  1  0.50000000  0.50000000  0.82961188  1
  Li  Li25  1  0.50000000  0.50000000  0.17038812  1
  Li  Li26  1  0.21750040  0.50000000  -0.00000000  1
  Li  Li27  1  0.78249960  0.50000000  0.00000000  1
  Li  Li28  1  0.50000000  0.21750040  -0.00000000  1
  Li  Li29  1  0.50000000  0.78249960  0.00000000  1
  Li  Li30  1  0.00000000  0.00000000  0.50000000  1
  Li  Li31  1  0.00000000  0.00000000  0.00000000  1
