# generated using pymatgen
data_Li3ZnO4
_symmetry_space_group_name_H-M   'P 1'
_cell_length_a   7.53239058
_cell_length_b   8.43723579
_cell_length_c   6.90990570
_cell_angle_alpha   90.00000000
_cell_angle_beta   90.00000000
_cell_angle_gamma   90.00000000
_symmetry_Int_Tables_number   1
_chemical_formula_structural   Li3ZnO4
_chemical_formula_sum   'Li3 Zn1 O4'
_cell_volume   439.14216484
_cell_formula_units_Z   1
loop_
 _symmetry_equiv_pos_site_id
 _symmetry_equiv_pos_as_xyz
  1  'x, y, z'
loop_
 _atom_site_type_symbol
 _atom_site_label
 _atom_site_symmetry_multiplicity
 _atom_site_fract_x
 _atom_site_fract_y
 _atom_site_fract_z
 _atom_site_occupancy
  Li  Li0  1  0.12500000  0.12500000  0.12500000  1
  Li  Li1  1  0.50000000  0.50000000  0.50000000  1
  Li  Li2  1  0.25000000  0.25000000  0.25000000  1
  Zn  Zn3  1  0.75000000  0.75000000  0.75000000  1
  O  O4  1  0.09346888  0.41614395  0.09143865  1
  O  O5  1  0.31579589  0.00594018  0.57146842  1
  O  O6  1  0.19671219  0.37125823  0.30837277  1
  O  O7  1  0.23412451  0.60614884  0.36361916  1
