# generated using pymatgen
data_Li2S
_symmetry_space_group_name_H-M   'P 1'
_cell_length_a   9.76111797
_cell_length_b   9.76111797
_cell_length_c   9.76111797
_cell_angle_alpha   90.00000000
_cell_angle_beta   90.00000000
_cell_angle_gamma   90.00000000
_symmetry_Int_Tables_number   1
_chemical_formula_structural   Li2S
_chemical_formula_sum   'Li24 S12'
_cell_volume   930.03369697
_cell_formula_units_Z   12
loop_
 _symmetry_equiv_pos_site_id
 _symmetry_equiv_pos_as_xyz
  1  'x, y, z'
loop_
 _atom_site_type_symbol
 _atom_site_label
 _atom_site_symmetry_multiplicity
 _atom_site_fract_x
 _atom_site_fract_y
 _atom_site_fract_z
 _atom_site_occupancy
  Li  Li0  1  0.12500000  0.09683324  0.34683324  1
  Li  Li1  1  0.37500000  -0.09683324  0.84683324  1
  Li  Li2  1  0.87500000  0.59683324  0.15316676  1
  Li  Li3  1  0.62500000  0.40316676  0.65316676  1
  Li  Li4  1  0.34683324  0.12500000  0.09683324  1
  Li  Li5  1  0.84683324  0.37500000  -0.09683324  1
  Li  Li6  1  0.15316676  0.87500000  0.59683324  1
  Li  Li7  1  0.65316676  0.62500000  0.40316676  1
  Li  Li8  1  0.09683324  0.34683324  0.12500000  1
  Li  Li9  1  -0.09683324  0.84683324  0.37500000  1
  Li  Li10  1  0.59683324  0.15316676  0.87500000  1
  Li  Li11  1  0.40316676  0.65316676  0.62500000  1
  Li  Li12  1  0.62500000  0.59683324  0.84683324  1
  Li  Li13  1  0.87500000  0.40316676  1.34683324  1
  Li  Li14  1  1.37500000  1.09683324  0.65316676  1
  Li  Li15  1  1.12500000  0.90316676  1.15316676  1
  Li  Li16  1  0.84683324  0.62500000  0.59683324  1
  Li  Li17  1  1.34683324  0.87500000  0.40316676  1
  Li  Li18  1  0.65316676  1.37500000  1.09683324  1
  Li  Li19  1  1.15316676  1.12500000  0.90316676  1
  Li  Li20  1  0.59683324  0.84683324  0.62500000  1
  Li  Li21  1  0.40316676  1.34683324  0.87500000  1
  Li  Li22  1  1.09683324  0.65316676  1.37500000  1
  Li  Li23  1  0.90316676  1.15316676  1.12500000  1
  S  S24  1  0.62500000  0.00000000  0.25000000  1
  S  S25  1  0.87500000  -0.00000000  0.75000000  1
  S  S26  1  0.25000000  0.62500000  0.00000000  1
  S  S27  1  0.75000000  0.87500000  -0.00000000  1
  S  S28  1  0.00000000  0.25000000  0.62500000  1
  S  S29  1  0.00000000  0.75000000  0.87500000  1
  S  S30  1  0.12500000  0.50000000  0.75000000  1
  S  S31  1  0.37500000  0.50000000  0.25000000  1
  S  S32  1  0.75000000  0.12500000  0.50000000  1
  S  S33  1  0.25000000  0.37500000  0.50000000  1
  S  S34  1  0.50000000  0.75000000  0.12500000  1
  S  S35  1  0.50000000  0.25000000  0.37500000  1
