# generated using pymatgen
data_LiCa12Se6S6Cl
_symmetry_space_group_name_H-M   'P 1'
_cell_length_a   13.29087962
_cell_length_b   13.29087962
_cell_length_c   29.39426529
_cell_angle_alpha   90.00000000
_cell_angle_beta   90.00000000
_cell_angle_gamma   120.00000000
_symmetry_Int_Tables_number   1
_chemical_formula_structural   LiCa12Se6S6Cl
_chemical_formula_sum   'Li6 Ca72 Se36 S36 Cl6'
_cell_volume   4496.77015837
_cell_formula_units_Z   6
loop_
 _symmetry_equiv_pos_site_id
 _symmetry_equiv_pos_as_xyz
  1  'x, y, z'
loop_
 _atom_site_type_symbol
 _atom_site_label
 _atom_site_symmetry_multiplicity
 _atom_site_fract_x
 _atom_site_fract_y
 _atom_site_fract_z
 _atom_site_occupancy
  Ca  Ca0  1  0.48220258  0.37134722  0.45422994  1
  Ca  Ca1  1  -0.37134722  0.11085536  0.45422994  1
  Ca  Ca2  1  -0.11085536  -0.48220258  0.45422994  1
  Ca  Ca3  1  0.37134722  0.48220258  0.04577006  1
  Ca  Ca4  1  0.11085536  -0.37134722  0.04577006  1
  Ca  Ca5  1  -0.48220258  -0.11085536  0.04577006  1
  Ca  Ca6  1  -0.48220258  -0.37134722  -0.45422994  1
  Ca  Ca7  1  0.37134722  -0.11085536  -0.45422994  1
  Ca  Ca8  1  0.11085536  0.48220258  -0.45422994  1
  Ca  Ca9  1  -0.37134722  -0.48220258  0.95422994  1
  Ca  Ca10  1  -0.11085536  0.37134722  0.95422994  1
  Ca  Ca11  1  0.48220258  0.11085536  0.95422994  1
  Ca  Ca12  1  1.14886925  0.70468055  0.78756328  1
  Ca  Ca13  1  0.29531945  0.44418870  0.78756328  1
  Ca  Ca14  1  0.55581130  -0.14886925  0.78756328  1
  Ca  Ca15  1  1.03801388  0.81553591  0.37910339  1
  Ca  Ca16  1  0.77752203  -0.03801388  0.37910339  1
  Ca  Ca17  1  0.18446409  0.22247797  0.37910339  1
  Ca  Ca18  1  0.18446409  -0.03801388  -0.12089661  1
  Ca  Ca19  1  1.03801388  0.22247797  -0.12089661  1
  Ca  Ca20  1  0.77752203  0.81553591  -0.12089661  1
  Ca  Ca21  1  0.29531945  -0.14886925  1.28756328  1
  Ca  Ca22  1  0.55581130  0.70468055  1.28756328  1
  Ca  Ca23  1  1.14886925  0.44418870  1.28756328  1
  Ca  Ca24  1  0.81553591  1.03801388  1.12089661  1
  Ca  Ca25  1  -0.03801388  0.77752203  1.12089661  1
  Ca  Ca26  1  0.22247797  0.18446409  1.12089661  1
  Ca  Ca27  1  0.70468055  1.14886925  0.71243672  1
  Ca  Ca28  1  0.44418870  0.29531945  0.71243672  1
  Ca  Ca29  1  -0.14886925  0.55581130  0.71243672  1
  Ca  Ca30  1  -0.14886925  0.29531945  0.21243672  1
  Ca  Ca31  1  0.70468055  0.55581130  0.21243672  1
  Ca  Ca32  1  0.44418870  1.14886925  0.21243672  1
  Ca  Ca33  1  -0.03801388  0.18446409  1.62089661  1
  Ca  Ca34  1  0.22247797  1.03801388  1.62089661  1
  Ca  Ca35  1  0.81553591  0.77752203  1.62089661  1
  Ca  Ca36  1  0.20460729  0.51260231  0.86620915  1
  Ca  Ca37  1  0.48739769  0.69200497  0.86620915  1
  Ca  Ca38  1  0.30799503  0.79539271  0.86620915  1
  Ca  Ca39  1  0.51260231  0.20460729  0.63379085  1
  Ca  Ca40  1  0.69200497  0.48739769  0.63379085  1
  Ca  Ca41  1  0.79539271  0.30799503  0.63379085  1
  Ca  Ca42  1  0.79539271  0.48739769  0.13379085  1
  Ca  Ca43  1  0.51260231  0.30799503  0.13379085  1
  Ca  Ca44  1  0.69200497  0.20460729  0.13379085  1
  Ca  Ca45  1  0.48739769  0.79539271  0.36620915  1
  Ca  Ca46  1  0.30799503  0.51260231  0.36620915  1
  Ca  Ca47  1  0.20460729  0.69200497  0.36620915  1
  Ca  Ca48  1  0.87127395  0.84593565  0.19954248  1
  Ca  Ca49  1  0.15406435  0.02533830  0.19954248  1
  Ca  Ca50  1  0.97466170  0.12872605  0.19954248  1
  Ca  Ca51  1  0.17926898  0.53794062  0.96712419  1
  Ca  Ca52  1  0.35867164  0.82073102  0.96712419  1
  Ca  Ca53  1  0.46205938  0.64132836  0.96712419  1
  Ca  Ca54  1  0.46205938  0.82073102  0.46712419  1
  Ca  Ca55  1  0.17926898  0.64132836  0.46712419  1
  Ca  Ca56  1  0.35867164  0.53794062  0.46712419  1
  Ca  Ca57  1  0.15406435  0.12872605  0.69954248  1
  Ca  Ca58  1  0.97466170  0.84593565  0.69954248  1
  Ca  Ca59  1  0.87127395  0.02533830  0.69954248  1
  Ca  Ca60  1  0.53794062  0.17926898  0.53287581  1
  Ca  Ca61  1  0.82073102  0.35867164  0.53287581  1
  Ca  Ca62  1  0.64132836  0.46205938  0.53287581  1
  Ca  Ca63  1  0.84593565  0.87127395  0.30045752  1
  Ca  Ca64  1  0.02533830  0.15406435  0.30045752  1
  Ca  Ca65  1  0.12872605  0.97466170  0.30045752  1
  Ca  Ca66  1  0.12872605  0.15406435  0.80045752  1
  Ca  Ca67  1  0.84593565  0.97466170  0.80045752  1
  Ca  Ca68  1  0.02533830  0.87127395  0.80045752  1
  Ca  Ca69  1  0.82073102  0.46205938  0.03287581  1
  Ca  Ca70  1  0.64132836  0.17926898  0.03287581  1
  Ca  Ca71  1  0.53794062  0.35867164  0.03287581  1
  Cl  Cl72  1  0.00000000  0.00000000  0.25000000  1
  Cl  Cl73  1  0.00000000  0.00000000  0.75000000  1
  Cl  Cl74  1  0.66666667  0.33333333  0.58333333  1
  Cl  Cl75  1  0.66666667  0.33333333  0.08333333  1
  Cl  Cl76  1  0.33333333  0.66666667  0.91666667  1
  Cl  Cl77  1  0.33333333  0.66666667  0.41666667  1
  Li  Li78  1  0.00000000  0.00000000  0.00000000  1
  Li  Li79  1  0.00000000  0.00000000  0.50000000  1
  Li  Li80  1  0.66666667  0.33333333  0.33333333  1
  Li  Li81  1  0.66666667  0.33333333  0.83333333  1
  Li  Li82  1  0.33333333  0.66666667  0.66666667  1
  Li  Li83  1  0.33333333  0.66666667  0.16666667  1
  S  S84  1  0.29581067  0.00000000  0.25000000  1
  S  S85  1  0.00000000  0.29581067  0.25000000  1
  S  S86  1  0.70418933  0.70418933  0.25000000  1
  S  S87  1  0.70418933  0.00000000  0.75000000  1
  S  S88  1  0.00000000  0.70418933  0.75000000  1
  S  S89  1  0.29581067  0.29581067  0.75000000  1
  S  S90  1  0.96247733  0.33333333  0.58333333  1
  S  S91  1  0.66666667  0.62914400  0.58333333  1
  S  S92  1  0.37085600  0.03752267  0.58333333  1
  S  S93  1  0.37085600  0.33333333  0.08333333  1
  S  S94  1  0.66666667  0.03752267  0.08333333  1
  S  S95  1  0.96247733  0.62914400  0.08333333  1
  S  S96  1  0.62914400  0.66666667  0.91666667  1
  S  S97  1  0.33333333  0.96247733  0.91666667  1
  S  S98  1  0.03752267  0.37085600  0.91666667  1
  S  S99  1  0.03752267  0.66666667  0.41666667  1
  S  S100  1  0.33333333  0.37085600  0.41666667  1
  S  S101  1  0.62914400  0.96247733  0.41666667  1
  S  S102  1  0.65280122  -0.00000000  0.25000000  1
  S  S103  1  0.00000000  0.65280122  0.25000000  1
  S  S104  1  0.34719878  0.34719878  0.25000000  1
  S  S105  1  0.34719878  0.00000000  0.75000000  1
  S  S106  1  0.00000000  0.34719878  0.75000000  1
  S  S107  1  0.65280122  0.65280122  0.75000000  1
  S  S108  1  0.31946788  0.33333333  0.58333333  1
  S  S109  1  0.66666667  0.98613455  0.58333333  1
  S  S110  1  0.01386545  0.68053212  0.58333333  1
  S  S111  1  0.01386545  0.33333333  0.08333333  1
  S  S112  1  0.66666667  0.68053212  0.08333333  1
  S  S113  1  0.31946788  0.98613455  0.08333333  1
  S  S114  1  0.98613455  0.66666667  0.91666667  1
  S  S115  1  0.33333333  0.31946788  0.91666667  1
  S  S116  1  0.68053212  0.01386545  0.91666667  1
  S  S117  1  0.68053212  0.66666667  0.41666667  1
  S  S118  1  0.33333333  0.01386545  0.41666667  1
  S  S119  1  0.98613455  0.31946788  0.41666667  1
  Se  Se120  1  0.43993604  0.57572702  0.89781507  1
  Se  Se121  1  0.42427298  0.86420901  0.89781507  1
  Se  Se122  1  0.13579099  0.56006396  0.89781507  1
  Se  Se123  1  0.57572702  0.43993604  0.60218493  1
  Se  Se124  1  0.86420901  0.42427298  0.60218493  1
  Se  Se125  1  0.56006396  0.13579099  0.60218493  1
  Se  Se126  1  0.56006396  0.42427298  0.10218493  1
  Se  Se127  1  0.57572702  0.13579099  0.10218493  1
  Se  Se128  1  0.86420901  0.43993604  0.10218493  1
  Se  Se129  1  0.42427298  0.56006396  0.39781507  1
  Se  Se130  1  0.13579099  0.57572702  0.39781507  1
  Se  Se131  1  0.43993604  0.86420901  0.39781507  1
  Se  Se132  1  0.10660270  0.90906036  0.23114840  1
  Se  Se133  1  0.09093964  0.19754234  0.23114840  1
  Se  Se134  1  0.80245766  0.89339730  0.23114840  1
  Se  Se135  1  0.24239369  0.77326937  0.93551827  1
  Se  Se136  1  0.53087568  0.75760631  0.93551827  1
  Se  Se137  1  0.22673063  0.46912432  0.93551827  1
  Se  Se138  1  0.22673063  0.75760631  0.43551827  1
  Se  Se139  1  0.24239369  0.46912432  0.43551827  1
  Se  Se140  1  0.53087568  0.77326937  0.43551827  1
  Se  Se141  1  0.09093964  0.89339730  0.73114840  1
  Se  Se142  1  0.80245766  0.90906036  0.73114840  1
  Se  Se143  1  0.10660270  0.19754234  0.73114840  1
  Se  Se144  1  0.77326937  0.24239369  0.56448173  1
  Se  Se145  1  0.75760631  0.53087568  0.56448173  1
  Se  Se146  1  0.46912432  0.22673063  0.56448173  1
  Se  Se147  1  0.90906036  0.10660270  0.26885160  1
  Se  Se148  1  0.19754234  0.09093964  0.26885160  1
  Se  Se149  1  0.89339730  0.80245766  0.26885160  1
  Se  Se150  1  0.89339730  0.09093964  0.76885160  1
  Se  Se151  1  0.90906036  0.80245766  0.76885160  1
  Se  Se152  1  0.19754234  0.10660270  0.76885160  1
  Se  Se153  1  0.75760631  0.22673063  0.06448173  1
  Se  Se154  1  0.46912432  0.24239369  0.06448173  1
  Se  Se155  1  0.77326937  0.53087568  0.06448173  1
