# generated using pymatgen
data_Li3SeCl
_symmetry_space_group_name_H-M   'P 1'
_cell_length_a   8.34009245
_cell_length_b   12.48001393
_cell_length_c   10.86510095
_cell_angle_alpha   90.00000000
_cell_angle_beta   90.00000000
_cell_angle_gamma   90.00000000
_symmetry_Int_Tables_number   1
_chemical_formula_structural   Li3SeCl
_chemical_formula_sum   'Li48 Se16 Cl16'
_cell_volume   1130.88827279
_cell_formula_units_Z   16
loop_
 _symmetry_equiv_pos_site_id
 _symmetry_equiv_pos_as_xyz
  1  'x, y, z'
loop_
 _atom_site_type_symbol
 _atom_site_label
 _atom_site_symmetry_multiplicity
 _atom_site_fract_x
 _atom_site_fract_y
 _atom_site_fract_z
 _atom_site_occupancy
  Cl  Cl0  1  0.12500000  0.12500000  0.62500000  1
  Cl  Cl1  1  0.87500000  0.87500000  0.37500000  1
  Cl  Cl2  1  0.12500000  0.62500000  0.12500000  1
  Cl  Cl3  1  0.87500000  0.37500000  0.87500000  1
  Cl  Cl4  1  0.62500000  0.12500000  0.12500000  1
  Cl  Cl5  1  0.37500000  0.87500000  0.87500000  1
  Cl  Cl6  1  0.62500000  0.62500000  0.62500000  1
  Cl  Cl7  1  0.37500000  0.37500000  0.37500000  1
  Cl  Cl8  1  0.12500000  0.12500000  0.12500000  1
  Cl  Cl9  1  0.87500000  0.87500000  0.87500000  1
  Cl  Cl10  1  0.12500000  0.62500000  0.62500000  1
  Cl  Cl11  1  0.87500000  0.37500000  0.37500000  1
  Cl  Cl12  1  0.62500000  0.12500000  0.62500000  1
  Cl  Cl13  1  0.37500000  0.87500000  0.37500000  1
  Cl  Cl14  1  0.62500000  0.62500000  0.12500000  1
  Cl  Cl15  1  0.37500000  0.37500000  0.87500000  1
  Li  Li16  1  0.12500000  0.01944359  0.12500000  1
  Li  Li17  1  0.62500000  0.73055641  0.12500000  1
  Li  Li18  1  0.87500000  0.98055641  0.87500000  1
  Li  Li19  1  0.37500000  0.26944359  0.87500000  1
  Li  Li20  1  0.12500000  0.51944359  0.62500000  1
  Li  Li21  1  0.62500000  0.23055641  0.62500000  1
  Li  Li22  1  0.87500000  0.48055641  0.37500000  1
  Li  Li23  1  0.37500000  0.76944359  0.37500000  1
  Li  Li24  1  0.62500000  0.01944359  0.62500000  1
  Li  Li25  1  0.12500000  0.73055641  0.62500000  1
  Li  Li26  1  0.37500000  0.98055641  0.37500000  1
  Li  Li27  1  0.87500000  0.26944359  0.37500000  1
  Li  Li28  1  0.62500000  0.51944359  0.12500000  1
  Li  Li29  1  0.12500000  0.23055641  0.12500000  1
  Li  Li30  1  0.37500000  0.48055641  0.87500000  1
  Li  Li31  1  0.87500000  0.76944359  0.87500000  1
  Li  Li32  1  0.30164074  0.55784929  0.77640860  1
  Li  Li33  1  0.44835926  0.19215071  0.77640860  1
  Li  Li34  1  0.44835926  0.55784929  -0.02640860  1
  Li  Li35  1  0.30164074  0.19215071  -0.02640860  1
  Li  Li36  1  -0.30164074  -0.55784929  -0.77640860  1
  Li  Li37  1  0.55164074  0.80784929  -0.77640860  1
  Li  Li38  1  0.55164074  -0.55784929  1.02640860  1
  Li  Li39  1  -0.30164074  0.80784929  1.02640860  1
  Li  Li40  1  0.30164074  1.05784929  1.27640860  1
  Li  Li41  1  0.44835926  0.69215071  1.27640860  1
  Li  Li42  1  0.44835926  1.05784929  0.47359140  1
  Li  Li43  1  0.30164074  0.69215071  0.47359140  1
  Li  Li44  1  -0.30164074  -0.05784929  -0.27640860  1
  Li  Li45  1  0.55164074  1.30784929  -0.27640860  1
  Li  Li46  1  0.55164074  -0.05784929  1.52640860  1
  Li  Li47  1  -0.30164074  1.30784929  1.52640860  1
  Li  Li48  1  0.80164074  0.55784929  1.27640860  1
  Li  Li49  1  0.94835926  0.19215071  1.27640860  1
  Li  Li50  1  0.94835926  0.55784929  0.47359140  1
  Li  Li51  1  0.80164074  0.19215071  0.47359140  1
  Li  Li52  1  0.19835926  -0.55784929  -0.27640860  1
  Li  Li53  1  1.05164074  0.80784929  -0.27640860  1
  Li  Li54  1  1.05164074  -0.55784929  1.52640860  1
  Li  Li55  1  0.19835926  0.80784929  1.52640860  1
  Li  Li56  1  0.80164074  1.05784929  0.77640860  1
  Li  Li57  1  0.94835926  0.69215071  0.77640860  1
  Li  Li58  1  0.94835926  1.05784929  -0.02640860  1
  Li  Li59  1  0.80164074  0.69215071  -0.02640860  1
  Li  Li60  1  0.19835926  -0.05784929  -0.77640860  1
  Li  Li61  1  1.05164074  1.30784929  -0.77640860  1
  Li  Li62  1  1.05164074  -0.05784929  1.02640860  1
  Li  Li63  1  0.19835926  1.30784929  1.02640860  1
  Se  Se64  1  0.50000000  0.50000000  0.50000000  1
  Se  Se65  1  0.25000000  0.25000000  0.50000000  1
  Se  Se66  1  0.25000000  0.50000000  0.25000000  1
  Se  Se67  1  0.50000000  0.25000000  0.25000000  1
  Se  Se68  1  0.50000000  0.00000000  0.00000000  1
  Se  Se69  1  0.25000000  0.75000000  0.00000000  1
  Se  Se70  1  0.25000000  0.00000000  0.75000000  1
  Se  Se71  1  0.50000000  0.75000000  0.75000000  1
  Se  Se72  1  0.00000000  0.50000000  0.00000000  1
  Se  Se73  1  0.75000000  0.25000000  0.00000000  1
  Se  Se74  1  0.75000000  0.50000000  0.75000000  1
  Se  Se75  1  0.00000000  0.25000000  0.75000000  1
  Se  Se76  1  0.00000000  0.00000000  0.50000000  1
  Se  Se77  1  0.75000000  0.75000000  0.50000000  1
  Se  Se78  1  0.75000000  0.00000000  0.25000000  1
  Se  Se79  1  0.00000000  0.75000000  0.25000000  1
