# generated using pymatgen
data_Li2Se
_symmetry_space_group_name_H-M   'P 1'
_cell_length_a   9.93961663
_cell_length_b   9.93961663
_cell_length_c   9.93961663
_cell_angle_alpha   90.00000000
_cell_angle_beta   90.00000000
_cell_angle_gamma   90.00000000
_symmetry_Int_Tables_number   1
_chemical_formula_structural   Li2Se
_chemical_formula_sum   'Li48 Se24'
_cell_volume   981.99415214
_cell_formula_units_Z   24
loop_
 _symmetry_equiv_pos_site_id
 _symmetry_equiv_pos_as_xyz
  1  'x, y, z'
loop_
 _atom_site_type_symbol
 _atom_site_label
 _atom_site_symmetry_multiplicity
 _atom_site_fract_x
 _atom_site_fract_y
 _atom_site_fract_z
 _atom_site_occupancy
  Li  Li0  1  0.32468057  0.12500000  0.12500000  1
  Li  Li1  1  0.42531943  0.12500000  0.62500000  1
  Li  Li2  1  0.12500000  0.32468057  0.12500000  1
  Li  Li3  1  0.62500000  0.42531943  0.12500000  1
  Li  Li4  1  0.12500000  0.12500000  0.32468057  1
  Li  Li5  1  0.12500000  0.62500000  0.42531943  1
  Li  Li6  1  0.87500000  0.57468057  0.37500000  1
  Li  Li7  1  0.87500000  -0.32468057  0.87500000  1
  Li  Li8  1  1.07468057  0.37500000  0.37500000  1
  Li  Li9  1  0.17531943  0.87500000  0.37500000  1
  Li  Li10  1  0.87500000  0.37500000  0.17531943  1
  Li  Li11  1  0.37500000  0.37500000  1.07468057  1
  Li  Li12  1  0.32468057  0.62500000  0.62500000  1
  Li  Li13  1  0.42531943  0.62500000  1.12500000  1
  Li  Li14  1  0.12500000  0.82468057  0.62500000  1
  Li  Li15  1  0.62500000  0.92531943  0.62500000  1
  Li  Li16  1  0.12500000  0.62500000  0.82468057  1
  Li  Li17  1  0.12500000  1.12500000  0.92531943  1
  Li  Li18  1  0.87500000  1.07468057  0.87500000  1
  Li  Li19  1  0.87500000  0.17531943  1.37500000  1
  Li  Li20  1  1.07468057  0.87500000  0.87500000  1
  Li  Li21  1  0.17531943  1.37500000  0.87500000  1
  Li  Li22  1  0.87500000  0.87500000  0.67531943  1
  Li  Li23  1  0.37500000  0.87500000  1.57468057  1
  Li  Li24  1  0.82468057  0.12500000  0.62500000  1
  Li  Li25  1  0.92531943  0.12500000  1.12500000  1
  Li  Li26  1  0.62500000  0.32468057  0.62500000  1
  Li  Li27  1  1.12500000  0.42531943  0.62500000  1
  Li  Li28  1  0.62500000  0.12500000  0.82468057  1
  Li  Li29  1  0.62500000  0.62500000  0.92531943  1
  Li  Li30  1  1.37500000  0.57468057  0.87500000  1
  Li  Li31  1  1.37500000  -0.32468057  1.37500000  1
  Li  Li32  1  1.57468057  0.37500000  0.87500000  1
  Li  Li33  1  0.67531943  0.87500000  0.87500000  1
  Li  Li34  1  1.37500000  0.37500000  0.67531943  1
  Li  Li35  1  0.87500000  0.37500000  1.57468057  1
  Li  Li36  1  0.82468057  0.62500000  0.12500000  1
  Li  Li37  1  0.92531943  0.62500000  0.62500000  1
  Li  Li38  1  0.62500000  0.82468057  0.12500000  1
  Li  Li39  1  1.12500000  0.92531943  0.12500000  1
  Li  Li40  1  0.62500000  0.62500000  0.32468057  1
  Li  Li41  1  0.62500000  1.12500000  0.42531943  1
  Li  Li42  1  1.37500000  1.07468057  0.37500000  1
  Li  Li43  1  1.37500000  0.17531943  0.87500000  1
  Li  Li44  1  1.57468057  0.87500000  0.37500000  1
  Li  Li45  1  0.67531943  1.37500000  0.37500000  1
  Li  Li46  1  1.37500000  0.87500000  0.17531943  1
  Li  Li47  1  0.87500000  0.87500000  1.07468057  1
  Se  Se48  1  0.50000000  0.50000000  0.50000000  1
  Se  Se49  1  0.25000000  0.75000000  0.00000000  1
  Se  Se50  1  0.75000000  0.00000000  0.25000000  1
  Se  Se51  1  0.00000000  0.25000000  0.75000000  1
  Se  Se52  1  0.50000000  0.00000000  0.00000000  1
  Se  Se53  1  0.25000000  0.25000000  0.50000000  1
  Se  Se54  1  0.75000000  0.50000000  0.75000000  1
  Se  Se55  1  0.00000000  0.75000000  0.25000000  1
  Se  Se56  1  0.00000000  0.50000000  0.00000000  1
  Se  Se57  1  0.75000000  0.75000000  0.50000000  1
  Se  Se58  1  0.25000000  0.00000000  0.75000000  1
  Se  Se59  1  0.50000000  0.25000000  0.25000000  1
  Se  Se60  1  0.00000000  0.00000000  0.50000000  1
  Se  Se61  1  0.75000000  0.25000000  0.00000000  1
  Se  Se62  1  0.25000000  0.50000000  0.25000000  1
  Se  Se63  1  0.50000000  0.75000000  0.75000000  1
  Se  Se64  1  0.12500000  0.12500000  0.12500000  1
  Se  Se65  1  0.87500000  0.37500000  0.37500000  1
  Se  Se66  1  0.12500000  0.62500000  0.62500000  1
  Se  Se67  1  0.87500000  0.87500000  0.87500000  1
  Se  Se68  1  0.62500000  0.12500000  0.62500000  1
  Se  Se69  1  0.37500000  0.37500000  0.87500000  1
  Se  Se70  1  0.62500000  0.62500000  0.12500000  1
  Se  Se71  1  0.37500000  0.87500000  0.37500000  1
