# generated using pymatgen
data_Li8HfZrSbO8F3
_symmetry_space_group_name_H-M   'P 1'
_cell_length_a   7.47601670
_cell_length_b   10.28456896
_cell_length_c   16.63940605
_cell_angle_alpha   90.00000000
_cell_angle_beta   90.00000000
_cell_angle_gamma   90.00000000
_symmetry_Int_Tables_number   1
_chemical_formula_structural   Li8HfZrSbO8F3
_chemical_formula_sum   'Li32 Hf4 Zr4 Sb4 O32 F12'
_cell_volume   1279.36415076
_cell_formula_units_Z   4
loop_
 _symmetry_equiv_pos_site_id
 _symmetry_equiv_pos_as_xyz
  1  'x, y, z'
loop_
 _atom_site_type_symbol
 _atom_site_label
 _atom_site_symmetry_multiplicity
 _atom_site_fract_x
 _atom_site_fract_y
 _atom_site_fract_z
 _atom_site_occupancy
  F  F0  1  0.88169008  0.48864407  0.32197538  1
  F  F1  1  0.11830992  0.51135593  0.32197538  1
  F  F2  1  0.61830992  0.98864407  0.17802462  1
  F  F3  1  0.38169008  0.01135593  0.17802462  1
  F  F4  1  0.11830992  0.51135593  0.67802462  1
  F  F5  1  0.88169008  0.48864407  0.67802462  1
  F  F6  1  0.38169008  0.01135593  0.82197538  1
  F  F7  1  0.61830992  0.98864407  0.82197538  1
  F  F8  1  0.09408494  0.74466813  0.00000000  1
  F  F9  1  0.90591506  0.25533187  0.00000000  1
  F  F10  1  0.40591506  0.24466813  0.50000000  1
  F  F11  1  0.59408494  0.75533187  0.50000000  1
  Hf  Hf12  1  0.00000000  0.50000000  -0.00000000  1
  Hf  Hf13  1  0.50000000  0.00000000  0.50000000  1
  Hf  Hf14  1  0.00000000  0.00000000  0.00000000  1
  Hf  Hf15  1  0.50000000  0.50000000  0.50000000  1
  Li  Li16  1  0.94352492  0.68185692  0.62740210  1
  Li  Li17  1  -0.94352492  -0.68185692  0.62740210  1
  Li  Li18  1  -0.44352492  1.18185692  -0.12740210  1
  Li  Li19  1  1.44352492  -0.18185692  -0.12740210  1
  Li  Li20  1  -0.94352492  -0.68185692  -0.62740210  1
  Li  Li21  1  0.94352492  0.68185692  -0.62740210  1
  Li  Li22  1  1.44352492  -0.18185692  1.12740210  1
  Li  Li23  1  -0.44352492  1.18185692  1.12740210  1
  Li  Li24  1  0.70889499  0.59042733  0.59975219  1
  Li  Li25  1  0.29110501  0.40957267  0.59975219  1
  Li  Li26  1  0.79110501  0.09042733  0.90024781  1
  Li  Li27  1  0.20889499  0.90957267  0.90024781  1
  Li  Li28  1  0.29110501  0.40957267  0.40024781  1
  Li  Li29  1  0.70889499  0.59042733  0.40024781  1
  Li  Li30  1  0.20889499  0.90957267  0.09975219  1
  Li  Li31  1  0.79110501  0.09042733  0.09975219  1
  Li  Li32  1  0.29223674  0.07995328  0.69547412  1
  Li  Li33  1  0.70776326  0.92004672  0.69547412  1
  Li  Li34  1  0.20776326  0.57995328  0.80452588  1
  Li  Li35  1  0.79223674  0.42004672  0.80452588  1
  Li  Li36  1  0.70776326  0.92004672  0.30452588  1
  Li  Li37  1  0.29223674  0.07995328  0.30452588  1
  Li  Li38  1  0.79223674  0.42004672  0.19547412  1
  Li  Li39  1  0.20776326  0.57995328  0.19547412  1
  Li  Li40  1  0.57601889  0.68312009  0.00000000  1
  Li  Li41  1  0.42398111  0.31687991  0.00000000  1
  Li  Li42  1  0.92398111  0.18312009  0.50000000  1
  Li  Li43  1  0.07601889  0.81687991  0.50000000  1
  Li  Li44  1  0.00000000  0.50000000  0.39798896  1
  Li  Li45  1  0.50000000  0.00000000  0.10201104  1
  Li  Li46  1  0.00000000  0.50000000  0.60201104  1
  Li  Li47  1  0.50000000  0.00000000  0.89798896  1
  O  O48  1  0.77211571  0.95514262  -0.00000000  1
  O  O49  1  0.22788429  0.04485738  0.00000000  1
  O  O50  1  0.72788429  0.45514262  0.50000000  1
  O  O51  1  0.27211571  0.54485738  0.50000000  1
  O  O52  1  0.38360651  0.63611051  0.45344202  1
  O  O53  1  0.61639349  0.36388949  0.45344202  1
  O  O54  1  0.11639349  0.13611051  0.04655798  1
  O  O55  1  0.88360651  0.86388949  0.04655798  1
  O  O56  1  0.61639349  0.36388949  0.54655798  1
  O  O57  1  0.38360651  0.63611051  0.54655798  1
  O  O58  1  0.88360651  0.86388949  0.95344202  1
  O  O59  1  0.11639349  0.13611051  0.95344202  1
  O  O60  1  0.50934046  0.57659624  0.34599071  1
  O  O61  1  0.49065954  0.42340376  0.34599071  1
  O  O62  1  0.99065954  0.07659624  0.15400929  1
  O  O63  1  0.00934046  0.92340376  0.15400929  1
  O  O64  1  0.49065954  0.42340376  0.65400929  1
  O  O65  1  0.50934046  0.57659624  0.65400929  1
  O  O66  1  0.00934046  0.92340376  0.84599071  1
  O  O67  1  0.99065954  0.07659624  0.84599071  1
  O  O68  1  0.10296252  0.11366926  0.86677988  1
  O  O69  1  0.89703748  0.88633074  0.86677988  1
  O  O70  1  0.39703748  0.61366926  0.63322012  1
  O  O71  1  0.60296252  0.38633074  0.63322012  1
  O  O72  1  0.89703748  0.88633074  0.13322012  1
  O  O73  1  0.10296252  0.11366926  0.13322012  1
  O  O74  1  0.60296252  0.38633074  0.36677988  1
  O  O75  1  0.39703748  0.61366926  0.36677988  1
  O  O76  1  0.00000000  0.50000000  0.09376007  1
  O  O77  1  0.50000000  0.00000000  0.40623993  1
  O  O78  1  0.00000000  0.50000000  0.90623993  1
  O  O79  1  0.50000000  0.00000000  0.59376007  1
  Sb  Sb80  1  0.75350223  0.20749006  0.00000000  1
  Sb  Sb81  1  0.24649777  0.79250994  0.00000000  1
  Sb  Sb82  1  0.74649777  0.70749006  0.50000000  1
  Sb  Sb83  1  0.25350223  0.29250994  0.50000000  1
  Zr  Zr84  1  0.00000000  0.00000000  0.50000000  1
  Zr  Zr85  1  0.50000000  0.50000000  0.00000000  1
  Zr  Zr86  1  0.00000000  0.50000000  0.50000000  1
  Zr  Zr87  1  0.50000000  0.00000000  -0.00000000  1
