# generated using pymatgen
data_Ca4Si3Te(ClF2)6
_symmetry_space_group_name_H-M   'P 1'
_cell_length_a   8.39099817
_cell_length_b   8.39099817
_cell_length_c   8.83003963
_cell_angle_alpha   90.00000000
_cell_angle_beta   90.00000000
_cell_angle_gamma   120.00000000
_symmetry_Int_Tables_number   1
_chemical_formula_structural   Ca4Si3Te(ClF2)6
_chemical_formula_sum   'Ca4 Si3 Te1 Cl6 F12'
_cell_volume   538.41919891
_cell_formula_units_Z   1
loop_
 _symmetry_equiv_pos_site_id
 _symmetry_equiv_pos_as_xyz
  1  'x, y, z'
loop_
 _atom_site_type_symbol
 _atom_site_label
 _atom_site_symmetry_multiplicity
 _atom_site_fract_x
 _atom_site_fract_y
 _atom_site_fract_z
 _atom_site_occupancy
  Ca  Ca0  1  0.00000000  0.00000000  0.00000000  1
  Ca  Ca1  1  0.42913721  0.00000000  0.00000000  1
  Ca  Ca2  1  0.00000000  0.42913721  0.00000000  1
  Ca  Ca3  1  0.57086279  0.57086279  0.00000000  1
  Cl  Cl4  1  0.33333333  0.66666667  0.50000000  1
  Cl  Cl5  1  0.66666667  0.33333333  0.50000000  1
  Cl  Cl6  1  0.33333333  0.66666667  0.81280935  1
  Cl  Cl7  1  0.33333333  0.66666667  0.18719065  1
  Cl  Cl8  1  0.66666667  0.33333333  0.18719065  1
  Cl  Cl9  1  0.66666667  0.33333333  0.81280935  1
  F  F10  1  0.78738491  0.70929446  0.95473678  1
  F  F11  1  -0.70929446  0.07809044  0.95473678  1
  F  F12  1  -0.07809044  -0.78738491  0.95473678  1
  F  F13  1  0.78738491  0.70929446  -0.95473678  1
  F  F14  1  -0.70929446  0.07809044  -0.95473678  1
  F  F15  1  -0.07809044  -0.78738491  -0.95473678  1
  F  F16  1  0.70929446  0.78738491  -0.95473678  1
  F  F17  1  0.07809044  -0.70929446  -0.95473678  1
  F  F18  1  -0.78738491  -0.07809044  -0.95473678  1
  F  F19  1  0.70929446  0.78738491  0.95473678  1
  F  F20  1  0.07809044  -0.70929446  0.95473678  1
  F  F21  1  -0.78738491  -0.07809044  0.95473678  1
  Si  Si22  1  0.33494768  0.00000000  0.50000000  1
  Si  Si23  1  0.00000000  0.33494768  0.50000000  1
  Si  Si24  1  0.66505232  0.66505232  0.50000000  1
  Te  Te25  1  0.00000000  0.00000000  0.50000000  1
