# generated using pymatgen
data_Li3La5YPb2N3F2
_symmetry_space_group_name_H-M   'P 1'
_cell_length_a   12.13190004
_cell_length_b   10.99101904
_cell_length_c   11.41257576
_cell_angle_alpha   90.00000000
_cell_angle_beta   90.00000000
_cell_angle_gamma   90.00000000
_symmetry_Int_Tables_number   1
_chemical_formula_structural   Li3La5YPb2N3F2
_chemical_formula_sum   'Li3 La5 Y1 Pb2 N3 F2'
_cell_volume   1521.77504183
_cell_formula_units_Z   1
loop_
 _symmetry_equiv_pos_site_id
 _symmetry_equiv_pos_as_xyz
  1  'x, y, z'
loop_
 _atom_site_type_symbol
 _atom_site_label
 _atom_site_symmetry_multiplicity
 _atom_site_fract_x
 _atom_site_fract_y
 _atom_site_fract_z
 _atom_site_occupancy
  Li  Li0  1  0.12500000  0.00000000  0.25000000  1
  Li  Li1  1  0.00000000  0.00000000  0.00000000  1
  Li  Li2  1  0.37500000  0.00000000  0.25000000  1
  La  La3  1  0.25000000  0.25000000  0.25000000  1
  La  La4  1  0.00000000  0.25000000  0.12500000  1
  La  La5  1  0.25902923  0.89619019  0.57570173  1
  La  La6  1  0.24282097  0.33541037  0.68209951  1
  La  La7  1  0.13807085  0.73602214  0.51059975  1
  Pb  Pb8  1  0.95180131  0.07669852  0.50087815  1
  Pb  Pb9  1  0.60358788  0.15716794  0.42848314  1
  F  F10  1  0.62088606  0.01786130  0.83450866  1
  F  F11  1  0.23360015  0.73397944  0.02390311  1
  N  N12  1  0.38317572  0.99127918  0.37884449  1
  N  N13  1  0.26067456  0.76387100  0.35890296  1
  N  N14  1  0.36379253  0.50339170  0.44234275  1
  Y  Y15  1  0.31540419  0.98142190  0.36899269  1
