# generated using pymatgen
data_Li3Mn2AlSi3O
_symmetry_space_group_name_H-M   'P 1'
_cell_length_a   12.33154209
_cell_length_b   13.66865506
_cell_length_c   13.89826233
_cell_angle_alpha   90.00000000
_cell_angle_beta   90.00000000
_cell_angle_gamma   90.00000000
_symmetry_Int_Tables_number   1
_chemical_formula_structural   Li3Mn2AlSi3O
_chemical_formula_sum   'Li3 Mn2 Al1 Si3 O1'
_cell_volume   2342.62987953
_cell_formula_units_Z   1
loop_
 _symmetry_equiv_pos_site_id
 _symmetry_equiv_pos_as_xyz
  1  'x, y, z'
loop_
 _atom_site_type_symbol
 _atom_site_label
 _atom_site_symmetry_multiplicity
 _atom_site_fract_x
 _atom_site_fract_y
 _atom_site_fract_z
 _atom_site_occupancy
  Li  Li0  1  0.12500000  0.00000000  0.25000000  1
  Li  Li1  1  0.00000000  0.00000000  0.00000000  1
  Li  Li2  1  0.37500000  0.00000000  0.25000000  1
  Mn  Mn3  1  0.25000000  0.25000000  0.25000000  1
  Mn  Mn4  1  0.00000000  0.25000000  0.12500000  1
  Al  Al5  1  0.80363992  0.38105410  0.38267030  1
  Si  Si6  1  0.94481082  0.41669820  0.42351678  1
  Si  Si7  1  0.81058909  0.04086380  0.43669795  1
  Si  Si8  1  0.94701692  0.33224773  0.16337746  1
  O  O9  1  0.84791502  0.96882083  0.00717845  1
