# generated using pymatgen
data_NaLiO
_symmetry_space_group_name_H-M   'P 1'
_cell_length_a   7.57714164
_cell_length_b   7.57714164
_cell_length_c   9.19435314
_cell_angle_alpha   90.00000000
_cell_angle_beta   90.00000000
_cell_angle_gamma   120.00000000
_symmetry_Int_Tables_number   1
_chemical_formula_structural   NaLiO
_chemical_formula_sum   'Na6 Li6 O6'
_cell_volume   457.15410450
_cell_formula_units_Z   6
loop_
 _symmetry_equiv_pos_site_id
 _symmetry_equiv_pos_as_xyz
  1  'x, y, z'
loop_
 _atom_site_type_symbol
 _atom_site_label
 _atom_site_symmetry_multiplicity
 _atom_site_fract_x
 _atom_site_fract_y
 _atom_site_fract_z
 _atom_site_occupancy
  Li  Li0  1  0.90992873  0.26160735  0.35450129  1
  Li  Li1  1  -0.26160735  0.64832138  0.35450129  1
  Li  Li2  1  -0.64832138  -0.90992873  0.35450129  1
  Li  Li3  1  -0.26160735  -0.90992873  -0.35450129  1
  Li  Li4  1  -0.64832138  0.26160735  -0.35450129  1
  Li  Li5  1  0.90992873  0.64832138  -0.35450129  1
  Na  Na6  1  0.00000000  0.00000000  0.50000000  1
  Na  Na7  1  0.18100559  0.81899441  0.50000000  1
  Na  Na8  1  0.18100559  0.36201118  0.50000000  1
  Na  Na9  1  0.63798882  0.81899441  0.50000000  1
  Na  Na10  1  0.33333333  0.66666667  0.15320897  1
  Na  Na11  1  0.33333333  0.66666667  0.84679103  1
  O  O12  1  0.00000000  0.00000000  0.75926889  1
  O  O13  1  0.00000000  0.00000000  0.24073111  1
  O  O14  1  0.00000000  0.00000000  0.00000000  1
  O  O15  1  0.66666667  0.33333333  0.50000000  1
  O  O16  1  0.33333333  0.66666667  0.44636069  1
  O  O17  1  0.33333333  0.66666667  0.55363931  1
