# generated using pymatgen
data_Li4Ca6TiSe9I2
_symmetry_space_group_name_H-M   'P 1'
_cell_length_a   6.56586371
_cell_length_b   6.56586371
_cell_length_c   14.56861191
_cell_angle_alpha   90.00000000
_cell_angle_beta   90.00000000
_cell_angle_gamma   120.00000000
_symmetry_Int_Tables_number   1
_chemical_formula_structural   Li4Ca6TiSe9I2
_chemical_formula_sum   'Li4 Ca6 Ti1 Se9 I2'
_cell_volume   543.91687581
_cell_formula_units_Z   1
loop_
 _symmetry_equiv_pos_site_id
 _symmetry_equiv_pos_as_xyz
  1  'x, y, z'
loop_
 _atom_site_type_symbol
 _atom_site_label
 _atom_site_symmetry_multiplicity
 _atom_site_fract_x
 _atom_site_fract_y
 _atom_site_fract_z
 _atom_site_occupancy
  Ca  Ca0  1  0.19782385  0.80217615  -0.00000000  1
  Ca  Ca1  1  0.19782385  0.39564770  0.00000000  1
  Ca  Ca2  1  0.60435230  0.80217615  -0.00000000  1
  Ca  Ca3  1  0.00000000  0.00000000  0.00000000  1
  Ca  Ca4  1  0.66666667  0.33333333  0.80491798  1
  Ca  Ca5  1  0.66666667  0.33333333  0.19508202  1
  I  I6  1  0.00000000  0.00000000  0.79011540  1
  I  I7  1  0.00000000  0.00000000  0.20988460  1
  Li  Li8  1  0.24697279  0.75302721  0.50000000  1
  Li  Li9  1  0.24697279  0.49394558  0.50000000  1
  Li  Li10  1  0.50605442  0.75302721  0.50000000  1
  Li  Li11  1  0.66666667  0.33333333  -0.00000000  1
  Se  Se12  1  0.16266530  0.04141390  0.29971667  1
  Se  Se13  1  -0.04141390  0.12125140  0.29971667  1
  Se  Se14  1  -0.12125140  -0.16266530  0.29971667  1
  Se  Se15  1  -0.04141390  -0.16266530  -0.29971667  1
  Se  Se16  1  -0.12125140  0.04141390  -0.29971667  1
  Se  Se17  1  0.16266530  0.12125140  -0.29971667  1
  Se  Se18  1  0.57850539  0.42149461  0.50000000  1
  Se  Se19  1  0.57850539  0.15701078  0.50000000  1
  Se  Se20  1  0.84298922  0.42149461  0.50000000  1
  Ti  Ti21  1  0.00000000  0.00000000  0.50000000  1
