# generated using pymatgen
data_K3LiSi3(Se3Br2)2
_symmetry_space_group_name_H-M   'P 1'
_cell_length_a   9.75334797
_cell_length_b   16.73696400
_cell_length_c   6.31044634
_cell_angle_alpha   90.00000000
_cell_angle_beta   90.00000000
_cell_angle_gamma   90.00000000
_symmetry_Int_Tables_number   1
_chemical_formula_structural   K3LiSi3(Se3Br2)2
_chemical_formula_sum   'K6 Li2 Si6 Se12 Br8'
_cell_volume   1030.12630941
_cell_formula_units_Z   2
loop_
 _symmetry_equiv_pos_site_id
 _symmetry_equiv_pos_as_xyz
  1  'x, y, z'
loop_
 _atom_site_type_symbol
 _atom_site_label
 _atom_site_symmetry_multiplicity
 _atom_site_fract_x
 _atom_site_fract_y
 _atom_site_fract_z
 _atom_site_occupancy
  Br  Br0  1  0.52208740  0.66360586  0.00000000  1
  Br  Br1  1  0.47791260  0.33639414  0.00000000  1
  Br  Br2  1  0.97791260  0.16360586  0.50000000  1
  Br  Br3  1  0.02208740  0.83639414  0.50000000  1
  Br  Br4  1  0.00000000  0.50000000  0.21287529  1
  Br  Br5  1  0.50000000  0.00000000  0.28712471  1
  Br  Br6  1  0.00000000  0.50000000  0.78712471  1
  Br  Br7  1  0.50000000  0.00000000  0.71287529  1
  K  K8  1  0.42015760  0.15490423  0.00000000  1
  K  K9  1  0.57984240  0.84509577  0.00000000  1
  K  K10  1  0.07984240  0.65490423  0.50000000  1
  K  K11  1  0.92015760  0.34509577  0.50000000  1
  K  K12  1  0.00000000  0.00000000  0.00000000  1
  K  K13  1  0.50000000  0.50000000  0.50000000  1
  Li  Li14  1  0.00000000  0.00000000  0.50000000  1
  Li  Li15  1  0.50000000  0.50000000  0.00000000  1
  Se  Se16  1  0.39718741  0.79321296  0.00000000  1
  Se  Se17  1  0.60281259  0.20678704  -0.00000000  1
  Se  Se18  1  0.10281259  0.29321296  0.50000000  1
  Se  Se19  1  0.89718741  0.70678704  0.50000000  1
  Se  Se20  1  0.27957203  0.98446035  0.33030854  1
  Se  Se21  1  -0.27957203  -0.98446035  0.33030854  1
  Se  Se22  1  0.22042797  1.48446035  0.16969146  1
  Se  Se23  1  0.77957203  -0.48446035  0.16969146  1
  Se  Se24  1  -0.27957203  -0.98446035  -0.33030854  1
  Se  Se25  1  0.27957203  0.98446035  -0.33030854  1
  Se  Se26  1  0.77957203  -0.48446035  0.83030854  1
  Se  Se27  1  0.22042797  1.48446035  0.83030854  1
  Si  Si28  1  0.77209007  0.15133593  -0.00000000  1
  Si  Si29  1  0.22790993  0.84866407  0.00000000  1
  Si  Si30  1  0.72790993  0.65133593  0.50000000  1
  Si  Si31  1  0.27209007  0.34866407  0.50000000  1
  Si  Si32  1  0.00000000  0.50000000  0.50000000  1
  Si  Si33  1  0.50000000  0.00000000  -0.00000000  1
