# generated using pymatgen
data_LiMg6ICl12
_symmetry_space_group_name_H-M   'P 1'
_cell_length_a   12.94725042
_cell_length_b   12.94725042
_cell_length_c   12.94725042
_cell_angle_alpha   90.00000000
_cell_angle_beta   90.00000000
_cell_angle_gamma   90.00000000
_symmetry_Int_Tables_number   1
_chemical_formula_structural   LiMg6ICl12
_chemical_formula_sum   'Li8 Mg48 I8 Cl96'
_cell_volume   2170.36433305
_cell_formula_units_Z   8
loop_
 _symmetry_equiv_pos_site_id
 _symmetry_equiv_pos_as_xyz
  1  'x, y, z'
loop_
 _atom_site_type_symbol
 _atom_site_label
 _atom_site_symmetry_multiplicity
 _atom_site_fract_x
 _atom_site_fract_y
 _atom_site_fract_z
 _atom_site_occupancy
  Cl  Cl0  1  0.50000000  0.32544800  0.32544800  1
  Cl  Cl1  1  0.50000000  -0.32544800  0.32544800  1
  Cl  Cl2  1  0.50000000  0.32544800  -0.32544800  1
  Cl  Cl3  1  0.50000000  -0.32544800  -0.32544800  1
  Cl  Cl4  1  0.32544800  0.50000000  0.32544800  1
  Cl  Cl5  1  0.32544800  0.50000000  -0.32544800  1
  Cl  Cl6  1  -0.32544800  0.50000000  0.32544800  1
  Cl  Cl7  1  -0.32544800  0.50000000  -0.32544800  1
  Cl  Cl8  1  0.32544800  0.32544800  0.50000000  1
  Cl  Cl9  1  -0.32544800  0.32544800  0.50000000  1
  Cl  Cl10  1  0.32544800  -0.32544800  0.50000000  1
  Cl  Cl11  1  -0.32544800  -0.32544800  0.50000000  1
  Cl  Cl12  1  0.50000000  0.82544800  0.82544800  1
  Cl  Cl13  1  0.50000000  0.17455200  0.82544800  1
  Cl  Cl14  1  0.50000000  0.82544800  0.17455200  1
  Cl  Cl15  1  0.50000000  0.17455200  0.17455200  1
  Cl  Cl16  1  0.32544800  1.00000000  0.82544800  1
  Cl  Cl17  1  0.32544800  1.00000000  0.17455200  1
  Cl  Cl18  1  -0.32544800  1.00000000  0.82544800  1
  Cl  Cl19  1  -0.32544800  1.00000000  0.17455200  1
  Cl  Cl20  1  0.32544800  0.82544800  1.00000000  1
  Cl  Cl21  1  -0.32544800  0.82544800  1.00000000  1
  Cl  Cl22  1  0.32544800  0.17455200  1.00000000  1
  Cl  Cl23  1  -0.32544800  0.17455200  1.00000000  1
  Cl  Cl24  1  1.00000000  0.32544800  0.82544800  1
  Cl  Cl25  1  1.00000000  -0.32544800  0.82544800  1
  Cl  Cl26  1  1.00000000  0.32544800  0.17455200  1
  Cl  Cl27  1  1.00000000  -0.32544800  0.17455200  1
  Cl  Cl28  1  0.82544800  0.50000000  0.82544800  1
  Cl  Cl29  1  0.82544800  0.50000000  0.17455200  1
  Cl  Cl30  1  0.17455200  0.50000000  0.82544800  1
  Cl  Cl31  1  0.17455200  0.50000000  0.17455200  1
  Cl  Cl32  1  0.82544800  0.32544800  1.00000000  1
  Cl  Cl33  1  0.17455200  0.32544800  1.00000000  1
  Cl  Cl34  1  0.82544800  -0.32544800  1.00000000  1
  Cl  Cl35  1  0.17455200  -0.32544800  1.00000000  1
  Cl  Cl36  1  1.00000000  0.82544800  0.32544800  1
  Cl  Cl37  1  1.00000000  0.17455200  0.32544800  1
  Cl  Cl38  1  1.00000000  0.82544800  -0.32544800  1
  Cl  Cl39  1  1.00000000  0.17455200  -0.32544800  1
  Cl  Cl40  1  0.82544800  1.00000000  0.32544800  1
  Cl  Cl41  1  0.82544800  1.00000000  -0.32544800  1
  Cl  Cl42  1  0.17455200  1.00000000  0.32544800  1
  Cl  Cl43  1  0.17455200  1.00000000  -0.32544800  1
  Cl  Cl44  1  0.82544800  0.82544800  0.50000000  1
  Cl  Cl45  1  0.17455200  0.82544800  0.50000000  1
  Cl  Cl46  1  0.82544800  0.17455200  0.50000000  1
  Cl  Cl47  1  0.17455200  0.17455200  0.50000000  1
  Cl  Cl48  1  0.00000000  0.09545111  0.09545111  1
  Cl  Cl49  1  0.00000000  0.90454889  0.09545111  1
  Cl  Cl50  1  0.00000000  0.09545111  0.90454889  1
  Cl  Cl51  1  0.00000000  0.90454889  0.90454889  1
  Cl  Cl52  1  0.09545111  0.00000000  0.09545111  1
  Cl  Cl53  1  0.09545111  0.00000000  0.90454889  1
  Cl  Cl54  1  0.90454889  0.00000000  0.09545111  1
  Cl  Cl55  1  0.90454889  0.00000000  0.90454889  1
  Cl  Cl56  1  0.09545111  0.09545111  0.00000000  1
  Cl  Cl57  1  0.90454889  0.09545111  0.00000000  1
  Cl  Cl58  1  0.09545111  0.90454889  0.00000000  1
  Cl  Cl59  1  0.90454889  0.90454889  0.00000000  1
  Cl  Cl60  1  0.00000000  0.59545111  0.59545111  1
  Cl  Cl61  1  0.00000000  0.40454889  0.59545111  1
  Cl  Cl62  1  0.00000000  0.59545111  0.40454889  1
  Cl  Cl63  1  0.00000000  0.40454889  0.40454889  1
  Cl  Cl64  1  0.09545111  0.50000000  0.59545111  1
  Cl  Cl65  1  0.09545111  0.50000000  0.40454889  1
  Cl  Cl66  1  0.90454889  0.50000000  0.59545111  1
  Cl  Cl67  1  0.90454889  0.50000000  0.40454889  1
  Cl  Cl68  1  0.09545111  0.59545111  0.50000000  1
  Cl  Cl69  1  0.90454889  0.59545111  0.50000000  1
  Cl  Cl70  1  0.09545111  0.40454889  0.50000000  1
  Cl  Cl71  1  0.90454889  0.40454889  0.50000000  1
  Cl  Cl72  1  0.50000000  0.09545111  0.59545111  1
  Cl  Cl73  1  0.50000000  0.90454889  0.59545111  1
  Cl  Cl74  1  0.50000000  0.09545111  0.40454889  1
  Cl  Cl75  1  0.50000000  0.90454889  0.40454889  1
  Cl  Cl76  1  0.59545111  0.00000000  0.59545111  1
  Cl  Cl77  1  0.59545111  0.00000000  0.40454889  1
  Cl  Cl78  1  0.40454889  0.00000000  0.59545111  1
  Cl  Cl79  1  0.40454889  0.00000000  0.40454889  1
  Cl  Cl80  1  0.59545111  0.09545111  0.50000000  1
  Cl  Cl81  1  0.40454889  0.09545111  0.50000000  1
  Cl  Cl82  1  0.59545111  0.90454889  0.50000000  1
  Cl  Cl83  1  0.40454889  0.90454889  0.50000000  1
  Cl  Cl84  1  0.50000000  0.59545111  0.09545111  1
  Cl  Cl85  1  0.50000000  0.40454889  0.09545111  1
  Cl  Cl86  1  0.50000000  0.59545111  0.90454889  1
  Cl  Cl87  1  0.50000000  0.40454889  0.90454889  1
  Cl  Cl88  1  0.59545111  0.50000000  0.09545111  1
  Cl  Cl89  1  0.59545111  0.50000000  0.90454889  1
  Cl  Cl90  1  0.40454889  0.50000000  0.09545111  1
  Cl  Cl91  1  0.40454889  0.50000000  0.90454889  1
  Cl  Cl92  1  0.59545111  0.59545111  0.00000000  1
  Cl  Cl93  1  0.40454889  0.59545111  0.00000000  1
  Cl  Cl94  1  0.59545111  0.40454889  0.00000000  1
  Cl  Cl95  1  0.40454889  0.40454889  0.00000000  1
  I  I96  1  0.00000000  0.00000000  0.00000000  1
  I  I97  1  0.00000000  0.50000000  0.50000000  1
  I  I98  1  0.50000000  0.00000000  0.50000000  1
  I  I99  1  0.50000000  0.50000000  0.00000000  1
  I  I100  1  0.50000000  0.50000000  0.50000000  1
  I  I101  1  0.50000000  0.00000000  0.00000000  1
  I  I102  1  0.00000000  0.50000000  0.00000000  1
  I  I103  1  0.00000000  0.00000000  0.50000000  1
  Li  Li104  1  0.25000000  0.25000000  0.25000000  1
  Li  Li105  1  0.25000000  0.25000000  0.75000000  1
  Li  Li106  1  0.25000000  0.75000000  0.75000000  1
  Li  Li107  1  0.25000000  0.75000000  0.25000000  1
  Li  Li108  1  0.75000000  0.25000000  0.75000000  1
  Li  Li109  1  0.75000000  0.25000000  0.25000000  1
  Li  Li110  1  0.75000000  0.75000000  0.25000000  1
  Li  Li111  1  0.75000000  0.75000000  0.75000000  1
  Mg  Mg112  1  0.00000000  0.79551084  0.79551084  1
  Mg  Mg113  1  0.00000000  0.20448916  0.79551084  1
  Mg  Mg114  1  0.00000000  0.79551084  0.20448916  1
  Mg  Mg115  1  0.00000000  0.20448916  0.20448916  1
  Mg  Mg116  1  0.79551084  0.00000000  0.79551084  1
  Mg  Mg117  1  0.79551084  0.00000000  0.20448916  1
  Mg  Mg118  1  0.20448916  0.00000000  0.79551084  1
  Mg  Mg119  1  0.20448916  0.00000000  0.20448916  1
  Mg  Mg120  1  0.79551084  0.79551084  0.00000000  1
  Mg  Mg121  1  0.20448916  0.79551084  0.00000000  1
  Mg  Mg122  1  0.79551084  0.20448916  0.00000000  1
  Mg  Mg123  1  0.20448916  0.20448916  0.00000000  1
  Mg  Mg124  1  0.00000000  0.29551084  0.29551084  1
  Mg  Mg125  1  0.00000000  0.70448916  0.29551084  1
  Mg  Mg126  1  0.00000000  0.29551084  0.70448916  1
  Mg  Mg127  1  0.00000000  0.70448916  0.70448916  1
  Mg  Mg128  1  0.79551084  0.50000000  0.29551084  1
  Mg  Mg129  1  0.79551084  0.50000000  0.70448916  1
  Mg  Mg130  1  0.20448916  0.50000000  0.29551084  1
  Mg  Mg131  1  0.20448916  0.50000000  0.70448916  1
  Mg  Mg132  1  0.79551084  0.29551084  0.50000000  1
  Mg  Mg133  1  0.20448916  0.29551084  0.50000000  1
  Mg  Mg134  1  0.79551084  0.70448916  0.50000000  1
  Mg  Mg135  1  0.20448916  0.70448916  0.50000000  1
  Mg  Mg136  1  0.50000000  0.79551084  0.29551084  1
  Mg  Mg137  1  0.50000000  0.20448916  0.29551084  1
  Mg  Mg138  1  0.50000000  0.79551084  0.70448916  1
  Mg  Mg139  1  0.50000000  0.20448916  0.70448916  1
  Mg  Mg140  1  0.29551084  0.00000000  0.29551084  1
  Mg  Mg141  1  0.29551084  0.00000000  0.70448916  1
  Mg  Mg142  1  0.70448916  0.00000000  0.29551084  1
  Mg  Mg143  1  0.70448916  0.00000000  0.70448916  1
  Mg  Mg144  1  0.29551084  0.79551084  0.50000000  1
  Mg  Mg145  1  0.70448916  0.79551084  0.50000000  1
  Mg  Mg146  1  0.29551084  0.20448916  0.50000000  1
  Mg  Mg147  1  0.70448916  0.20448916  0.50000000  1
  Mg  Mg148  1  0.50000000  0.29551084  0.79551084  1
  Mg  Mg149  1  0.50000000  0.70448916  0.79551084  1
  Mg  Mg150  1  0.50000000  0.29551084  0.20448916  1
  Mg  Mg151  1  0.50000000  0.70448916  0.20448916  1
  Mg  Mg152  1  0.29551084  0.50000000  0.79551084  1
  Mg  Mg153  1  0.29551084  0.50000000  0.20448916  1
  Mg  Mg154  1  0.70448916  0.50000000  0.79551084  1
  Mg  Mg155  1  0.70448916  0.50000000  0.20448916  1
  Mg  Mg156  1  0.29551084  0.29551084  0.00000000  1
  Mg  Mg157  1  0.70448916  0.29551084  0.00000000  1
  Mg  Mg158  1  0.29551084  0.70448916  0.00000000  1
  Mg  Mg159  1  0.70448916  0.70448916  0.00000000  1
