# generated using pymatgen
data_Li4SnF8
_symmetry_space_group_name_H-M   'P 1'
_cell_length_a   12.16050201
_cell_length_b   12.16050201
_cell_length_c   8.37388934
_cell_angle_alpha   90.00000000
_cell_angle_beta   90.00000000
_cell_angle_gamma   120.00000000
_symmetry_Int_Tables_number   1
_chemical_formula_structural   Li4SnF8
_chemical_formula_sum   'Li24 Sn6 F48'
_cell_volume   1072.41000489
_cell_formula_units_Z   6
loop_
 _symmetry_equiv_pos_site_id
 _symmetry_equiv_pos_as_xyz
  1  'x, y, z'
loop_
 _atom_site_type_symbol
 _atom_site_label
 _atom_site_symmetry_multiplicity
 _atom_site_fract_x
 _atom_site_fract_y
 _atom_site_fract_z
 _atom_site_occupancy
  F  F0  1  0.50000000  0.00000000  0.00000000  1
  F  F1  1  0.00000000  0.50000000  0.00000000  1
  F  F2  1  0.50000000  0.50000000  0.00000000  1
  F  F3  1  0.50000000  0.00000000  0.50000000  1
  F  F4  1  0.00000000  0.50000000  0.50000000  1
  F  F5  1  0.50000000  0.50000000  0.50000000  1
  F  F6  1  0.66666667  0.33333333  0.25000000  1
  F  F7  1  0.33333333  0.66666667  0.75000000  1
  F  F8  1  0.00000000  0.00000000  0.00000000  1
  F  F9  1  0.00000000  0.00000000  0.50000000  1
  F  F10  1  0.10067200  0.42130216  0.53828560  1
  F  F11  1  -0.42130216  -0.32063016  0.53828560  1
  F  F12  1  0.32063016  -0.10067200  0.53828560  1
  F  F13  1  -0.10067200  -0.42130216  1.03828560  1
  F  F14  1  0.42130216  0.32063016  1.03828560  1
  F  F15  1  -0.32063016  0.10067200  1.03828560  1
  F  F16  1  -0.10067200  -0.42130216  -0.53828560  1
  F  F17  1  0.42130216  0.32063016  -0.53828560  1
  F  F18  1  -0.32063016  0.10067200  -0.53828560  1
  F  F19  1  0.10067200  0.42130216  -0.03828560  1
  F  F20  1  -0.42130216  -0.32063016  -0.03828560  1
  F  F21  1  0.32063016  -0.10067200  -0.03828560  1
  F  F22  1  0.69746096  0.58276142  0.25000000  1
  F  F23  1  0.41723858  0.11469955  0.25000000  1
  F  F24  1  0.88530045  0.30253904  0.25000000  1
  F  F25  1  0.30253904  0.41723858  0.75000000  1
  F  F26  1  0.58276142  0.88530045  0.75000000  1
  F  F27  1  0.11469955  0.69746096  0.75000000  1
  F  F28  1  0.33333333  0.66666667  0.02514663  1
  F  F29  1  0.66666667  0.33333333  0.52514663  1
  F  F30  1  0.66666667  0.33333333  0.97485337  1
  F  F31  1  0.33333333  0.66666667  0.47485337  1
  F  F32  1  0.92091002  0.56516355  0.15836204  1
  F  F33  1  0.43483645  0.35574647  0.15836204  1
  F  F34  1  0.64425353  0.07908998  0.15836204  1
  F  F35  1  0.07908998  0.43483645  0.65836204  1
  F  F36  1  0.56516355  0.64425353  0.65836204  1
  F  F37  1  0.35574647  0.92091002  0.65836204  1
  F  F38  1  0.07908998  0.43483645  0.84163796  1
  F  F39  1  0.56516355  0.64425353  0.84163796  1
  F  F40  1  0.35574647  0.92091002  0.84163796  1
  F  F41  1  0.92091002  0.56516355  0.34163796  1
  F  F42  1  0.43483645  0.35574647  0.34163796  1
  F  F43  1  0.64425353  0.07908998  0.34163796  1
  F  F44  1  0.33333333  0.66666667  0.33771592  1
  F  F45  1  0.66666667  0.33333333  0.83771592  1
  F  F46  1  0.66666667  0.33333333  0.66228408  1
  F  F47  1  0.33333333  0.66666667  0.16228408  1
  Li  Li48  1  0.00422167  0.16929428  0.25000000  1
  Li  Li49  1  0.83070572  0.83492739  0.25000000  1
  Li  Li50  1  0.16507261  0.99577833  0.25000000  1
  Li  Li51  1  0.99577833  0.83070572  0.75000000  1
  Li  Li52  1  0.16929428  0.16507261  0.75000000  1
  Li  Li53  1  0.83492739  0.00422167  0.75000000  1
  Li  Li54  1  0.89021116  0.05390389  0.34195210  1
  Li  Li55  1  0.94609611  0.83630728  0.34195210  1
  Li  Li56  1  0.16369272  0.10978884  0.34195210  1
  Li  Li57  1  0.10978884  0.94609611  0.84195210  1
  Li  Li58  1  0.05390389  0.16369272  0.84195210  1
  Li  Li59  1  0.83630728  0.89021116  0.84195210  1
  Li  Li60  1  0.10978884  0.94609611  0.65804790  1
  Li  Li61  1  0.05390389  0.16369272  0.65804790  1
  Li  Li62  1  0.83630728  0.89021116  0.65804790  1
  Li  Li63  1  0.89021116  0.05390389  0.15804790  1
  Li  Li64  1  0.94609611  0.83630728  0.15804790  1
  Li  Li65  1  0.16369272  0.10978884  0.15804790  1
  Li  Li66  1  0.80413309  0.47885676  0.25000000  1
  Li  Li67  1  0.52114324  0.32527632  0.25000000  1
  Li  Li68  1  0.67472368  0.19586691  0.25000000  1
  Li  Li69  1  0.19586691  0.52114324  0.75000000  1
  Li  Li70  1  0.47885676  0.67472368  0.75000000  1
  Li  Li71  1  0.32527632  0.80413309  0.75000000  1
  Sn  Sn72  1  0.67408389  0.65772214  0.25000000  1
  Sn  Sn73  1  0.34227786  0.01636175  0.25000000  1
  Sn  Sn74  1  0.98363825  0.32591611  0.25000000  1
  Sn  Sn75  1  0.32591611  0.34227786  0.75000000  1
  Sn  Sn76  1  0.65772214  0.98363825  0.75000000  1
  Sn  Sn77  1  0.01636175  0.67408389  0.75000000  1
