# generated using pymatgen
data_LiAlSiSnO6
_symmetry_space_group_name_H-M   'P 1'
_cell_length_a   11.90719829
_cell_length_b   11.90719829
_cell_length_c   15.50641103
_cell_angle_alpha   90.00000000
_cell_angle_beta   90.00000000
_cell_angle_gamma   120.00000000
_symmetry_Int_Tables_number   1
_chemical_formula_structural   LiAlSiSnO6
_chemical_formula_sum   'Li9 Al9 Si9 Sn9 O54'
_cell_volume   1903.97435712
_cell_formula_units_Z   9
loop_
 _symmetry_equiv_pos_site_id
 _symmetry_equiv_pos_as_xyz
  1  'x, y, z'
loop_
 _atom_site_type_symbol
 _atom_site_label
 _atom_site_symmetry_multiplicity
 _atom_site_fract_x
 _atom_site_fract_y
 _atom_site_fract_z
 _atom_site_occupancy
  Al  Al0  1  0.00000000  0.00000000  0.50000000  1
  Al  Al1  1  0.66666667  0.33333333  0.83333333  1
  Al  Al2  1  0.33333333  0.66666667  0.16666667  1
  Al  Al3  1  0.00000000  0.00000000  0.11585832  1
  Al  Al4  1  0.00000000  0.00000000  0.88414168  1
  Al  Al5  1  0.66666667  0.33333333  0.44919165  1
  Al  Al6  1  0.66666667  0.33333333  0.21747501  1
  Al  Al7  1  0.33333333  0.66666667  0.78252499  1
  Al  Al8  1  0.33333333  0.66666667  0.55080835  1
  Li  Li9  1  0.00000000  0.00000000  0.00000000  1
  Li  Li10  1  0.66666667  0.33333333  0.33333333  1
  Li  Li11  1  0.33333333  0.66666667  0.66666667  1
  Li  Li12  1  0.00000000  0.00000000  0.70704943  1
  Li  Li13  1  0.00000000  0.00000000  0.29295057  1
  Li  Li14  1  0.66666667  0.33333333  0.04038277  1
  Li  Li15  1  0.66666667  0.33333333  0.62628390  1
  Li  Li16  1  0.33333333  0.66666667  0.37371610  1
  Li  Li17  1  0.33333333  0.66666667  0.95961723  1
  O  O18  1  0.22923732  0.00000000  0.00000000  1
  O  O19  1  0.00000000  0.22923732  0.00000000  1
  O  O20  1  0.77076268  0.77076268  0.00000000  1
  O  O21  1  0.77076268  0.00000000  0.00000000  1
  O  O22  1  0.00000000  0.77076268  0.00000000  1
  O  O23  1  0.22923732  0.22923732  0.00000000  1
  O  O24  1  0.89590398  0.33333333  0.33333333  1
  O  O25  1  0.66666667  0.56257065  0.33333333  1
  O  O26  1  0.43742935  0.10409602  0.33333333  1
  O  O27  1  0.43742935  0.33333333  0.33333333  1
  O  O28  1  0.66666667  0.10409602  0.33333333  1
  O  O29  1  0.89590398  0.56257065  0.33333333  1
  O  O30  1  0.56257065  0.66666667  0.66666667  1
  O  O31  1  0.33333333  0.89590398  0.66666667  1
  O  O32  1  0.10409602  0.43742935  0.66666667  1
  O  O33  1  0.10409602  0.66666667  0.66666667  1
  O  O34  1  0.33333333  0.43742935  0.66666667  1
  O  O35  1  0.56257065  0.89590398  0.66666667  1
  O  O36  1  0.60454804  0.47883901  0.22197106  1
  O  O37  1  -0.47883901  0.12570904  0.22197106  1
  O  O38  1  -0.12570904  -0.60454804  0.22197106  1
  O  O39  1  0.47883901  0.60454804  -0.22197106  1
  O  O40  1  0.12570904  -0.47883901  -0.22197106  1
  O  O41  1  -0.60454804  -0.12570904  -0.22197106  1
  O  O42  1  -0.60454804  -0.47883901  -0.22197106  1
  O  O43  1  0.47883901  -0.12570904  -0.22197106  1
  O  O44  1  0.12570904  0.60454804  -0.22197106  1
  O  O45  1  -0.47883901  -0.60454804  0.22197106  1
  O  O46  1  -0.12570904  0.47883901  0.22197106  1
  O  O47  1  0.60454804  0.12570904  0.22197106  1
  O  O48  1  1.27121471  0.81217234  0.55530440  1
  O  O49  1  0.18782766  0.45904237  0.55530440  1
  O  O50  1  0.54095763  -0.27121471  0.55530440  1
  O  O51  1  1.14550568  0.93788138  0.11136227  1
  O  O52  1  0.79237570  -0.14550568  0.11136227  1
  O  O53  1  0.06211862  0.20762430  0.11136227  1
  O  O54  1  0.06211862  -0.14550568  0.11136227  1
  O  O55  1  1.14550568  0.20762430  0.11136227  1
  O  O56  1  0.79237570  0.93788138  0.11136227  1
  O  O57  1  0.18782766  -0.27121471  0.55530440  1
  O  O58  1  0.54095763  0.81217234  0.55530440  1
  O  O59  1  1.27121471  0.45904237  0.55530440  1
  O  O60  1  0.93788138  1.14550568  0.88863773  1
  O  O61  1  -0.14550568  0.79237570  0.88863773  1
  O  O62  1  0.20762430  0.06211862  0.88863773  1
  O  O63  1  0.81217234  1.27121471  0.44469560  1
  O  O64  1  0.45904237  0.18782766  0.44469560  1
  O  O65  1  -0.27121471  0.54095763  0.44469560  1
  O  O66  1  -0.27121471  0.18782766  0.44469560  1
  O  O67  1  0.81217234  0.54095763  0.44469560  1
  O  O68  1  0.45904237  1.27121471  0.44469560  1
  O  O69  1  -0.14550568  0.06211862  0.88863773  1
  O  O70  1  0.20762430  1.14550568  0.88863773  1
  O  O71  1  0.93788138  0.79237570  0.88863773  1
  Si  Si72  1  0.50000000  0.00000000  0.00000000  1
  Si  Si73  1  0.00000000  0.50000000  0.00000000  1
  Si  Si74  1  0.50000000  0.50000000  0.00000000  1
  Si  Si75  1  0.16666667  0.33333333  0.33333333  1
  Si  Si76  1  0.66666667  0.83333333  0.33333333  1
  Si  Si77  1  0.16666667  0.83333333  0.33333333  1
  Si  Si78  1  0.83333333  0.66666667  0.66666667  1
  Si  Si79  1  0.33333333  0.16666667  0.66666667  1
  Si  Si80  1  0.83333333  0.16666667  0.66666667  1
  Sn  Sn81  1  0.50000000  0.00000000  0.50000000  1
  Sn  Sn82  1  0.00000000  0.50000000  0.50000000  1
  Sn  Sn83  1  0.50000000  0.50000000  0.50000000  1
  Sn  Sn84  1  0.16666667  0.33333333  0.83333333  1
  Sn  Sn85  1  0.66666667  0.83333333  0.83333333  1
  Sn  Sn86  1  0.16666667  0.83333333  0.83333333  1
  Sn  Sn87  1  0.83333333  0.66666667  0.16666667  1
  Sn  Sn88  1  0.33333333  0.16666667  0.16666667  1
  Sn  Sn89  1  0.83333333  0.16666667  0.16666667  1
