# generated using pymatgen
data_Li3Nb3Br3(NO)2
_symmetry_space_group_name_H-M   'P 1'
_cell_length_a   4.44943675
_cell_length_b   3.92829905
_cell_length_c   3.56811033
_cell_angle_alpha   94.56985816
_cell_angle_beta   90.35034657
_cell_angle_gamma   87.52373983
_symmetry_Int_Tables_number   1
_chemical_formula_structural   Li3Nb3Br3(NO)2
_chemical_formula_sum   'Li3 Nb3 Br3 N2 O2'
_cell_volume   62.10945371
_cell_formula_units_Z   1
loop_
 _symmetry_equiv_pos_site_id
 _symmetry_equiv_pos_as_xyz
  1  'x, y, z'
loop_
 _atom_site_type_symbol
 _atom_site_label
 _atom_site_symmetry_multiplicity
 _atom_site_fract_x
 _atom_site_fract_y
 _atom_site_fract_z
 _atom_site_occupancy
  Li  Li0  1  0.00000000  0.00000000  0.00000000  1
  Li  Li1  1  0.50000000  0.50000000  0.50000000  1
  Li  Li2  1  0.50000000  0.50000000  0.00000000  1
  Nb  Nb3  1  0.50000000  0.00000000  0.50000000  1
  Nb  Nb4  1  0.00000000  0.50000000  0.50000000  1
  Nb  Nb5  1  0.61380982  0.76867178  0.78221276  1
  O  O6  1  0.80666068  0.26079442  0.17967042  1
  O  O7  1  0.11239590  0.73839234  0.25643165  1
  Br  Br8  1  0.36751176  0.76083730  0.10905741  1
  Br  Br9  1  0.71228143  0.73966038  0.94764153  1
  Br  Br10  1  0.44168898  0.35337798  0.64749048  1
  N  N11  1  0.35098898  0.10441884  0.40691038  1
  N  N12  1  0.59879262  0.51355194  0.19668163  1
