# generated using pymatgen
data_Li5ZrTe2BrO3
_symmetry_space_group_name_H-M   'P 1'
_cell_length_a   8.23419230
_cell_length_b   7.78057752
_cell_length_c   8.03428825
_cell_angle_alpha   90.00000000
_cell_angle_beta   90.00000000
_cell_angle_gamma   90.00000000
_symmetry_Int_Tables_number   1
_chemical_formula_structural   Li5ZrTe2BrO3
_chemical_formula_sum   'Li5 Zr1 Te2 Br1 O3'
_cell_volume   514.73090993
_cell_formula_units_Z   1
loop_
 _symmetry_equiv_pos_site_id
 _symmetry_equiv_pos_as_xyz
  1  'x, y, z'
loop_
 _atom_site_type_symbol
 _atom_site_label
 _atom_site_symmetry_multiplicity
 _atom_site_fract_x
 _atom_site_fract_y
 _atom_site_fract_z
 _atom_site_occupancy
  Li  Li0  1  0.00000000  0.00000000  0.00000000  1
  Li  Li1  1  0.50000000  0.50000000  0.50000000  1
  Li  Li2  1  0.25000000  0.25000000  0.25000000  1
  Li  Li3  1  0.75000000  0.25000000  0.00000000  1
  Li  Li4  1  0.25000000  0.75000000  0.50000000  1
  Zr  Zr5  1  0.51881280  0.04167639  0.14477515  1
  Te  Te6  1  0.73820328  0.60660167  0.55253276  1
  Te  Te7  1  0.92031057  0.35021104  0.44619882  1
  O  O8  1  0.74636996  0.91248597  0.96159577  1
  O  O9  1  0.73024363  0.58842645  0.68870310  1
  O  O10  1  0.71997657  0.66822574  0.58648651  1
  Br  Br11  1  0.63841840  0.40314220  0.05122437  1
