# generated using pymatgen
data_Li2Ti2S3Br4(OF2)2
_symmetry_space_group_name_H-M   'P 1'
_cell_length_a   8.06787566
_cell_length_b   9.03426592
_cell_length_c   7.18795683
_cell_angle_alpha   90.00000000
_cell_angle_beta   90.00000000
_cell_angle_gamma   90.00000000
_symmetry_Int_Tables_number   1
_chemical_formula_structural   Li2Ti2S3Br4(OF2)2
_chemical_formula_sum   'Li2 Ti2 S3 Br4 O2 F4'
_cell_volume   523.91101169
_cell_formula_units_Z   1
loop_
 _symmetry_equiv_pos_site_id
 _symmetry_equiv_pos_as_xyz
  1  'x, y, z'
loop_
 _atom_site_type_symbol
 _atom_site_label
 _atom_site_symmetry_multiplicity
 _atom_site_fract_x
 _atom_site_fract_y
 _atom_site_fract_z
 _atom_site_occupancy
  Li  Li0  1  0.00000000  0.00000000  0.00000000  1
  Li  Li1  1  0.50000000  0.50000000  0.50000000  1
  Ti  Ti2  1  0.25000000  0.25000000  0.25000000  1
  Ti  Ti3  1  0.75000000  0.25000000  0.00000000  1
  F  F4  1  0.25000000  0.75000000  0.50000000  1
  F  F5  1  0.94507419  0.65287822  0.82001293  1
  F  F6  1  0.83731642  0.73202935  0.19688367  1
  F  F7  1  0.20634966  0.26710964  0.72429213  1
  Br  Br8  1  0.99097224  0.39120348  0.37445826  1
  Br  Br9  1  0.00544974  0.25457870  0.46826750  1
  Br  Br10  1  0.47465646  0.39009002  0.72570467  1
  Br  Br11  1  0.06792289  0.01639747  0.99669687  1
  O  O12  1  0.31975814  0.56273989  0.72328596  1
  O  O13  1  0.46301053  0.07467681  0.76311068  1
  S  S14  1  0.98245272  0.89165680  0.52143165  1
  S  S15  1  0.58510463  0.72144675  0.47616856  1
  S  S16  1  0.86437056  0.89187820  0.76569852  1
