# generated using pymatgen
data_TiSe2
_symmetry_space_group_name_H-M   'P 1'
_cell_length_a   14.39361293
_cell_length_b   14.39361293
_cell_length_c   18.27342141
_cell_angle_alpha   90.00000000
_cell_angle_beta   90.00000000
_cell_angle_gamma   120.00000000
_symmetry_Int_Tables_number   1
_chemical_formula_structural   TiSe2
_chemical_formula_sum   'Ti72 Se144'
_cell_volume   3278.61288061
_cell_formula_units_Z   72
loop_
 _symmetry_equiv_pos_site_id
 _symmetry_equiv_pos_as_xyz
  1  'x, y, z'
loop_
 _atom_site_type_symbol
 _atom_site_label
 _atom_site_symmetry_multiplicity
 _atom_site_fract_x
 _atom_site_fract_y
 _atom_site_fract_z
 _atom_site_occupancy
  Se  Se0  1  0.79184572  0.43581140  0.66438280  1
  Se  Se1  1  0.56418860  0.35603432  0.66438280  1
  Se  Se2  1  0.64396568  0.20815428  0.66438280  1
  Se  Se3  1  0.43581140  0.79184572  0.83561720  1
  Se  Se4  1  0.35603432  0.56418860  0.83561720  1
  Se  Se5  1  0.20815428  0.64396568  0.83561720  1
  Se  Se6  1  0.20815428  0.56418860  0.33561720  1
  Se  Se7  1  0.43581140  0.64396568  0.33561720  1
  Se  Se8  1  0.35603432  0.79184572  0.33561720  1
  Se  Se9  1  0.56418860  0.20815428  0.16438280  1
  Se  Se10  1  0.64396568  0.43581140  0.16438280  1
  Se  Se11  1  0.79184572  0.35603432  0.16438280  1
  Se  Se12  1  0.45851238  0.76914473  0.99771614  1
  Se  Se13  1  0.23085527  0.68936765  0.99771614  1
  Se  Se14  1  0.31063235  0.54148762  0.99771614  1
  Se  Se15  1  0.10247806  0.12517905  0.16895053  1
  Se  Se16  1  0.02270099  0.89752194  0.16895053  1
  Se  Se17  1  0.87482095  0.97729901  0.16895053  1
  Se  Se18  1  0.87482095  0.89752194  0.66895053  1
  Se  Se19  1  0.10247806  0.97729901  0.66895053  1
  Se  Se20  1  0.02270099  0.12517905  0.66895053  1
  Se  Se21  1  0.23085527  0.54148762  0.49771614  1
  Se  Se22  1  0.31063235  0.76914473  0.49771614  1
  Se  Se23  1  0.45851238  0.68936765  0.49771614  1
  Se  Se24  1  0.12517905  0.10247806  0.33104947  1
  Se  Se25  1  0.89752194  0.02270099  0.33104947  1
  Se  Se26  1  0.97729901  0.87482095  0.33104947  1
  Se  Se27  1  0.76914473  0.45851238  0.50228386  1
  Se  Se28  1  0.68936765  0.23085527  0.50228386  1
  Se  Se29  1  0.54148762  0.31063235  0.50228386  1
  Se  Se30  1  0.54148762  0.23085527  0.00228386  1
  Se  Se31  1  0.76914473  0.31063235  0.00228386  1
  Se  Se32  1  0.68936765  0.45851238  0.00228386  1
  Se  Se33  1  0.89752194  0.87482095  0.83104947  1
  Se  Se34  1  0.97729901  0.10247806  0.83104947  1
  Se  Se35  1  0.12517905  0.02270099  0.83104947  1
  Se  Se36  1  0.61067531  0.22233240  0.40969414  1
  Se  Se37  1  0.77766760  0.38834291  0.40969414  1
  Se  Se38  1  0.61165709  0.38932469  0.40969414  1
  Se  Se39  1  0.22233240  0.61067531  0.09030586  1
  Se  Se40  1  0.38834291  0.77766760  0.09030586  1
  Se  Se41  1  0.38932469  0.61165709  0.09030586  1
  Se  Se42  1  0.38932469  0.77766760  0.59030586  1
  Se  Se43  1  0.22233240  0.61165709  0.59030586  1
  Se  Se44  1  0.38834291  0.61067531  0.59030586  1
  Se  Se45  1  0.77766760  0.38932469  0.90969414  1
  Se  Se46  1  0.61165709  0.22233240  0.90969414  1
  Se  Se47  1  0.61067531  0.38834291  0.90969414  1
  Se  Se48  1  0.27734198  0.55566573  0.74302747  1
  Se  Se49  1  0.44433427  0.72167625  0.74302747  1
  Se  Se50  1  0.27832375  0.72265802  0.74302747  1
  Se  Se51  1  0.88899907  0.94400865  0.42363920  1
  Se  Se52  1  0.05500958  0.11100093  0.42363920  1
  Se  Se53  1  0.05599135  0.94499042  0.42363920  1
  Se  Se54  1  0.05599135  0.11100093  0.92363920  1
  Se  Se55  1  0.88899907  0.94499042  0.92363920  1
  Se  Se56  1  0.05500958  0.94400865  0.92363920  1
  Se  Se57  1  0.44433427  0.72265802  0.24302747  1
  Se  Se58  1  0.27832375  0.55566573  0.24302747  1
  Se  Se59  1  0.27734198  0.72167625  0.24302747  1
  Se  Se60  1  0.94400865  0.88899907  0.07636080  1
  Se  Se61  1  0.11100093  0.05500958  0.07636080  1
  Se  Se62  1  0.94499042  0.05599135  0.07636080  1
  Se  Se63  1  0.55566573  0.27734198  0.75697253  1
  Se  Se64  1  0.72167625  0.44433427  0.75697253  1
  Se  Se65  1  0.72265802  0.27832375  0.75697253  1
  Se  Se66  1  0.72265802  0.44433427  0.25697253  1
  Se  Se67  1  0.55566573  0.27832375  0.25697253  1
  Se  Se68  1  0.72167625  0.27734198  0.25697253  1
  Se  Se69  1  0.11100093  0.05599135  0.57636080  1
  Se  Se70  1  0.94499042  0.88899907  0.57636080  1
  Se  Se71  1  0.94400865  0.05500958  0.57636080  1
  Se  Se72  1  0.12337958  0.00000000  0.25000000  1
  Se  Se73  1  0.00000000  0.12337958  0.25000000  1
  Se  Se74  1  0.87662042  0.87662042  0.25000000  1
  Se  Se75  1  0.87662042  0.00000000  0.75000000  1
  Se  Se76  1  0.00000000  0.87662042  0.75000000  1
  Se  Se77  1  0.12337958  0.12337958  0.75000000  1
  Se  Se78  1  0.79004624  0.33333333  0.58333333  1
  Se  Se79  1  0.66666667  0.45671291  0.58333333  1
  Se  Se80  1  0.54328709  0.20995376  0.58333333  1
  Se  Se81  1  0.54328709  0.33333333  0.08333333  1
  Se  Se82  1  0.66666667  0.20995376  0.08333333  1
  Se  Se83  1  0.79004624  0.45671291  0.08333333  1
  Se  Se84  1  0.45671291  0.66666667  0.91666667  1
  Se  Se85  1  0.33333333  0.79004624  0.91666667  1
  Se  Se86  1  0.20995376  0.54328709  0.91666667  1
  Se  Se87  1  0.20995376  0.66666667  0.41666667  1
  Se  Se88  1  0.33333333  0.54328709  0.41666667  1
  Se  Se89  1  0.45671291  0.79004624  0.41666667  1
  Se  Se90  1  0.65944221  0.54696476  0.62048129  1
  Se  Se91  1  0.45303524  0.11247746  0.62048129  1
  Se  Se92  1  0.88752254  0.34055779  0.62048129  1
  Se  Se93  1  0.54696476  0.65944221  0.87951871  1
  Se  Se94  1  0.11247746  0.45303524  0.87951871  1
  Se  Se95  1  0.34055779  0.88752254  0.87951871  1
  Se  Se96  1  0.34055779  0.45303524  0.37951871  1
  Se  Se97  1  0.54696476  0.88752254  0.37951871  1
  Se  Se98  1  0.11247746  0.65944221  0.37951871  1
  Se  Se99  1  0.45303524  0.34055779  0.12048129  1
  Se  Se100  1  0.88752254  0.54696476  0.12048129  1
  Se  Se101  1  0.65944221  0.11247746  0.12048129  1
  Se  Se102  1  0.32610888  0.88029809  0.95381463  1
  Se  Se103  1  0.11970191  0.44581079  0.95381463  1
  Se  Se104  1  0.55418921  0.67389112  0.95381463  1
  Se  Se105  1  0.21363142  0.99277555  0.21285204  1
  Se  Se106  1  0.77914412  0.78636858  0.21285204  1
  Se  Se107  1  0.00722445  0.22085588  0.21285204  1
  Se  Se108  1  0.00722445  0.78636858  0.71285204  1
  Se  Se109  1  0.21363142  0.22085588  0.71285204  1
  Se  Se110  1  0.77914412  0.99277555  0.71285204  1
  Se  Se111  1  0.11970191  0.67389112  0.45381463  1
  Se  Se112  1  0.55418921  0.88029809  0.45381463  1
  Se  Se113  1  0.32610888  0.44581079  0.45381463  1
  Se  Se114  1  0.99277555  0.21363142  0.28714796  1
  Se  Se115  1  0.78636858  0.77914412  0.28714796  1
  Se  Se116  1  0.22085588  0.00722445  0.28714796  1
  Se  Se117  1  0.88029809  0.32610888  0.54618537  1
  Se  Se118  1  0.44581079  0.11970191  0.54618537  1
  Se  Se119  1  0.67389112  0.55418921  0.54618537  1
  Se  Se120  1  0.67389112  0.11970191  0.04618537  1
  Se  Se121  1  0.88029809  0.55418921  0.04618537  1
  Se  Se122  1  0.44581079  0.32610888  0.04618537  1
  Se  Se123  1  0.78636858  0.00722445  0.78714796  1
  Se  Se124  1  0.22085588  0.21363142  0.78714796  1
  Se  Se125  1  0.99277555  0.77914412  0.78714796  1
  Se  Se126  1  0.50000000  0.00000000  0.00000000  1
  Se  Se127  1  0.00000000  0.50000000  0.00000000  1
  Se  Se128  1  0.50000000  0.50000000  0.00000000  1
  Se  Se129  1  0.00000000  0.50000000  0.50000000  1
  Se  Se130  1  0.50000000  0.00000000  0.50000000  1
  Se  Se131  1  0.50000000  0.50000000  0.50000000  1
  Se  Se132  1  0.16666667  0.33333333  0.33333333  1
  Se  Se133  1  0.66666667  0.83333333  0.33333333  1
  Se  Se134  1  0.16666667  0.83333333  0.33333333  1
  Se  Se135  1  0.66666667  0.83333333  0.83333333  1
  Se  Se136  1  0.16666667  0.33333333  0.83333333  1
  Se  Se137  1  0.16666667  0.83333333  0.83333333  1
  Se  Se138  1  0.83333333  0.66666667  0.66666667  1
  Se  Se139  1  0.33333333  0.16666667  0.66666667  1
  Se  Se140  1  0.83333333  0.16666667  0.66666667  1
  Se  Se141  1  0.33333333  0.16666667  0.16666667  1
  Se  Se142  1  0.83333333  0.66666667  0.16666667  1
  Se  Se143  1  0.83333333  0.16666667  0.16666667  1
  Ti  Ti144  1  0.50093247  0.03143552  0.37888833  1
  Ti  Ti145  1  -0.03143552  0.46949695  0.37888833  1
  Ti  Ti146  1  -0.46949695  -0.50093247  0.37888833  1
  Ti  Ti147  1  0.03143552  0.50093247  0.12111167  1
  Ti  Ti148  1  0.46949695  -0.03143552  0.12111167  1
  Ti  Ti149  1  -0.50093247  -0.46949695  0.12111167  1
  Ti  Ti150  1  -0.50093247  -0.03143552  -0.37888833  1
  Ti  Ti151  1  0.03143552  -0.46949695  -0.37888833  1
  Ti  Ti152  1  0.46949695  0.50093247  -0.37888833  1
  Ti  Ti153  1  -0.03143552  -0.50093247  0.87888833  1
  Ti  Ti154  1  -0.46949695  0.03143552  0.87888833  1
  Ti  Ti155  1  0.50093247  0.46949695  0.87888833  1
  Ti  Ti156  1  1.16759914  0.36476886  0.71222166  1
  Ti  Ti157  1  0.63523114  0.80283028  0.71222166  1
  Ti  Ti158  1  0.19716972  -0.16759914  0.71222166  1
  Ti  Ti159  1  0.69810219  0.83426580  0.45444500  1
  Ti  Ti160  1  1.13616361  0.30189781  0.45444500  1
  Ti  Ti161  1  0.16573420  -0.13616361  0.45444500  1
  Ti  Ti162  1  0.16573420  0.30189781  -0.04555500  1
  Ti  Ti163  1  0.69810219  -0.13616361  -0.04555500  1
  Ti  Ti164  1  1.13616361  0.83426580  -0.04555500  1
  Ti  Ti165  1  0.63523114  -0.16759914  1.21222166  1
  Ti  Ti166  1  0.19716972  0.36476886  1.21222166  1
  Ti  Ti167  1  1.16759914  0.80283028  1.21222166  1
  Ti  Ti168  1  0.83426580  0.69810219  1.04555500  1
  Ti  Ti169  1  0.30189781  1.13616361  1.04555500  1
  Ti  Ti170  1  -0.13616361  0.16573420  1.04555500  1
  Ti  Ti171  1  0.36476886  1.16759914  0.78777834  1
  Ti  Ti172  1  0.80283028  0.63523114  0.78777834  1
  Ti  Ti173  1  -0.16759914  0.19716972  0.78777834  1
  Ti  Ti174  1  -0.16759914  0.63523114  0.28777834  1
  Ti  Ti175  1  0.36476886  0.19716972  0.28777834  1
  Ti  Ti176  1  0.80283028  1.16759914  0.28777834  1
  Ti  Ti177  1  0.30189781  0.16573420  1.54555500  1
  Ti  Ti178  1  -0.13616361  0.69810219  1.54555500  1
  Ti  Ti179  1  0.83426580  1.13616361  1.54555500  1
  Ti  Ti180  1  0.67058244  0.73086425  0.16820520  1
  Ti  Ti181  1  0.26913575  0.93971819  0.16820520  1
  Ti  Ti182  1  0.06028181  0.32941756  0.16820520  1
  Ti  Ti183  1  0.73086425  0.67058244  0.33179480  1
  Ti  Ti184  1  0.93971819  0.26913575  0.33179480  1
  Ti  Ti185  1  0.32941756  0.06028181  0.33179480  1
  Ti  Ti186  1  0.32941756  0.26913575  0.83179480  1
  Ti  Ti187  1  0.73086425  0.06028181  0.83179480  1
  Ti  Ti188  1  0.93971819  0.67058244  0.83179480  1
  Ti  Ti189  1  0.26913575  0.32941756  0.66820520  1
  Ti  Ti190  1  0.06028181  0.73086425  0.66820520  1
  Ti  Ti191  1  0.67058244  0.93971819  0.66820520  1
  Ti  Ti192  1  0.33724910  0.06419758  0.50153853  1
  Ti  Ti193  1  0.93580242  0.27305152  0.50153853  1
  Ti  Ti194  1  0.72694848  0.66275090  0.50153853  1
  Ti  Ti195  1  0.39753091  0.00391577  0.66512813  1
  Ti  Ti196  1  0.60638486  0.60246909  0.66512813  1
  Ti  Ti197  1  0.99608423  0.39361514  0.66512813  1
  Ti  Ti198  1  0.99608423  0.60246909  0.16512813  1
  Ti  Ti199  1  0.39753091  0.39361514  0.16512813  1
  Ti  Ti200  1  0.60638486  0.00391577  0.16512813  1
  Ti  Ti201  1  0.93580242  0.66275090  0.00153853  1
  Ti  Ti202  1  0.72694848  0.06419758  0.00153853  1
  Ti  Ti203  1  0.33724910  0.27305152  0.00153853  1
  Ti  Ti204  1  0.00391577  0.39753091  0.83487187  1
  Ti  Ti205  1  0.60246909  0.60638486  0.83487187  1
  Ti  Ti206  1  0.39361514  0.99608423  0.83487187  1
  Ti  Ti207  1  0.06419758  0.33724910  0.99846147  1
  Ti  Ti208  1  0.27305152  0.93580242  0.99846147  1
  Ti  Ti209  1  0.66275090  0.72694848  0.99846147  1
  Ti  Ti210  1  0.66275090  0.93580242  0.49846147  1
  Ti  Ti211  1  0.06419758  0.72694848  0.49846147  1
  Ti  Ti212  1  0.27305152  0.33724910  0.49846147  1
  Ti  Ti213  1  0.60246909  0.99608423  0.33487187  1
  Ti  Ti214  1  0.39361514  0.39753091  0.33487187  1
  Ti  Ti215  1  0.00391577  0.60638486  0.33487187  1
