# generated using pymatgen
data_K2LiTeCl
_symmetry_space_group_name_H-M   'P 1'
_cell_length_a   22.01394162
_cell_length_b   22.01394162
_cell_length_c   22.01394162
_cell_angle_alpha   90.00000000
_cell_angle_beta   90.00000000
_cell_angle_gamma   90.00000000
_symmetry_Int_Tables_number   1
_chemical_formula_structural   K2LiTeCl
_chemical_formula_sum   'K96 Li48 Te48 Cl48'
_cell_volume   10668.25606020
_cell_formula_units_Z   48
loop_
 _symmetry_equiv_pos_site_id
 _symmetry_equiv_pos_as_xyz
  1  'x, y, z'
loop_
 _atom_site_type_symbol
 _atom_site_label
 _atom_site_symmetry_multiplicity
 _atom_site_fract_x
 _atom_site_fract_y
 _atom_site_fract_z
 _atom_site_occupancy
  Cl  Cl0  1  0.56891108  0.00000000  0.25000000  1
  Cl  Cl1  1  0.93108892  -0.00000000  0.75000000  1
  Cl  Cl2  1  0.25000000  0.56891108  0.00000000  1
  Cl  Cl3  1  0.75000000  0.93108892  -0.00000000  1
  Cl  Cl4  1  0.00000000  0.25000000  0.56891108  1
  Cl  Cl5  1  0.00000000  0.75000000  0.93108892  1
  Cl  Cl6  1  0.75000000  0.81891108  0.00000000  1
  Cl  Cl7  1  0.75000000  0.18108892  0.50000000  1
  Cl  Cl8  1  0.31891108  0.50000000  0.25000000  1
  Cl  Cl9  1  0.68108892  0.00000000  0.25000000  1
  Cl  Cl10  1  0.00000000  0.25000000  0.68108892  1
  Cl  Cl11  1  0.50000000  0.25000000  0.31891108  1
  Cl  Cl12  1  0.43108892  0.00000000  0.75000000  1
  Cl  Cl13  1  0.06891108  0.00000000  0.25000000  1
  Cl  Cl14  1  0.75000000  0.43108892  -0.00000000  1
  Cl  Cl15  1  0.25000000  0.06891108  0.00000000  1
  Cl  Cl16  1  0.00000000  0.75000000  0.43108892  1
  Cl  Cl17  1  0.00000000  0.25000000  0.06891108  1
  Cl  Cl18  1  0.25000000  0.18108892  0.00000000  1
  Cl  Cl19  1  0.25000000  0.81891108  0.50000000  1
  Cl  Cl20  1  0.68108892  0.50000000  0.75000000  1
  Cl  Cl21  1  0.31891108  0.00000000  0.75000000  1
  Cl  Cl22  1  0.00000000  0.75000000  0.31891108  1
  Cl  Cl23  1  0.50000000  0.75000000  0.68108892  1
  Cl  Cl24  1  0.06891108  0.50000000  0.75000000  1
  Cl  Cl25  1  0.43108892  0.50000000  0.25000000  1
  Cl  Cl26  1  0.75000000  0.06891108  0.50000000  1
  Cl  Cl27  1  0.25000000  0.43108892  0.50000000  1
  Cl  Cl28  1  0.50000000  0.75000000  0.06891108  1
  Cl  Cl29  1  0.50000000  0.25000000  0.43108892  1
  Cl  Cl30  1  0.25000000  0.31891108  0.50000000  1
  Cl  Cl31  1  0.25000000  0.68108892  0.00000000  1
  Cl  Cl32  1  0.81891108  0.00000000  0.75000000  1
  Cl  Cl33  1  0.18108892  0.50000000  0.75000000  1
  Cl  Cl34  1  0.50000000  0.75000000  0.18108892  1
  Cl  Cl35  1  0.00000000  0.75000000  0.81891108  1
  Cl  Cl36  1  0.93108892  0.50000000  0.25000000  1
  Cl  Cl37  1  0.56891108  0.50000000  0.75000000  1
  Cl  Cl38  1  0.25000000  0.93108892  0.50000000  1
  Cl  Cl39  1  0.75000000  0.56891108  0.50000000  1
  Cl  Cl40  1  0.50000000  0.25000000  0.93108892  1
  Cl  Cl41  1  0.50000000  0.75000000  0.56891108  1
  Cl  Cl42  1  0.75000000  0.68108892  0.50000000  1
  Cl  Cl43  1  0.75000000  0.31891108  0.00000000  1
  Cl  Cl44  1  0.18108892  0.00000000  0.25000000  1
  Cl  Cl45  1  0.81891108  0.50000000  0.25000000  1
  Cl  Cl46  1  0.50000000  0.25000000  0.81891108  1
  Cl  Cl47  1  0.00000000  0.25000000  0.18108892  1
  K  K48  1  0.58700891  0.58700891  0.58700891  1
  K  K49  1  0.91299109  0.41299109  0.08700891  1
  K  K50  1  0.41299109  0.08700891  0.91299109  1
  K  K51  1  0.08700891  0.91299109  0.41299109  1
  K  K52  1  0.33700891  0.83700891  0.66299109  1
  K  K53  1  0.16299109  0.16299109  0.16299109  1
  K  K54  1  0.83700891  0.66299109  0.33700891  1
  K  K55  1  0.66299109  0.33700891  0.83700891  1
  K  K56  1  0.41299109  0.41299109  0.41299109  1
  K  K57  1  0.08700891  0.58700891  0.91299109  1
  K  K58  1  0.58700891  0.91299109  0.08700891  1
  K  K59  1  0.91299109  0.08700891  0.58700891  1
  K  K60  1  0.66299109  0.16299109  0.33700891  1
  K  K61  1  0.83700891  0.83700891  0.83700891  1
  K  K62  1  0.16299109  0.33700891  0.66299109  1
  K  K63  1  0.33700891  0.66299109  0.16299109  1
  K  K64  1  0.08700891  0.08700891  0.08700891  1
  K  K65  1  0.41299109  0.91299109  0.58700891  1
  K  K66  1  0.91299109  0.58700891  0.41299109  1
  K  K67  1  0.58700891  0.41299109  0.91299109  1
  K  K68  1  0.83700891  0.33700891  0.16299109  1
  K  K69  1  0.66299109  0.66299109  0.66299109  1
  K  K70  1  0.33700891  0.16299109  0.83700891  1
  K  K71  1  0.16299109  0.83700891  0.33700891  1
  K  K72  1  0.91299109  0.91299109  0.91299109  1
  K  K73  1  0.58700891  0.08700891  0.41299109  1
  K  K74  1  0.08700891  0.41299109  0.58700891  1
  K  K75  1  0.41299109  0.58700891  0.08700891  1
  K  K76  1  0.16299109  0.66299109  0.83700891  1
  K  K77  1  0.33700891  0.33700891  0.33700891  1
  K  K78  1  0.66299109  0.83700891  0.16299109  1
  K  K79  1  0.83700891  0.16299109  0.66299109  1
  K  K80  1  0.00000000  0.00000000  0.00000000  1
  K  K81  1  0.50000000  0.00000000  0.50000000  1
  K  K82  1  0.00000000  0.50000000  0.50000000  1
  K  K83  1  0.50000000  0.50000000  0.00000000  1
  K  K84  1  0.75000000  0.25000000  0.25000000  1
  K  K85  1  0.75000000  0.75000000  0.75000000  1
  K  K86  1  0.25000000  0.25000000  0.75000000  1
  K  K87  1  0.25000000  0.75000000  0.25000000  1
  K  K88  1  0.50000000  0.50000000  0.50000000  1
  K  K89  1  0.00000000  0.50000000  0.00000000  1
  K  K90  1  0.50000000  0.00000000  0.00000000  1
  K  K91  1  0.00000000  0.00000000  0.50000000  1
  K  K92  1  0.25000000  0.75000000  0.75000000  1
  K  K93  1  0.25000000  0.25000000  0.25000000  1
  K  K94  1  0.75000000  0.75000000  0.25000000  1
  K  K95  1  0.75000000  0.25000000  0.75000000  1
  K  K96  1  0.12500000  0.93532074  0.31467926  1
  K  K97  1  0.37500000  0.06467926  0.81467926  1
  K  K98  1  0.87500000  0.43532074  0.18532074  1
  K  K99  1  0.62500000  0.56467926  0.68532074  1
  K  K100  1  0.31467926  0.12500000  0.93532074  1
  K  K101  1  0.81467926  0.37500000  0.06467926  1
  K  K102  1  0.18532074  0.87500000  0.43532074  1
  K  K103  1  0.68532074  0.62500000  0.56467926  1
  K  K104  1  0.93532074  0.31467926  0.12500000  1
  K  K105  1  0.06467926  0.81467926  0.37500000  1
  K  K106  1  0.43532074  0.18532074  0.87500000  1
  K  K107  1  0.56467926  0.68532074  0.62500000  1
  K  K108  1  0.87500000  0.06467926  0.68532074  1
  K  K109  1  0.62500000  0.93532074  0.18532074  1
  K  K110  1  0.12500000  0.56467926  0.81467926  1
  K  K111  1  0.37500000  0.43532074  0.31467926  1
  K  K112  1  0.68532074  0.87500000  0.06467926  1
  K  K113  1  0.18532074  0.62500000  0.93532074  1
  K  K114  1  0.81467926  0.12500000  0.56467926  1
  K  K115  1  0.31467926  0.37500000  0.43532074  1
  K  K116  1  0.06467926  0.68532074  0.87500000  1
  K  K117  1  0.93532074  0.18532074  0.62500000  1
  K  K118  1  0.56467926  0.81467926  0.12500000  1
  K  K119  1  0.43532074  0.31467926  0.37500000  1
  K  K120  1  0.62500000  0.43532074  0.81467926  1
  K  K121  1  0.87500000  0.56467926  0.31467926  1
  K  K122  1  0.37500000  0.93532074  0.68532074  1
  K  K123  1  0.12500000  0.06467926  0.18532074  1
  K  K124  1  0.81467926  0.62500000  0.43532074  1
  K  K125  1  0.31467926  0.87500000  0.56467926  1
  K  K126  1  0.68532074  0.37500000  0.93532074  1
  K  K127  1  0.18532074  0.12500000  0.06467926  1
  K  K128  1  0.43532074  0.81467926  0.62500000  1
  K  K129  1  0.56467926  0.31467926  0.87500000  1
  K  K130  1  0.93532074  0.68532074  0.37500000  1
  K  K131  1  0.06467926  0.18532074  0.12500000  1
  K  K132  1  0.37500000  0.56467926  0.18532074  1
  K  K133  1  0.12500000  0.43532074  0.68532074  1
  K  K134  1  0.62500000  0.06467926  0.31467926  1
  K  K135  1  0.87500000  0.93532074  0.81467926  1
  K  K136  1  0.18532074  0.37500000  0.56467926  1
  K  K137  1  0.68532074  0.12500000  0.43532074  1
  K  K138  1  0.31467926  0.62500000  0.06467926  1
  K  K139  1  0.81467926  0.87500000  0.93532074  1
  K  K140  1  0.56467926  0.18532074  0.37500000  1
  K  K141  1  0.43532074  0.68532074  0.12500000  1
  K  K142  1  0.06467926  0.31467926  0.62500000  1
  K  K143  1  0.93532074  0.81467926  0.87500000  1
  Li  Li144  1  0.12500000  0.70447994  -0.45447994  1
  Li  Li145  1  0.37500000  -0.70447994  0.04552006  1
  Li  Li146  1  0.87500000  1.20447994  0.95447994  1
  Li  Li147  1  0.62500000  -0.20447994  1.45447994  1
  Li  Li148  1  -0.45447994  0.12500000  0.70447994  1
  Li  Li149  1  0.04552006  0.37500000  -0.70447994  1
  Li  Li150  1  0.95447994  0.87500000  1.20447994  1
  Li  Li151  1  1.45447994  0.62500000  -0.20447994  1
  Li  Li152  1  0.70447994  -0.45447994  0.12500000  1
  Li  Li153  1  -0.70447994  0.04552006  0.37500000  1
  Li  Li154  1  1.20447994  0.95447994  0.87500000  1
  Li  Li155  1  -0.20447994  1.45447994  0.62500000  1
  Li  Li156  1  0.87500000  -0.70447994  1.45447994  1
  Li  Li157  1  0.62500000  0.70447994  0.95447994  1
  Li  Li158  1  0.12500000  -0.20447994  0.04552006  1
  Li  Li159  1  0.37500000  1.20447994  -0.45447994  1
  Li  Li160  1  1.45447994  0.87500000  -0.70447994  1
  Li  Li161  1  0.95447994  0.62500000  0.70447994  1
  Li  Li162  1  0.04552006  0.12500000  -0.20447994  1
  Li  Li163  1  -0.45447994  0.37500000  1.20447994  1
  Li  Li164  1  -0.70447994  1.45447994  0.87500000  1
  Li  Li165  1  0.70447994  0.95447994  0.62500000  1
  Li  Li166  1  -0.20447994  0.04552006  0.12500000  1
  Li  Li167  1  1.20447994  -0.45447994  0.37500000  1
  Li  Li168  1  0.62500000  1.20447994  0.04552006  1
  Li  Li169  1  0.87500000  -0.20447994  0.54552006  1
  Li  Li170  1  1.37500000  1.70447994  1.45447994  1
  Li  Li171  1  1.12500000  0.29552006  1.95447994  1
  Li  Li172  1  0.04552006  0.62500000  1.20447994  1
  Li  Li173  1  0.54552006  0.87500000  -0.20447994  1
  Li  Li174  1  1.45447994  1.37500000  1.70447994  1
  Li  Li175  1  1.95447994  1.12500000  0.29552006  1
  Li  Li176  1  1.20447994  0.04552006  0.62500000  1
  Li  Li177  1  -0.20447994  0.54552006  0.87500000  1
  Li  Li178  1  1.70447994  1.45447994  1.37500000  1
  Li  Li179  1  0.29552006  1.95447994  1.12500000  1
  Li  Li180  1  1.37500000  -0.20447994  1.95447994  1
  Li  Li181  1  1.12500000  1.20447994  1.45447994  1
  Li  Li182  1  0.62500000  0.29552006  0.54552006  1
  Li  Li183  1  0.87500000  1.70447994  0.04552006  1
  Li  Li184  1  1.95447994  1.37500000  -0.20447994  1
  Li  Li185  1  1.45447994  1.12500000  1.20447994  1
  Li  Li186  1  0.54552006  0.62500000  0.29552006  1
  Li  Li187  1  0.04552006  0.87500000  1.70447994  1
  Li  Li188  1  -0.20447994  1.95447994  1.37500000  1
  Li  Li189  1  1.20447994  1.45447994  1.12500000  1
  Li  Li190  1  0.29552006  0.54552006  0.62500000  1
  Li  Li191  1  1.70447994  0.04552006  0.87500000  1
  Te  Te192  1  0.12500000  0.00000000  0.25000000  1
  Te  Te193  1  0.37500000  0.00000000  0.75000000  1
  Te  Te194  1  0.25000000  0.12500000  0.00000000  1
  Te  Te195  1  0.75000000  0.37500000  0.00000000  1
  Te  Te196  1  0.00000000  0.25000000  0.12500000  1
  Te  Te197  1  0.00000000  0.75000000  0.37500000  1
  Te  Te198  1  0.87500000  -0.00000000  0.75000000  1
  Te  Te199  1  0.62500000  0.00000000  0.25000000  1
  Te  Te200  1  0.75000000  0.87500000  0.00000000  1
  Te  Te201  1  0.25000000  0.62500000  0.00000000  1
  Te  Te202  1  0.00000000  0.75000000  0.87500000  1
  Te  Te203  1  0.00000000  0.25000000  0.62500000  1
  Te  Te204  1  0.62500000  0.50000000  0.75000000  1
  Te  Te205  1  0.87500000  0.50000000  0.25000000  1
  Te  Te206  1  0.75000000  0.62500000  0.50000000  1
  Te  Te207  1  0.25000000  0.87500000  0.50000000  1
  Te  Te208  1  0.50000000  0.75000000  0.62500000  1
  Te  Te209  1  0.50000000  0.25000000  0.87500000  1
  Te  Te210  1  0.37500000  0.50000000  0.25000000  1
  Te  Te211  1  0.12500000  0.50000000  0.75000000  1
  Te  Te212  1  0.25000000  0.37500000  0.50000000  1
  Te  Te213  1  0.75000000  0.12500000  0.50000000  1
  Te  Te214  1  0.50000000  0.25000000  0.37500000  1
  Te  Te215  1  0.50000000  0.75000000  0.12500000  1
  Te  Te216  1  0.37500000  0.00000000  0.25000000  1
  Te  Te217  1  0.12500000  0.00000000  0.75000000  1
  Te  Te218  1  0.25000000  0.37500000  0.00000000  1
  Te  Te219  1  0.75000000  0.12500000  -0.00000000  1
  Te  Te220  1  0.00000000  0.25000000  0.37500000  1
  Te  Te221  1  0.00000000  0.75000000  0.12500000  1
  Te  Te222  1  0.75000000  0.62500000  0.00000000  1
  Te  Te223  1  0.75000000  0.37500000  0.50000000  1
  Te  Te224  1  0.12500000  0.50000000  0.25000000  1
  Te  Te225  1  0.87500000  -0.00000000  0.25000000  1
  Te  Te226  1  0.00000000  0.25000000  0.87500000  1
  Te  Te227  1  0.50000000  0.25000000  0.12500000  1
  Te  Te228  1  0.87500000  0.50000000  0.75000000  1
  Te  Te229  1  0.62500000  0.50000000  0.25000000  1
  Te  Te230  1  0.75000000  0.87500000  0.50000000  1
  Te  Te231  1  0.25000000  0.62500000  0.50000000  1
  Te  Te232  1  0.50000000  0.75000000  0.87500000  1
  Te  Te233  1  0.50000000  0.25000000  0.62500000  1
  Te  Te234  1  0.25000000  0.12500000  0.50000000  1
  Te  Te235  1  0.25000000  0.87500000  0.00000000  1
  Te  Te236  1  0.62500000  0.00000000  0.75000000  1
  Te  Te237  1  0.37500000  0.50000000  0.75000000  1
  Te  Te238  1  0.50000000  0.75000000  0.37500000  1
  Te  Te239  1  0.00000000  0.75000000  0.62500000  1
