# generated using pymatgen
data_Li2Se
_symmetry_space_group_name_H-M   'P 1'
_cell_length_a   11.17225324
_cell_length_b   11.17225324
_cell_length_c   6.28851622
_cell_angle_alpha   90.00000000
_cell_angle_beta   90.00000000
_cell_angle_gamma   90.00000000
_symmetry_Int_Tables_number   1
_chemical_formula_structural   Li2Se
_chemical_formula_sum   'Li24 Se12'
_cell_volume   784.92783131
_cell_formula_units_Z   12
loop_
 _symmetry_equiv_pos_site_id
 _symmetry_equiv_pos_as_xyz
  1  'x, y, z'
loop_
 _atom_site_type_symbol
 _atom_site_label
 _atom_site_symmetry_multiplicity
 _atom_site_fract_x
 _atom_site_fract_y
 _atom_site_fract_z
 _atom_site_occupancy
  Li  Li0  1  0.00000000  0.00000000  0.50000000  1
  Li  Li1  1  0.70802454  0.70802454  0.50000000  1
  Li  Li2  1  0.29197546  0.29197546  0.50000000  1
  Li  Li3  1  0.29197546  0.70802454  0.50000000  1
  Li  Li4  1  0.70802454  0.29197546  0.50000000  1
  Li  Li5  1  0.50000000  0.50000000  0.67879624  1
  Li  Li6  1  0.50000000  0.50000000  0.32120376  1
  Li  Li7  1  0.74622431  0.87654198  0.50000000  1
  Li  Li8  1  0.25377569  0.12345802  0.50000000  1
  Li  Li9  1  0.12345802  0.74622431  0.50000000  1
  Li  Li10  1  0.87654198  0.25377569  0.50000000  1
  Li  Li11  1  0.25377569  0.87654198  0.50000000  1
  Li  Li12  1  0.74622431  0.12345802  0.50000000  1
  Li  Li13  1  0.87654198  0.74622431  0.50000000  1
  Li  Li14  1  0.12345802  0.25377569  0.50000000  1
  Li  Li15  1  0.78956538  0.50000000  -0.00000000  1
  Li  Li16  1  0.21043462  0.50000000  -0.00000000  1
  Li  Li17  1  0.50000000  0.78956538  -0.00000000  1
  Li  Li18  1  0.50000000  0.21043462  -0.00000000  1
  Li  Li19  1  0.34628300  0.00000000  0.00000000  1
  Li  Li20  1  0.65371700  0.00000000  0.00000000  1
  Li  Li21  1  0.00000000  0.34628300  -0.00000000  1
  Li  Li22  1  0.00000000  0.65371700  0.00000000  1
  Li  Li23  1  0.00000000  0.00000000  0.00000000  1
  Se  Se24  1  0.21619209  0.21619209  0.16468176  1
  Se  Se25  1  -0.21619209  -0.21619209  0.16468176  1
  Se  Se26  1  -0.21619209  0.21619209  0.16468176  1
  Se  Se27  1  0.21619209  -0.21619209  0.16468176  1
  Se  Se28  1  -0.21619209  0.21619209  -0.16468176  1
  Se  Se29  1  0.21619209  -0.21619209  -0.16468176  1
  Se  Se30  1  0.21619209  0.21619209  -0.16468176  1
  Se  Se31  1  -0.21619209  -0.21619209  -0.16468176  1
  Se  Se32  1  0.00000000  0.50000000  0.50000000  1
  Se  Se33  1  0.50000000  0.00000000  0.50000000  1
  Se  Se34  1  0.00000000  0.50000000  -0.00000000  1
  Se  Se35  1  0.50000000  0.00000000  0.00000000  1
