# generated using pymatgen
data_Na6LiBr6Cl
_symmetry_space_group_name_H-M   'P 1'
_cell_length_a   7.31786371
_cell_length_b   7.31786371
_cell_length_c   18.75309509
_cell_angle_alpha   90.00000000
_cell_angle_beta   90.00000000
_cell_angle_gamma   120.00000000
_symmetry_Int_Tables_number   1
_chemical_formula_structural   Na6LiBr6Cl
_chemical_formula_sum   'Na12 Li2 Br12 Cl2'
_cell_volume   869.70550953
_cell_formula_units_Z   2
loop_
 _symmetry_equiv_pos_site_id
 _symmetry_equiv_pos_as_xyz
  1  'x, y, z'
loop_
 _atom_site_type_symbol
 _atom_site_label
 _atom_site_symmetry_multiplicity
 _atom_site_fract_x
 _atom_site_fract_y
 _atom_site_fract_z
 _atom_site_occupancy
  Br  Br0  1  0.31809685  0.00000000  -0.00000000  1
  Br  Br1  1  0.00000000  0.31809685  0.00000000  1
  Br  Br2  1  0.68190315  0.68190315  0.00000000  1
  Br  Br3  1  0.33649027  -0.00000000  0.50000000  1
  Br  Br4  1  0.00000000  0.33649027  0.50000000  1
  Br  Br5  1  0.66350973  0.66350973  0.50000000  1
  Br  Br6  1  0.11980144  0.00000000  0.39612075  1
  Br  Br7  1  0.00000000  0.11980144  0.39612075  1
  Br  Br8  1  0.88019856  0.88019856  0.39612075  1
  Br  Br9  1  0.11980144  0.00000000  0.60387925  1
  Br  Br10  1  0.00000000  0.11980144  0.60387925  1
  Br  Br11  1  0.88019856  0.88019856  0.60387925  1
  Cl  Cl12  1  0.00000000  0.00000000  0.21511017  1
  Cl  Cl13  1  0.00000000  0.00000000  0.78488983  1
  Li  Li14  1  0.33333333  0.66666667  0.50000000  1
  Li  Li15  1  0.66666667  0.33333333  0.50000000  1
  Na  Na16  1  0.00000000  0.00000000  0.50000000  1
  Na  Na17  1  0.25535096  0.00000000  0.29756416  1
  Na  Na18  1  0.00000000  0.25535096  0.29756416  1
  Na  Na19  1  0.74464904  0.74464904  0.29756416  1
  Na  Na20  1  0.25535096  0.00000000  0.70243584  1
  Na  Na21  1  0.00000000  0.25535096  0.70243584  1
  Na  Na22  1  0.74464904  0.74464904  0.70243584  1
  Na  Na23  1  0.33333333  0.66666667  0.68483552  1
  Na  Na24  1  0.33333333  0.66666667  0.31516448  1
  Na  Na25  1  0.66666667  0.33333333  0.31516448  1
  Na  Na26  1  0.66666667  0.33333333  0.68483552  1
  Na  Na27  1  0.00000000  0.00000000  0.00000000  1
