# generated using pymatgen
data_LiF
_symmetry_space_group_name_H-M   'P 1'
_cell_length_a   13.70302479
_cell_length_b   13.70302479
_cell_length_c   13.70302479
_cell_angle_alpha   90.00000000
_cell_angle_beta   90.00000000
_cell_angle_gamma   90.00000000
_symmetry_Int_Tables_number   1
_chemical_formula_structural   LiF
_chemical_formula_sum   'Li96 F96'
_cell_volume   2573.05654724
_cell_formula_units_Z   96
loop_
 _symmetry_equiv_pos_site_id
 _symmetry_equiv_pos_as_xyz
  1  'x, y, z'
loop_
 _atom_site_type_symbol
 _atom_site_label
 _atom_site_symmetry_multiplicity
 _atom_site_fract_x
 _atom_site_fract_y
 _atom_site_fract_z
 _atom_site_occupancy
  F  F0  1  0.00000000  0.00000000  0.00000000  1
  F  F1  1  0.75000000  0.25000000  0.50000000  1
  F  F2  1  0.25000000  0.50000000  0.75000000  1
  F  F3  1  0.50000000  0.75000000  0.25000000  1
  F  F4  1  0.00000000  0.50000000  0.50000000  1
  F  F5  1  0.75000000  0.75000000  0.00000000  1
  F  F6  1  0.25000000  0.00000000  0.25000000  1
  F  F7  1  0.50000000  0.25000000  0.75000000  1
  F  F8  1  0.50000000  0.00000000  0.50000000  1
  F  F9  1  0.25000000  0.25000000  0.00000000  1
  F  F10  1  0.75000000  0.50000000  0.25000000  1
  F  F11  1  0.00000000  0.75000000  0.75000000  1
  F  F12  1  0.50000000  0.50000000  0.00000000  1
  F  F13  1  0.25000000  0.75000000  0.50000000  1
  F  F14  1  0.75000000  0.00000000  0.75000000  1
  F  F15  1  0.00000000  0.25000000  0.25000000  1
  F  F16  1  0.07433655  0.12500000  0.12500000  1
  F  F17  1  0.67566345  0.12500000  0.62500000  1
  F  F18  1  0.12500000  0.07433655  0.12500000  1
  F  F19  1  0.62500000  0.67566345  0.12500000  1
  F  F20  1  0.12500000  0.12500000  0.07433655  1
  F  F21  1  0.12500000  0.62500000  0.67566345  1
  F  F22  1  0.87500000  0.32433655  0.37500000  1
  F  F23  1  0.87500000  -0.07433655  0.87500000  1
  F  F24  1  0.82433655  0.37500000  0.37500000  1
  F  F25  1  0.42566345  0.87500000  0.37500000  1
  F  F26  1  0.87500000  0.37500000  0.42566345  1
  F  F27  1  0.37500000  0.37500000  0.82433655  1
  F  F28  1  0.07433655  0.62500000  0.62500000  1
  F  F29  1  0.67566345  0.62500000  1.12500000  1
  F  F30  1  0.12500000  0.57433655  0.62500000  1
  F  F31  1  0.62500000  1.17566345  0.62500000  1
  F  F32  1  0.12500000  0.62500000  0.57433655  1
  F  F33  1  0.12500000  1.12500000  1.17566345  1
  F  F34  1  0.87500000  0.82433655  0.87500000  1
  F  F35  1  0.87500000  0.42566345  1.37500000  1
  F  F36  1  0.82433655  0.87500000  0.87500000  1
  F  F37  1  0.42566345  1.37500000  0.87500000  1
  F  F38  1  0.87500000  0.87500000  0.92566345  1
  F  F39  1  0.37500000  0.87500000  1.32433655  1
  F  F40  1  0.57433655  0.12500000  0.62500000  1
  F  F41  1  1.17566345  0.12500000  1.12500000  1
  F  F42  1  0.62500000  0.07433655  0.62500000  1
  F  F43  1  1.12500000  0.67566345  0.62500000  1
  F  F44  1  0.62500000  0.12500000  0.57433655  1
  F  F45  1  0.62500000  0.62500000  1.17566345  1
  F  F46  1  1.37500000  0.32433655  0.87500000  1
  F  F47  1  1.37500000  -0.07433655  1.37500000  1
  F  F48  1  1.32433655  0.37500000  0.87500000  1
  F  F49  1  0.92566345  0.87500000  0.87500000  1
  F  F50  1  1.37500000  0.37500000  0.92566345  1
  F  F51  1  0.87500000  0.37500000  1.32433655  1
  F  F52  1  0.57433655  0.62500000  0.12500000  1
  F  F53  1  1.17566345  0.62500000  0.62500000  1
  F  F54  1  0.62500000  0.57433655  0.12500000  1
  F  F55  1  1.12500000  1.17566345  0.12500000  1
  F  F56  1  0.62500000  0.62500000  0.07433655  1
  F  F57  1  0.62500000  1.12500000  0.67566345  1
  F  F58  1  1.37500000  0.82433655  0.37500000  1
  F  F59  1  1.37500000  0.42566345  0.87500000  1
  F  F60  1  1.32433655  0.87500000  0.37500000  1
  F  F61  1  0.92566345  1.37500000  0.37500000  1
  F  F62  1  1.37500000  0.87500000  0.42566345  1
  F  F63  1  0.87500000  0.87500000  0.82433655  1
  F  F64  1  0.80666341  0.80666341  0.80666341  1
  F  F65  1  0.94333659  0.44333659  0.30666341  1
  F  F66  1  0.44333659  0.30666341  0.94333659  1
  F  F67  1  0.30666341  0.94333659  0.44333659  1
  F  F68  1  0.55666341  0.05666341  0.69333659  1
  F  F69  1  0.19333659  0.19333659  0.19333659  1
  F  F70  1  0.05666341  0.69333659  0.55666341  1
  F  F71  1  0.69333659  0.55666341  0.05666341  1
  F  F72  1  0.80666341  0.30666341  0.30666341  1
  F  F73  1  0.94333659  0.94333659  0.80666341  1
  F  F74  1  0.44333659  0.80666341  0.44333659  1
  F  F75  1  0.30666341  0.44333659  0.94333659  1
  F  F76  1  0.55666341  0.55666341  0.19333659  1
  F  F77  1  0.19333659  0.69333659  0.69333659  1
  F  F78  1  0.05666341  0.19333659  0.05666341  1
  F  F79  1  0.69333659  0.05666341  0.55666341  1
  F  F80  1  0.30666341  0.80666341  0.30666341  1
  F  F81  1  0.44333659  0.44333659  0.80666341  1
  F  F82  1  0.94333659  0.30666341  0.44333659  1
  F  F83  1  0.80666341  0.94333659  0.94333659  1
  F  F84  1  0.05666341  0.05666341  0.19333659  1
  F  F85  1  0.69333659  0.19333659  0.69333659  1
  F  F86  1  0.55666341  0.69333659  0.05666341  1
  F  F87  1  0.19333659  0.55666341  0.55666341  1
  F  F88  1  0.30666341  0.30666341  0.80666341  1
  F  F89  1  0.44333659  0.94333659  0.30666341  1
  F  F90  1  0.94333659  0.80666341  0.94333659  1
  F  F91  1  0.80666341  0.44333659  0.44333659  1
  F  F92  1  0.05666341  0.55666341  0.69333659  1
  F  F93  1  0.69333659  0.69333659  0.19333659  1
  F  F94  1  0.55666341  0.19333659  0.55666341  1
  F  F95  1  0.19333659  0.05666341  0.05666341  1
  Li  Li96  1  0.41435615  0.41435615  0.41435615  1
  Li  Li97  1  0.33564385  0.83564385  0.91435615  1
  Li  Li98  1  0.83564385  0.91435615  0.33564385  1
  Li  Li99  1  0.91435615  0.33564385  0.83564385  1
  Li  Li100  1  0.16435615  0.66435615  0.08564385  1
  Li  Li101  1  0.58564385  0.58564385  0.58564385  1
  Li  Li102  1  0.66435615  0.08564385  0.16435615  1
  Li  Li103  1  0.08564385  0.16435615  0.66435615  1
  Li  Li104  1  0.41435615  0.91435615  0.91435615  1
  Li  Li105  1  0.33564385  0.33564385  0.41435615  1
  Li  Li106  1  0.83564385  0.41435615  0.83564385  1
  Li  Li107  1  0.91435615  0.83564385  0.33564385  1
  Li  Li108  1  0.16435615  0.16435615  0.58564385  1
  Li  Li109  1  0.58564385  0.08564385  0.08564385  1
  Li  Li110  1  0.66435615  0.58564385  0.66435615  1
  Li  Li111  1  0.08564385  0.66435615  0.16435615  1
  Li  Li112  1  0.91435615  0.41435615  0.91435615  1
  Li  Li113  1  0.83564385  0.83564385  0.41435615  1
  Li  Li114  1  0.33564385  0.91435615  0.83564385  1
  Li  Li115  1  0.41435615  0.33564385  0.33564385  1
  Li  Li116  1  0.66435615  0.66435615  0.58564385  1
  Li  Li117  1  0.08564385  0.58564385  0.08564385  1
  Li  Li118  1  0.16435615  0.08564385  0.66435615  1
  Li  Li119  1  0.58564385  0.16435615  0.16435615  1
  Li  Li120  1  0.91435615  0.91435615  0.41435615  1
  Li  Li121  1  0.83564385  0.33564385  0.91435615  1
  Li  Li122  1  0.33564385  0.41435615  0.33564385  1
  Li  Li123  1  0.41435615  0.83564385  0.83564385  1
  Li  Li124  1  0.66435615  0.16435615  0.08564385  1
  Li  Li125  1  0.08564385  0.08564385  0.58564385  1
  Li  Li126  1  0.16435615  0.58564385  0.16435615  1
  Li  Li127  1  0.58564385  0.66435615  0.66435615  1
  Li  Li128  1  0.06631930  0.06631930  0.06631930  1
  Li  Li129  1  0.68368070  0.18368070  0.56631930  1
  Li  Li130  1  0.18368070  0.56631930  0.68368070  1
  Li  Li131  1  0.56631930  0.68368070  0.18368070  1
  Li  Li132  1  0.81631930  0.31631930  0.43368070  1
  Li  Li133  1  0.93368070  0.93368070  0.93368070  1
  Li  Li134  1  0.31631930  0.43368070  0.81631930  1
  Li  Li135  1  0.43368070  0.81631930  0.31631930  1
  Li  Li136  1  0.06631930  0.56631930  0.56631930  1
  Li  Li137  1  0.68368070  0.68368070  0.06631930  1
  Li  Li138  1  0.18368070  0.06631930  0.18368070  1
  Li  Li139  1  0.56631930  0.18368070  0.68368070  1
  Li  Li140  1  0.81631930  0.81631930  0.93368070  1
  Li  Li141  1  0.93368070  0.43368070  0.43368070  1
  Li  Li142  1  0.31631930  0.93368070  0.31631930  1
  Li  Li143  1  0.43368070  0.31631930  0.81631930  1
  Li  Li144  1  0.56631930  0.06631930  0.56631930  1
  Li  Li145  1  0.18368070  0.18368070  0.06631930  1
  Li  Li146  1  0.68368070  0.56631930  0.18368070  1
  Li  Li147  1  0.06631930  0.68368070  0.68368070  1
  Li  Li148  1  0.31631930  0.31631930  0.93368070  1
  Li  Li149  1  0.43368070  0.93368070  0.43368070  1
  Li  Li150  1  0.81631930  0.43368070  0.31631930  1
  Li  Li151  1  0.93368070  0.81631930  0.81631930  1
  Li  Li152  1  0.56631930  0.56631930  0.06631930  1
  Li  Li153  1  0.18368070  0.68368070  0.56631930  1
  Li  Li154  1  0.68368070  0.06631930  0.68368070  1
  Li  Li155  1  0.06631930  0.18368070  0.18368070  1
  Li  Li156  1  0.31631930  0.81631930  0.43368070  1
  Li  Li157  1  0.43368070  0.43368070  0.93368070  1
  Li  Li158  1  0.81631930  0.93368070  0.81631930  1
  Li  Li159  1  0.93368070  0.31631930  0.31631930  1
  Li  Li160  1  0.29764526  0.29764526  0.29764526  1
  Li  Li161  1  0.45235474  0.95235474  0.79764526  1
  Li  Li162  1  0.95235474  0.79764526  0.45235474  1
  Li  Li163  1  0.79764526  0.45235474  0.95235474  1
  Li  Li164  1  0.04764526  0.54764526  0.20235474  1
  Li  Li165  1  0.70235474  0.70235474  0.70235474  1
  Li  Li166  1  0.54764526  0.20235474  0.04764526  1
  Li  Li167  1  0.20235474  0.04764526  0.54764526  1
  Li  Li168  1  0.29764526  0.79764526  0.79764526  1
  Li  Li169  1  0.45235474  0.45235474  0.29764526  1
  Li  Li170  1  0.95235474  0.29764526  0.95235474  1
  Li  Li171  1  0.79764526  0.95235474  0.45235474  1
  Li  Li172  1  0.04764526  0.04764526  0.70235474  1
  Li  Li173  1  0.70235474  0.20235474  0.20235474  1
  Li  Li174  1  0.54764526  0.70235474  0.54764526  1
  Li  Li175  1  0.20235474  0.54764526  0.04764526  1
  Li  Li176  1  0.79764526  0.29764526  0.79764526  1
  Li  Li177  1  0.95235474  0.95235474  0.29764526  1
  Li  Li178  1  0.45235474  0.79764526  0.95235474  1
  Li  Li179  1  0.29764526  0.45235474  0.45235474  1
  Li  Li180  1  0.54764526  0.54764526  0.70235474  1
  Li  Li181  1  0.20235474  0.70235474  0.20235474  1
  Li  Li182  1  0.04764526  0.20235474  0.54764526  1
  Li  Li183  1  0.70235474  0.04764526  0.04764526  1
  Li  Li184  1  0.79764526  0.79764526  0.29764526  1
  Li  Li185  1  0.95235474  0.45235474  0.79764526  1
  Li  Li186  1  0.45235474  0.29764526  0.45235474  1
  Li  Li187  1  0.29764526  0.95235474  0.95235474  1
  Li  Li188  1  0.54764526  0.04764526  0.20235474  1
  Li  Li189  1  0.20235474  0.20235474  0.70235474  1
  Li  Li190  1  0.04764526  0.70235474  0.04764526  1
  Li  Li191  1  0.70235474  0.54764526  0.54764526  1
