# generated using pymatgen
data_MgCl2
_symmetry_space_group_name_H-M   'P 1'
_cell_length_a   7.44286133
_cell_length_b   4.06675125
_cell_length_c   8.32422674
_cell_angle_alpha   90.00000000
_cell_angle_beta   90.00000000
_cell_angle_gamma   90.00000000
_symmetry_Int_Tables_number   1
_chemical_formula_structural   MgCl2
_chemical_formula_sum   'Mg4 Cl8'
_cell_volume   251.95990621
_cell_formula_units_Z   4
loop_
 _symmetry_equiv_pos_site_id
 _symmetry_equiv_pos_as_xyz
  1  'x, y, z'
loop_
 _atom_site_type_symbol
 _atom_site_label
 _atom_site_symmetry_multiplicity
 _atom_site_fract_x
 _atom_site_fract_y
 _atom_site_fract_z
 _atom_site_occupancy
  Cl  Cl0  1  0.57882796  0.25000000  0.21906463  1
  Cl  Cl1  1  -0.07882796  0.75000000  0.71906463  1
  Cl  Cl2  1  -0.57882796  0.75000000  -0.21906463  1
  Cl  Cl3  1  1.07882796  0.25000000  0.28093537  1
  Cl  Cl4  1  0.00000000  0.00000000  0.50000000  1
  Cl  Cl5  1  0.50000000  0.00000000  0.00000000  1
  Cl  Cl6  1  0.00000000  0.50000000  0.50000000  1
  Cl  Cl7  1  0.50000000  0.50000000  0.00000000  1
  Mg  Mg8  1  0.51855953  0.25000000  0.50508305  1
  Mg  Mg9  1  0.98144047  0.75000000  0.00508305  1
  Mg  Mg10  1  0.48144047  0.75000000  0.49491695  1
  Mg  Mg11  1  0.01855953  0.25000000  0.99491695  1
