# generated using pymatgen
data_Li2TiSOF
_symmetry_space_group_name_H-M   'P 1'
_cell_length_a   3.50024726
_cell_length_b   2.81908612
_cell_length_c   3.73595779
_cell_angle_alpha   87.97818574
_cell_angle_beta   85.24413276
_cell_angle_gamma   87.93019953
_symmetry_Int_Tables_number   1
_chemical_formula_structural   Li2TiSOF
_chemical_formula_sum   'Li2 Ti1 S1 O1 F1'
_cell_volume   36.69436794
_cell_formula_units_Z   1
loop_
 _symmetry_equiv_pos_site_id
 _symmetry_equiv_pos_as_xyz
  1  'x, y, z'
loop_
 _atom_site_type_symbol
 _atom_site_label
 _atom_site_symmetry_multiplicity
 _atom_site_fract_x
 _atom_site_fract_y
 _atom_site_fract_z
 _atom_site_occupancy
  Li  Li0  1  0.00000000  0.00000000  0.00000000  1
  Li  Li1  1  0.50000000  0.50000000  0.50000000  1
  Ti  Ti2  1  0.50000000  0.50000000  0.00000000  1
  S  S3  1  0.50000000  0.00000000  0.50000000  1
  F  F4  1  0.00000000  0.50000000  0.50000000  1
  O  O5  1  0.04994341  0.74280651  0.83692886  1
