# generated using pymatgen
data_LiI
_symmetry_space_group_name_H-M   'P 1'
_cell_length_a   12.43996325
_cell_length_b   21.20106753
_cell_length_c   17.74594125
_cell_angle_alpha   90.00000000
_cell_angle_beta   90.00000000
_cell_angle_gamma   90.00000000
_symmetry_Int_Tables_number   1
_chemical_formula_structural   LiI
_chemical_formula_sum   'Li96 I96'
_cell_volume   4680.32343303
_cell_formula_units_Z   96
loop_
 _symmetry_equiv_pos_site_id
 _symmetry_equiv_pos_as_xyz
  1  'x, y, z'
loop_
 _atom_site_type_symbol
 _atom_site_label
 _atom_site_symmetry_multiplicity
 _atom_site_fract_x
 _atom_site_fract_y
 _atom_site_fract_z
 _atom_site_occupancy
  I  I0  1  0.12500000  0.12500000  0.62500000  1
  I  I1  1  0.87500000  0.87500000  0.37500000  1
  I  I2  1  0.12500000  0.62500000  0.12500000  1
  I  I3  1  0.87500000  0.37500000  0.87500000  1
  I  I4  1  0.62500000  0.12500000  0.12500000  1
  I  I5  1  0.37500000  0.87500000  0.87500000  1
  I  I6  1  0.62500000  0.62500000  0.62500000  1
  I  I7  1  0.37500000  0.37500000  0.37500000  1
  I  I8  1  0.48450201  0.12500000  0.12500000  1
  I  I9  1  0.26549799  0.62500000  0.12500000  1
  I  I10  1  0.51549799  0.87500000  0.87500000  1
  I  I11  1  0.73450201  0.37500000  0.87500000  1
  I  I12  1  0.48450201  0.62500000  0.62500000  1
  I  I13  1  0.26549799  0.12500000  0.62500000  1
  I  I14  1  0.51549799  0.37500000  0.37500000  1
  I  I15  1  0.73450201  0.87500000  0.37500000  1
  I  I16  1  0.98450201  0.12500000  0.62500000  1
  I  I17  1  0.76549799  0.62500000  0.62500000  1
  I  I18  1  0.01549799  0.87500000  0.37500000  1
  I  I19  1  0.23450201  0.37500000  0.37500000  1
  I  I20  1  0.98450201  0.62500000  0.12500000  1
  I  I21  1  0.76549799  0.12500000  0.12500000  1
  I  I22  1  0.01549799  0.37500000  0.87500000  1
  I  I23  1  0.23450201  0.87500000  0.87500000  1
  I  I24  1  0.45516047  0.05376537  0.67133825  1
  I  I25  1  0.29483953  0.69623463  0.67133825  1
  I  I26  1  0.29483953  0.05376537  0.07866175  1
  I  I27  1  0.45516047  0.69623463  0.07866175  1
  I  I28  1  0.54483953  0.94623463  0.32866175  1
  I  I29  1  0.70516047  0.30376537  0.32866175  1
  I  I30  1  0.70516047  0.94623463  0.92133825  1
  I  I31  1  0.54483953  0.30376537  0.92133825  1
  I  I32  1  0.45516047  0.55376537  0.17133825  1
  I  I33  1  0.29483953  0.19623463  0.17133825  1
  I  I34  1  0.29483953  0.55376537  0.57866175  1
  I  I35  1  0.45516047  0.19623463  0.57866175  1
  I  I36  1  0.54483953  0.44623463  0.82866175  1
  I  I37  1  0.70516047  0.80376537  0.82866175  1
  I  I38  1  0.70516047  0.44623463  0.42133825  1
  I  I39  1  0.54483953  0.80376537  0.42133825  1
  I  I40  1  0.95516047  0.05376537  0.17133825  1
  I  I41  1  0.79483953  0.69623463  0.17133825  1
  I  I42  1  0.79483953  0.05376537  0.57866175  1
  I  I43  1  0.95516047  0.69623463  0.57866175  1
  I  I44  1  0.04483953  0.94623463  0.82866175  1
  I  I45  1  0.20516047  0.30376537  0.82866175  1
  I  I46  1  0.20516047  0.94623463  0.42133825  1
  I  I47  1  0.04483953  0.30376537  0.42133825  1
  I  I48  1  0.95516047  0.55376537  0.67133825  1
  I  I49  1  0.79483953  0.19623463  0.67133825  1
  I  I50  1  0.79483953  0.55376537  0.07866175  1
  I  I51  1  0.95516047  0.19623463  0.07866175  1
  I  I52  1  0.04483953  0.44623463  0.32866175  1
  I  I53  1  0.20516047  0.80376537  0.32866175  1
  I  I54  1  0.20516047  0.44623463  0.92133825  1
  I  I55  1  0.04483953  0.80376537  0.92133825  1
  I  I56  1  0.00000000  0.00000000  0.00000000  1
  I  I57  1  0.75000000  0.75000000  0.00000000  1
  I  I58  1  0.75000000  0.00000000  0.75000000  1
  I  I59  1  0.00000000  0.75000000  0.75000000  1
  I  I60  1  0.00000000  0.50000000  0.50000000  1
  I  I61  1  0.75000000  0.25000000  0.50000000  1
  I  I62  1  0.75000000  0.50000000  0.25000000  1
  I  I63  1  0.00000000  0.25000000  0.25000000  1
  I  I64  1  0.50000000  0.00000000  0.50000000  1
  I  I65  1  0.25000000  0.75000000  0.50000000  1
  I  I66  1  0.25000000  0.00000000  0.25000000  1
  I  I67  1  0.50000000  0.75000000  0.25000000  1
  I  I68  1  0.50000000  0.50000000  0.00000000  1
  I  I69  1  0.25000000  0.25000000  0.00000000  1
  I  I70  1  0.25000000  0.50000000  0.75000000  1
  I  I71  1  0.50000000  0.25000000  0.75000000  1
  I  I72  1  0.50000000  0.50000000  0.50000000  1
  I  I73  1  0.25000000  0.25000000  0.50000000  1
  I  I74  1  0.25000000  0.50000000  0.25000000  1
  I  I75  1  0.50000000  0.25000000  0.25000000  1
  I  I76  1  0.50000000  0.00000000  0.00000000  1
  I  I77  1  0.25000000  0.75000000  0.00000000  1
  I  I78  1  0.25000000  0.00000000  0.75000000  1
  I  I79  1  0.50000000  0.75000000  0.75000000  1
  I  I80  1  0.00000000  0.50000000  0.00000000  1
  I  I81  1  0.75000000  0.25000000  -0.00000000  1
  I  I82  1  0.75000000  0.50000000  0.75000000  1
  I  I83  1  0.00000000  0.25000000  0.75000000  1
  I  I84  1  0.00000000  0.00000000  0.50000000  1
  I  I85  1  0.75000000  0.75000000  0.50000000  1
  I  I86  1  0.75000000  0.00000000  0.25000000  1
  I  I87  1  0.00000000  0.75000000  0.25000000  1
  I  I88  1  0.12500000  0.12500000  0.12500000  1
  I  I89  1  0.87500000  0.87500000  0.87500000  1
  I  I90  1  0.12500000  0.62500000  0.62500000  1
  I  I91  1  0.87500000  0.37500000  0.37500000  1
  I  I92  1  0.62500000  0.12500000  0.62500000  1
  I  I93  1  0.37500000  0.87500000  0.37500000  1
  I  I94  1  0.62500000  0.62500000  0.12500000  1
  I  I95  1  0.37500000  0.37500000  0.87500000  1
  Li  Li96  1  0.66246693  0.55243882  0.78727133  1
  Li  Li97  1  0.08753307  0.19756118  0.78727133  1
  Li  Li98  1  0.08753307  0.55243882  -0.03727133  1
  Li  Li99  1  0.66246693  0.19756118  -0.03727133  1
  Li  Li100  1  -0.66246693  -0.55243882  -0.78727133  1
  Li  Li101  1  0.91246693  0.80243882  -0.78727133  1
  Li  Li102  1  0.91246693  -0.55243882  1.03727133  1
  Li  Li103  1  -0.66246693  0.80243882  1.03727133  1
  Li  Li104  1  0.66246693  1.05243882  1.28727133  1
  Li  Li105  1  0.08753307  0.69756118  1.28727133  1
  Li  Li106  1  0.08753307  1.05243882  0.46272867  1
  Li  Li107  1  0.66246693  0.69756118  0.46272867  1
  Li  Li108  1  -0.66246693  -0.05243882  -0.28727133  1
  Li  Li109  1  0.91246693  1.30243882  -0.28727133  1
  Li  Li110  1  0.91246693  -0.05243882  1.53727133  1
  Li  Li111  1  -0.66246693  1.30243882  1.53727133  1
  Li  Li112  1  1.16246693  0.55243882  1.28727133  1
  Li  Li113  1  0.58753307  0.19756118  1.28727133  1
  Li  Li114  1  0.58753307  0.55243882  0.46272867  1
  Li  Li115  1  1.16246693  0.19756118  0.46272867  1
  Li  Li116  1  -0.16246693  -0.55243882  -0.28727133  1
  Li  Li117  1  1.41246693  0.80243882  -0.28727133  1
  Li  Li118  1  1.41246693  -0.55243882  1.53727133  1
  Li  Li119  1  -0.16246693  0.80243882  1.53727133  1
  Li  Li120  1  1.16246693  1.05243882  0.78727133  1
  Li  Li121  1  0.58753307  0.69756118  0.78727133  1
  Li  Li122  1  0.58753307  1.05243882  -0.03727133  1
  Li  Li123  1  1.16246693  0.69756118  -0.03727133  1
  Li  Li124  1  -0.16246693  -0.05243882  -0.78727133  1
  Li  Li125  1  1.41246693  1.30243882  -0.78727133  1
  Li  Li126  1  1.41246693  -0.05243882  1.03727133  1
  Li  Li127  1  -0.16246693  1.30243882  1.03727133  1
  Li  Li128  1  0.85966137  0.46999392  0.22423551  1
  Li  Li129  1  0.89033863  0.28000608  0.22423551  1
  Li  Li130  1  0.89033863  0.46999392  0.52576449  1
  Li  Li131  1  0.85966137  0.28000608  0.52576449  1
  Li  Li132  1  0.14033863  0.53000608  0.77576449  1
  Li  Li133  1  0.10966137  0.71999392  0.77576449  1
  Li  Li134  1  0.10966137  0.53000608  0.47423551  1
  Li  Li135  1  0.14033863  0.71999392  0.47423551  1
  Li  Li136  1  0.85966137  0.96999392  0.72423551  1
  Li  Li137  1  0.89033863  0.78000608  0.72423551  1
  Li  Li138  1  0.89033863  0.96999392  0.02576449  1
  Li  Li139  1  0.85966137  0.78000608  0.02576449  1
  Li  Li140  1  0.14033863  0.03000608  0.27576449  1
  Li  Li141  1  0.10966137  0.21999392  0.27576449  1
  Li  Li142  1  0.10966137  0.03000608  0.97423551  1
  Li  Li143  1  0.14033863  0.21999392  0.97423551  1
  Li  Li144  1  0.35966137  0.46999392  0.72423551  1
  Li  Li145  1  0.39033863  0.28000608  0.72423551  1
  Li  Li146  1  0.39033863  0.46999392  0.02576449  1
  Li  Li147  1  0.35966137  0.28000608  0.02576449  1
  Li  Li148  1  0.64033863  0.53000608  0.27576449  1
  Li  Li149  1  0.60966137  0.71999392  0.27576449  1
  Li  Li150  1  0.60966137  0.53000608  0.97423551  1
  Li  Li151  1  0.64033863  0.71999392  0.97423551  1
  Li  Li152  1  0.35966137  0.96999392  0.22423551  1
  Li  Li153  1  0.39033863  0.78000608  0.22423551  1
  Li  Li154  1  0.39033863  0.96999392  0.52576449  1
  Li  Li155  1  0.35966137  0.78000608  0.52576449  1
  Li  Li156  1  0.64033863  0.03000608  0.77576449  1
  Li  Li157  1  0.60966137  0.21999392  0.77576449  1
  Li  Li158  1  0.60966137  0.03000608  0.47423551  1
  Li  Li159  1  0.64033863  0.21999392  0.47423551  1
  Li  Li160  1  0.30446781  0.69235231  0.31758310  1
  Li  Li161  1  0.44553219  0.05764769  0.31758310  1
  Li  Li162  1  0.44553219  0.69235231  0.43241690  1
  Li  Li163  1  0.30446781  0.05764769  0.43241690  1
  Li  Li164  1  0.69553219  0.30764769  0.68241690  1
  Li  Li165  1  0.55446781  0.94235231  0.68241690  1
  Li  Li166  1  0.55446781  0.30764769  0.56758310  1
  Li  Li167  1  0.69553219  0.94235231  0.56758310  1
  Li  Li168  1  0.30446781  0.19235231  0.81758310  1
  Li  Li169  1  0.44553219  0.55764769  0.81758310  1
  Li  Li170  1  0.44553219  0.19235231  0.93241690  1
  Li  Li171  1  0.30446781  0.55764769  0.93241690  1
  Li  Li172  1  0.69553219  0.80764769  0.18241690  1
  Li  Li173  1  0.55446781  0.44235231  0.18241690  1
  Li  Li174  1  0.55446781  0.80764769  0.06758310  1
  Li  Li175  1  0.69553219  0.44235231  0.06758310  1
  Li  Li176  1  0.80446781  0.69235231  0.81758310  1
  Li  Li177  1  0.94553219  0.05764769  0.81758310  1
  Li  Li178  1  0.94553219  0.69235231  0.93241690  1
  Li  Li179  1  0.80446781  0.05764769  0.93241690  1
  Li  Li180  1  0.19553219  0.30764769  0.18241690  1
  Li  Li181  1  0.05446781  0.94235231  0.18241690  1
  Li  Li182  1  0.05446781  0.30764769  0.06758310  1
  Li  Li183  1  0.19553219  0.94235231  0.06758310  1
  Li  Li184  1  0.80446781  0.19235231  0.31758310  1
  Li  Li185  1  0.94553219  0.55764769  0.31758310  1
  Li  Li186  1  0.94553219  0.19235231  0.43241690  1
  Li  Li187  1  0.80446781  0.55764769  0.43241690  1
  Li  Li188  1  0.19553219  0.80764769  0.68241690  1
  Li  Li189  1  0.05446781  0.44235231  0.68241690  1
  Li  Li190  1  0.05446781  0.80764769  0.56758310  1
  Li  Li191  1  0.19553219  0.44235231  0.56758310  1
