# generated using pymatgen
data_NaLi2I3
_symmetry_space_group_name_H-M   'P 1'
_cell_length_a   7.25543556
_cell_length_b   7.25543556
_cell_length_c   7.03040219
_cell_angle_alpha   90.00000000
_cell_angle_beta   90.00000000
_cell_angle_gamma   120.00000000
_symmetry_Int_Tables_number   1
_chemical_formula_structural   NaLi2I3
_chemical_formula_sum   'Na2 Li4 I6'
_cell_volume   320.50719295
_cell_formula_units_Z   2
loop_
 _symmetry_equiv_pos_site_id
 _symmetry_equiv_pos_as_xyz
  1  'x, y, z'
loop_
 _atom_site_type_symbol
 _atom_site_label
 _atom_site_symmetry_multiplicity
 _atom_site_fract_x
 _atom_site_fract_y
 _atom_site_fract_z
 _atom_site_occupancy
  I  I0  1  0.47449636  -0.47449636  0.00000000  1
  I  I1  1  0.47449636  0.94899272  -0.00000000  1
  I  I2  1  -0.94899272  -0.47449636  0.00000000  1
  I  I3  1  0.33333333  0.66666667  0.50000000  1
  I  I4  1  0.66666667  0.33333333  0.50000000  1
  I  I5  1  0.00000000  0.00000000  0.00000000  1
  Li  Li6  1  0.00000000  0.00000000  0.50000000  1
  Li  Li7  1  0.78560462  0.21439538  -0.00000000  1
  Li  Li8  1  0.78560462  0.57120924  -0.00000000  1
  Li  Li9  1  0.42879076  0.21439538  -0.00000000  1
  Na  Na10  1  0.33333333  0.66666667  0.00000000  1
  Na  Na11  1  0.66666667  0.33333333  0.00000000  1
