# generated using pymatgen
data_Li2O
_symmetry_space_group_name_H-M   'P 1'
_cell_length_a   11.62424280
_cell_length_b   6.42006946
_cell_length_c   4.67936199
_cell_angle_alpha   90.00000000
_cell_angle_beta   90.00000000
_cell_angle_gamma   90.00000000
_symmetry_Int_Tables_number   1
_chemical_formula_structural   Li2O
_chemical_formula_sum   'Li12 O6'
_cell_volume   349.21351444
_cell_formula_units_Z   6
loop_
 _symmetry_equiv_pos_site_id
 _symmetry_equiv_pos_as_xyz
  1  'x, y, z'
loop_
 _atom_site_type_symbol
 _atom_site_label
 _atom_site_symmetry_multiplicity
 _atom_site_fract_x
 _atom_site_fract_y
 _atom_site_fract_z
 _atom_site_occupancy
  Li  Li0  1  0.55168456  0.74002030  0.17687609  1
  Li  Li1  1  -0.55168456  -0.74002030  0.17687609  1
  Li  Li2  1  -0.05168456  1.24002030  0.32312391  1
  Li  Li3  1  1.05168456  -0.24002030  0.32312391  1
  Li  Li4  1  -0.55168456  -0.74002030  -0.17687609  1
  Li  Li5  1  0.55168456  0.74002030  -0.17687609  1
  Li  Li6  1  1.05168456  -0.24002030  0.67687609  1
  Li  Li7  1  -0.05168456  1.24002030  0.67687609  1
  Li  Li8  1  0.00000000  0.00000000  0.75152096  1
  Li  Li9  1  0.50000000  0.50000000  0.74847904  1
  Li  Li10  1  0.00000000  0.00000000  0.24847904  1
  Li  Li11  1  0.50000000  0.50000000  0.25152096  1
  O  O12  1  0.00000000  0.50000000  0.60714298  1
  O  O13  1  0.50000000  0.00000000  0.89285702  1
  O  O14  1  0.00000000  0.50000000  0.39285702  1
  O  O15  1  0.50000000  0.00000000  0.10714298  1
  O  O16  1  0.00000000  0.00000000  0.00000000  1
  O  O17  1  0.50000000  0.50000000  0.50000000  1
