# generated using pymatgen
data_K2LiCl3
_symmetry_space_group_name_H-M   'P 1'
_cell_length_a   8.75882382
_cell_length_b   8.75882382
_cell_length_c   9.84749733
_cell_angle_alpha   90.00000000
_cell_angle_beta   90.00000000
_cell_angle_gamma   120.00000000
_symmetry_Int_Tables_number   1
_chemical_formula_structural   K2LiCl3
_chemical_formula_sum   'K6 Li3 Cl9'
_cell_volume   654.25655817
_cell_formula_units_Z   3
loop_
 _symmetry_equiv_pos_site_id
 _symmetry_equiv_pos_as_xyz
  1  'x, y, z'
loop_
 _atom_site_type_symbol
 _atom_site_label
 _atom_site_symmetry_multiplicity
 _atom_site_fract_x
 _atom_site_fract_y
 _atom_site_fract_z
 _atom_site_occupancy
  Cl  Cl0  1  0.07351471  0.22157698  0.66228182  1
  Cl  Cl1  1  -0.22157698  -0.14806227  0.66228182  1
  Cl  Cl2  1  0.14806227  -0.07351471  0.66228182  1
  Cl  Cl3  1  -0.22157698  -0.07351471  -0.66228182  1
  Cl  Cl4  1  0.14806227  0.22157698  -0.66228182  1
  Cl  Cl5  1  0.07351471  -0.14806227  -0.66228182  1
  Cl  Cl6  1  0.66666667  0.33333333  0.40139646  1
  Cl  Cl7  1  0.66666667  0.33333333  0.59860354  1
  Cl  Cl8  1  0.00000000  0.00000000  0.00000000  1
  K  K9  1  0.18600265  0.81399735  0.50000000  1
  K  K10  1  0.18600265  0.37200529  0.50000000  1
  K  K11  1  0.62799471  0.81399735  0.50000000  1
  K  K12  1  0.00000000  0.00000000  0.26156514  1
  K  K13  1  0.00000000  0.00000000  0.73843486  1
  K  K14  1  0.66666667  0.33333333  0.00000000  1
  Li  Li15  1  0.61132020  0.38867980  0.50000000  1
  Li  Li16  1  0.61132020  0.22264039  0.50000000  1
  Li  Li17  1  0.77735961  0.38867980  0.50000000  1
