# generated using pymatgen
data_LiCl
_symmetry_space_group_name_H-M   'P 1'
_cell_length_a   8.35008960
_cell_length_b   8.35008960
_cell_length_c   8.57900370
_cell_angle_alpha   90.00000000
_cell_angle_beta   90.00000000
_cell_angle_gamma   120.00000000
_symmetry_Int_Tables_number   1
_chemical_formula_structural   LiCl
_chemical_formula_sum   'Li18 Cl18'
_cell_volume   518.02385284
_cell_formula_units_Z   18
loop_
 _symmetry_equiv_pos_site_id
 _symmetry_equiv_pos_as_xyz
  1  'x, y, z'
loop_
 _atom_site_type_symbol
 _atom_site_label
 _atom_site_symmetry_multiplicity
 _atom_site_fract_x
 _atom_site_fract_y
 _atom_site_fract_z
 _atom_site_occupancy
  Cl  Cl0  1  0.22730191  0.00000000  0.50000000  1
  Cl  Cl1  1  0.00000000  0.22730191  0.50000000  1
  Cl  Cl2  1  -0.22730191  -0.22730191  0.50000000  1
  Cl  Cl3  1  -0.22730191  0.00000000  0.50000000  1
  Cl  Cl4  1  0.00000000  -0.22730191  0.50000000  1
  Cl  Cl5  1  0.22730191  0.22730191  0.50000000  1
  Cl  Cl6  1  0.89396858  0.33333333  0.83333333  1
  Cl  Cl7  1  0.66666667  0.56063525  0.83333333  1
  Cl  Cl8  1  0.43936475  0.10603142  0.83333333  1
  Cl  Cl9  1  0.43936475  0.33333333  0.83333333  1
  Cl  Cl10  1  0.66666667  0.10603142  0.83333333  1
  Cl  Cl11  1  0.89396858  0.56063525  0.83333333  1
  Cl  Cl12  1  0.56063525  0.66666667  1.16666667  1
  Cl  Cl13  1  0.33333333  0.89396858  1.16666667  1
  Cl  Cl14  1  0.10603142  0.43936475  1.16666667  1
  Cl  Cl15  1  0.10603142  0.66666667  1.16666667  1
  Cl  Cl16  1  0.33333333  0.43936475  1.16666667  1
  Cl  Cl17  1  0.56063525  0.89396858  1.16666667  1
  Li  Li18  1  0.61729962  0.00000000  0.50000000  1
  Li  Li19  1  0.00000000  0.61729962  0.50000000  1
  Li  Li20  1  0.38270038  0.38270038  0.50000000  1
  Li  Li21  1  0.38270038  0.00000000  0.50000000  1
  Li  Li22  1  0.00000000  0.38270038  0.50000000  1
  Li  Li23  1  0.61729962  0.61729962  0.50000000  1
  Li  Li24  1  0.28396628  0.33333333  0.83333333  1
  Li  Li25  1  0.66666667  0.95063295  0.83333333  1
  Li  Li26  1  0.04936705  0.71603372  0.83333333  1
  Li  Li27  1  0.04936705  0.33333333  0.83333333  1
  Li  Li28  1  0.66666667  0.71603372  0.83333333  1
  Li  Li29  1  0.28396628  0.95063295  0.83333333  1
  Li  Li30  1  0.95063295  0.66666667  0.16666667  1
  Li  Li31  1  0.33333333  0.28396628  0.16666667  1
  Li  Li32  1  0.71603372  0.04936705  0.16666667  1
  Li  Li33  1  0.71603372  0.66666667  0.16666667  1
  Li  Li34  1  0.33333333  0.04936705  0.16666667  1
  Li  Li35  1  0.95063295  0.28396628  0.16666667  1
