# generated using pymatgen
data_Li4Mg3S3Br4
_symmetry_space_group_name_H-M   'P 1'
_cell_length_a   9.99810313
_cell_length_b   9.99810313
_cell_length_c   6.34038236
_cell_angle_alpha   90.00000000
_cell_angle_beta   90.00000000
_cell_angle_gamma   120.00000000
_symmetry_Int_Tables_number   1
_chemical_formula_structural   Li4Mg3S3Br4
_chemical_formula_sum   'Li8 Mg6 S6 Br8'
_cell_volume   548.88492757
_cell_formula_units_Z   2
loop_
 _symmetry_equiv_pos_site_id
 _symmetry_equiv_pos_as_xyz
  1  'x, y, z'
loop_
 _atom_site_type_symbol
 _atom_site_label
 _atom_site_symmetry_multiplicity
 _atom_site_fract_x
 _atom_site_fract_y
 _atom_site_fract_z
 _atom_site_occupancy
  Br  Br0  1  0.78498340  1.56996681  0.25000000  1
  Br  Br1  1  -1.56996681  -0.78498340  0.25000000  1
  Br  Br2  1  0.78498340  -0.78498340  0.25000000  1
  Br  Br3  1  -0.78498340  -1.56996681  0.75000000  1
  Br  Br4  1  1.56996681  0.78498340  0.75000000  1
  Br  Br5  1  -0.78498340  0.78498340  0.75000000  1
  Br  Br6  1  0.00000000  0.00000000  0.00000000  1
  Br  Br7  1  0.00000000  0.00000000  0.50000000  1
  Li  Li8  1  0.33333333  0.66666667  0.25000000  1
  Li  Li9  1  0.66666667  0.33333333  0.75000000  1
  Li  Li10  1  0.11102764  0.22205528  0.25000000  1
  Li  Li11  1  0.77794472  0.88897236  0.25000000  1
  Li  Li12  1  0.11102764  0.88897236  0.25000000  1
  Li  Li13  1  0.88897236  0.77794472  0.75000000  1
  Li  Li14  1  0.22205528  0.11102764  0.75000000  1
  Li  Li15  1  0.88897236  0.11102764  0.75000000  1
  Mg  Mg16  1  0.50000000  -0.00000000  0.00000000  1
  Mg  Mg17  1  0.00000000  0.50000000  0.00000000  1
  Mg  Mg18  1  0.50000000  0.50000000  0.00000000  1
  Mg  Mg19  1  0.50000000  -0.00000000  0.50000000  1
  Mg  Mg20  1  0.00000000  0.50000000  0.50000000  1
  Mg  Mg21  1  0.50000000  0.50000000  0.50000000  1
  S  S22  1  0.33333333  0.66666667  0.99680689  1
  S  S23  1  0.66666667  0.33333333  0.49680689  1
  S  S24  1  0.66666667  0.33333333  0.00319311  1
  S  S25  1  0.33333333  0.66666667  0.50319311  1
  S  S26  1  0.33333333  0.66666667  0.75000000  1
  S  S27  1  0.66666667  0.33333333  0.25000000  1
