# generated using pymatgen
data_LiLaBrO2
_symmetry_space_group_name_H-M   'P 1'
_cell_length_a   8.85906605
_cell_length_b   8.09588945
_cell_length_c   8.65009856
_cell_angle_alpha   90.00000000
_cell_angle_beta   90.00000000
_cell_angle_gamma   90.00000000
_symmetry_Int_Tables_number   1
_chemical_formula_structural   LiLaBrO2
_chemical_formula_sum   'Li2 La2 Br2 O4'
_cell_volume   620.40253591
_cell_formula_units_Z   2
loop_
 _symmetry_equiv_pos_site_id
 _symmetry_equiv_pos_as_xyz
  1  'x, y, z'
loop_
 _atom_site_type_symbol
 _atom_site_label
 _atom_site_symmetry_multiplicity
 _atom_site_fract_x
 _atom_site_fract_y
 _atom_site_fract_z
 _atom_site_occupancy
  Li  Li0  1  0.00000000  0.00000000  0.00000000  1
  Li  Li1  1  0.50000000  0.50000000  0.50000000  1
  La  La2  1  0.25000000  0.25000000  0.25000000  1
  La  La3  1  0.75000000  0.25000000  0.00000000  1
  Br  Br4  1  0.25000000  0.75000000  0.50000000  1
  Br  Br5  1  0.89300401  0.40709956  0.75219455  1
  O  O6  1  0.79367006  0.78083304  0.43176552  1
  O  O7  1  0.05784691  0.70034103  0.03484776  1
  O  O8  1  0.97467703  0.13953349  0.19655135  1
  O  O9  1  0.88906559  0.40276714  0.79887345  1
