# generated using pymatgen
data_Li24Zr3Si4(S6Cl)4
_symmetry_space_group_name_H-M   'P 1'
_cell_length_a   22.31922942
_cell_length_b   22.31922942
_cell_length_c   22.31922942
_cell_angle_alpha   90.00000000
_cell_angle_beta   90.00000000
_cell_angle_gamma   90.00000000
_symmetry_Int_Tables_number   1
_chemical_formula_structural   Li24Zr3Si4(S6Cl)4
_chemical_formula_sum   'Li192 Zr24 Si32 S192 Cl32'
_cell_volume   11118.27953881
_cell_formula_units_Z   8
loop_
 _symmetry_equiv_pos_site_id
 _symmetry_equiv_pos_as_xyz
  1  'x, y, z'
loop_
 _atom_site_type_symbol
 _atom_site_label
 _atom_site_symmetry_multiplicity
 _atom_site_fract_x
 _atom_site_fract_y
 _atom_site_fract_z
 _atom_site_occupancy
  Cl  Cl0  1  0.58394311  0.58394311  0.58394311  1
  Cl  Cl1  1  0.91605689  0.41605689  0.08394311  1
  Cl  Cl2  1  0.41605689  0.08394311  0.91605689  1
  Cl  Cl3  1  0.08394311  0.91605689  0.41605689  1
  Cl  Cl4  1  0.33394311  0.83394311  0.66605689  1
  Cl  Cl5  1  0.16605689  0.16605689  0.16605689  1
  Cl  Cl6  1  0.83394311  0.66605689  0.33394311  1
  Cl  Cl7  1  0.66605689  0.33394311  0.83394311  1
  Cl  Cl8  1  0.41605689  0.41605689  0.41605689  1
  Cl  Cl9  1  0.08394311  0.58394311  0.91605689  1
  Cl  Cl10  1  0.58394311  0.91605689  0.08394311  1
  Cl  Cl11  1  0.91605689  0.08394311  0.58394311  1
  Cl  Cl12  1  0.66605689  0.16605689  0.33394311  1
  Cl  Cl13  1  0.83394311  0.83394311  0.83394311  1
  Cl  Cl14  1  0.16605689  0.33394311  0.66605689  1
  Cl  Cl15  1  0.33394311  0.66605689  0.16605689  1
  Cl  Cl16  1  0.08394311  0.08394311  0.08394311  1
  Cl  Cl17  1  0.41605689  0.91605689  0.58394311  1
  Cl  Cl18  1  0.91605689  0.58394311  0.41605689  1
  Cl  Cl19  1  0.58394311  0.41605689  0.91605689  1
  Cl  Cl20  1  0.83394311  0.33394311  0.16605689  1
  Cl  Cl21  1  0.66605689  0.66605689  0.66605689  1
  Cl  Cl22  1  0.33394311  0.16605689  0.83394311  1
  Cl  Cl23  1  0.16605689  0.83394311  0.33394311  1
  Cl  Cl24  1  0.91605689  0.91605689  0.91605689  1
  Cl  Cl25  1  0.58394311  0.08394311  0.41605689  1
  Cl  Cl26  1  0.08394311  0.41605689  0.58394311  1
  Cl  Cl27  1  0.41605689  0.58394311  0.08394311  1
  Cl  Cl28  1  0.16605689  0.66605689  0.83394311  1
  Cl  Cl29  1  0.33394311  0.33394311  0.33394311  1
  Cl  Cl30  1  0.66605689  0.83394311  0.16605689  1
  Cl  Cl31  1  0.83394311  0.16605689  0.66605689  1
  Li  Li32  1  0.93116890  0.48026946  0.16171733  1
  Li  Li33  1  -0.43116890  -0.48026946  0.66171733  1
  Li  Li34  1  -0.93116890  0.98026946  0.33828267  1
  Li  Li35  1  1.43116890  0.01973054  -0.16171733  1
  Li  Li36  1  0.16171733  0.93116890  0.48026946  1
  Li  Li37  1  0.66171733  -0.43116890  -0.48026946  1
  Li  Li38  1  0.33828267  -0.93116890  0.98026946  1
  Li  Li39  1  -0.16171733  1.43116890  0.01973054  1
  Li  Li40  1  0.48026946  0.16171733  0.93116890  1
  Li  Li41  1  -0.48026946  0.66171733  -0.43116890  1
  Li  Li42  1  0.98026946  0.33828267  -0.93116890  1
  Li  Li43  1  0.01973054  -0.16171733  1.43116890  1
  Li  Li44  1  1.23026946  1.18116890  0.08828267  1
  Li  Li45  1  0.26973054  -0.18116890  0.58828267  1
  Li  Li46  1  0.73026946  -0.68116890  0.91171733  1
  Li  Li47  1  -0.23026946  1.68116890  0.41171733  1
  Li  Li48  1  1.68116890  0.41171733  -0.23026946  1
  Li  Li49  1  -0.68116890  0.91171733  0.73026946  1
  Li  Li50  1  -0.18116890  0.58828267  0.26973054  1
  Li  Li51  1  1.18116890  0.08828267  1.23026946  1
  Li  Li52  1  0.91171733  0.73026946  -0.68116890  1
  Li  Li53  1  0.41171733  -0.23026946  1.68116890  1
  Li  Li54  1  0.08828267  1.23026946  1.18116890  1
  Li  Li55  1  0.58828267  0.26973054  -0.18116890  1
  Li  Li56  1  -0.93116890  -0.48026946  -0.16171733  1
  Li  Li57  1  1.43116890  0.48026946  0.33828267  1
  Li  Li58  1  0.93116890  0.01973054  0.66171733  1
  Li  Li59  1  -0.43116890  0.98026946  0.16171733  1
  Li  Li60  1  -0.16171733  -0.93116890  -0.48026946  1
  Li  Li61  1  0.33828267  1.43116890  0.48026946  1
  Li  Li62  1  0.66171733  0.93116890  0.01973054  1
  Li  Li63  1  0.16171733  -0.43116890  0.98026946  1
  Li  Li64  1  -0.48026946  -0.16171733  -0.93116890  1
  Li  Li65  1  0.48026946  0.33828267  1.43116890  1
  Li  Li66  1  0.01973054  0.66171733  0.93116890  1
  Li  Li67  1  0.98026946  0.16171733  -0.43116890  1
  Li  Li68  1  -0.23026946  -0.18116890  0.91171733  1
  Li  Li69  1  0.73026946  1.18116890  0.41171733  1
  Li  Li70  1  0.26973054  1.68116890  0.08828267  1
  Li  Li71  1  1.23026946  -0.68116890  0.58828267  1
  Li  Li72  1  -0.68116890  0.58828267  1.23026946  1
  Li  Li73  1  1.68116890  0.08828267  0.26973054  1
  Li  Li74  1  1.18116890  0.41171733  0.73026946  1
  Li  Li75  1  -0.18116890  0.91171733  -0.23026946  1
  Li  Li76  1  0.08828267  0.26973054  1.68116890  1
  Li  Li77  1  0.58828267  1.23026946  -0.68116890  1
  Li  Li78  1  0.91171733  -0.23026946  -0.18116890  1
  Li  Li79  1  0.41171733  0.73026946  1.18116890  1
  Li  Li80  1  1.43116890  0.98026946  0.66171733  1
  Li  Li81  1  0.06883110  0.01973054  1.16171733  1
  Li  Li82  1  -0.43116890  1.48026946  0.83828267  1
  Li  Li83  1  1.93116890  0.51973054  0.33828267  1
  Li  Li84  1  0.66171733  1.43116890  0.98026946  1
  Li  Li85  1  1.16171733  0.06883110  0.01973054  1
  Li  Li86  1  0.83828267  -0.43116890  1.48026946  1
  Li  Li87  1  0.33828267  1.93116890  0.51973054  1
  Li  Li88  1  0.98026946  0.66171733  1.43116890  1
  Li  Li89  1  0.01973054  1.16171733  0.06883110  1
  Li  Li90  1  1.48026946  0.83828267  -0.43116890  1
  Li  Li91  1  0.51973054  0.33828267  1.93116890  1
  Li  Li92  1  1.73026946  1.68116890  0.58828267  1
  Li  Li93  1  0.76973054  0.31883110  1.08828267  1
  Li  Li94  1  1.23026946  -0.18116890  1.41171733  1
  Li  Li95  1  0.26973054  2.18116890  0.91171733  1
  Li  Li96  1  2.18116890  0.91171733  0.26973054  1
  Li  Li97  1  -0.18116890  1.41171733  1.23026946  1
  Li  Li98  1  0.31883110  1.08828267  0.76973054  1
  Li  Li99  1  1.68116890  0.58828267  1.73026946  1
  Li  Li100  1  1.41171733  1.23026946  -0.18116890  1
  Li  Li101  1  0.91171733  0.26973054  2.18116890  1
  Li  Li102  1  0.58828267  1.73026946  1.68116890  1
  Li  Li103  1  1.08828267  0.76973054  0.31883110  1
  Li  Li104  1  -0.43116890  0.01973054  0.33828267  1
  Li  Li105  1  1.93116890  0.98026946  0.83828267  1
  Li  Li106  1  1.43116890  0.51973054  1.16171733  1
  Li  Li107  1  0.06883110  1.48026946  0.66171733  1
  Li  Li108  1  0.33828267  -0.43116890  0.01973054  1
  Li  Li109  1  0.83828267  1.93116890  0.98026946  1
  Li  Li110  1  1.16171733  1.43116890  0.51973054  1
  Li  Li111  1  0.66171733  0.06883110  1.48026946  1
  Li  Li112  1  0.01973054  0.33828267  -0.43116890  1
  Li  Li113  1  0.98026946  0.83828267  1.93116890  1
  Li  Li114  1  0.51973054  1.16171733  1.43116890  1
  Li  Li115  1  1.48026946  0.66171733  0.06883110  1
  Li  Li116  1  0.26973054  0.31883110  1.41171733  1
  Li  Li117  1  1.23026946  1.68116890  0.91171733  1
  Li  Li118  1  0.76973054  2.18116890  0.58828267  1
  Li  Li119  1  1.73026946  -0.18116890  1.08828267  1
  Li  Li120  1  -0.18116890  1.08828267  1.73026946  1
  Li  Li121  1  2.18116890  0.58828267  0.76973054  1
  Li  Li122  1  1.68116890  0.91171733  1.23026946  1
  Li  Li123  1  0.31883110  1.41171733  0.26973054  1
  Li  Li124  1  0.58828267  0.76973054  2.18116890  1
  Li  Li125  1  1.08828267  1.73026946  -0.18116890  1
  Li  Li126  1  1.41171733  0.26973054  0.31883110  1
  Li  Li127  1  0.91171733  1.23026946  1.68116890  1
  Li  Li128  1  0.58531030  0.84393384  0.91776915  1
  Li  Li129  1  0.91468970  0.15606616  0.41776915  1
  Li  Li130  1  0.41468970  0.34393384  0.58223085  1
  Li  Li131  1  0.08531030  0.65606616  0.08223085  1
  Li  Li132  1  0.91776915  0.58531030  0.84393384  1
  Li  Li133  1  0.41776915  0.91468970  0.15606616  1
  Li  Li134  1  0.58223085  0.41468970  0.34393384  1
  Li  Li135  1  0.08223085  0.08531030  0.65606616  1
  Li  Li136  1  0.84393384  0.91776915  0.58531030  1
  Li  Li137  1  0.15606616  0.41776915  0.91468970  1
  Li  Li138  1  0.34393384  0.58223085  0.41468970  1
  Li  Li139  1  0.65606616  0.08223085  0.08531030  1
  Li  Li140  1  0.59393384  0.83531030  0.33223085  1
  Li  Li141  1  0.90606616  0.16468970  0.83223085  1
  Li  Li142  1  0.09393384  0.66468970  0.66776915  1
  Li  Li143  1  0.40606616  0.33531030  0.16776915  1
  Li  Li144  1  0.33531030  0.16776915  0.40606616  1
  Li  Li145  1  0.66468970  0.66776915  0.09393384  1
  Li  Li146  1  0.16468970  0.83223085  0.90606616  1
  Li  Li147  1  0.83531030  0.33223085  0.59393384  1
  Li  Li148  1  0.66776915  0.09393384  0.66468970  1
  Li  Li149  1  0.16776915  0.40606616  0.33531030  1
  Li  Li150  1  0.33223085  0.59393384  0.83531030  1
  Li  Li151  1  0.83223085  0.90606616  0.16468970  1
  Li  Li152  1  0.41468970  0.15606616  0.08223085  1
  Li  Li153  1  0.08531030  0.84393384  0.58223085  1
  Li  Li154  1  0.58531030  0.65606616  0.41776915  1
  Li  Li155  1  0.91468970  0.34393384  0.91776915  1
  Li  Li156  1  0.08223085  0.41468970  0.15606616  1
  Li  Li157  1  0.58223085  0.08531030  0.84393384  1
  Li  Li158  1  0.41776915  0.58531030  0.65606616  1
  Li  Li159  1  0.91776915  0.91468970  0.34393384  1
  Li  Li160  1  0.15606616  0.08223085  0.41468970  1
  Li  Li161  1  0.84393384  0.58223085  0.08531030  1
  Li  Li162  1  0.65606616  0.41776915  0.58531030  1
  Li  Li163  1  0.34393384  0.91776915  0.91468970  1
  Li  Li164  1  0.40606616  0.16468970  0.66776915  1
  Li  Li165  1  0.09393384  0.83531030  0.16776915  1
  Li  Li166  1  0.90606616  0.33531030  0.33223085  1
  Li  Li167  1  0.59393384  0.66468970  0.83223085  1
  Li  Li168  1  0.66468970  0.83223085  0.59393384  1
  Li  Li169  1  0.33531030  0.33223085  0.90606616  1
  Li  Li170  1  0.83531030  0.16776915  0.09393384  1
  Li  Li171  1  0.16468970  0.66776915  0.40606616  1
  Li  Li172  1  0.33223085  0.90606616  0.33531030  1
  Li  Li173  1  0.83223085  0.59393384  0.66468970  1
  Li  Li174  1  0.66776915  0.40606616  0.16468970  1
  Li  Li175  1  0.16776915  0.09393384  0.83531030  1
  Li  Li176  1  0.08531030  0.34393384  0.41776915  1
  Li  Li177  1  0.41468970  0.65606616  0.91776915  1
  Li  Li178  1  0.91468970  0.84393384  0.08223085  1
  Li  Li179  1  0.58531030  0.15606616  0.58223085  1
  Li  Li180  1  0.41776915  0.08531030  0.34393384  1
  Li  Li181  1  0.91776915  0.41468970  0.65606616  1
  Li  Li182  1  0.08223085  0.91468970  0.84393384  1
  Li  Li183  1  0.58223085  0.58531030  0.15606616  1
  Li  Li184  1  0.34393384  0.41776915  0.08531030  1
  Li  Li185  1  0.65606616  0.91776915  0.41468970  1
  Li  Li186  1  0.84393384  0.08223085  0.91468970  1
  Li  Li187  1  0.15606616  0.58223085  0.58531030  1
  Li  Li188  1  0.09393384  0.33531030  0.83223085  1
  Li  Li189  1  0.40606616  0.66468970  0.33223085  1
  Li  Li190  1  0.59393384  0.16468970  0.16776915  1
  Li  Li191  1  0.90606616  0.83531030  0.66776915  1
  Li  Li192  1  0.83531030  0.66776915  0.90606616  1
  Li  Li193  1  0.16468970  0.16776915  0.59393384  1
  Li  Li194  1  0.66468970  0.33223085  0.40606616  1
  Li  Li195  1  0.33531030  0.83223085  0.09393384  1
  Li  Li196  1  0.16776915  0.59393384  0.16468970  1
  Li  Li197  1  0.66776915  0.90606616  0.83531030  1
  Li  Li198  1  0.83223085  0.09393384  0.33531030  1
  Li  Li199  1  0.33223085  0.40606616  0.66468970  1
  Li  Li200  1  0.91468970  0.65606616  0.58223085  1
  Li  Li201  1  0.58531030  0.34393384  0.08223085  1
  Li  Li202  1  0.08531030  0.15606616  0.91776915  1
  Li  Li203  1  0.41468970  0.84393384  0.41776915  1
  Li  Li204  1  0.58223085  0.91468970  0.65606616  1
  Li  Li205  1  0.08223085  0.58531030  0.34393384  1
  Li  Li206  1  0.91776915  0.08531030  0.15606616  1
  Li  Li207  1  0.41776915  0.41468970  0.84393384  1
  Li  Li208  1  0.65606616  0.58223085  0.91468970  1
  Li  Li209  1  0.34393384  0.08223085  0.58531030  1
  Li  Li210  1  0.15606616  0.91776915  0.08531030  1
  Li  Li211  1  0.84393384  0.41776915  0.41468970  1
  Li  Li212  1  0.90606616  0.66468970  0.16776915  1
  Li  Li213  1  0.59393384  0.33531030  0.66776915  1
  Li  Li214  1  0.40606616  0.83531030  0.83223085  1
  Li  Li215  1  0.09393384  0.16468970  0.33223085  1
  Li  Li216  1  0.16468970  0.33223085  0.09393384  1
  Li  Li217  1  0.83531030  0.83223085  0.40606616  1
  Li  Li218  1  0.33531030  0.66776915  0.59393384  1
  Li  Li219  1  0.66468970  0.16776915  0.90606616  1
  Li  Li220  1  0.83223085  0.40606616  0.83531030  1
  Li  Li221  1  0.33223085  0.09393384  0.16468970  1
  Li  Li222  1  0.16776915  0.90606616  0.66468970  1
  Li  Li223  1  0.66776915  0.59393384  0.33531030  1
  S  S224  1  0.12500000  0.46633015  0.78366985  1
  S  S225  1  0.37500000  0.53366985  0.28366985  1
  S  S226  1  0.87500000  0.96633015  0.71633015  1
  S  S227  1  0.62500000  0.03366985  0.21633015  1
  S  S228  1  0.78366985  0.12500000  0.46633015  1
  S  S229  1  0.28366985  0.37500000  0.53366985  1
  S  S230  1  0.71633015  0.87500000  0.96633015  1
  S  S231  1  0.21633015  0.62500000  0.03366985  1
  S  S232  1  0.46633015  0.78366985  0.12500000  1
  S  S233  1  0.53366985  0.28366985  0.37500000  1
  S  S234  1  0.96633015  0.71633015  0.87500000  1
  S  S235  1  0.03366985  0.21633015  0.62500000  1
  S  S236  1  0.87500000  0.53366985  0.21633015  1
  S  S237  1  0.62500000  0.46633015  0.71633015  1
  S  S238  1  0.12500000  0.03366985  0.28366985  1
  S  S239  1  0.37500000  0.96633015  0.78366985  1
  S  S240  1  0.21633015  0.87500000  0.53366985  1
  S  S241  1  0.71633015  0.62500000  0.46633015  1
  S  S242  1  0.28366985  0.12500000  0.03366985  1
  S  S243  1  0.78366985  0.37500000  0.96633015  1
  S  S244  1  0.53366985  0.21633015  0.87500000  1
  S  S245  1  0.46633015  0.71633015  0.62500000  1
  S  S246  1  0.03366985  0.28366985  0.12500000  1
  S  S247  1  0.96633015  0.78366985  0.37500000  1
  S  S248  1  0.62500000  0.96633015  0.28366985  1
  S  S249  1  0.87500000  0.03366985  0.78366985  1
  S  S250  1  0.37500000  0.46633015  0.21633015  1
  S  S251  1  0.12500000  0.53366985  0.71633015  1
  S  S252  1  0.28366985  0.62500000  0.96633015  1
  S  S253  1  0.78366985  0.87500000  0.03366985  1
  S  S254  1  0.21633015  0.37500000  0.46633015  1
  S  S255  1  0.71633015  0.12500000  0.53366985  1
  S  S256  1  0.96633015  0.28366985  0.62500000  1
  S  S257  1  0.03366985  0.78366985  0.87500000  1
  S  S258  1  0.46633015  0.21633015  0.37500000  1
  S  S259  1  0.53366985  0.71633015  0.12500000  1
  S  S260  1  0.37500000  0.03366985  0.71633015  1
  S  S261  1  0.12500000  0.96633015  0.21633015  1
  S  S262  1  0.62500000  0.53366985  0.78366985  1
  S  S263  1  0.87500000  0.46633015  0.28366985  1
  S  S264  1  0.71633015  0.37500000  0.03366985  1
  S  S265  1  0.21633015  0.12500000  0.96633015  1
  S  S266  1  0.78366985  0.62500000  0.53366985  1
  S  S267  1  0.28366985  0.87500000  0.46633015  1
  S  S268  1  0.03366985  0.71633015  0.37500000  1
  S  S269  1  0.96633015  0.21633015  0.12500000  1
  S  S270  1  0.53366985  0.78366985  0.62500000  1
  S  S271  1  0.46633015  0.28366985  0.87500000  1
  S  S272  1  0.44875009  0.25091068  0.67284113  1
  S  S273  1  0.05124991  0.74908932  0.17284113  1
  S  S274  1  0.55124991  0.75091068  0.82715887  1
  S  S275  1  0.94875009  0.24908932  0.32715887  1
  S  S276  1  0.67284113  0.44875009  0.25091068  1
  S  S277  1  0.17284113  0.05124991  0.74908932  1
  S  S278  1  0.82715887  0.55124991  0.75091068  1
  S  S279  1  0.32715887  0.94875009  0.24908932  1
  S  S280  1  0.25091068  0.67284113  0.44875009  1
  S  S281  1  0.74908932  0.17284113  0.05124991  1
  S  S282  1  0.75091068  0.82715887  0.55124991  1
  S  S283  1  0.24908932  0.32715887  0.94875009  1
  S  S284  1  0.00091068  0.69875009  0.57715887  1
  S  S285  1  0.49908932  0.30124991  0.07715887  1
  S  S286  1  0.50091068  0.80124991  0.42284113  1
  S  S287  1  0.99908932  0.19875009  0.92284113  1
  S  S288  1  0.19875009  0.92284113  0.99908932  1
  S  S289  1  0.80124991  0.42284113  0.50091068  1
  S  S290  1  0.30124991  0.07715887  0.49908932  1
  S  S291  1  0.69875009  0.57715887  0.00091068  1
  S  S292  1  0.42284113  0.50091068  0.80124991  1
  S  S293  1  0.92284113  0.99908932  0.19875009  1
  S  S294  1  0.57715887  0.00091068  0.69875009  1
  S  S295  1  0.07715887  0.49908932  0.30124991  1
  S  S296  1  0.55124991  0.74908932  0.32715887  1
  S  S297  1  0.94875009  0.25091068  0.82715887  1
  S  S298  1  0.44875009  0.24908932  0.17284113  1
  S  S299  1  0.05124991  0.75091068  0.67284113  1
  S  S300  1  0.32715887  0.55124991  0.74908932  1
  S  S301  1  0.82715887  0.94875009  0.25091068  1
  S  S302  1  0.17284113  0.44875009  0.24908932  1
  S  S303  1  0.67284113  0.05124991  0.75091068  1
  S  S304  1  0.74908932  0.32715887  0.55124991  1
  S  S305  1  0.25091068  0.82715887  0.94875009  1
  S  S306  1  0.24908932  0.17284113  0.44875009  1
  S  S307  1  0.75091068  0.67284113  0.05124991  1
  S  S308  1  0.99908932  0.30124991  0.42284113  1
  S  S309  1  0.50091068  0.69875009  0.92284113  1
  S  S310  1  0.49908932  0.19875009  0.57715887  1
  S  S311  1  0.00091068  0.80124991  0.07715887  1
  S  S312  1  0.80124991  0.07715887  0.00091068  1
  S  S313  1  0.19875009  0.57715887  0.49908932  1
  S  S314  1  0.69875009  0.92284113  0.50091068  1
  S  S315  1  0.30124991  0.42284113  0.99908932  1
  S  S316  1  0.57715887  0.49908932  0.19875009  1
  S  S317  1  0.07715887  0.00091068  0.80124991  1
  S  S318  1  0.42284113  0.99908932  0.30124991  1
  S  S319  1  0.92284113  0.50091068  0.69875009  1
  S  S320  1  0.94875009  0.75091068  0.17284113  1
  S  S321  1  0.55124991  0.24908932  0.67284113  1
  S  S322  1  0.05124991  0.25091068  0.32715887  1
  S  S323  1  0.44875009  0.74908932  0.82715887  1
  S  S324  1  0.17284113  0.94875009  0.75091068  1
  S  S325  1  0.67284113  0.55124991  0.24908932  1
  S  S326  1  0.32715887  0.05124991  0.25091068  1
  S  S327  1  0.82715887  0.44875009  0.74908932  1
  S  S328  1  0.75091068  0.17284113  0.94875009  1
  S  S329  1  0.24908932  0.67284113  0.55124991  1
  S  S330  1  0.25091068  0.32715887  0.05124991  1
  S  S331  1  0.74908932  0.82715887  0.44875009  1
  S  S332  1  0.50091068  0.19875009  0.07715887  1
  S  S333  1  0.99908932  0.80124991  0.57715887  1
  S  S334  1  0.00091068  0.30124991  0.92284113  1
  S  S335  1  0.49908932  0.69875009  0.42284113  1
  S  S336  1  0.69875009  0.42284113  0.49908932  1
  S  S337  1  0.30124991  0.92284113  0.00091068  1
  S  S338  1  0.80124991  0.57715887  0.99908932  1
  S  S339  1  0.19875009  0.07715887  0.50091068  1
  S  S340  1  0.92284113  0.00091068  0.30124991  1
  S  S341  1  0.42284113  0.49908932  0.69875009  1
  S  S342  1  0.07715887  0.50091068  0.19875009  1
  S  S343  1  0.57715887  0.99908932  0.80124991  1
  S  S344  1  0.05124991  0.24908932  0.82715887  1
  S  S345  1  0.44875009  0.75091068  0.32715887  1
  S  S346  1  0.94875009  0.74908932  0.67284113  1
  S  S347  1  0.55124991  0.25091068  0.17284113  1
  S  S348  1  0.82715887  0.05124991  0.24908932  1
  S  S349  1  0.32715887  0.44875009  0.75091068  1
  S  S350  1  0.67284113  0.94875009  0.74908932  1
  S  S351  1  0.17284113  0.55124991  0.25091068  1
  S  S352  1  0.24908932  0.82715887  0.05124991  1
  S  S353  1  0.75091068  0.32715887  0.44875009  1
  S  S354  1  0.74908932  0.67284113  0.94875009  1
  S  S355  1  0.25091068  0.17284113  0.55124991  1
  S  S356  1  0.49908932  0.80124991  0.92284113  1
  S  S357  1  0.00091068  0.19875009  0.42284113  1
  S  S358  1  0.99908932  0.69875009  0.07715887  1
  S  S359  1  0.50091068  0.30124991  0.57715887  1
  S  S360  1  0.30124991  0.57715887  0.50091068  1
  S  S361  1  0.69875009  0.07715887  0.99908932  1
  S  S362  1  0.19875009  0.42284113  0.00091068  1
  S  S363  1  0.80124991  0.92284113  0.49908932  1
  S  S364  1  0.07715887  0.99908932  0.69875009  1
  S  S365  1  0.57715887  0.50091068  0.30124991  1
  S  S366  1  0.92284113  0.49908932  0.80124991  1
  S  S367  1  0.42284113  0.00091068  0.19875009  1
  S  S368  1  0.68574178  0.00000000  0.25000000  1
  S  S369  1  0.81425822  0.00000000  0.75000000  1
  S  S370  1  0.25000000  0.68574178  0.00000000  1
  S  S371  1  0.75000000  0.81425822  0.00000000  1
  S  S372  1  0.00000000  0.25000000  0.68574178  1
  S  S373  1  0.00000000  0.75000000  0.81425822  1
  S  S374  1  0.75000000  0.93574178  0.00000000  1
  S  S375  1  0.75000000  0.06425822  0.50000000  1
  S  S376  1  0.43574178  0.50000000  0.25000000  1
  S  S377  1  0.56425822  -0.00000000  0.25000000  1
  S  S378  1  0.00000000  0.25000000  0.56425822  1
  S  S379  1  0.50000000  0.25000000  0.43574178  1
  S  S380  1  0.31425822  0.00000000  0.75000000  1
  S  S381  1  0.18574178  0.00000000  0.25000000  1
  S  S382  1  0.75000000  0.31425822  0.00000000  1
  S  S383  1  0.25000000  0.18574178  0.00000000  1
  S  S384  1  0.00000000  0.75000000  0.31425822  1
  S  S385  1  0.00000000  0.25000000  0.18574178  1
  S  S386  1  0.25000000  0.06425822  0.00000000  1
  S  S387  1  0.25000000  0.93574178  0.50000000  1
  S  S388  1  0.56425822  0.50000000  0.75000000  1
  S  S389  1  0.43574178  0.00000000  0.75000000  1
  S  S390  1  0.00000000  0.75000000  0.43574178  1
  S  S391  1  0.50000000  0.75000000  0.56425822  1
  S  S392  1  0.18574178  0.50000000  0.75000000  1
  S  S393  1  0.31425822  0.50000000  0.25000000  1
  S  S394  1  0.75000000  0.18574178  0.50000000  1
  S  S395  1  0.25000000  0.31425822  0.50000000  1
  S  S396  1  0.50000000  0.75000000  0.18574178  1
  S  S397  1  0.50000000  0.25000000  0.31425822  1
  S  S398  1  0.25000000  0.43574178  0.50000000  1
  S  S399  1  0.25000000  0.56425822  0.00000000  1
  S  S400  1  0.93574178  0.00000000  0.75000000  1
  S  S401  1  0.06425822  0.50000000  0.75000000  1
  S  S402  1  0.50000000  0.75000000  0.06425822  1
  S  S403  1  0.00000000  0.75000000  0.93574178  1
  S  S404  1  0.81425822  0.50000000  0.25000000  1
  S  S405  1  0.68574178  0.50000000  0.75000000  1
  S  S406  1  0.25000000  0.81425822  0.50000000  1
  S  S407  1  0.75000000  0.68574178  0.50000000  1
  S  S408  1  0.50000000  0.25000000  0.81425822  1
  S  S409  1  0.50000000  0.75000000  0.68574178  1
  S  S410  1  0.75000000  0.56425822  0.50000000  1
  S  S411  1  0.75000000  0.43574178  0.00000000  1
  S  S412  1  0.06425822  0.00000000  0.25000000  1
  S  S413  1  0.93574178  0.50000000  0.25000000  1
  S  S414  1  0.50000000  0.25000000  0.93574178  1
  S  S415  1  0.00000000  0.25000000  0.06425822  1
  Si  Si416  1  0.00000000  0.00000000  0.00000000  1
  Si  Si417  1  0.50000000  0.00000000  0.50000000  1
  Si  Si418  1  0.00000000  0.50000000  0.50000000  1
  Si  Si419  1  0.50000000  0.50000000  0.00000000  1
  Si  Si420  1  0.75000000  0.25000000  0.25000000  1
  Si  Si421  1  0.75000000  0.75000000  0.75000000  1
  Si  Si422  1  0.25000000  0.25000000  0.75000000  1
  Si  Si423  1  0.25000000  0.75000000  0.25000000  1
  Si  Si424  1  0.50000000  0.50000000  0.50000000  1
  Si  Si425  1  0.00000000  0.50000000  0.00000000  1
  Si  Si426  1  0.50000000  0.00000000  0.00000000  1
  Si  Si427  1  0.00000000  0.00000000  0.50000000  1
  Si  Si428  1  0.25000000  0.75000000  0.75000000  1
  Si  Si429  1  0.25000000  0.25000000  0.25000000  1
  Si  Si430  1  0.75000000  0.75000000  0.25000000  1
  Si  Si431  1  0.75000000  0.25000000  0.75000000  1
  Si  Si432  1  0.12500000  0.12500000  0.12500000  1
  Si  Si433  1  0.37500000  0.87500000  0.62500000  1
  Si  Si434  1  0.87500000  0.62500000  0.37500000  1
  Si  Si435  1  0.62500000  0.37500000  0.87500000  1
  Si  Si436  1  0.87500000  0.87500000  0.87500000  1
  Si  Si437  1  0.62500000  0.12500000  0.37500000  1
  Si  Si438  1  0.12500000  0.37500000  0.62500000  1
  Si  Si439  1  0.37500000  0.62500000  0.12500000  1
  Si  Si440  1  0.62500000  0.62500000  0.62500000  1
  Si  Si441  1  0.87500000  0.37500000  0.12500000  1
  Si  Si442  1  0.37500000  0.12500000  0.87500000  1
  Si  Si443  1  0.12500000  0.87500000  0.37500000  1
  Si  Si444  1  0.37500000  0.37500000  0.37500000  1
  Si  Si445  1  0.12500000  0.62500000  0.87500000  1
  Si  Si446  1  0.62500000  0.87500000  0.12500000  1
  Si  Si447  1  0.87500000  0.12500000  0.62500000  1
  Zr  Zr448  1  0.37500000  0.00000000  0.25000000  1
  Zr  Zr449  1  0.12500000  0.00000000  0.75000000  1
  Zr  Zr450  1  0.25000000  0.37500000  0.00000000  1
  Zr  Zr451  1  0.75000000  0.12500000  0.00000000  1
  Zr  Zr452  1  0.00000000  0.25000000  0.37500000  1
  Zr  Zr453  1  0.00000000  0.75000000  0.12500000  1
  Zr  Zr454  1  0.75000000  0.62500000  -0.00000000  1
  Zr  Zr455  1  0.75000000  0.37500000  0.50000000  1
  Zr  Zr456  1  0.12500000  0.50000000  0.25000000  1
  Zr  Zr457  1  0.87500000  -0.00000000  0.25000000  1
  Zr  Zr458  1  0.00000000  0.25000000  0.87500000  1
  Zr  Zr459  1  0.50000000  0.25000000  0.12500000  1
  Zr  Zr460  1  0.87500000  0.50000000  0.75000000  1
  Zr  Zr461  1  0.62500000  0.50000000  0.25000000  1
  Zr  Zr462  1  0.75000000  0.87500000  0.50000000  1
  Zr  Zr463  1  0.25000000  0.62500000  0.50000000  1
  Zr  Zr464  1  0.50000000  0.75000000  0.87500000  1
  Zr  Zr465  1  0.50000000  0.25000000  0.62500000  1
  Zr  Zr466  1  0.25000000  0.12500000  0.50000000  1
  Zr  Zr467  1  0.25000000  0.87500000  0.00000000  1
  Zr  Zr468  1  0.62500000  0.00000000  0.75000000  1
  Zr  Zr469  1  0.37500000  0.50000000  0.75000000  1
  Zr  Zr470  1  0.50000000  0.75000000  0.37500000  1
  Zr  Zr471  1  0.00000000  0.75000000  0.62500000  1
