# generated using pymatgen
data_MgF2
_symmetry_space_group_name_H-M   'P 1'
_cell_length_a   14.20473245
_cell_length_b   14.20473245
_cell_length_c   7.11417981
_cell_angle_alpha   90.00000000
_cell_angle_beta   90.00000000
_cell_angle_gamma   120.00000000
_symmetry_Int_Tables_number   1
_chemical_formula_structural   MgF2
_chemical_formula_sum   'Mg72 F144'
_cell_volume   1243.14442248
_cell_formula_units_Z   72
loop_
 _symmetry_equiv_pos_site_id
 _symmetry_equiv_pos_as_xyz
  1  'x, y, z'
loop_
 _atom_site_type_symbol
 _atom_site_label
 _atom_site_symmetry_multiplicity
 _atom_site_fract_x
 _atom_site_fract_y
 _atom_site_fract_z
 _atom_site_occupancy
  F  F0  1  0.00000000  0.00000000  0.93250258  1
  F  F1  1  0.00000000  0.00000000  0.06749742  1
  F  F2  1  0.66666667  0.33333333  0.26583591  1
  F  F3  1  0.66666667  0.33333333  0.40083076  1
  F  F4  1  0.33333333  0.66666667  0.59916924  1
  F  F5  1  0.33333333  0.66666667  0.73416409  1
  F  F6  1  0.13466099  0.86533901  0.54882993  1
  F  F7  1  0.13466099  0.26932197  0.54882993  1
  F  F8  1  0.73067803  0.86533901  0.54882993  1
  F  F9  1  0.86533901  0.13466099  0.45117007  1
  F  F10  1  0.26932197  0.13466099  0.45117007  1
  F  F11  1  0.86533901  0.73067803  0.45117007  1
  F  F12  1  0.80132765  0.19867235  0.88216327  1
  F  F13  1  0.80132765  0.60265530  0.88216327  1
  F  F14  1  0.39734470  0.19867235  0.88216327  1
  F  F15  1  0.53200568  0.46799432  0.78450340  1
  F  F16  1  0.93598864  0.46799432  0.78450340  1
  F  F17  1  0.53200568  0.06401136  0.78450340  1
  F  F18  1  0.46799432  0.53200568  0.21549660  1
  F  F19  1  0.46799432  0.93598864  0.21549660  1
  F  F20  1  0.06401136  0.53200568  0.21549660  1
  F  F21  1  0.19867235  0.80132765  0.11783673  1
  F  F22  1  0.60265530  0.80132765  0.11783673  1
  F  F23  1  0.19867235  0.39734470  0.11783673  1
  F  F24  1  0.79525724  0.34134647  0.73033429  1
  F  F25  1  -0.34134647  0.45391077  0.73033429  1
  F  F26  1  -0.45391077  -0.79525724  0.73033429  1
  F  F27  1  0.34134647  0.79525724  -0.73033429  1
  F  F28  1  0.45391077  -0.34134647  -0.73033429  1
  F  F29  1  -0.79525724  -0.45391077  -0.73033429  1
  F  F30  1  -0.79525724  -0.34134647  -0.73033429  1
  F  F31  1  0.34134647  -0.45391077  -0.73033429  1
  F  F32  1  0.45391077  0.79525724  -0.73033429  1
  F  F33  1  -0.34134647  -0.79525724  0.73033429  1
  F  F34  1  -0.45391077  0.34134647  0.73033429  1
  F  F35  1  0.79525724  0.45391077  0.73033429  1
  F  F36  1  1.46192390  0.67467980  1.06366762  1
  F  F37  1  0.32532020  0.78724411  1.06366762  1
  F  F38  1  0.21275589  -0.46192390  1.06366762  1
  F  F39  1  1.00801313  1.12859057  -0.39700096  1
  F  F40  1  1.12057744  -0.00801313  -0.39700096  1
  F  F41  1  -0.12859057  -0.12057744  -0.39700096  1
  F  F42  1  -0.12859057  -0.00801313  -0.39700096  1
  F  F43  1  1.00801313  -0.12057744  -0.39700096  1
  F  F44  1  1.12057744  1.12859057  -0.39700096  1
  F  F45  1  0.32532020  -0.46192390  1.06366762  1
  F  F46  1  0.21275589  0.67467980  1.06366762  1
  F  F47  1  1.46192390  0.78724411  1.06366762  1
  F  F48  1  1.12859057  1.00801313  1.39700096  1
  F  F49  1  -0.00801313  1.12057744  1.39700096  1
  F  F50  1  -0.12057744  -0.12859057  1.39700096  1
  F  F51  1  0.67467980  1.46192390  -0.06366762  1
  F  F52  1  0.78724411  0.32532020  -0.06366762  1
  F  F53  1  -0.46192390  0.21275589  -0.06366762  1
  F  F54  1  -0.46192390  0.32532020  -0.06366762  1
  F  F55  1  0.67467980  0.21275589  -0.06366762  1
  F  F56  1  0.78724411  1.46192390  -0.06366762  1
  F  F57  1  -0.00801313  -0.12859057  1.39700096  1
  F  F58  1  -0.12057744  1.00801313  1.39700096  1
  F  F59  1  1.12859057  1.12057744  1.39700096  1
  F  F60  1  0.79557085  0.05655513  0.83022067  1
  F  F61  1  0.94344487  0.73901572  0.83022067  1
  F  F62  1  0.26098428  0.20442915  0.83022067  1
  F  F63  1  0.05655513  0.79557085  0.16977933  1
  F  F64  1  0.73901572  0.94344487  0.16977933  1
  F  F65  1  0.20442915  0.26098428  0.16977933  1
  F  F66  1  0.20442915  0.94344487  0.16977933  1
  F  F67  1  0.05655513  0.26098428  0.16977933  1
  F  F68  1  0.73901572  0.79557085  0.16977933  1
  F  F69  1  0.94344487  0.20442915  0.83022067  1
  F  F70  1  0.26098428  0.05655513  0.83022067  1
  F  F71  1  0.79557085  0.73901572  0.83022067  1
  F  F72  1  0.46223751  0.38988847  0.16355400  1
  F  F73  1  0.61011153  0.07234905  0.16355400  1
  F  F74  1  0.92765095  0.53776249  0.16355400  1
  F  F75  1  0.72322180  0.12890418  0.50311267  1
  F  F76  1  0.40568238  0.27677820  0.50311267  1
  F  F77  1  0.87109582  0.59431762  0.50311267  1
  F  F78  1  0.87109582  0.27677820  0.50311267  1
  F  F79  1  0.72322180  0.59431762  0.50311267  1
  F  F80  1  0.40568238  0.12890418  0.50311267  1
  F  F81  1  0.61011153  0.53776249  0.16355400  1
  F  F82  1  0.92765095  0.38988847  0.16355400  1
  F  F83  1  0.46223751  0.07234905  0.16355400  1
  F  F84  1  0.12890418  0.72322180  0.49688733  1
  F  F85  1  0.27677820  0.40568238  0.49688733  1
  F  F86  1  0.59431762  0.87109582  0.49688733  1
  F  F87  1  0.38988847  0.46223751  0.83644600  1
  F  F88  1  0.07234905  0.61011153  0.83644600  1
  F  F89  1  0.53776249  0.92765095  0.83644600  1
  F  F90  1  0.53776249  0.61011153  0.83644600  1
  F  F91  1  0.38988847  0.92765095  0.83644600  1
  F  F92  1  0.07234905  0.46223751  0.83644600  1
  F  F93  1  0.27677820  0.87109582  0.49688733  1
  F  F94  1  0.59431762  0.72322180  0.49688733  1
  F  F95  1  0.12890418  0.40568238  0.49688733  1
  F  F96  1  0.70952982  0.73552104  0.95775077  1
  F  F97  1  0.26447896  0.97400878  0.95775077  1
  F  F98  1  0.02599122  0.29047018  0.95775077  1
  F  F99  1  0.73552104  0.70952982  0.04224923  1
  F  F100  1  0.97400878  0.26447896  0.04224923  1
  F  F101  1  0.29047018  0.02599122  0.04224923  1
  F  F102  1  0.29047018  0.26447896  0.04224923  1
  F  F103  1  0.73552104  0.02599122  0.04224923  1
  F  F104  1  0.97400878  0.70952982  0.04224923  1
  F  F105  1  0.26447896  0.29047018  0.95775077  1
  F  F106  1  0.02599122  0.73552104  0.95775077  1
  F  F107  1  0.70952982  0.97400878  0.95775077  1
  F  F108  1  0.37619649  0.06885438  0.29108411  1
  F  F109  1  0.93114562  0.30734211  0.29108411  1
  F  F110  1  0.69265789  0.62380351  0.29108411  1
  F  F111  1  0.40218771  0.04286315  0.37558256  1
  F  F112  1  0.64067544  0.59781229  0.37558256  1
  F  F113  1  0.95713685  0.35932456  0.37558256  1
  F  F114  1  0.95713685  0.59781229  0.37558256  1
  F  F115  1  0.40218771  0.35932456  0.37558256  1
  F  F116  1  0.64067544  0.04286315  0.37558256  1
  F  F117  1  0.93114562  0.62380351  0.29108411  1
  F  F118  1  0.69265789  0.06885438  0.29108411  1
  F  F119  1  0.37619649  0.30734211  0.29108411  1
  F  F120  1  0.04286315  0.40218771  0.62441744  1
  F  F121  1  0.59781229  0.64067544  0.62441744  1
  F  F122  1  0.35932456  0.95713685  0.62441744  1
  F  F123  1  0.06885438  0.37619649  0.70891589  1
  F  F124  1  0.30734211  0.93114562  0.70891589  1
  F  F125  1  0.62380351  0.69265789  0.70891589  1
  F  F126  1  0.62380351  0.93114562  0.70891589  1
  F  F127  1  0.06885438  0.69265789  0.70891589  1
  F  F128  1  0.30734211  0.37619649  0.70891589  1
  F  F129  1  0.59781229  0.95713685  0.62441744  1
  F  F130  1  0.35932456  0.40218771  0.62441744  1
  F  F131  1  0.04286315  0.64067544  0.62441744  1
  F  F132  1  0.50000000  -0.00000000  0.50000000  1
  F  F133  1  0.00000000  0.50000000  0.50000000  1
  F  F134  1  0.50000000  0.50000000  0.50000000  1
  F  F135  1  0.16666667  0.33333333  0.83333333  1
  F  F136  1  0.66666667  0.83333333  0.83333333  1
  F  F137  1  0.16666667  0.83333333  0.83333333  1
  F  F138  1  0.83333333  0.66666667  0.16666667  1
  F  F139  1  0.33333333  0.16666667  0.16666667  1
  F  F140  1  0.83333333  0.16666667  0.16666667  1
  F  F141  1  0.00000000  0.00000000  0.50000000  1
  F  F142  1  0.66666667  0.33333333  0.83333333  1
  F  F143  1  0.33333333  0.66666667  0.16666667  1
  Mg  Mg144  1  0.46209212  0.12271552  0.62042160  1
  Mg  Mg145  1  0.87728448  0.33937660  0.62042160  1
  Mg  Mg146  1  0.66062340  0.53790788  0.62042160  1
  Mg  Mg147  1  0.12271552  0.46209212  0.37957840  1
  Mg  Mg148  1  0.33937660  0.87728448  0.37957840  1
  Mg  Mg149  1  0.53790788  0.66062340  0.37957840  1
  Mg  Mg150  1  0.53790788  0.87728448  0.37957840  1
  Mg  Mg151  1  0.12271552  0.66062340  0.37957840  1
  Mg  Mg152  1  0.33937660  0.46209212  0.37957840  1
  Mg  Mg153  1  0.87728448  0.53790788  0.62042160  1
  Mg  Mg154  1  0.66062340  0.12271552  0.62042160  1
  Mg  Mg155  1  0.46209212  0.33937660  0.62042160  1
  Mg  Mg156  1  0.12875879  0.45604885  0.95375493  1
  Mg  Mg157  1  0.54395115  0.67270994  0.95375493  1
  Mg  Mg158  1  0.32729006  0.87124121  0.95375493  1
  Mg  Mg159  1  0.78938218  0.79542546  0.71291173  1
  Mg  Mg160  1  0.00604327  0.21061782  0.71291173  1
  Mg  Mg161  1  0.20457454  0.99395673  0.71291173  1
  Mg  Mg162  1  0.20457454  0.21061782  0.71291173  1
  Mg  Mg163  1  0.78938218  0.99395673  0.71291173  1
  Mg  Mg164  1  0.00604327  0.79542546  0.71291173  1
  Mg  Mg165  1  0.54395115  0.87124121  0.95375493  1
  Mg  Mg166  1  0.32729006  0.45604885  0.95375493  1
  Mg  Mg167  1  0.12875879  0.67270994  0.95375493  1
  Mg  Mg168  1  0.79542546  0.78938218  0.28708827  1
  Mg  Mg169  1  0.21061782  0.00604327  0.28708827  1
  Mg  Mg170  1  0.99395673  0.20457454  0.28708827  1
  Mg  Mg171  1  0.45604885  0.12875879  0.04624507  1
  Mg  Mg172  1  0.67270994  0.54395115  0.04624507  1
  Mg  Mg173  1  0.87124121  0.32729006  0.04624507  1
  Mg  Mg174  1  0.87124121  0.54395115  0.04624507  1
  Mg  Mg175  1  0.45604885  0.32729006  0.04624507  1
  Mg  Mg176  1  0.67270994  0.12875879  0.04624507  1
  Mg  Mg177  1  0.21061782  0.20457454  0.28708827  1
  Mg  Mg178  1  0.99395673  0.78938218  0.28708827  1
  Mg  Mg179  1  0.79542546  0.00604327  0.28708827  1
  Mg  Mg180  1  0.09995485  0.00000000  -0.00000000  1
  Mg  Mg181  1  0.00000000  0.09995485  0.00000000  1
  Mg  Mg182  1  0.90004515  0.90004515  0.00000000  1
  Mg  Mg183  1  0.90004515  -0.00000000  0.00000000  1
  Mg  Mg184  1  0.00000000  0.90004515  0.00000000  1
  Mg  Mg185  1  0.09995485  0.09995485  0.00000000  1
  Mg  Mg186  1  0.76662152  0.33333333  0.33333333  1
  Mg  Mg187  1  0.66666667  0.43328819  0.33333333  1
  Mg  Mg188  1  0.56671181  0.23337848  0.33333333  1
  Mg  Mg189  1  0.56671181  0.33333333  0.33333333  1
  Mg  Mg190  1  0.66666667  0.23337848  0.33333333  1
  Mg  Mg191  1  0.76662152  0.43328819  0.33333333  1
  Mg  Mg192  1  0.43328819  0.66666667  0.66666667  1
  Mg  Mg193  1  0.33333333  0.76662152  0.66666667  1
  Mg  Mg194  1  0.23337848  0.56671181  0.66666667  1
  Mg  Mg195  1  0.23337848  0.66666667  0.66666667  1
  Mg  Mg196  1  0.33333333  0.56671181  0.66666667  1
  Mg  Mg197  1  0.43328819  0.76662152  0.66666667  1
  Mg  Mg198  1  0.41173270  -0.00000000  0.50000000  1
  Mg  Mg199  1  0.00000000  0.41173270  0.50000000  1
  Mg  Mg200  1  0.58826730  0.58826730  0.50000000  1
  Mg  Mg201  1  0.58826730  0.00000000  0.50000000  1
  Mg  Mg202  1  0.00000000  0.58826730  0.50000000  1
  Mg  Mg203  1  0.41173270  0.41173270  0.50000000  1
  Mg  Mg204  1  0.07839937  0.33333333  0.83333333  1
  Mg  Mg205  1  0.66666667  0.74506603  0.83333333  1
  Mg  Mg206  1  0.25493397  0.92160063  0.83333333  1
  Mg  Mg207  1  0.25493397  0.33333333  0.83333333  1
  Mg  Mg208  1  0.66666667  0.92160063  0.83333333  1
  Mg  Mg209  1  0.07839937  0.74506603  0.83333333  1
  Mg  Mg210  1  0.74506603  0.66666667  0.16666667  1
  Mg  Mg211  1  0.33333333  0.07839937  0.16666667  1
  Mg  Mg212  1  0.92160063  0.25493397  0.16666667  1
  Mg  Mg213  1  0.92160063  0.66666667  0.16666667  1
  Mg  Mg214  1  0.33333333  0.25493397  0.16666667  1
  Mg  Mg215  1  0.74506603  0.07839937  0.16666667  1
