# generated using pymatgen
data_NaBr
_symmetry_space_group_name_H-M   'P 1'
_cell_length_a   9.22288304
_cell_length_b   9.22288304
_cell_length_c   9.22288304
_cell_angle_alpha   90.00000000
_cell_angle_beta   90.00000000
_cell_angle_gamma   90.00000000
_symmetry_Int_Tables_number   1
_chemical_formula_structural   NaBr
_chemical_formula_sum   'Na16 Br16'
_cell_volume   784.51292657
_cell_formula_units_Z   16
loop_
 _symmetry_equiv_pos_site_id
 _symmetry_equiv_pos_as_xyz
  1  'x, y, z'
loop_
 _atom_site_type_symbol
 _atom_site_label
 _atom_site_symmetry_multiplicity
 _atom_site_fract_x
 _atom_site_fract_y
 _atom_site_fract_z
 _atom_site_occupancy
  Br  Br0  1  0.30622397  0.30622397  0.30622397  1
  Br  Br1  1  0.19377603  -0.30622397  0.80622397  1
  Br  Br2  1  -0.30622397  0.80622397  0.19377603  1
  Br  Br3  1  0.80622397  0.19377603  -0.30622397  1
  Br  Br4  1  1.05622397  0.55622397  -0.05622397  1
  Br  Br5  1  0.44377603  0.44377603  0.44377603  1
  Br  Br6  1  0.55622397  -0.05622397  1.05622397  1
  Br  Br7  1  -0.05622397  1.05622397  0.55622397  1
  Br  Br8  1  0.80622397  0.80622397  0.80622397  1
  Br  Br9  1  0.69377603  0.19377603  1.30622397  1
  Br  Br10  1  0.19377603  1.30622397  0.69377603  1
  Br  Br11  1  1.30622397  0.69377603  0.19377603  1
  Br  Br12  1  1.55622397  1.05622397  0.44377603  1
  Br  Br13  1  0.94377603  0.94377603  0.94377603  1
  Br  Br14  1  1.05622397  0.44377603  1.55622397  1
  Br  Br15  1  0.44377603  1.55622397  1.05622397  1
  Na  Na16  1  0.55924685  0.55924685  0.55924685  1
  Na  Na17  1  0.94075315  0.44075315  0.05924685  1
  Na  Na18  1  0.44075315  0.05924685  0.94075315  1
  Na  Na19  1  0.05924685  0.94075315  0.44075315  1
  Na  Na20  1  0.30924685  0.80924685  0.69075315  1
  Na  Na21  1  0.19075315  0.19075315  0.19075315  1
  Na  Na22  1  0.80924685  0.69075315  0.30924685  1
  Na  Na23  1  0.69075315  0.30924685  0.80924685  1
  Na  Na24  1  0.05924685  0.05924685  0.05924685  1
  Na  Na25  1  0.44075315  0.94075315  0.55924685  1
  Na  Na26  1  0.94075315  0.55924685  0.44075315  1
  Na  Na27  1  0.55924685  0.44075315  0.94075315  1
  Na  Na28  1  0.80924685  0.30924685  0.19075315  1
  Na  Na29  1  0.69075315  0.69075315  0.69075315  1
  Na  Na30  1  0.30924685  0.19075315  0.80924685  1
  Na  Na31  1  0.19075315  0.80924685  0.30924685  1
