# generated using pymatgen
data_Li3MgS2Cl
_symmetry_space_group_name_H-M   'P 1'
_cell_length_a   11.17942542
_cell_length_b   7.31906009
_cell_length_c   12.84729099
_cell_angle_alpha   90.00000000
_cell_angle_beta   90.00000000
_cell_angle_gamma   90.00000000
_symmetry_Int_Tables_number   1
_chemical_formula_structural   Li3MgS2Cl
_chemical_formula_sum   'Li24 Mg8 S16 Cl8'
_cell_volume   1051.20243207
_cell_formula_units_Z   8
loop_
 _symmetry_equiv_pos_site_id
 _symmetry_equiv_pos_as_xyz
  1  'x, y, z'
loop_
 _atom_site_type_symbol
 _atom_site_label
 _atom_site_symmetry_multiplicity
 _atom_site_fract_x
 _atom_site_fract_y
 _atom_site_fract_z
 _atom_site_occupancy
  Cl  Cl0  1  0.00035529  0.25000000  0.67711767  1
  Cl  Cl1  1  0.49964471  0.75000000  0.17711767  1
  Cl  Cl2  1  0.99964471  0.75000000  0.32288233  1
  Cl  Cl3  1  0.50035529  0.25000000  0.82288233  1
  Cl  Cl4  1  0.11173083  0.25000000  0.12178107  1
  Cl  Cl5  1  0.38826917  0.75000000  0.62178107  1
  Cl  Cl6  1  0.88826917  0.75000000  0.87821893  1
  Cl  Cl7  1  0.61173083  0.25000000  0.37821893  1
  Li  Li8  1  0.39698110  0.25000000  0.70114106  1
  Li  Li9  1  0.10301890  0.75000000  0.20114106  1
  Li  Li10  1  0.60301890  0.75000000  0.29885894  1
  Li  Li11  1  0.89698110  0.25000000  0.79885894  1
  Li  Li12  1  0.00000000  0.00000000  0.50000000  1
  Li  Li13  1  0.50000000  0.00000000  0.00000000  1
  Li  Li14  1  0.00000000  0.50000000  0.50000000  1
  Li  Li15  1  0.50000000  0.50000000  0.00000000  1
  Li  Li16  1  0.35603357  0.25000000  0.22585938  1
  Li  Li17  1  0.14396643  0.75000000  0.72585938  1
  Li  Li18  1  0.64396643  0.75000000  0.77414062  1
  Li  Li19  1  0.85603357  0.25000000  0.27414062  1
  Li  Li20  1  0.14349713  0.41474781  0.53634196  1
  Li  Li21  1  0.35650287  0.58525219  0.03634196  1
  Li  Li22  1  0.85650287  0.91474781  0.46365804  1
  Li  Li23  1  0.64349713  0.08525219  0.96365804  1
  Li  Li24  1  0.85650287  0.58525219  0.46365804  1
  Li  Li25  1  0.64349713  0.41474781  0.96365804  1
  Li  Li26  1  0.14349713  0.08525219  0.53634196  1
  Li  Li27  1  0.35650287  0.91474781  0.03634196  1
  Li  Li28  1  0.33517392  0.25000000  0.59916452  1
  Li  Li29  1  0.16482608  0.75000000  0.09916452  1
  Li  Li30  1  0.66482608  0.75000000  0.40083548  1
  Li  Li31  1  0.83517392  0.25000000  0.90083548  1
  Mg  Mg32  1  0.28125484  0.36104873  0.95323225  1
  Mg  Mg33  1  0.21874516  0.63895127  0.45323225  1
  Mg  Mg34  1  0.71874516  0.86104873  0.04676775  1
  Mg  Mg35  1  0.78125484  0.13895127  0.54676775  1
  Mg  Mg36  1  0.71874516  0.63895127  0.04676775  1
  Mg  Mg37  1  0.78125484  0.36104873  0.54676775  1
  Mg  Mg38  1  0.28125484  0.13895127  0.95323225  1
  Mg  Mg39  1  0.21874516  0.86104873  0.45323225  1
  S  S40  1  0.63399821  0.25000000  0.50896260  1
  S  S41  1  0.86600179  0.75000000  0.00896260  1
  S  S42  1  0.36600179  0.75000000  0.49103740  1
  S  S43  1  0.13399821  0.25000000  0.99103740  1
  S  S44  1  0.61110253  0.45867763  0.51032946  1
  S  S45  1  -0.11110253  -0.45867763  1.01032946  1
  S  S46  1  -0.61110253  0.95867763  -0.51032946  1
  S  S47  1  1.11110253  0.04132237  -0.01032946  1
  S  S48  1  -0.61110253  -0.45867763  -0.51032946  1
  S  S49  1  1.11110253  0.45867763  -0.01032946  1
  S  S50  1  0.61110253  0.04132237  0.51032946  1
  S  S51  1  -0.11110253  0.95867763  1.01032946  1
  S  S52  1  0.00000000  0.00000000  0.00000000  1
  S  S53  1  0.50000000  0.00000000  0.50000000  1
  S  S54  1  0.00000000  0.50000000  0.00000000  1
  S  S55  1  0.50000000  0.50000000  0.50000000  1
