# generated using pymatgen
data_LiCl
_symmetry_space_group_name_H-M   'P 1'
_cell_length_a   10.04556091
_cell_length_b   10.04556091
_cell_length_c   10.31160532
_cell_angle_alpha   90.00000000
_cell_angle_beta   90.00000000
_cell_angle_gamma   90.00000000
_symmetry_Int_Tables_number   1
_chemical_formula_structural   LiCl
_chemical_formula_sum   'Li32 Cl32'
_cell_volume   1040.57806040
_cell_formula_units_Z   32
loop_
 _symmetry_equiv_pos_site_id
 _symmetry_equiv_pos_as_xyz
  1  'x, y, z'
loop_
 _atom_site_type_symbol
 _atom_site_label
 _atom_site_symmetry_multiplicity
 _atom_site_fract_x
 _atom_site_fract_y
 _atom_site_fract_z
 _atom_site_occupancy
  Cl  Cl0  1  0.00000000  0.25000000  0.48826953  1
  Cl  Cl1  1  0.00000000  0.75000000  0.73826953  1
  Cl  Cl2  1  0.50000000  0.25000000  0.01173047  1
  Cl  Cl3  1  0.50000000  0.75000000  0.76173047  1
  Cl  Cl4  1  0.50000000  0.75000000  0.98826953  1
  Cl  Cl5  1  0.50000000  0.25000000  0.23826953  1
  Cl  Cl6  1  0.00000000  0.75000000  0.51173047  1
  Cl  Cl7  1  0.00000000  0.25000000  0.26173047  1
  Cl  Cl8  1  0.00000000  0.00000000  0.50000000  1
  Cl  Cl9  1  0.50000000  0.00000000  0.00000000  1
  Cl  Cl10  1  0.25000000  0.75000000  0.75000000  1
  Cl  Cl11  1  0.25000000  0.25000000  0.25000000  1
  Cl  Cl12  1  0.50000000  0.50000000  0.00000000  1
  Cl  Cl13  1  0.00000000  0.50000000  0.50000000  1
  Cl  Cl14  1  0.75000000  0.25000000  0.25000000  1
  Cl  Cl15  1  0.75000000  0.75000000  0.75000000  1
  Cl  Cl16  1  0.13226487  0.38226487  0.87500000  1
  Cl  Cl17  1  0.36773513  0.61773513  0.37500000  1
  Cl  Cl18  1  0.86773513  0.88226487  0.12500000  1
  Cl  Cl19  1  0.63226487  0.11773513  0.62500000  1
  Cl  Cl20  1  0.86773513  0.61773513  0.12500000  1
  Cl  Cl21  1  0.63226487  0.38226487  0.62500000  1
  Cl  Cl22  1  0.13226487  0.11773513  0.87500000  1
  Cl  Cl23  1  0.36773513  0.88226487  0.37500000  1
  Cl  Cl24  1  0.63226487  0.88226487  0.37500000  1
  Cl  Cl25  1  0.86773513  0.11773513  0.87500000  1
  Cl  Cl26  1  0.36773513  0.38226487  0.62500000  1
  Cl  Cl27  1  0.13226487  0.61773513  0.12500000  1
  Cl  Cl28  1  0.36773513  0.11773513  0.62500000  1
  Cl  Cl29  1  0.13226487  0.88226487  0.12500000  1
  Cl  Cl30  1  0.63226487  0.61773513  0.37500000  1
  Cl  Cl31  1  0.86773513  0.38226487  0.87500000  1
  Li  Li32  1  0.61182928  0.57347467  0.05923565  1
  Li  Li33  1  -0.11182928  -0.57347467  0.55923565  1
  Li  Li34  1  -0.32347467  1.36182928  0.30923565  1
  Li  Li35  1  0.82347467  -0.36182928  0.80923565  1
  Li  Li36  1  -0.11182928  0.57347467  0.44076435  1
  Li  Li37  1  0.61182928  -0.57347467  -0.05923565  1
  Li  Li38  1  0.82347467  1.36182928  0.19076435  1
  Li  Li39  1  -0.32347467  -0.36182928  0.69076435  1
  Li  Li40  1  -0.61182928  -0.57347467  -0.05923565  1
  Li  Li41  1  1.11182928  0.57347467  0.44076435  1
  Li  Li42  1  1.32347467  -0.36182928  0.69076435  1
  Li  Li43  1  0.17652533  1.36182928  0.19076435  1
  Li  Li44  1  1.11182928  -0.57347467  0.55923565  1
  Li  Li45  1  -0.61182928  0.57347467  0.05923565  1
  Li  Li46  1  0.17652533  -0.36182928  0.80923565  1
  Li  Li47  1  1.32347467  1.36182928  0.30923565  1
  Li  Li48  1  1.11182928  1.07347467  0.55923565  1
  Li  Li49  1  0.38817072  -0.07347467  1.05923565  1
  Li  Li50  1  0.17652533  1.86182928  0.80923565  1
  Li  Li51  1  1.32347467  0.13817072  1.30923565  1
  Li  Li52  1  0.38817072  1.07347467  0.94076435  1
  Li  Li53  1  1.11182928  -0.07347467  0.44076435  1
  Li  Li54  1  1.32347467  1.86182928  0.69076435  1
  Li  Li55  1  0.17652533  0.13817072  1.19076435  1
  Li  Li56  1  -0.11182928  -0.07347467  0.44076435  1
  Li  Li57  1  1.61182928  1.07347467  0.94076435  1
  Li  Li58  1  1.82347467  0.13817072  1.19076435  1
  Li  Li59  1  0.67652533  1.86182928  0.69076435  1
  Li  Li60  1  1.61182928  -0.07347467  1.05923565  1
  Li  Li61  1  -0.11182928  1.07347467  0.55923565  1
  Li  Li62  1  0.67652533  0.13817072  1.30923565  1
  Li  Li63  1  1.82347467  1.86182928  0.80923565  1
