# generated using pymatgen
data_Li2Zr4(Se2O)3
_symmetry_space_group_name_H-M   'P 1'
_cell_length_a   6.08133764
_cell_length_b   6.08133764
_cell_length_c   9.77245482
_cell_angle_alpha   90.00000000
_cell_angle_beta   90.00000000
_cell_angle_gamma   120.00000000
_symmetry_Int_Tables_number   1
_chemical_formula_structural   Li2Zr4(Se2O)3
_chemical_formula_sum   'Li2 Zr4 Se6 O3'
_cell_volume   312.99149499
_cell_formula_units_Z   1
loop_
 _symmetry_equiv_pos_site_id
 _symmetry_equiv_pos_as_xyz
  1  'x, y, z'
loop_
 _atom_site_type_symbol
 _atom_site_label
 _atom_site_symmetry_multiplicity
 _atom_site_fract_x
 _atom_site_fract_y
 _atom_site_fract_z
 _atom_site_occupancy
  Li  Li0  1  0.66666667  0.33333333  0.00000000  1
  Li  Li1  1  0.00000000  0.00000000  0.00000000  1
  O  O2  1  0.00000000  0.00000000  0.50000000  1
  O  O3  1  0.33333333  0.66666667  0.26205365  1
  O  O4  1  0.33333333  0.66666667  0.73794635  1
  Se  Se5  1  0.01414078  0.26034771  0.65472334  1
  Se  Se6  1  -0.26034771  -0.24620693  0.65472334  1
  Se  Se7  1  0.24620693  -0.01414078  0.65472334  1
  Se  Se8  1  -0.26034771  -0.01414078  -0.65472334  1
  Se  Se9  1  0.24620693  0.26034771  -0.65472334  1
  Se  Se10  1  0.01414078  -0.24620693  -0.65472334  1
  Zr  Zr11  1  0.44206323  0.55793677  0.00000000  1
  Zr  Zr12  1  0.44206323  0.88412647  0.00000000  1
  Zr  Zr13  1  0.11587353  0.55793677  0.00000000  1
  Zr  Zr14  1  0.66666667  0.33333333  0.50000000  1
