# generated using pymatgen
data_Li2Se
_symmetry_space_group_name_H-M   'P 1'
_cell_length_a   14.03881209
_cell_length_b   14.03881209
_cell_length_c   14.03881209
_cell_angle_alpha   90.00000000
_cell_angle_beta   90.00000000
_cell_angle_gamma   90.00000000
_symmetry_Int_Tables_number   1
_chemical_formula_structural   Li2Se
_chemical_formula_sum   'Li96 Se48'
_cell_volume   2766.88483382
_cell_formula_units_Z   48
loop_
 _symmetry_equiv_pos_site_id
 _symmetry_equiv_pos_as_xyz
  1  'x, y, z'
loop_
 _atom_site_type_symbol
 _atom_site_label
 _atom_site_symmetry_multiplicity
 _atom_site_fract_x
 _atom_site_fract_y
 _atom_site_fract_z
 _atom_site_occupancy
  Li  Li0  1  0.16993920  0.78152563  0.90646548  1
  Li  Li1  1  0.33006080  -0.78152563  1.40646548  1
  Li  Li2  1  -0.16993920  1.28152563  -0.40646548  1
  Li  Li3  1  0.66993920  -0.28152563  -0.90646548  1
  Li  Li4  1  0.90646548  0.16993920  0.78152563  1
  Li  Li5  1  1.40646548  0.33006080  -0.78152563  1
  Li  Li6  1  -0.40646548  -0.16993920  1.28152563  1
  Li  Li7  1  -0.90646548  0.66993920  -0.28152563  1
  Li  Li8  1  0.78152563  0.90646548  0.16993920  1
  Li  Li9  1  -0.78152563  1.40646548  0.33006080  1
  Li  Li10  1  1.28152563  -0.40646548  -0.16993920  1
  Li  Li11  1  -0.28152563  -0.90646548  0.66993920  1
  Li  Li12  1  1.53152563  0.41993920  -0.65646548  1
  Li  Li13  1  -0.03152563  0.58006080  -0.15646548  1
  Li  Li14  1  1.03152563  0.08006080  1.65646548  1
  Li  Li15  1  -0.53152563  0.91993920  1.15646548  1
  Li  Li16  1  0.91993920  1.15646548  -0.53152563  1
  Li  Li17  1  0.08006080  1.65646548  1.03152563  1
  Li  Li18  1  0.58006080  -0.15646548  -0.03152563  1
  Li  Li19  1  0.41993920  -0.65646548  1.53152563  1
  Li  Li20  1  1.65646548  1.03152563  0.08006080  1
  Li  Li21  1  1.15646548  -0.53152563  0.91993920  1
  Li  Li22  1  -0.65646548  1.53152563  0.41993920  1
  Li  Li23  1  -0.15646548  -0.03152563  0.58006080  1
  Li  Li24  1  0.66993920  1.28152563  1.40646548  1
  Li  Li25  1  0.83006080  -0.28152563  1.90646548  1
  Li  Li26  1  0.33006080  1.78152563  0.09353452  1
  Li  Li27  1  1.16993920  0.21847437  -0.40646548  1
  Li  Li28  1  1.40646548  0.66993920  1.28152563  1
  Li  Li29  1  1.90646548  0.83006080  -0.28152563  1
  Li  Li30  1  0.09353452  0.33006080  1.78152563  1
  Li  Li31  1  -0.40646548  1.16993920  0.21847437  1
  Li  Li32  1  1.28152563  1.40646548  0.66993920  1
  Li  Li33  1  -0.28152563  1.90646548  0.83006080  1
  Li  Li34  1  1.78152563  0.09353452  0.33006080  1
  Li  Li35  1  0.21847437  -0.40646548  1.16993920  1
  Li  Li36  1  2.03152563  0.91993920  -0.15646548  1
  Li  Li37  1  0.46847437  1.08006080  0.34353452  1
  Li  Li38  1  1.53152563  0.58006080  2.15646548  1
  Li  Li39  1  -0.03152563  1.41993920  1.65646548  1
  Li  Li40  1  1.41993920  1.65646548  -0.03152563  1
  Li  Li41  1  0.58006080  2.15646548  1.53152563  1
  Li  Li42  1  1.08006080  0.34353452  0.46847437  1
  Li  Li43  1  0.91993920  -0.15646548  2.03152563  1
  Li  Li44  1  2.15646548  1.53152563  0.58006080  1
  Li  Li45  1  1.65646548  -0.03152563  1.41993920  1
  Li  Li46  1  -0.15646548  2.03152563  0.91993920  1
  Li  Li47  1  0.34353452  0.46847437  1.08006080  1
  Li  Li48  1  0.62500000  0.00000000  0.25000000  1
  Li  Li49  1  0.87500000  0.00000000  0.75000000  1
  Li  Li50  1  0.25000000  0.62500000  0.00000000  1
  Li  Li51  1  0.75000000  0.87500000  0.00000000  1
  Li  Li52  1  0.00000000  0.25000000  0.62500000  1
  Li  Li53  1  0.00000000  0.75000000  0.87500000  1
  Li  Li54  1  0.12500000  0.50000000  0.75000000  1
  Li  Li55  1  0.37500000  0.50000000  0.25000000  1
  Li  Li56  1  0.75000000  0.12500000  0.50000000  1
  Li  Li57  1  0.25000000  0.37500000  0.50000000  1
  Li  Li58  1  0.50000000  0.75000000  0.12500000  1
  Li  Li59  1  0.50000000  0.25000000  0.37500000  1
  Li  Li60  1  0.12500000  0.00000000  0.25000000  1
  Li  Li61  1  0.37500000  0.00000000  0.75000000  1
  Li  Li62  1  0.25000000  0.12500000  0.00000000  1
  Li  Li63  1  0.75000000  0.37500000  -0.00000000  1
  Li  Li64  1  0.00000000  0.25000000  0.12500000  1
  Li  Li65  1  0.00000000  0.75000000  0.37500000  1
  Li  Li66  1  0.62500000  0.50000000  0.75000000  1
  Li  Li67  1  0.87500000  0.50000000  0.25000000  1
  Li  Li68  1  0.75000000  0.62500000  0.50000000  1
  Li  Li69  1  0.25000000  0.87500000  0.50000000  1
  Li  Li70  1  0.50000000  0.75000000  0.62500000  1
  Li  Li71  1  0.50000000  0.25000000  0.87500000  1
  Li  Li72  1  0.12500000  0.29070810  0.54070810  1
  Li  Li73  1  0.37500000  0.70929190  0.04070810  1
  Li  Li74  1  0.87500000  0.79070810  0.95929190  1
  Li  Li75  1  0.62500000  0.20929190  0.45929190  1
  Li  Li76  1  0.54070810  0.12500000  0.29070810  1
  Li  Li77  1  0.04070810  0.37500000  0.70929190  1
  Li  Li78  1  0.95929190  0.87500000  0.79070810  1
  Li  Li79  1  0.45929190  0.62500000  0.20929190  1
  Li  Li80  1  0.29070810  0.54070810  0.12500000  1
  Li  Li81  1  0.70929190  0.04070810  0.37500000  1
  Li  Li82  1  0.79070810  0.95929190  0.87500000  1
  Li  Li83  1  0.20929190  0.45929190  0.62500000  1
  Li  Li84  1  0.62500000  0.79070810  0.04070810  1
  Li  Li85  1  0.87500000  0.20929190  0.54070810  1
  Li  Li86  1  0.37500000  0.29070810  0.45929190  1
  Li  Li87  1  0.12500000  0.70929190  0.95929190  1
  Li  Li88  1  0.04070810  0.62500000  0.79070810  1
  Li  Li89  1  0.54070810  0.87500000  0.20929190  1
  Li  Li90  1  0.45929190  0.37500000  0.29070810  1
  Li  Li91  1  0.95929190  0.12500000  0.70929190  1
  Li  Li92  1  0.79070810  0.04070810  0.62500000  1
  Li  Li93  1  0.20929190  0.54070810  0.87500000  1
  Li  Li94  1  0.29070810  0.45929190  0.37500000  1
  Li  Li95  1  0.70929190  0.95929190  0.12500000  1
  Se  Se96  1  0.32273038  0.07011029  0.19724980  1
  Se  Se97  1  0.17726962  0.92988971  0.69724980  1
  Se  Se98  1  0.67726962  0.57011029  0.30275020  1
  Se  Se99  1  0.82273038  0.42988971  0.80275020  1
  Se  Se100  1  0.19724980  0.32273038  0.07011029  1
  Se  Se101  1  0.69724980  0.17726962  0.92988971  1
  Se  Se102  1  0.30275020  0.67726962  0.57011029  1
  Se  Se103  1  0.80275020  0.82273038  0.42988971  1
  Se  Se104  1  0.07011029  0.19724980  0.32273038  1
  Se  Se105  1  0.92988971  0.69724980  0.17726962  1
  Se  Se106  1  0.57011029  0.30275020  0.67726962  1
  Se  Se107  1  0.42988971  0.80275020  0.82273038  1
  Se  Se108  1  0.82011029  0.57273038  0.05275020  1
  Se  Se109  1  0.67988971  0.42726962  0.55275020  1
  Se  Se110  1  0.32011029  0.92726962  0.94724980  1
  Se  Se111  1  0.17988971  0.07273038  0.44724980  1
  Se  Se112  1  0.07273038  0.44724980  0.17988971  1
  Se  Se113  1  0.92726962  0.94724980  0.32011029  1
  Se  Se114  1  0.42726962  0.55275020  0.67988971  1
  Se  Se115  1  0.57273038  0.05275020  0.82011029  1
  Se  Se116  1  0.94724980  0.32011029  0.92726962  1
  Se  Se117  1  0.44724980  0.17988971  0.07273038  1
  Se  Se118  1  0.05275020  0.82011029  0.57273038  1
  Se  Se119  1  0.55275020  0.67988971  0.42726962  1
  Se  Se120  1  0.82273038  0.57011029  0.69724980  1
  Se  Se121  1  0.67726962  0.42988971  0.19724980  1
  Se  Se122  1  0.17726962  0.07011029  0.80275020  1
  Se  Se123  1  0.32273038  0.92988971  0.30275020  1
  Se  Se124  1  0.69724980  0.82273038  0.57011029  1
  Se  Se125  1  0.19724980  0.67726962  0.42988971  1
  Se  Se126  1  0.80275020  0.17726962  0.07011029  1
  Se  Se127  1  0.30275020  0.32273038  0.92988971  1
  Se  Se128  1  0.57011029  0.69724980  0.82273038  1
  Se  Se129  1  0.42988971  0.19724980  0.67726962  1
  Se  Se130  1  0.07011029  0.80275020  0.17726962  1
  Se  Se131  1  0.92988971  0.30275020  0.32273038  1
  Se  Se132  1  0.32011029  0.07273038  0.55275020  1
  Se  Se133  1  0.17988971  0.92726962  0.05275020  1
  Se  Se134  1  0.82011029  0.42726962  0.44724980  1
  Se  Se135  1  0.67988971  0.57273038  0.94724980  1
  Se  Se136  1  0.57273038  0.94724980  0.67988971  1
  Se  Se137  1  0.42726962  0.44724980  0.82011029  1
  Se  Se138  1  0.92726962  0.05275020  0.17988971  1
  Se  Se139  1  0.07273038  0.55275020  0.32011029  1
  Se  Se140  1  0.44724980  0.82011029  0.42726962  1
  Se  Se141  1  0.94724980  0.67988971  0.57273038  1
  Se  Se142  1  0.55275020  0.32011029  0.07273038  1
  Se  Se143  1  0.05275020  0.17988971  0.92726962  1
