# generated using pymatgen
data_Li2AlSCl2O
_symmetry_space_group_name_H-M   'P 1'
_cell_length_a   8.49790132
_cell_length_b   10.12856114
_cell_length_c   8.64396086
_cell_angle_alpha   90.00000000
_cell_angle_beta   90.00000000
_cell_angle_gamma   90.00000000
_symmetry_Int_Tables_number   1
_chemical_formula_structural   Li2AlSCl2O
_chemical_formula_sum   'Li2 Al1 S1 Cl2 O1'
_cell_volume   743.99879045
_cell_formula_units_Z   1
loop_
 _symmetry_equiv_pos_site_id
 _symmetry_equiv_pos_as_xyz
  1  'x, y, z'
loop_
 _atom_site_type_symbol
 _atom_site_label
 _atom_site_symmetry_multiplicity
 _atom_site_fract_x
 _atom_site_fract_y
 _atom_site_fract_z
 _atom_site_occupancy
  Li  Li0  1  0.12500000  0.12500000  0.12500000  1
  Li  Li1  1  0.50000000  0.50000000  0.50000000  1
  Al  Al2  1  0.25000000  0.25000000  0.25000000  1
  S  S3  1  0.75000000  0.75000000  0.75000000  1
  O  O4  1  0.54132911  0.17441204  0.98946056  1
  Cl  Cl5  1  0.72191199  0.51622453  0.12580904  1
  Cl  Cl6  1  0.67652732  0.00264655  0.31440632  1
