# generated using pymatgen
data_Sr2LiAl2SI9
_symmetry_space_group_name_H-M   'P 1'
_cell_length_a   7.15038121
_cell_length_b   7.15038121
_cell_length_c   16.30500671
_cell_angle_alpha   90.00000000
_cell_angle_beta   90.00000000
_cell_angle_gamma   120.00000000
_symmetry_Int_Tables_number   1
_chemical_formula_structural   Sr2LiAl2SI9
_chemical_formula_sum   'Sr4 Li2 Al4 S2 I18'
_cell_volume   721.95479491
_cell_formula_units_Z   2
loop_
 _symmetry_equiv_pos_site_id
 _symmetry_equiv_pos_as_xyz
  1  'x, y, z'
loop_
 _atom_site_type_symbol
 _atom_site_label
 _atom_site_symmetry_multiplicity
 _atom_site_fract_x
 _atom_site_fract_y
 _atom_site_fract_z
 _atom_site_occupancy
  Al  Al0  1  0.00000000  0.00000000  0.10685843  1
  Al  Al1  1  0.00000000  0.00000000  0.60685843  1
  Al  Al2  1  0.00000000  0.00000000  0.89314157  1
  Al  Al3  1  0.00000000  0.00000000  0.39314157  1
  I  I4  1  0.66183139  0.00000000  -0.00000000  1
  I  I5  1  0.00000000  0.66183139  0.00000000  1
  I  I6  1  -0.66183139  -0.66183139  0.00000000  1
  I  I7  1  -0.66183139  0.00000000  0.50000000  1
  I  I8  1  0.00000000  -0.66183139  0.50000000  1
  I  I9  1  0.66183139  0.66183139  0.50000000  1
  I  I10  1  -0.66183139  0.00000000  0.00000000  1
  I  I11  1  0.00000000  -0.66183139  0.00000000  1
  I  I12  1  0.66183139  0.66183139  0.00000000  1
  I  I13  1  0.66183139  0.00000000  0.50000000  1
  I  I14  1  0.00000000  0.66183139  0.50000000  1
  I  I15  1  -0.66183139  -0.66183139  0.50000000  1
  I  I16  1  0.49815193  0.99630386  0.25000000  1
  I  I17  1  0.00369614  0.50184807  0.25000000  1
  I  I18  1  0.49815193  0.50184807  0.25000000  1
  I  I19  1  0.50184807  0.00369614  0.75000000  1
  I  I20  1  0.99630386  0.49815193  0.75000000  1
  I  I21  1  0.50184807  0.49815193  0.75000000  1
  Li  Li22  1  0.00000000  0.00000000  0.00000000  1
  Li  Li23  1  0.00000000  0.00000000  0.50000000  1
  S  S24  1  0.33333333  0.66666667  0.25000000  1
  S  S25  1  0.66666667  0.33333333  0.75000000  1
  Sr  Sr26  1  0.33333333  0.66666667  0.75000000  1
  Sr  Sr27  1  0.66666667  0.33333333  0.25000000  1
  Sr  Sr28  1  0.00000000  0.00000000  0.25000000  1
  Sr  Sr29  1  0.00000000  0.00000000  0.75000000  1
