# generated using pymatgen
data_Li2CaMgF6
_symmetry_space_group_name_H-M   'P 1'
_cell_length_a   17.25697106
_cell_length_b   17.25697106
_cell_length_c   5.70944636
_cell_angle_alpha   90.00000000
_cell_angle_beta   90.00000000
_cell_angle_gamma   90.00000000
_symmetry_Int_Tables_number   1
_chemical_formula_structural   Li2CaMgF6
_chemical_formula_sum   'Li32 Ca16 Mg16 F96'
_cell_volume   1700.29054176
_cell_formula_units_Z   16
loop_
 _symmetry_equiv_pos_site_id
 _symmetry_equiv_pos_as_xyz
  1  'x, y, z'
loop_
 _atom_site_type_symbol
 _atom_site_label
 _atom_site_symmetry_multiplicity
 _atom_site_fract_x
 _atom_site_fract_y
 _atom_site_fract_z
 _atom_site_occupancy
  Ca  Ca0  1  0.31209838  0.56209838  0.12500000  1
  Ca  Ca1  1  0.18790162  0.43790162  0.62500000  1
  Ca  Ca2  1  0.68790162  0.06209838  0.37500000  1
  Ca  Ca3  1  0.81209838  0.93790162  0.87500000  1
  Ca  Ca4  1  0.68790162  0.43790162  0.87500000  1
  Ca  Ca5  1  0.81209838  0.56209838  0.37500000  1
  Ca  Ca6  1  0.31209838  0.93790162  0.62500000  1
  Ca  Ca7  1  0.18790162  0.06209838  0.12500000  1
  Ca  Ca8  1  0.81209838  0.06209838  0.62500000  1
  Ca  Ca9  1  0.68790162  0.93790162  0.12500000  1
  Ca  Ca10  1  0.18790162  0.56209838  0.87500000  1
  Ca  Ca11  1  0.31209838  0.43790162  0.37500000  1
  Ca  Ca12  1  0.18790162  0.93790162  0.37500000  1
  Ca  Ca13  1  0.31209838  0.06209838  0.87500000  1
  Ca  Ca14  1  0.81209838  0.43790162  0.12500000  1
  Ca  Ca15  1  0.68790162  0.56209838  0.62500000  1
  F  F16  1  0.41696109  0.14076836  0.64219753  1
  F  F17  1  0.08303891  -0.14076836  1.14219753  1
  F  F18  1  0.10923164  1.16696109  0.89219753  1
  F  F19  1  0.39076836  -0.16696109  1.39219753  1
  F  F20  1  0.08303891  0.14076836  -0.64219753  1
  F  F21  1  0.41696109  -0.14076836  -0.14219753  1
  F  F22  1  0.39076836  1.16696109  0.10780247  1
  F  F23  1  0.10923164  -0.16696109  -0.39219753  1
  F  F24  1  -0.41696109  -0.14076836  -0.64219753  1
  F  F25  1  0.91696109  0.14076836  -0.14219753  1
  F  F26  1  0.89076836  -0.16696109  0.10780247  1
  F  F27  1  0.60923164  1.16696109  -0.39219753  1
  F  F28  1  0.91696109  -0.14076836  0.64219753  1
  F  F29  1  -0.41696109  0.14076836  1.14219753  1
  F  F30  1  0.60923164  -0.16696109  0.89219753  1
  F  F31  1  0.89076836  1.16696109  1.39219753  1
  F  F32  1  0.91696109  0.64076836  1.14219753  1
  F  F33  1  0.58303891  0.35923164  1.64219753  1
  F  F34  1  0.60923164  1.66696109  1.39219753  1
  F  F35  1  0.89076836  0.33303891  1.89219753  1
  F  F36  1  0.58303891  0.64076836  -0.14219753  1
  F  F37  1  0.91696109  0.35923164  0.35780247  1
  F  F38  1  0.89076836  1.66696109  0.60780247  1
  F  F39  1  0.60923164  0.33303891  0.10780247  1
  F  F40  1  0.08303891  0.35923164  -0.14219753  1
  F  F41  1  1.41696109  0.64076836  0.35780247  1
  F  F42  1  1.39076836  0.33303891  0.60780247  1
  F  F43  1  1.10923164  1.66696109  0.10780247  1
  F  F44  1  1.41696109  0.35923164  1.14219753  1
  F  F45  1  0.08303891  0.64076836  1.64219753  1
  F  F46  1  1.10923164  0.33303891  1.39219753  1
  F  F47  1  1.39076836  1.66696109  1.89219753  1
  F  F48  1  0.00000000  0.25000000  0.37500000  1
  F  F49  1  0.00000000  0.75000000  0.62500000  1
  F  F50  1  0.50000000  0.25000000  0.62500000  1
  F  F51  1  0.50000000  0.75000000  0.37500000  1
  F  F52  1  0.50000000  0.75000000  0.87500000  1
  F  F53  1  0.50000000  0.25000000  0.12500000  1
  F  F54  1  0.00000000  0.75000000  0.12500000  1
  F  F55  1  0.00000000  0.25000000  0.87500000  1
  F  F56  1  0.00000000  0.00000000  0.00000000  1
  F  F57  1  0.50000000  0.00000000  0.50000000  1
  F  F58  1  0.25000000  0.75000000  0.25000000  1
  F  F59  1  0.25000000  0.25000000  0.75000000  1
  F  F60  1  0.50000000  0.00000000  0.00000000  1
  F  F61  1  0.00000000  0.00000000  0.50000000  1
  F  F62  1  0.25000000  0.75000000  0.75000000  1
  F  F63  1  0.25000000  0.25000000  0.25000000  1
  F  F64  1  0.50000000  0.50000000  0.50000000  1
  F  F65  1  0.00000000  0.50000000  0.00000000  1
  F  F66  1  0.75000000  0.25000000  0.75000000  1
  F  F67  1  0.75000000  0.75000000  0.25000000  1
  F  F68  1  0.00000000  0.50000000  0.50000000  1
  F  F69  1  0.50000000  0.50000000  0.00000000  1
  F  F70  1  0.75000000  0.25000000  0.25000000  1
  F  F71  1  0.75000000  0.75000000  0.75000000  1
  F  F72  1  0.05291763  0.19436778  0.70534256  1
  F  F73  1  0.44708237  0.80563222  0.20534256  1
  F  F74  1  0.05563222  0.80291763  0.95534256  1
  F  F75  1  0.44436778  0.19708237  0.45534256  1
  F  F76  1  0.44708237  0.19436778  0.29465744  1
  F  F77  1  0.05291763  0.80563222  0.79465744  1
  F  F78  1  0.44436778  0.80291763  0.04465744  1
  F  F79  1  0.05563222  0.19708237  0.54465744  1
  F  F80  1  0.94708237  0.80563222  0.29465744  1
  F  F81  1  0.55291763  0.19436778  0.79465744  1
  F  F82  1  0.94436778  0.19708237  0.04465744  1
  F  F83  1  0.55563222  0.80291763  0.54465744  1
  F  F84  1  0.55291763  0.80563222  0.70534256  1
  F  F85  1  0.94708237  0.19436778  0.20534256  1
  F  F86  1  0.55563222  0.19708237  0.95534256  1
  F  F87  1  0.94436778  0.80291763  0.45534256  1
  F  F88  1  0.55291763  0.69436778  0.20534256  1
  F  F89  1  0.94708237  0.30563222  0.70534256  1
  F  F90  1  0.55563222  0.30291763  0.45534256  1
  F  F91  1  0.94436778  0.69708237  0.95534256  1
  F  F92  1  0.94708237  0.69436778  0.79465744  1
  F  F93  1  0.55291763  0.30563222  0.29465744  1
  F  F94  1  0.94436778  0.30291763  0.54465744  1
  F  F95  1  0.55563222  0.69708237  0.04465744  1
  F  F96  1  0.44708237  0.30563222  0.79465744  1
  F  F97  1  0.05291763  0.69436778  0.29465744  1
  F  F98  1  0.44436778  0.69708237  0.54465744  1
  F  F99  1  0.05563222  0.30291763  0.04465744  1
  F  F100  1  0.05291763  0.30563222  0.20534256  1
  F  F101  1  0.44708237  0.69436778  0.70534256  1
  F  F102  1  0.05563222  0.69708237  0.45534256  1
  F  F103  1  0.44436778  0.30291763  0.95534256  1
  F  F104  1  0.00000000  0.25000000  0.12500000  1
  F  F105  1  0.00000000  0.75000000  0.37500000  1
  F  F106  1  0.00000000  0.75000000  0.87500000  1
  F  F107  1  0.00000000  0.25000000  0.62500000  1
  F  F108  1  0.50000000  0.75000000  0.62500000  1
  F  F109  1  0.50000000  0.25000000  0.87500000  1
  F  F110  1  0.50000000  0.25000000  0.37500000  1
  F  F111  1  0.50000000  0.75000000  0.12500000  1
  Li  Li112  1  0.93864913  0.00000000  0.25000000  1
  Li  Li113  1  0.56135087  0.00000000  0.75000000  1
  Li  Li114  1  0.25000000  0.68864913  0.50000000  1
  Li  Li115  1  0.25000000  0.31135087  0.00000000  1
  Li  Li116  1  0.06135087  0.00000000  0.75000000  1
  Li  Li117  1  0.43864913  0.00000000  0.25000000  1
  Li  Li118  1  0.75000000  0.31135087  0.50000000  1
  Li  Li119  1  0.75000000  0.68864913  -0.00000000  1
  Li  Li120  1  0.43864913  0.50000000  0.75000000  1
  Li  Li121  1  0.06135087  0.50000000  0.25000000  1
  Li  Li122  1  0.75000000  0.18864913  -0.00000000  1
  Li  Li123  1  0.75000000  0.81135087  0.50000000  1
  Li  Li124  1  0.56135087  0.50000000  0.25000000  1
  Li  Li125  1  0.93864913  0.50000000  0.75000000  1
  Li  Li126  1  0.25000000  0.81135087  0.00000000  1
  Li  Li127  1  0.25000000  0.18864913  0.50000000  1
  Li  Li128  1  0.91031789  0.16031789  0.12500000  1
  Li  Li129  1  0.58968211  0.83968211  0.62500000  1
  Li  Li130  1  0.08968211  0.66031789  0.37500000  1
  Li  Li131  1  0.41031789  0.33968211  0.87500000  1
  Li  Li132  1  0.08968211  0.83968211  0.87500000  1
  Li  Li133  1  0.41031789  0.16031789  0.37500000  1
  Li  Li134  1  0.91031789  0.33968211  0.62500000  1
  Li  Li135  1  0.58968211  0.66031789  0.12500000  1
  Li  Li136  1  0.41031789  0.66031789  0.62500000  1
  Li  Li137  1  0.08968211  0.33968211  0.12500000  1
  Li  Li138  1  0.58968211  0.16031789  0.87500000  1
  Li  Li139  1  0.91031789  0.83968211  0.37500000  1
  Li  Li140  1  0.58968211  0.33968211  0.37500000  1
  Li  Li141  1  0.91031789  0.66031789  0.87500000  1
  Li  Li142  1  0.41031789  0.83968211  0.12500000  1
  Li  Li143  1  0.08968211  0.16031789  0.62500000  1
  Mg  Mg144  1  0.44530549  0.69530549  0.12500000  1
  Mg  Mg145  1  0.05469451  0.30469451  0.62500000  1
  Mg  Mg146  1  0.55469451  0.19530549  0.37500000  1
  Mg  Mg147  1  0.94530549  0.80469451  0.87500000  1
  Mg  Mg148  1  0.55469451  0.30469451  0.87500000  1
  Mg  Mg149  1  0.94530549  0.69530549  0.37500000  1
  Mg  Mg150  1  0.44530549  0.80469451  0.62500000  1
  Mg  Mg151  1  0.05469451  0.19530549  0.12500000  1
  Mg  Mg152  1  0.94530549  0.19530549  0.62500000  1
  Mg  Mg153  1  0.55469451  0.80469451  0.12500000  1
  Mg  Mg154  1  0.05469451  0.69530549  0.87500000  1
  Mg  Mg155  1  0.44530549  0.30469451  0.37500000  1
  Mg  Mg156  1  0.05469451  0.80469451  0.37500000  1
  Mg  Mg157  1  0.44530549  0.19530549  0.87500000  1
  Mg  Mg158  1  0.94530549  0.30469451  0.12500000  1
  Mg  Mg159  1  0.55469451  0.69530549  0.62500000  1
