# generated using pymatgen
data_NaLi3I4
_symmetry_space_group_name_H-M   'P 1'
_cell_length_a   13.55447772
_cell_length_b   13.55447772
_cell_length_c   13.55447772
_cell_angle_alpha   90.00000000
_cell_angle_beta   90.00000000
_cell_angle_gamma   90.00000000
_symmetry_Int_Tables_number   1
_chemical_formula_structural   NaLi3I4
_chemical_formula_sum   'Na16 Li48 I64'
_cell_volume   2490.28105453
_cell_formula_units_Z   16
loop_
 _symmetry_equiv_pos_site_id
 _symmetry_equiv_pos_as_xyz
  1  'x, y, z'
loop_
 _atom_site_type_symbol
 _atom_site_label
 _atom_site_symmetry_multiplicity
 _atom_site_fract_x
 _atom_site_fract_y
 _atom_site_fract_z
 _atom_site_occupancy
  I  I0  1  0.50551360  0.12500000  0.12500000  1
  I  I1  1  0.24448640  0.12500000  0.62500000  1
  I  I2  1  0.12500000  0.50551360  0.12500000  1
  I  I3  1  0.62500000  0.24448640  0.12500000  1
  I  I4  1  0.12500000  0.12500000  0.50551360  1
  I  I5  1  0.12500000  0.62500000  0.24448640  1
  I  I6  1  0.87500000  0.75551360  0.37500000  1
  I  I7  1  0.87500000  0.49448640  0.87500000  1
  I  I8  1  0.25551360  0.37500000  0.37500000  1
  I  I9  1  0.99448640  0.87500000  0.37500000  1
  I  I10  1  0.87500000  0.37500000  0.99448640  1
  I  I11  1  0.37500000  0.37500000  0.25551360  1
  I  I12  1  0.50551360  0.62500000  0.62500000  1
  I  I13  1  0.24448640  0.62500000  0.12500000  1
  I  I14  1  0.12500000  0.00551360  0.62500000  1
  I  I15  1  0.62500000  0.74448640  0.62500000  1
  I  I16  1  0.12500000  0.62500000  0.00551360  1
  I  I17  1  0.12500000  0.12500000  0.74448640  1
  I  I18  1  0.87500000  0.25551360  0.87500000  1
  I  I19  1  0.87500000  0.99448640  0.37500000  1
  I  I20  1  0.25551360  0.87500000  0.87500000  1
  I  I21  1  0.99448640  0.37500000  0.87500000  1
  I  I22  1  0.87500000  0.87500000  0.49448640  1
  I  I23  1  0.37500000  0.87500000  0.75551360  1
  I  I24  1  0.00551360  0.12500000  0.62500000  1
  I  I25  1  0.74448640  0.12500000  0.12500000  1
  I  I26  1  0.62500000  0.50551360  0.62500000  1
  I  I27  1  0.12500000  0.24448640  0.62500000  1
  I  I28  1  0.62500000  0.12500000  0.00551360  1
  I  I29  1  0.62500000  0.62500000  0.74448640  1
  I  I30  1  0.37500000  0.75551360  0.87500000  1
  I  I31  1  0.37500000  0.49448640  0.37500000  1
  I  I32  1  0.75551360  0.37500000  0.87500000  1
  I  I33  1  0.49448640  0.87500000  0.87500000  1
  I  I34  1  0.37500000  0.37500000  0.49448640  1
  I  I35  1  0.87500000  0.37500000  0.75551360  1
  I  I36  1  0.00551360  0.62500000  0.12500000  1
  I  I37  1  0.74448640  0.62500000  0.62500000  1
  I  I38  1  0.62500000  0.00551360  0.12500000  1
  I  I39  1  0.12500000  0.74448640  0.12500000  1
  I  I40  1  0.62500000  0.62500000  0.50551360  1
  I  I41  1  0.62500000  0.12500000  0.24448640  1
  I  I42  1  0.37500000  0.25551360  0.37500000  1
  I  I43  1  0.37500000  0.99448640  0.87500000  1
  I  I44  1  0.75551360  0.87500000  0.37500000  1
  I  I45  1  0.49448640  0.37500000  0.37500000  1
  I  I46  1  0.37500000  0.87500000  0.99448640  1
  I  I47  1  0.87500000  0.87500000  0.25551360  1
  I  I48  1  0.00000000  0.00000000  0.00000000  1
  I  I49  1  0.75000000  0.25000000  0.50000000  1
  I  I50  1  0.25000000  0.50000000  0.75000000  1
  I  I51  1  0.50000000  0.75000000  0.25000000  1
  I  I52  1  0.00000000  0.50000000  0.50000000  1
  I  I53  1  0.75000000  0.75000000  0.00000000  1
  I  I54  1  0.25000000  0.00000000  0.25000000  1
  I  I55  1  0.50000000  0.25000000  0.75000000  1
  I  I56  1  0.50000000  0.00000000  0.50000000  1
  I  I57  1  0.25000000  0.25000000  0.00000000  1
  I  I58  1  0.75000000  0.50000000  0.25000000  1
  I  I59  1  0.00000000  0.75000000  0.75000000  1
  I  I60  1  0.50000000  0.50000000  0.00000000  1
  I  I61  1  0.25000000  0.75000000  0.50000000  1
  I  I62  1  0.75000000  0.00000000  0.75000000  1
  I  I63  1  0.00000000  0.25000000  0.25000000  1
  Li  Li64  1  0.95922771  0.12500000  0.12500000  1
  Li  Li65  1  -0.20922771  0.12500000  0.62500000  1
  Li  Li66  1  0.12500000  0.95922771  0.12500000  1
  Li  Li67  1  0.62500000  -0.20922771  0.12500000  1
  Li  Li68  1  0.12500000  0.12500000  0.95922771  1
  Li  Li69  1  0.12500000  0.62500000  -0.20922771  1
  Li  Li70  1  0.87500000  1.20922771  0.37500000  1
  Li  Li71  1  0.87500000  -0.95922771  0.87500000  1
  Li  Li72  1  1.70922771  0.37500000  0.37500000  1
  Li  Li73  1  -0.45922771  0.87500000  0.37500000  1
  Li  Li74  1  0.87500000  0.37500000  -0.45922771  1
  Li  Li75  1  0.37500000  0.37500000  1.70922771  1
  Li  Li76  1  0.95922771  0.62500000  0.62500000  1
  Li  Li77  1  -0.20922771  0.62500000  1.12500000  1
  Li  Li78  1  0.12500000  1.45922771  0.62500000  1
  Li  Li79  1  0.62500000  0.29077229  0.62500000  1
  Li  Li80  1  0.12500000  0.62500000  1.45922771  1
  Li  Li81  1  0.12500000  1.12500000  0.29077229  1
  Li  Li82  1  0.87500000  1.70922771  0.87500000  1
  Li  Li83  1  0.87500000  -0.45922771  1.37500000  1
  Li  Li84  1  1.70922771  0.87500000  0.87500000  1
  Li  Li85  1  -0.45922771  1.37500000  0.87500000  1
  Li  Li86  1  0.87500000  0.87500000  0.04077229  1
  Li  Li87  1  0.37500000  0.87500000  2.20922771  1
  Li  Li88  1  1.45922771  0.12500000  0.62500000  1
  Li  Li89  1  0.29077229  0.12500000  1.12500000  1
  Li  Li90  1  0.62500000  0.95922771  0.62500000  1
  Li  Li91  1  1.12500000  -0.20922771  0.62500000  1
  Li  Li92  1  0.62500000  0.12500000  1.45922771  1
  Li  Li93  1  0.62500000  0.62500000  0.29077229  1
  Li  Li94  1  1.37500000  1.20922771  0.87500000  1
  Li  Li95  1  1.37500000  -0.95922771  1.37500000  1
  Li  Li96  1  2.20922771  0.37500000  0.87500000  1
  Li  Li97  1  0.04077229  0.87500000  0.87500000  1
  Li  Li98  1  1.37500000  0.37500000  0.04077229  1
  Li  Li99  1  0.87500000  0.37500000  2.20922771  1
  Li  Li100  1  1.45922771  0.62500000  0.12500000  1
  Li  Li101  1  0.29077229  0.62500000  0.62500000  1
  Li  Li102  1  0.62500000  1.45922771  0.12500000  1
  Li  Li103  1  1.12500000  0.29077229  0.12500000  1
  Li  Li104  1  0.62500000  0.62500000  0.95922771  1
  Li  Li105  1  0.62500000  1.12500000  -0.20922771  1
  Li  Li106  1  1.37500000  1.70922771  0.37500000  1
  Li  Li107  1  1.37500000  -0.45922771  0.87500000  1
  Li  Li108  1  2.20922771  0.87500000  0.37500000  1
  Li  Li109  1  0.04077229  1.37500000  0.37500000  1
  Li  Li110  1  1.37500000  0.87500000  -0.45922771  1
  Li  Li111  1  0.87500000  0.87500000  1.70922771  1
  Na  Na112  1  0.50000000  0.50000000  0.50000000  1
  Na  Na113  1  0.25000000  0.75000000  0.00000000  1
  Na  Na114  1  0.75000000  0.00000000  0.25000000  1
  Na  Na115  1  0.00000000  0.25000000  0.75000000  1
  Na  Na116  1  0.50000000  0.00000000  0.00000000  1
  Na  Na117  1  0.25000000  0.25000000  0.50000000  1
  Na  Na118  1  0.75000000  0.50000000  0.75000000  1
  Na  Na119  1  0.00000000  0.75000000  0.25000000  1
  Na  Na120  1  0.00000000  0.50000000  0.00000000  1
  Na  Na121  1  0.75000000  0.75000000  0.50000000  1
  Na  Na122  1  0.25000000  0.00000000  0.75000000  1
  Na  Na123  1  0.50000000  0.25000000  0.25000000  1
  Na  Na124  1  0.00000000  0.00000000  0.50000000  1
  Na  Na125  1  0.75000000  0.25000000  0.00000000  1
  Na  Na126  1  0.25000000  0.50000000  0.25000000  1
  Na  Na127  1  0.50000000  0.75000000  0.75000000  1
