# generated using pymatgen
data_Li2Se
_symmetry_space_group_name_H-M   'P 1'
_cell_length_a   17.82154776
_cell_length_b   17.82154776
_cell_length_c   17.82154776
_cell_angle_alpha   90.00000000
_cell_angle_beta   90.00000000
_cell_angle_gamma   90.00000000
_symmetry_Int_Tables_number   1
_chemical_formula_structural   Li2Se
_chemical_formula_sum   'Li192 Se96'
_cell_volume   5660.25838096
_cell_formula_units_Z   96
loop_
 _symmetry_equiv_pos_site_id
 _symmetry_equiv_pos_as_xyz
  1  'x, y, z'
loop_
 _atom_site_type_symbol
 _atom_site_label
 _atom_site_symmetry_multiplicity
 _atom_site_fract_x
 _atom_site_fract_y
 _atom_site_fract_z
 _atom_site_occupancy
  Li  Li0  1  0.95668509  -0.00000000  0.25000000  1
  Li  Li1  1  0.54331491  0.00000000  0.75000000  1
  Li  Li2  1  0.25000000  0.95668509  -0.00000000  1
  Li  Li3  1  0.75000000  0.54331491  0.00000000  1
  Li  Li4  1  0.00000000  0.25000000  0.95668509  1
  Li  Li5  1  0.00000000  0.75000000  0.54331491  1
  Li  Li6  1  0.75000000  0.20668509  -0.00000000  1
  Li  Li7  1  0.75000000  0.79331491  0.50000000  1
  Li  Li8  1  0.70668509  0.50000000  0.25000000  1
  Li  Li9  1  0.29331491  0.00000000  0.25000000  1
  Li  Li10  1  0.00000000  0.25000000  0.29331491  1
  Li  Li11  1  0.50000000  0.25000000  0.70668509  1
  Li  Li12  1  0.04331491  -0.00000000  0.75000000  1
  Li  Li13  1  0.45668509  0.00000000  0.25000000  1
  Li  Li14  1  0.75000000  0.04331491  -0.00000000  1
  Li  Li15  1  0.25000000  0.45668509  -0.00000000  1
  Li  Li16  1  0.00000000  0.75000000  0.04331491  1
  Li  Li17  1  0.00000000  0.25000000  0.45668509  1
  Li  Li18  1  0.25000000  0.79331491  0.00000000  1
  Li  Li19  1  0.25000000  0.20668509  0.50000000  1
  Li  Li20  1  0.29331491  0.50000000  0.75000000  1
  Li  Li21  1  0.70668509  0.00000000  0.75000000  1
  Li  Li22  1  0.00000000  0.75000000  0.70668509  1
  Li  Li23  1  0.50000000  0.75000000  0.29331491  1
  Li  Li24  1  0.45668509  0.50000000  0.75000000  1
  Li  Li25  1  0.04331491  0.50000000  0.25000000  1
  Li  Li26  1  0.75000000  0.45668509  0.50000000  1
  Li  Li27  1  0.25000000  0.04331491  0.50000000  1
  Li  Li28  1  0.50000000  0.75000000  0.45668509  1
  Li  Li29  1  0.50000000  0.25000000  0.04331491  1
  Li  Li30  1  0.25000000  0.70668509  0.50000000  1
  Li  Li31  1  0.25000000  0.29331491  0.00000000  1
  Li  Li32  1  0.20668509  -0.00000000  0.75000000  1
  Li  Li33  1  0.79331491  0.50000000  0.75000000  1
  Li  Li34  1  0.50000000  0.75000000  0.79331491  1
  Li  Li35  1  0.00000000  0.75000000  0.20668509  1
  Li  Li36  1  0.54331491  0.50000000  0.25000000  1
  Li  Li37  1  0.95668509  0.50000000  0.75000000  1
  Li  Li38  1  0.25000000  0.54331491  0.50000000  1
  Li  Li39  1  0.75000000  0.95668509  0.50000000  1
  Li  Li40  1  0.50000000  0.25000000  0.54331491  1
  Li  Li41  1  0.50000000  0.75000000  0.95668509  1
  Li  Li42  1  0.75000000  0.29331491  0.50000000  1
  Li  Li43  1  0.75000000  0.70668509  -0.00000000  1
  Li  Li44  1  0.79331491  0.00000000  0.25000000  1
  Li  Li45  1  0.20668509  0.50000000  0.25000000  1
  Li  Li46  1  0.50000000  0.25000000  0.20668509  1
  Li  Li47  1  0.00000000  0.25000000  0.79331491  1
  Li  Li48  1  0.45302778  0.71430257  0.03178432  1
  Li  Li49  1  0.04697222  0.28569743  0.53178432  1
  Li  Li50  1  0.54697222  0.21430257  0.46821568  1
  Li  Li51  1  0.95302778  0.78569743  0.96821568  1
  Li  Li52  1  0.03178432  0.45302778  0.71430257  1
  Li  Li53  1  0.53178432  0.04697222  0.28569743  1
  Li  Li54  1  0.46821568  0.54697222  0.21430257  1
  Li  Li55  1  0.96821568  0.95302778  0.78569743  1
  Li  Li56  1  0.71430257  0.03178432  0.45302778  1
  Li  Li57  1  0.28569743  0.53178432  0.04697222  1
  Li  Li58  1  0.21430257  0.46821568  0.54697222  1
  Li  Li59  1  0.78569743  0.96821568  0.95302778  1
  Li  Li60  1  0.46430257  0.70302778  0.21821568  1
  Li  Li61  1  0.03569743  0.29697222  0.71821568  1
  Li  Li62  1  0.96430257  0.79697222  0.78178432  1
  Li  Li63  1  0.53569743  0.20302778  0.28178432  1
  Li  Li64  1  0.20302778  0.28178432  0.53569743  1
  Li  Li65  1  0.79697222  0.78178432  0.96430257  1
  Li  Li66  1  0.29697222  0.71821568  0.03569743  1
  Li  Li67  1  0.70302778  0.21821568  0.46430257  1
  Li  Li68  1  0.78178432  0.96430257  0.79697222  1
  Li  Li69  1  0.28178432  0.53569743  0.20302778  1
  Li  Li70  1  0.21821568  0.46430257  0.70302778  1
  Li  Li71  1  0.71821568  0.03569743  0.29697222  1
  Li  Li72  1  0.54697222  0.28569743  0.96821568  1
  Li  Li73  1  0.95302778  0.71430257  0.46821568  1
  Li  Li74  1  0.45302778  0.78569743  0.53178432  1
  Li  Li75  1  0.04697222  0.21430257  0.03178432  1
  Li  Li76  1  0.96821568  0.54697222  0.28569743  1
  Li  Li77  1  0.46821568  0.95302778  0.71430257  1
  Li  Li78  1  0.53178432  0.45302778  0.78569743  1
  Li  Li79  1  0.03178432  0.04697222  0.21430257  1
  Li  Li80  1  0.28569743  0.96821568  0.54697222  1
  Li  Li81  1  0.71430257  0.46821568  0.95302778  1
  Li  Li82  1  0.78569743  0.53178432  0.45302778  1
  Li  Li83  1  0.21430257  0.03178432  0.04697222  1
  Li  Li84  1  0.53569743  0.29697222  0.78178432  1
  Li  Li85  1  0.96430257  0.70302778  0.28178432  1
  Li  Li86  1  0.03569743  0.20302778  0.21821568  1
  Li  Li87  1  0.46430257  0.79697222  0.71821568  1
  Li  Li88  1  0.79697222  0.71821568  0.46430257  1
  Li  Li89  1  0.20302778  0.21821568  0.03569743  1
  Li  Li90  1  0.70302778  0.28178432  0.96430257  1
  Li  Li91  1  0.29697222  0.78178432  0.53569743  1
  Li  Li92  1  0.21821568  0.03569743  0.20302778  1
  Li  Li93  1  0.71821568  0.46430257  0.79697222  1
  Li  Li94  1  0.78178432  0.53569743  0.29697222  1
  Li  Li95  1  0.28178432  0.96430257  0.70302778  1
  Li  Li96  1  0.95302778  0.21430257  0.53178432  1
  Li  Li97  1  0.54697222  0.78569743  0.03178432  1
  Li  Li98  1  0.04697222  0.71430257  0.96821568  1
  Li  Li99  1  0.45302778  0.28569743  0.46821568  1
  Li  Li100  1  0.53178432  0.95302778  0.21430257  1
  Li  Li101  1  0.03178432  0.54697222  0.78569743  1
  Li  Li102  1  0.96821568  0.04697222  0.71430257  1
  Li  Li103  1  0.46821568  0.45302778  0.28569743  1
  Li  Li104  1  0.21430257  0.53178432  0.95302778  1
  Li  Li105  1  0.78569743  0.03178432  0.54697222  1
  Li  Li106  1  0.71430257  0.96821568  0.04697222  1
  Li  Li107  1  0.28569743  0.46821568  0.45302778  1
  Li  Li108  1  0.96430257  0.20302778  0.71821568  1
  Li  Li109  1  0.53569743  0.79697222  0.21821568  1
  Li  Li110  1  0.46430257  0.29697222  0.28178432  1
  Li  Li111  1  0.03569743  0.70302778  0.78178432  1
  Li  Li112  1  0.70302778  0.78178432  0.03569743  1
  Li  Li113  1  0.29697222  0.28178432  0.46430257  1
  Li  Li114  1  0.79697222  0.21821568  0.53569743  1
  Li  Li115  1  0.20302778  0.71821568  0.96430257  1
  Li  Li116  1  0.28178432  0.46430257  0.29697222  1
  Li  Li117  1  0.78178432  0.03569743  0.70302778  1
  Li  Li118  1  0.71821568  0.96430257  0.20302778  1
  Li  Li119  1  0.21821568  0.53569743  0.79697222  1
  Li  Li120  1  0.04697222  0.78569743  0.46821568  1
  Li  Li121  1  0.45302778  0.21430257  0.96821568  1
  Li  Li122  1  0.95302778  0.28569743  0.03178432  1
  Li  Li123  1  0.54697222  0.71430257  0.53178432  1
  Li  Li124  1  0.46821568  0.04697222  0.78569743  1
  Li  Li125  1  0.96821568  0.45302778  0.21430257  1
  Li  Li126  1  0.03178432  0.95302778  0.28569743  1
  Li  Li127  1  0.53178432  0.54697222  0.71430257  1
  Li  Li128  1  0.78569743  0.46821568  0.04697222  1
  Li  Li129  1  0.21430257  0.96821568  0.45302778  1
  Li  Li130  1  0.28569743  0.03178432  0.95302778  1
  Li  Li131  1  0.71430257  0.53178432  0.54697222  1
  Li  Li132  1  0.03569743  0.79697222  0.28178432  1
  Li  Li133  1  0.46430257  0.20302778  0.78178432  1
  Li  Li134  1  0.53569743  0.70302778  0.71821568  1
  Li  Li135  1  0.96430257  0.29697222  0.21821568  1
  Li  Li136  1  0.29697222  0.21821568  0.96430257  1
  Li  Li137  1  0.70302778  0.71821568  0.53569743  1
  Li  Li138  1  0.20302778  0.78178432  0.46430257  1
  Li  Li139  1  0.79697222  0.28178432  0.03569743  1
  Li  Li140  1  0.71821568  0.53569743  0.70302778  1
  Li  Li141  1  0.21821568  0.96430257  0.29697222  1
  Li  Li142  1  0.28178432  0.03569743  0.79697222  1
  Li  Li143  1  0.78178432  0.46430257  0.20302778  1
  Li  Li144  1  0.37500000  -0.00000000  0.25000000  1
  Li  Li145  1  0.12500000  0.00000000  0.75000000  1
  Li  Li146  1  0.25000000  0.37500000  0.00000000  1
  Li  Li147  1  0.75000000  0.12500000  -0.00000000  1
  Li  Li148  1  0.00000000  0.25000000  0.37500000  1
  Li  Li149  1  0.00000000  0.75000000  0.12500000  1
  Li  Li150  1  0.75000000  0.62500000  -0.00000000  1
  Li  Li151  1  0.75000000  0.37500000  0.50000000  1
  Li  Li152  1  0.12500000  0.50000000  0.25000000  1
  Li  Li153  1  0.87500000  0.00000000  0.25000000  1
  Li  Li154  1  0.00000000  0.25000000  0.87500000  1
  Li  Li155  1  0.50000000  0.25000000  0.12500000  1
  Li  Li156  1  0.87500000  0.50000000  0.75000000  1
  Li  Li157  1  0.62500000  0.50000000  0.25000000  1
  Li  Li158  1  0.75000000  0.87500000  0.50000000  1
  Li  Li159  1  0.25000000  0.62500000  0.50000000  1
  Li  Li160  1  0.50000000  0.75000000  0.87500000  1
  Li  Li161  1  0.50000000  0.25000000  0.62500000  1
  Li  Li162  1  0.25000000  0.12500000  0.50000000  1
  Li  Li163  1  0.25000000  0.87500000  0.00000000  1
  Li  Li164  1  0.62500000  0.00000000  0.75000000  1
  Li  Li165  1  0.37500000  0.50000000  0.75000000  1
  Li  Li166  1  0.50000000  0.75000000  0.37500000  1
  Li  Li167  1  0.00000000  0.75000000  0.62500000  1
  Li  Li168  1  0.12500000  0.00000000  0.25000000  1
  Li  Li169  1  0.37500000  -0.00000000  0.75000000  1
  Li  Li170  1  0.25000000  0.12500000  -0.00000000  1
  Li  Li171  1  0.75000000  0.37500000  -0.00000000  1
  Li  Li172  1  0.00000000  0.25000000  0.12500000  1
  Li  Li173  1  0.00000000  0.75000000  0.37500000  1
  Li  Li174  1  0.87500000  0.00000000  0.75000000  1
  Li  Li175  1  0.62500000  0.00000000  0.25000000  1
  Li  Li176  1  0.75000000  0.87500000  -0.00000000  1
  Li  Li177  1  0.25000000  0.62500000  0.00000000  1
  Li  Li178  1  0.00000000  0.75000000  0.87500000  1
  Li  Li179  1  0.00000000  0.25000000  0.62500000  1
  Li  Li180  1  0.62500000  0.50000000  0.75000000  1
  Li  Li181  1  0.87500000  0.50000000  0.25000000  1
  Li  Li182  1  0.75000000  0.62500000  0.50000000  1
  Li  Li183  1  0.25000000  0.87500000  0.50000000  1
  Li  Li184  1  0.50000000  0.75000000  0.62500000  1
  Li  Li185  1  0.50000000  0.25000000  0.87500000  1
  Li  Li186  1  0.37500000  0.50000000  0.25000000  1
  Li  Li187  1  0.12500000  0.50000000  0.75000000  1
  Li  Li188  1  0.25000000  0.37500000  0.50000000  1
  Li  Li189  1  0.75000000  0.12500000  0.50000000  1
  Li  Li190  1  0.50000000  0.25000000  0.37500000  1
  Li  Li191  1  0.50000000  0.75000000  0.12500000  1
  Se  Se192  1  0.91302241  0.03812737  0.07295426  1
  Se  Se193  1  -0.41302241  -0.03812737  0.57295426  1
  Se  Se194  1  -0.91302241  0.53812737  0.42704574  1
  Se  Se195  1  1.41302241  0.46187263  -0.07295426  1
  Se  Se196  1  0.07295426  0.91302241  0.03812737  1
  Se  Se197  1  0.57295426  -0.41302241  -0.03812737  1
  Se  Se198  1  0.42704574  -0.91302241  0.53812737  1
  Se  Se199  1  -0.07295426  1.41302241  0.46187263  1
  Se  Se200  1  0.03812737  0.07295426  0.91302241  1
  Se  Se201  1  -0.03812737  0.57295426  -0.41302241  1
  Se  Se202  1  0.53812737  0.42704574  -0.91302241  1
  Se  Se203  1  0.46187263  -0.07295426  1.41302241  1
  Se  Se204  1  0.78812737  1.16302241  0.17704574  1
  Se  Se205  1  0.71187263  -0.16302241  0.67704574  1
  Se  Se206  1  0.28812737  -0.66302241  0.82295426  1
  Se  Se207  1  0.21187263  1.66302241  0.32295426  1
  Se  Se208  1  1.66302241  0.32295426  0.21187263  1
  Se  Se209  1  -0.66302241  0.82295426  0.28812737  1
  Se  Se210  1  -0.16302241  0.67704574  0.71187263  1
  Se  Se211  1  1.16302241  0.17704574  0.78812737  1
  Se  Se212  1  0.82295426  0.28812737  -0.66302241  1
  Se  Se213  1  0.32295426  0.21187263  1.66302241  1
  Se  Se214  1  0.17704574  0.78812737  1.16302241  1
  Se  Se215  1  0.67704574  0.71187263  -0.16302241  1
  Se  Se216  1  -0.91302241  -0.03812737  -0.07295426  1
  Se  Se217  1  1.41302241  0.03812737  0.42704574  1
  Se  Se218  1  0.91302241  0.46187263  0.57295426  1
  Se  Se219  1  -0.41302241  0.53812737  0.07295426  1
  Se  Se220  1  -0.07295426  -0.91302241  -0.03812737  1
  Se  Se221  1  0.42704574  1.41302241  0.03812737  1
  Se  Se222  1  0.57295426  0.91302241  0.46187263  1
  Se  Se223  1  0.07295426  -0.41302241  0.53812737  1
  Se  Se224  1  -0.03812737  -0.07295426  -0.91302241  1
  Se  Se225  1  0.03812737  0.42704574  1.41302241  1
  Se  Se226  1  0.46187263  0.57295426  0.91302241  1
  Se  Se227  1  0.53812737  0.07295426  -0.41302241  1
  Se  Se228  1  0.21187263  -0.16302241  0.82295426  1
  Se  Se229  1  0.28812737  1.16302241  0.32295426  1
  Se  Se230  1  0.71187263  1.66302241  0.17704574  1
  Se  Se231  1  0.78812737  -0.66302241  0.67704574  1
  Se  Se232  1  -0.66302241  0.67704574  0.78812737  1
  Se  Se233  1  1.66302241  0.17704574  0.71187263  1
  Se  Se234  1  1.16302241  0.32295426  0.28812737  1
  Se  Se235  1  -0.16302241  0.82295426  0.21187263  1
  Se  Se236  1  0.17704574  0.71187263  1.66302241  1
  Se  Se237  1  0.67704574  0.78812737  -0.66302241  1
  Se  Se238  1  0.82295426  0.21187263  -0.16302241  1
  Se  Se239  1  0.32295426  0.28812737  1.16302241  1
  Se  Se240  1  1.41302241  0.53812737  0.57295426  1
  Se  Se241  1  0.08697759  0.46187263  1.07295426  1
  Se  Se242  1  -0.41302241  1.03812737  0.92704574  1
  Se  Se243  1  1.91302241  0.96187263  0.42704574  1
  Se  Se244  1  0.57295426  1.41302241  0.53812737  1
  Se  Se245  1  1.07295426  0.08697759  0.46187263  1
  Se  Se246  1  0.92704574  -0.41302241  1.03812737  1
  Se  Se247  1  0.42704574  1.91302241  0.96187263  1
  Se  Se248  1  0.53812737  0.57295426  1.41302241  1
  Se  Se249  1  0.46187263  1.07295426  0.08697759  1
  Se  Se250  1  1.03812737  0.92704574  -0.41302241  1
  Se  Se251  1  0.96187263  0.42704574  1.91302241  1
  Se  Se252  1  1.28812737  1.66302241  0.67704574  1
  Se  Se253  1  1.21187263  0.33697759  1.17704574  1
  Se  Se254  1  0.78812737  -0.16302241  1.32295426  1
  Se  Se255  1  0.71187263  2.16302241  0.82295426  1
  Se  Se256  1  2.16302241  0.82295426  0.71187263  1
  Se  Se257  1  -0.16302241  1.32295426  0.78812737  1
  Se  Se258  1  0.33697759  1.17704574  1.21187263  1
  Se  Se259  1  1.66302241  0.67704574  1.28812737  1
  Se  Se260  1  1.32295426  0.78812737  -0.16302241  1
  Se  Se261  1  0.82295426  0.71187263  2.16302241  1
  Se  Se262  1  0.67704574  1.28812737  1.66302241  1
  Se  Se263  1  1.17704574  1.21187263  0.33697759  1
  Se  Se264  1  -0.41302241  0.46187263  0.42704574  1
  Se  Se265  1  1.91302241  0.53812737  0.92704574  1
  Se  Se266  1  1.41302241  0.96187263  1.07295426  1
  Se  Se267  1  0.08697759  1.03812737  0.57295426  1
  Se  Se268  1  0.42704574  -0.41302241  0.46187263  1
  Se  Se269  1  0.92704574  1.91302241  0.53812737  1
  Se  Se270  1  1.07295426  1.41302241  0.96187263  1
  Se  Se271  1  0.57295426  0.08697759  1.03812737  1
  Se  Se272  1  0.46187263  0.42704574  -0.41302241  1
  Se  Se273  1  0.53812737  0.92704574  1.91302241  1
  Se  Se274  1  0.96187263  1.07295426  1.41302241  1
  Se  Se275  1  1.03812737  0.57295426  0.08697759  1
  Se  Se276  1  0.71187263  0.33697759  1.32295426  1
  Se  Se277  1  0.78812737  1.66302241  0.82295426  1
  Se  Se278  1  1.21187263  2.16302241  0.67704574  1
  Se  Se279  1  1.28812737  -0.16302241  1.17704574  1
  Se  Se280  1  -0.16302241  1.17704574  1.28812737  1
  Se  Se281  1  2.16302241  0.67704574  1.21187263  1
  Se  Se282  1  1.66302241  0.82295426  0.78812737  1
  Se  Se283  1  0.33697759  1.32295426  0.71187263  1
  Se  Se284  1  0.67704574  1.21187263  2.16302241  1
  Se  Se285  1  1.17704574  1.28812737  -0.16302241  1
  Se  Se286  1  1.32295426  0.71187263  0.33697759  1
  Se  Se287  1  0.82295426  0.78812737  1.66302241  1
