# generated using pymatgen
data_Li2O
_symmetry_space_group_name_H-M   'P 1'
_cell_length_a   8.48260564
_cell_length_b   7.51558086
_cell_length_c   6.65981780
_cell_angle_alpha   90.00000000
_cell_angle_beta   90.00000000
_cell_angle_gamma   90.00000000
_symmetry_Int_Tables_number   1
_chemical_formula_structural   Li2O
_chemical_formula_sum   'Li16 O8'
_cell_volume   424.57476348
_cell_formula_units_Z   8
loop_
 _symmetry_equiv_pos_site_id
 _symmetry_equiv_pos_as_xyz
  1  'x, y, z'
loop_
 _atom_site_type_symbol
 _atom_site_label
 _atom_site_symmetry_multiplicity
 _atom_site_fract_x
 _atom_site_fract_y
 _atom_site_fract_z
 _atom_site_occupancy
  Li  Li0  1  0.37735205  0.40007740  0.77818294  1
  Li  Li1  1  -0.37735205  -0.40007740  0.77818294  1
  Li  Li2  1  0.12264795  0.90007740  -0.77818294  1
  Li  Li3  1  0.87735205  0.09992260  -0.77818294  1
  Li  Li4  1  -0.37735205  -0.40007740  -0.77818294  1
  Li  Li5  1  0.37735205  0.40007740  -0.77818294  1
  Li  Li6  1  0.87735205  0.09992260  0.77818294  1
  Li  Li7  1  0.12264795  0.90007740  0.77818294  1
  Li  Li8  1  0.50542409  0.15343722  0.84515781  1
  Li  Li9  1  0.49457591  0.84656278  0.84515781  1
  Li  Li10  1  0.99457591  0.65343722  0.15484219  1
  Li  Li11  1  0.00542409  0.34656278  0.15484219  1
  Li  Li12  1  0.49457591  0.84656278  0.15484219  1
  Li  Li13  1  0.50542409  0.15343722  0.15484219  1
  Li  Li14  1  0.00542409  0.34656278  0.84515781  1
  Li  Li15  1  0.99457591  0.65343722  0.84515781  1
  O  O16  1  0.86568090  0.69754177  0.87337139  1
  O  O17  1  0.13431910  0.30245823  0.87337139  1
  O  O18  1  0.63431910  0.19754177  0.12662861  1
  O  O19  1  0.36568090  0.80245823  0.12662861  1
  O  O20  1  0.13431910  0.30245823  0.12662861  1
  O  O21  1  0.86568090  0.69754177  0.12662861  1
  O  O22  1  0.36568090  0.80245823  0.87337139  1
  O  O23  1  0.63431910  0.19754177  0.87337139  1
